MODEL 1
REMARK VINA RESULT:     -10.0      0.000      0.000
REMARK SMILES Cc1c(C#N)c2ccccc2n1CC(=O)N1CC[C@H](O)C[C@@H]1C(=O)OCCOCCOCCOC(=O)c1ccc(-c2c3nc(c(-c4cccc(S(=O)(=O)[O-])c4F)c4ccc([nH]4)c(-c4cccc(S(=O)(=O)[O-])c4F)c4nc(c(-c5cccc(S(=O)(=O)[O-])c5F)c5ccc2[nH]5)C=C4)C=C3)cc1
REMARK SMILES IDX 29 1 28 2 27 3 26 4 25 5 23 6 24 7 22 8 16 9 17 10 18 11
REMARK SMILES IDX 21 12 19 13 14 14 15 15 13 16 12 17 1 18 2 19 3 20 6 21
REMARK SMILES IDX 11 22 7 23 10 24 8 25 9 26 4 27 5 28 20 29 30 31 31 32 32 33
REMARK SMILES IDX 33 34 34 35 35 36 36 37 37 38 38 39 99 40 39 41 98 42 40 43
REMARK SMILES IDX 41 44 42 45 92 46 43 47 97 48 91 49 93 50 44 51 96 52 90 53
REMARK SMILES IDX 89 54 45 56 77 57 57 58 76 59 58 60 61 61 75 62 94 63 59 64
REMARK SMILES IDX 60 65 74 67 95 68 62 69 46 70 47 71 55 72 48 73 50 74 56 75
REMARK SMILES IDX 49 76 51 77 52 78 53 79 54 80 78 81 79 82 87 83 80 84 82 85
REMARK SMILES IDX 88 86 81 87 83 88 84 89 85 90 86 91 63 92 64 93 72 94 65 95
REMARK SMILES IDX 67 96 73 97 66 98 68 99 69 100 70 101 71 102
REMARK H PARENT 20 30 93 55 61 66
REMARK Flexibility Score: inf
ROOT
ATOM      1  C   UNL A   1      35.527  34.312  32.202  1.00  0.00     0.188 C 
ENDROOT
BRANCH   1   2
ATOM      2  O   UNL A   1      35.483  33.386  33.287  1.00  0.00    -0.376 OA
BRANCH   2   3
ATOM      3  C   UNL A   1      36.078  33.921  34.456  1.00  0.00     0.202 C 
BRANCH   3   4
ATOM      4  C   UNL A   1      37.587  33.628  34.566  1.00  0.00     0.261 C 
BRANCH   4   5
ATOM      5  O   UNL A   1      38.023  32.449  35.303  1.00  0.00    -0.462 OA
BRANCH   5   6
ATOM      6  C   UNL A   1      39.333  32.420  35.681  1.00  0.00     0.329 C 
ATOM      7  O   UNL A   1      40.167  32.456  34.797  1.00  0.00    -0.250 OA
BRANCH   6   8
ATOM      8  C   UNL A   1      39.658  32.453  37.242  1.00  0.00     0.197 C 
ATOM      9  N   UNL A   1      38.601  33.187  38.145  1.00  0.00    -0.327 N 
ATOM     10  C   UNL A   1      38.783  34.585  38.032  1.00  0.00     0.123 C 
ATOM     11  C   UNL A   1      40.147  35.244  38.122  1.00  0.00     0.053 C 
ATOM     12  C   UNL A   1      41.075  33.101  37.370  1.00  0.00     0.069 C 
ATOM     13  C   UNL A   1      41.080  34.613  37.109  1.00  0.00     0.118 C 
BRANCH   9  14
ATOM     14  C   UNL A   1      37.473  32.658  38.933  1.00  0.00     0.243 C 
ATOM     15  O   UNL A   1      36.746  31.867  38.296  1.00  0.00    -0.273 OA
BRANCH  14  16
ATOM     16  C   UNL A   1      37.150  32.731  40.672  1.00  0.00     0.222 C 
BRANCH  16  17
ATOM     17  N   UNL A   1      37.119  31.765  42.164  1.00  0.00    -0.334 N 
ATOM     18  C   UNL A   1      39.644  31.651  41.712  1.00  0.00     0.066 C 
ATOM     19  C   UNL A   1      38.450  31.335  42.601  1.00  0.00     0.034 A 
ATOM     20  C   UNL A   1      38.577  30.630  43.821  1.00  0.00     0.080 A 
ATOM     21  C   UNL A   1      37.335  30.342  44.435  1.00  0.00     0.018 A 
ATOM     22  C   UNL A   1      36.150  31.422  43.340  1.00  0.00     0.050 A 
ATOM     23  C   UNL A   1      36.610  29.300  45.954  1.00  0.00     0.012 A 
ATOM     24  C   UNL A   1      34.241  31.388  43.936  1.00  0.00     0.027 A 
ATOM     25  C   UNL A   1      34.699  29.093  46.454  1.00  0.00     0.001 A 
ATOM     26  C   UNL A   1      33.482  30.181  45.308  1.00  0.00     0.002 A 
BRANCH  20  27
ATOM     27  C   UNL A   1      39.810  30.253  44.448  1.00  0.00     0.102 C 
ATOM     28  N   UNL A   1      40.770  29.817  44.935  1.00  0.00    -0.192 NA
ENDBRANCH  20  27
ENDBRANCH  16  17
ENDBRANCH  14  16
ENDBRANCH   9  14
BRANCH  13  29
ATOM     29  O   UNL A   1      40.715  34.934  35.760  1.00  0.00    -0.393 OA
ATOM     30  H   UNL A   1      41.250  34.408  35.146  1.00  0.00     0.210 HD
ENDBRANCH  13  29
ENDBRANCH   6   8
ENDBRANCH   5   6
ENDBRANCH   4   5
ENDBRANCH   3   4
ENDBRANCH   2   3
ENDBRANCH   1   2
BRANCH   1  31
ATOM     31  C   UNL A   1      34.098  34.613  31.732  1.00  0.00     0.188 C 
BRANCH  31  32
ATOM     32  O   UNL A   1      34.006  35.348  30.515  1.00  0.00    -0.376 OA
BRANCH  32  33
ATOM     33  C   UNL A   1      33.622  34.572  29.382  1.00  0.00     0.202 C 
BRANCH  33  34
ATOM     34  C   UNL A   1      34.806  33.988  28.584  1.00  0.00     0.261 C 
BRANCH  34  35
ATOM     35  O   UNL A   1      35.330  32.787  29.218  1.00  0.00    -0.460 OA
BRANCH  35  36
ATOM     36  C   UNL A   1      35.448  31.671  28.445  1.00  0.00     0.338 C 
ATOM     37  O   UNL A   1      34.840  31.459  27.409  1.00  0.00    -0.246 OA
BRANCH  36  38
ATOM     38  C   UNL A   1      36.717  30.975  28.839  1.00  0.00     0.060 A 
ATOM     39  C   UNL A   1      37.797  31.512  29.560  1.00  0.00     0.016 A 
ATOM     40  C   UNL A   1      36.897  29.747  28.237  1.00  0.00     0.016 A 
ATOM     41  C   UNL A   1      39.072  30.844  29.613  1.00  0.00     0.010 A 
ATOM     42  C   UNL A   1      38.175  29.188  28.202  1.00  0.00     0.010 A 
ATOM     43  C   UNL A   1      39.323  29.689  28.860  1.00  0.00    -0.014 A 
BRANCH  43  44
ATOM     44  C   UNL A   1      40.514  28.691  29.011  1.00  0.00     0.031 A 
ATOM     45  C   UNL A   1      40.383  28.390  30.590  1.00  0.00     0.074 A 
ATOM     46  C   UNL A   1      41.473  28.137  28.048  1.00  0.00     0.049 A 
ATOM     47  N   UNL A   1      41.145  28.962  31.491  1.00  0.00    -0.248 NA
ATOM     48  C   UNL A   1      39.254  27.716  31.285  1.00  0.00     0.031 C 
ATOM     49  C   UNL A   1      41.997  28.646  26.743  1.00  0.00     0.029 A 
ATOM     50  N   UNL A   1      42.275  26.905  28.000  1.00  0.00    -0.354 N 
ATOM     51  C   UNL A   1      40.923  28.298  32.700  1.00  0.00     0.074 A 
ATOM     52  C   UNL A   1      39.602  27.764  32.582  1.00  0.00     0.031 C 
ATOM     53  C   UNL A   1      42.793  27.739  26.079  1.00  0.00     0.029 A 
ATOM     54  C   UNL A   1      42.845  26.445  26.787  1.00  0.00     0.049 A 
ATOM     55  H   UNL A   1      42.417  26.389  28.828  1.00  0.00     0.167 HD
ATOM     56  C   UNL A   1      41.951  27.976  33.543  1.00  0.00     0.034 A 
ATOM     57  C   UNL A   1      43.595  25.298  26.480  1.00  0.00     0.034 A 
ATOM     58  C   UNL A   1      43.261  28.356  33.106  1.00  0.00     0.049 A 
ATOM     59  C   UNL A   1      44.747  25.463  27.410  1.00  0.00     0.074 A 
ATOM     60  C   UNL A   1      43.874  29.442  32.558  1.00  0.00     0.029 A 
ATOM     61  N   UNL A   1      43.747  28.618  31.711  1.00  0.00    -0.354 N 
ATOM     62  N   UNL A   1      45.621  26.414  27.304  1.00  0.00    -0.248 NA
ATOM     63  C   UNL A   1      44.878  24.606  28.607  1.00  0.00     0.031 C 
ATOM     64  C   UNL A   1      45.230  28.889  31.087  1.00  0.00     0.029 A 
ATOM     65  C   UNL A   1      45.057  27.813  30.513  1.00  0.00     0.049 A 
ATOM     66  H   UNL A   1      43.291  29.388  31.299  1.00  0.00     0.167 HD
ATOM     67  C   UNL A   1      45.954  26.586  28.627  1.00  0.00     0.074 A 
ATOM     68  C   UNL A   1      45.755  25.328  29.295  1.00  0.00     0.031 C 
ATOM     69  C   UNL A   1      45.651  27.790  29.156  1.00  0.00     0.034 A 
BRANCH  56  70
ATOM     70  C   UNL A   1      42.041  26.938  34.651  1.00  0.00     0.023 A 
ATOM     71  C   UNL A   1      41.575  27.344  35.939  1.00  0.00     0.012 A 
ATOM     72  C   UNL A   1      42.919  25.847  34.602  1.00  0.00     0.148 A 
ATOM     73  C   UNL A   1      42.063  26.780  37.120  1.00  0.00     0.002 A 
ATOM     74  C   UNL A   1      43.368  25.255  35.783  1.00  0.00     0.091 A 
ATOM     75  F   UNL A   1      43.414  25.463  33.422  1.00  0.00    -0.205 F 
ATOM     76  C   UNL A   1      42.974  25.740  37.040  1.00  0.00     0.022 A 
BRANCH  74  77
ATOM     77  S   UNL A   1      44.552  23.904  35.775  1.00  0.00     0.127 S 
ATOM     78  O   UNL A   1      43.826  22.865  35.050  1.00  0.00    -0.237 OA
ATOM     79  O   UNL A   1      45.671  24.505  35.049  1.00  0.00    -0.237 OA
ATOM     80  O   UNL A   1      44.820  23.609  37.176  1.00  0.00    -0.744 OA
ENDBRANCH  74  77
ENDBRANCH  56  70
BRANCH  57  81
ATOM     81  C   UNL A   1      43.395  23.728  26.253  1.00  0.00     0.023 A 
ATOM     82  C   UNL A   1      44.445  23.108  25.495  1.00  0.00     0.012 A 
ATOM     83  C   UNL A   1      42.399  22.803  26.668  1.00  0.00     0.148 A 
ATOM     84  C   UNL A   1      44.533  21.722  25.246  1.00  0.00     0.002 A 
ATOM     85  C   UNL A   1      42.411  21.445  26.282  1.00  0.00     0.091 A 
ATOM     86  F   UNL A   1      41.463  23.127  27.556  1.00  0.00    -0.205 F 
ATOM     87  C   UNL A   1      43.496  20.889  25.613  1.00  0.00     0.022 A 
BRANCH  85  88
ATOM     88  S   UNL A   1      40.961  20.384  26.518  1.00  0.00     0.127 S 
ATOM     89  O   UNL A   1      41.326  19.187  25.759  1.00  0.00    -0.237 OA
ATOM     90  O   UNL A   1      40.933  20.211  27.966  1.00  0.00    -0.237 OA
ATOM     91  O   UNL A   1      39.855  21.133  25.933  1.00  0.00    -0.744 OA
ENDBRANCH  85  88
ENDBRANCH  57  81
BRANCH  69  92
ATOM     92  C   UNL A   1      46.126  28.946  28.292  1.00  0.00     0.023 A 
ATOM     93  C   UNL A   1      47.425  28.982  27.773  1.00  0.00     0.012 A 
ATOM     94  C   UNL A   1      45.277  30.025  27.991  1.00  0.00     0.148 A 
ATOM     95  C   UNL A   1      47.907  30.044  27.012  1.00  0.00     0.002 A 
ATOM     96  C   UNL A   1      45.725  31.053  27.162  1.00  0.00     0.091 A 
ATOM     97  F   UNL A   1      44.036  30.021  28.500  1.00  0.00    -0.205 F 
ATOM     98  C   UNL A   1      47.048  31.081  26.696  1.00  0.00     0.022 A 
BRANCH  96  99
ATOM     99  S   UNL A   1      44.608  32.294  26.503  1.00  0.00     0.127 S 
ATOM    100  O   UNL A   1      44.204  33.020  27.704  1.00  0.00    -0.237 OA
ATOM    101  O   UNL A   1      45.483  33.046  25.600  1.00  0.00    -0.237 OA
ATOM    102  O   UNL A   1      43.557  31.549  25.821  1.00  0.00    -0.744 OA
ENDBRANCH  96  99
ENDBRANCH  69  92
ENDBRANCH  43  44
ENDBRANCH  36  38
ENDBRANCH  35  36
ENDBRANCH  34  35
ENDBRANCH  33  34
ENDBRANCH  32  33
ENDBRANCH  31  32
ENDBRANCH   1  31
TORSDOF 25
ENDMDL
MODEL 2
REMARK VINA RESULT:     -10.0      8.636     15.569
REMARK SMILES Cc1c(C#N)c2ccccc2n1CC(=O)N1CC[C@H](O)C[C@@H]1C(=O)OCCOCCOCCOC(=O)c1ccc(-c2c3nc(c(-c4cccc(S(=O)(=O)[O-])c4F)c4ccc([nH]4)c(-c4cccc(S(=O)(=O)[O-])c4F)c4nc(c(-c5cccc(S(=O)(=O)[O-])c5F)c5ccc2[nH]5)C=C4)C=C3)cc1
REMARK SMILES IDX 29 1 28 2 27 3 26 4 25 5 23 6 24 7 22 8 16 9 17 10 18 11
REMARK SMILES IDX 21 12 19 13 14 14 15 15 13 16 12 17 1 18 2 19 3 20 6 21
REMARK SMILES IDX 11 22 7 23 10 24 8 25 9 26 4 27 5 28 20 29 30 31 31 32 32 33
REMARK SMILES IDX 33 34 34 35 35 36 36 37 37 38 38 39 99 40 39 41 98 42 40 43
REMARK SMILES IDX 41 44 42 45 92 46 43 47 97 48 91 49 93 50 44 51 96 52 90 53
REMARK SMILES IDX 89 54 45 56 77 57 57 58 76 59 58 60 61 61 75 62 94 63 59 64
REMARK SMILES IDX 60 65 74 67 95 68 62 69 46 70 47 71 55 72 48 73 50 74 56 75
REMARK SMILES IDX 49 76 51 77 52 78 53 79 54 80 78 81 79 82 87 83 80 84 82 85
REMARK SMILES IDX 88 86 81 87 83 88 84 89 85 90 86 91 63 92 64 93 72 94 65 95
REMARK SMILES IDX 67 96 73 97 66 98 68 99 69 100 70 101 71 102
REMARK H PARENT 20 30 93 55 61 66
REMARK Flexibility Score: inf
ROOT
ATOM      1  C   UNL A   1      36.242  30.526  28.442  1.00  0.00     0.188 C 
ENDROOT
BRANCH   1   2
ATOM      2  O   UNL A   1      35.559  29.319  28.108  1.00  0.00    -0.376 OA
BRANCH   2   3
ATOM      3  C   UNL A   1      34.690  29.497  27.003  1.00  0.00     0.202 C 
BRANCH   3   4
ATOM      4  C   UNL A   1      33.414  28.637  27.080  1.00  0.00     0.261 C 
BRANCH   4   5
ATOM      5  O   UNL A   1      33.027  27.846  25.919  1.00  0.00    -0.462 OA
BRANCH   5   6
ATOM      6  C   UNL A   1      32.046  28.368  25.130  1.00  0.00     0.329 C 
ATOM      7  O   UNL A   1      32.215  29.495  24.704  1.00  0.00    -0.250 OA
BRANCH   6   8
ATOM      8  C   UNL A   1      30.819  27.424  24.744  1.00  0.00     0.197 C 
ATOM      9  N   UNL A   1      31.090  25.879  24.844  1.00  0.00    -0.327 N 
ATOM     10  C   UNL A   1      31.826  25.460  23.712  1.00  0.00     0.123 C 
ATOM     11  C   UNL A   1      31.460  25.872  22.297  1.00  0.00     0.053 C 
ATOM     12  C   UNL A   1      30.395  27.843  23.298  1.00  0.00     0.069 C 
ATOM     13  C   UNL A   1      31.382  27.382  22.216  1.00  0.00     0.118 C 
BRANCH   9  14
ATOM     14  C   UNL A   1      30.800  24.917  25.923  1.00  0.00     0.243 C 
ATOM     15  O   UNL A   1      29.720  25.138  26.512  1.00  0.00    -0.273 OA
BRANCH  14  16
ATOM     16  C   UNL A   1      31.564  23.372  26.325  1.00  0.00     0.222 C 
BRANCH  16  17
ATOM     17  N   UNL A   1      32.916  22.293  25.913  1.00  0.00    -0.334 N 
ATOM     18  C   UNL A   1      34.255  24.468  26.167  1.00  0.00     0.066 C 
ATOM     19  C   UNL A   1      34.217  22.967  25.924  1.00  0.00     0.034 A 
ATOM     20  C   UNL A   1      35.386  22.204  25.696  1.00  0.00     0.080 A 
ATOM     21  C   UNL A   1      35.121  20.851  25.381  1.00  0.00     0.018 A 
ATOM     22  C   UNL A   1      33.224  20.767  25.785  1.00  0.00     0.050 A 
ATOM     23  C   UNL A   1      36.078  19.230  24.768  1.00  0.00     0.012 A 
ATOM     24  C   UNL A   1      32.427  18.945  25.565  1.00  0.00     0.027 A 
ATOM     25  C   UNL A   1      35.281  17.457  24.356  1.00  0.00     0.001 A 
ATOM     26  C   UNL A   1      33.326  17.385  24.744  1.00  0.00     0.002 A 
BRANCH  20  27
ATOM     27  C   UNL A   1      36.734  22.683  25.800  1.00  0.00     0.102 C 
ATOM     28  N   UNL A   1      37.824  23.081  25.746  1.00  0.00    -0.192 NA
ENDBRANCH  20  27
ENDBRANCH  16  17
ENDBRANCH  14  16
ENDBRANCH   9  14
BRANCH  13  29
ATOM     29  O   UNL A   1      32.667  28.002  22.351  1.00  0.00    -0.393 OA
ATOM     30  H   UNL A   1      32.626  28.910  22.014  1.00  0.00     0.210 HD
ENDBRANCH  13  29
ENDBRANCH   6   8
ENDBRANCH   5   6
ENDBRANCH   4   5
ENDBRANCH   3   4
ENDBRANCH   2   3
ENDBRANCH   1   2
BRANCH   1  31
ATOM     31  C   UNL A   1      37.756  30.301  28.328  1.00  0.00     0.188 C 
BRANCH  31  32
ATOM     32  O   UNL A   1      38.354  29.649  29.445  1.00  0.00    -0.376 OA
BRANCH  32  33
ATOM     33  C   UNL A   1      38.643  30.508  30.546  1.00  0.00     0.202 C 
BRANCH  33  34
ATOM     34  C   UNL A   1      40.135  30.875  30.687  1.00  0.00     0.261 C 
BRANCH  34  35
ATOM     35  O   UNL A   1      40.421  32.165  30.077  1.00  0.00    -0.460 OA
BRANCH  35  36
ATOM     36  C   UNL A   1      40.370  33.264  30.881  1.00  0.00     0.338 C 
ATOM     37  O   UNL A   1      40.254  33.250  32.095  1.00  0.00    -0.246 OA
BRANCH  36  38
ATOM     38  C   UNL A   1      40.896  34.429  30.096  1.00  0.00     0.060 A 
ATOM     39  C   UNL A   1      40.386  34.949  28.894  1.00  0.00     0.016 A 
ATOM     40  C   UNL A   1      42.128  34.883  30.517  1.00  0.00     0.016 A 
ATOM     41  C   UNL A   1      41.149  35.869  28.089  1.00  0.00     0.010 A 
ATOM     42  C   UNL A   1      42.892  35.673  29.658  1.00  0.00     0.010 A 
ATOM     43  C   UNL A   1      42.472  36.198  28.414  1.00  0.00    -0.014 A 
BRANCH  43  44
ATOM     44  C   UNL A   1      43.333  37.368  27.840  1.00  0.00     0.031 A 
ATOM     45  C   UNL A   1      44.693  36.552  27.547  1.00  0.00     0.074 A 
ATOM     46  C   UNL A   1      43.042  38.786  27.593  1.00  0.00     0.049 A 
ATOM     47  N   UNL A   1      45.731  36.584  28.346  1.00  0.00    -0.248 NA
ATOM     48  C   UNL A   1      44.883  35.447  26.569  1.00  0.00     0.031 C 
ATOM     49  C   UNL A   1      42.069  39.736  28.213  1.00  0.00     0.029 A 
ATOM     50  N   UNL A   1      43.589  39.793  26.672  1.00  0.00    -0.354 N 
ATOM     51  C   UNL A   1      46.790  35.971  27.672  1.00  0.00     0.074 A 
ATOM     52  C   UNL A   1      46.162  35.077  26.750  1.00  0.00     0.031 C 
ATOM     53  C   UNL A   1      42.022  40.961  27.586  1.00  0.00     0.029 A 
ATOM     54  C   UNL A   1      42.884  40.989  26.388  1.00  0.00     0.049 A 
ATOM     55  H   UNL A   1      44.462  39.633  26.244  1.00  0.00     0.167 HD
ATOM     56  C   UNL A   1      48.057  36.484  27.705  1.00  0.00     0.034 A 
ATOM     57  C   UNL A   1      43.167  42.061  25.526  1.00  0.00     0.034 A 
ATOM     58  C   UNL A   1      48.225  37.687  28.466  1.00  0.00     0.049 A 
ATOM     59  C   UNL A   1      44.483  42.508  26.061  1.00  0.00     0.074 A 
ATOM     60  C   UNL A   1      47.849  38.183  29.677  1.00  0.00     0.029 A 
ATOM     61  N   UNL A   1      47.198  38.715  28.837  1.00  0.00    -0.354 N 
ATOM     62  N   UNL A   1      44.635  43.035  27.235  1.00  0.00    -0.248 NA
ATOM     63  C   UNL A   1      45.730  42.243  25.314  1.00  0.00     0.031 C 
ATOM     64  C   UNL A   1      47.304  40.182  29.544  1.00  0.00     0.029 A 
ATOM     65  C   UNL A   1      46.911  40.605  28.456  1.00  0.00     0.049 A 
ATOM     66  H   UNL A   1      46.495  38.343  29.417  1.00  0.00     0.167 HD
ATOM     67  C   UNL A   1      45.908  42.607  27.530  1.00  0.00     0.074 A 
ATOM     68  C   UNL A   1      46.612  42.437  26.287  1.00  0.00     0.031 C 
ATOM     69  C   UNL A   1      46.017  41.779  28.590  1.00  0.00     0.034 A 
BRANCH  56  70
ATOM     70  C   UNL A   1      49.239  36.278  26.771  1.00  0.00     0.023 A 
ATOM     71  C   UNL A   1      49.317  37.154  25.645  1.00  0.00     0.012 A 
ATOM     72  C   UNL A   1      49.948  35.071  26.694  1.00  0.00     0.148 A 
ATOM     73  C   UNL A   1      49.955  36.786  24.458  1.00  0.00     0.002 A 
ATOM     74  C   UNL A   1      50.623  34.728  25.523  1.00  0.00     0.091 A 
ATOM     75  F   UNL A   1      49.865  34.204  27.707  1.00  0.00    -0.205 F 
ATOM     76  C   UNL A   1      50.598  35.561  24.394  1.00  0.00     0.022 A 
BRANCH  74  77
ATOM     77  S   UNL A   1      51.480  33.160  25.349  1.00  0.00     0.127 S 
ATOM     78  O   UNL A   1      52.617  33.330  26.249  1.00  0.00    -0.237 OA
ATOM     79  O   UNL A   1      50.458  32.218  25.807  1.00  0.00    -0.237 OA
ATOM     80  O   UNL A   1      51.820  33.052  23.937  1.00  0.00    -0.744 OA
ENDBRANCH  74  77
ENDBRANCH  56  70
BRANCH  57  81
ATOM     81  C   UNL A   1      43.147  42.418  23.967  1.00  0.00     0.023 A 
ATOM     82  C   UNL A   1      42.083  41.792  23.237  1.00  0.00     0.012 A 
ATOM     83  C   UNL A   1      43.957  43.253  23.150  1.00  0.00     0.148 A 
ATOM     84  C   UNL A   1      41.809  42.028  21.872  1.00  0.00     0.002 A 
ATOM     85  C   UNL A   1      43.773  43.362  21.755  1.00  0.00     0.091 A 
ATOM     86  F   UNL A   1      44.854  44.088  23.667  1.00  0.00    -0.205 F 
ATOM     87  C   UNL A   1      42.676  42.792  21.118  1.00  0.00     0.022 A 
BRANCH  85  88
ATOM     88  S   UNL A   1      45.024  44.136  20.696  1.00  0.00     0.127 S 
ATOM     89  O   UNL A   1      44.481  43.908  19.356  1.00  0.00    -0.237 OA
ATOM     90  O   UNL A   1      44.996  45.524  21.144  1.00  0.00    -0.237 OA
ATOM     91  O   UNL A   1      46.249  43.392  20.966  1.00  0.00    -0.744 OA
ENDBRANCH  85  88
ENDBRANCH  57  81
BRANCH  69  92
ATOM     92  C   UNL A   1      45.291  42.300  29.819  1.00  0.00     0.023 A 
ATOM     93  C   UNL A   1      45.471  43.613  30.268  1.00  0.00     0.012 A 
ATOM     94  C   UNL A   1      44.418  41.478  30.551  1.00  0.00     0.148 A 
ATOM     95  C   UNL A   1      44.853  44.113  31.413  1.00  0.00     0.002 A 
ATOM     96  C   UNL A   1      43.732  41.994  31.650  1.00  0.00     0.091 A 
ATOM     97  F   UNL A   1      44.251  40.209  30.150  1.00  0.00    -0.205 F 
ATOM     98  C   UNL A   1      43.970  43.301  32.102  1.00  0.00     0.022 A 
BRANCH  96  99
ATOM     99  S   UNL A   1      42.393  41.097  32.439  1.00  0.00     0.127 S 
ATOM    100  O   UNL A   1      41.381  41.055  31.387  1.00  0.00    -0.237 OA
ATOM    101  O   UNL A   1      43.020  39.806  32.735  1.00  0.00    -0.237 OA
ATOM    102  O   UNL A   1      42.051  41.872  33.626  1.00  0.00    -0.744 OA
ENDBRANCH  96  99
ENDBRANCH  69  92
ENDBRANCH  43  44
ENDBRANCH  36  38
ENDBRANCH  35  36
ENDBRANCH  34  35
ENDBRANCH  33  34
ENDBRANCH  32  33
ENDBRANCH  31  32
ENDBRANCH   1  31
TORSDOF 25
ENDMDL
MODEL 3
REMARK VINA RESULT:      -9.9      1.572      2.118
REMARK SMILES Cc1c(C#N)c2ccccc2n1CC(=O)N1CC[C@H](O)C[C@@H]1C(=O)OCCOCCOCCOC(=O)c1ccc(-c2c3nc(c(-c4cccc(S(=O)(=O)[O-])c4F)c4ccc([nH]4)c(-c4cccc(S(=O)(=O)[O-])c4F)c4nc(c(-c5cccc(S(=O)(=O)[O-])c5F)c5ccc2[nH]5)C=C4)C=C3)cc1
REMARK SMILES IDX 29 1 28 2 27 3 26 4 25 5 23 6 24 7 22 8 16 9 17 10 18 11
REMARK SMILES IDX 21 12 19 13 14 14 15 15 13 16 12 17 1 18 2 19 3 20 6 21
REMARK SMILES IDX 11 22 7 23 10 24 8 25 9 26 4 27 5 28 20 29 30 31 31 32 32 33
REMARK SMILES IDX 33 34 34 35 35 36 36 37 37 38 38 39 99 40 39 41 98 42 40 43
REMARK SMILES IDX 41 44 42 45 92 46 43 47 97 48 91 49 93 50 44 51 96 52 90 53
REMARK SMILES IDX 89 54 45 56 77 57 57 58 76 59 58 60 61 61 75 62 94 63 59 64
REMARK SMILES IDX 60 65 74 67 95 68 62 69 46 70 47 71 55 72 48 73 50 74 56 75
REMARK SMILES IDX 49 76 51 77 52 78 53 79 54 80 78 81 79 82 87 83 80 84 82 85
REMARK SMILES IDX 88 86 81 87 83 88 84 89 85 90 86 91 63 92 64 93 72 94 65 95
REMARK SMILES IDX 67 96 73 97 66 98 68 99 69 100 70 101 71 102
REMARK H PARENT 20 30 93 55 61 66
REMARK Flexibility Score: inf
ROOT
ATOM      1  C   UNL A   1      36.222  34.179  31.379  1.00  0.00     0.188 C 
ENDROOT
BRANCH   1   2
ATOM      2  O   UNL A   1      36.376  33.226  32.431  1.00  0.00    -0.376 OA
BRANCH   2   3
ATOM      3  C   UNL A   1      37.087  33.770  33.529  1.00  0.00     0.202 C 
BRANCH   3   4
ATOM      4  C   UNL A   1      38.322  34.593  33.114  1.00  0.00     0.261 C 
BRANCH   4   5
ATOM      5  O   UNL A   1      39.546  34.467  33.896  1.00  0.00    -0.462 OA
BRANCH   5   6
ATOM      6  C   UNL A   1      39.410  34.540  35.251  1.00  0.00     0.329 C 
ATOM      7  O   UNL A   1      39.193  35.636  35.730  1.00  0.00    -0.250 OA
BRANCH   6   8
ATOM      8  C   UNL A   1      39.436  33.175  36.075  1.00  0.00     0.197 C 
ATOM      9  N   UNL A   1      38.834  33.241  37.526  1.00  0.00    -0.327 N 
ATOM     10  C   UNL A   1      39.778  33.836  38.395  1.00  0.00     0.123 C 
ATOM     11  C   UNL A   1      41.241  33.433  38.416  1.00  0.00     0.053 C 
ATOM     12  C   UNL A   1      40.930  32.713  36.091  1.00  0.00     0.069 C 
ATOM     13  C   UNL A   1      41.818  33.553  37.020  1.00  0.00     0.118 C 
BRANCH   9  14
ATOM     14  C   UNL A   1      37.492  32.900  38.030  1.00  0.00     0.243 C 
ATOM     15  O   UNL A   1      36.582  33.090  37.195  1.00  0.00    -0.273 OA
BRANCH  14  16
ATOM     16  C   UNL A   1      36.997  32.017  39.482  1.00  0.00     0.222 C 
BRANCH  16  17
ATOM     17  N   UNL A   1      35.981  32.109  40.938  1.00  0.00    -0.334 N 
ATOM     18  C   UNL A   1      37.842  30.621  41.891  1.00  0.00     0.066 C 
ATOM     19  C   UNL A   1      36.555  31.408  42.089  1.00  0.00     0.034 A 
ATOM     20  C   UNL A   1      35.888  31.474  43.335  1.00  0.00     0.080 A 
ATOM     21  C   UNL A   1      34.653  32.162  43.275  1.00  0.00     0.018 A 
ATOM     22  C   UNL A   1      34.768  32.922  41.492  1.00  0.00     0.050 A 
ATOM     23  C   UNL A   1      33.079  32.536  44.416  1.00  0.00     0.012 A 
ATOM     24  C   UNL A   1      33.219  34.093  41.010  1.00  0.00     0.027 A 
ATOM     25  C   UNL A   1      31.442  33.534  43.899  1.00  0.00     0.001 A 
ATOM     26  C   UNL A   1      31.551  34.288  42.055  1.00  0.00     0.002 A 
BRANCH  20  27
ATOM     27  C   UNL A   1      36.380  30.955  44.578  1.00  0.00     0.102 C 
ATOM     28  N   UNL A   1      36.814  30.665  45.615  1.00  0.00    -0.192 NA
ENDBRANCH  20  27
ENDBRANCH  16  17
ENDBRANCH  14  16
ENDBRANCH   9  14
BRANCH  13  29
ATOM     29  O   UNL A   1      41.921  34.916  36.589  1.00  0.00    -0.393 OA
ATOM     30  H   UNL A   1      41.042  35.323  36.588  1.00  0.00     0.210 HD
ENDBRANCH  13  29
ENDBRANCH   6   8
ENDBRANCH   5   6
ENDBRANCH   4   5
ENDBRANCH   3   4
ENDBRANCH   2   3
ENDBRANCH   1   2
BRANCH   1  31
ATOM     31  C   UNL A   1      34.732  34.500  31.200  1.00  0.00     0.188 C 
BRANCH  31  32
ATOM     32  O   UNL A   1      34.394  35.114  29.959  1.00  0.00    -0.376 OA
BRANCH  32  33
ATOM     33  C   UNL A   1      33.321  34.486  29.261  1.00  0.00     0.202 C 
BRANCH  33  34
ATOM     34  C   UNL A   1      33.769  33.429  28.230  1.00  0.00     0.261 C 
BRANCH  34  35
ATOM     35  O   UNL A   1      34.393  32.287  28.882  1.00  0.00    -0.460 OA
BRANCH  35  36
ATOM     36  C   UNL A   1      34.647  31.189  28.116  1.00  0.00     0.338 C 
ATOM     37  O   UNL A   1      34.063  30.893  27.087  1.00  0.00    -0.246 OA
BRANCH  36  38
ATOM     38  C   UNL A   1      35.998  30.665  28.502  1.00  0.00     0.060 A 
ATOM     39  C   UNL A   1      36.969  31.306  29.291  1.00  0.00     0.016 A 
ATOM     40  C   UNL A   1      36.375  29.524  27.826  1.00  0.00     0.016 A 
ATOM     41  C   UNL A   1      38.329  30.833  29.340  1.00  0.00     0.010 A 
ATOM     42  C   UNL A   1      37.724  29.167  27.794  1.00  0.00     0.010 A 
ATOM     43  C   UNL A   1      38.768  29.785  28.520  1.00  0.00    -0.014 A 
BRANCH  43  44
ATOM     44  C   UNL A   1      40.093  28.968  28.642  1.00  0.00     0.031 A 
ATOM     45  C   UNL A   1      40.034  28.639  30.219  1.00  0.00     0.074 A 
ATOM     46  C   UNL A   1      41.106  28.567  27.657  1.00  0.00     0.049 A 
ATOM     47  N   UNL A   1      40.720  29.307  31.114  1.00  0.00    -0.248 NA
ATOM     48  C   UNL A   1      39.026  27.803  30.925  1.00  0.00     0.031 C 
ATOM     49  C   UNL A   1      41.528  29.157  26.350  1.00  0.00     0.029 A 
ATOM     50  N   UNL A   1      42.076  27.464  27.584  1.00  0.00    -0.354 N 
ATOM     51  C   UNL A   1      40.618  28.608  32.320  1.00  0.00     0.074 A 
ATOM     52  C   UNL A   1      39.386  27.890  32.217  1.00  0.00     0.031 C 
ATOM     53  C   UNL A   1      42.435  28.380  25.664  1.00  0.00     0.029 A 
ATOM     54  C   UNL A   1      42.685  27.101  26.357  1.00  0.00     0.049 A 
ATOM     55  H   UNL A   1      42.305  26.967  28.404  1.00  0.00     0.167 HD
ATOM     56  C   UNL A   1      41.695  28.432  33.142  1.00  0.00     0.034 A 
ATOM     57  C   UNL A   1      43.587  26.077  26.027  1.00  0.00     0.034 A 
ATOM     58  C   UNL A   1      42.929  29.001  32.689  1.00  0.00     0.049 A 
ATOM     59  C   UNL A   1      44.720  26.399  26.940  1.00  0.00     0.074 A 
ATOM     60  C   UNL A   1      43.370  30.168  32.143  1.00  0.00     0.029 A 
ATOM     61  N   UNL A   1      43.348  29.342  31.290  1.00  0.00    -0.354 N 
ATOM     62  N   UNL A   1      45.445  27.468  26.830  1.00  0.00    -0.248 NA
ATOM     63  C   UNL A   1      44.994  25.560  28.126  1.00  0.00     0.031 C 
ATOM     64  C   UNL A   1      44.766  29.829  30.645  1.00  0.00     0.029 A 
ATOM     65  C   UNL A   1      44.740  28.744  30.062  1.00  0.00     0.049 A 
ATOM     66  H   UNL A   1      42.779  30.040  30.893  1.00  0.00     0.167 HD
ATOM     67  C   UNL A   1      45.773  27.675  28.149  1.00  0.00     0.074 A 
ATOM     68  C   UNL A   1      45.768  26.396  28.808  1.00  0.00     0.031 C 
ATOM     69  C   UNL A   1      45.308  28.818  28.695  1.00  0.00     0.034 A 
BRANCH  56  70
ATOM     70  C   UNL A   1      41.954  27.409  34.238  1.00  0.00     0.023 A 
ATOM     71  C   UNL A   1      41.513  27.761  35.550  1.00  0.00     0.012 A 
ATOM     72  C   UNL A   1      42.940  26.418  34.137  1.00  0.00     0.148 A 
ATOM     73  C   UNL A   1      42.119  27.252  36.701  1.00  0.00     0.002 A 
ATOM     74  C   UNL A   1      43.510  25.877  35.290  1.00  0.00     0.091 A 
ATOM     75  F   UNL A   1      43.412  26.091  32.931  1.00  0.00    -0.205 F 
ATOM     76  C   UNL A   1      43.131  26.316  36.568  1.00  0.00     0.022 A 
BRANCH  74  77
ATOM     77  S   UNL A   1      44.830  24.662  35.213  1.00  0.00     0.127 S 
ATOM     78  O   UNL A   1      44.245  23.628  34.365  1.00  0.00    -0.237 OA
ATOM     79  O   UNL A   1      45.905  25.440  34.596  1.00  0.00    -0.237 OA
ATOM     80  O   UNL A   1      45.078  24.263  36.592  1.00  0.00    -0.744 OA
ENDBRANCH  74  77
ENDBRANCH  56  70
BRANCH  57  81
ATOM     81  C   UNL A   1      43.612  24.497  25.786  1.00  0.00     0.023 A 
ATOM     82  C   UNL A   1      44.625  24.061  24.867  1.00  0.00     0.012 A 
ATOM     83  C   UNL A   1      42.850  23.419  26.314  1.00  0.00     0.148 A 
ATOM     84  C   UNL A   1      44.898  22.709  24.568  1.00  0.00     0.002 A 
ATOM     85  C   UNL A   1      43.025  22.084  25.891  1.00  0.00     0.091 A 
ATOM     86  F   UNL A   1      42.016  23.582  27.337  1.00  0.00    -0.205 F 
ATOM     87  C   UNL A   1      44.075  21.715  25.058  1.00  0.00     0.022 A 
BRANCH  85  88
ATOM     88  S   UNL A   1      41.816  20.798  26.304  1.00  0.00     0.127 S 
ATOM     89  O   UNL A   1      40.546  21.453  25.987  1.00  0.00    -0.237 OA
ATOM     90  O   UNL A   1      42.193  19.715  25.403  1.00  0.00    -0.237 OA
ATOM     91  O   UNL A   1      42.008  20.553  27.729  1.00  0.00    -0.744 OA
ENDBRANCH  85  88
ENDBRANCH  57  81
BRANCH  69  92
ATOM     92  C   UNL A   1      45.596  30.038  27.837  1.00  0.00     0.023 A 
ATOM     93  C   UNL A   1      44.577  30.695  27.138  1.00  0.00     0.012 A 
ATOM     94  C   UNL A   1      46.901  30.545  27.711  1.00  0.00     0.148 A 
ATOM     95  C   UNL A   1      44.812  31.791  26.311  1.00  0.00     0.002 A 
ATOM     96  C   UNL A   1      47.132  31.692  26.951  1.00  0.00     0.091 A 
ATOM     97  F   UNL A   1      47.895  29.915  28.354  1.00  0.00    -0.205 F 
ATOM     98  C   UNL A   1      46.096  32.299  26.226  1.00  0.00     0.022 A 
BRANCH  96  99
ATOM     99  S   UNL A   1      48.705  32.554  26.990  1.00  0.00     0.127 S 
ATOM    100  O   UNL A   1      49.623  31.556  26.447  1.00  0.00    -0.237 OA
ATOM    101  O   UNL A   1      48.452  33.696  26.108  1.00  0.00    -0.237 OA
ATOM    102  O   UNL A   1      48.913  32.923  28.385  1.00  0.00    -0.744 OA
ENDBRANCH  96  99
ENDBRANCH  69  92
ENDBRANCH  43  44
ENDBRANCH  36  38
ENDBRANCH  35  36
ENDBRANCH  34  35
ENDBRANCH  33  34
ENDBRANCH  32  33
ENDBRANCH  31  32
ENDBRANCH   1  31
TORSDOF 25
ENDMDL
