MODEL 1
REMARK VINA RESULT:     -10.3      0.000      0.000
REMARK SMILES Cc1nc(CSCC(=O)N2CCCC[C@@H]2C(=O)OCCOCCOCCOC(=O)c2ccc(-c3c4nc(c(-c5cccc(S(=O)(=O)[O-])c5F)c5ccc([nH]5)c(-c5cccc(S(=O)(=O)[O-])c5F)c5nc(c(-c6cccc(S(=O)(=O)[O-])c6F)c6ccc3[nH]6)C=C5)C=C4)cc2)cs1
REMARK SMILES IDX 22 1 21 2 20 3 19 4 18 5 16 6 17 7 15 8 10 9 11 10 12 11
REMARK SMILES IDX 14 12 13 13 8 14 9 15 7 16 6 17 5 18 4 19 1 20 2 21 3 22
REMARK SMILES IDX 94 23 93 24 23 25 24 26 25 27 26 28 27 29 28 30 29 31 30 32
REMARK SMILES IDX 31 33 92 34 32 35 91 36 33 37 34 38 35 39 85 40 36 41 90 42
REMARK SMILES IDX 84 43 86 44 37 45 89 46 83 47 82 48 38 50 70 51 50 52 69 53
REMARK SMILES IDX 51 54 54 55 68 56 87 57 52 58 53 59 67 61 88 62 55 63 39 64
REMARK SMILES IDX 40 65 48 66 41 67 43 68 49 69 42 70 44 71 45 72 46 73 47 74
REMARK SMILES IDX 71 75 72 76 80 77 73 78 75 79 81 80 74 81 76 82 77 83 78 84
REMARK SMILES IDX 79 85 56 86 57 87 65 88 58 89 60 90 66 91 59 92 61 93 62 94
REMARK SMILES IDX 63 95 64 96
REMARK H PARENT 86 49 54 60
REMARK Flexibility Score: inf
ROOT
ATOM      1  C   UNL A   1      35.976  22.521  25.930  1.00  0.00     0.188 C 
ENDROOT
BRANCH   1   2
ATOM      2  O   UNL A   1      34.884  21.882  26.568  1.00  0.00    -0.376 OA
BRANCH   2   3
ATOM      3  C   UNL A   1      34.156  22.691  27.482  1.00  0.00     0.202 C 
BRANCH   3   4
ATOM      4  C   UNL A   1      32.629  22.653  27.325  1.00  0.00     0.261 C 
BRANCH   4   5
ATOM      5  O   UNL A   1      31.884  23.863  27.044  1.00  0.00    -0.462 OA
BRANCH   5   6
ATOM      6  C   UNL A   1      31.396  24.187  25.824  1.00  0.00     0.328 C 
ATOM      7  O   UNL A   1      30.386  24.848  25.616  1.00  0.00    -0.250 OA
BRANCH   6   8
ATOM      8  C   UNL A   1      32.224  23.584  24.681  1.00  0.00     0.195 C 
ATOM      9  N   UNL A   1      33.310  24.462  24.225  1.00  0.00    -0.328 N 
ATOM     10  C   UNL A   1      34.106  24.016  23.090  1.00  0.00     0.120 C 
ATOM     11  C   UNL A   1      33.265  23.410  21.962  1.00  0.00     0.022 C 
ATOM     12  C   UNL A   1      31.393  22.989  23.538  1.00  0.00     0.037 C 
ATOM     13  C   UNL A   1      32.303  22.355  22.493  1.00  0.00     0.005 C 
BRANCH   9  14
ATOM     14  C   UNL A   1      33.294  25.819  24.542  1.00  0.00     0.233 C 
ATOM     15  O   UNL A   1      33.831  26.249  25.555  1.00  0.00    -0.274 OA
BRANCH  14  16
ATOM     16  C   UNL A   1      32.518  26.657  23.515  1.00  0.00     0.170 C 
BRANCH  16  17
ATOM     17  S   UNL A   1      32.673  28.469  23.732  1.00  0.00    -0.146 SA
BRANCH  17  18
ATOM     18  C   UNL A   1      31.137  28.802  24.626  1.00  0.00     0.127 C 
BRANCH  18  19
ATOM     19  C   UNL A   1      30.029  29.351  23.794  1.00  0.00     0.061 A 
ATOM     20  C   UNL A   1      28.269  32.423  22.950  1.00  0.00     0.079 C 
ATOM     21  C   UNL A   1      28.817  31.046  23.038  1.00  0.00     0.090 A 
ATOM     22  N   UNL A   1      29.758  30.707  23.885  1.00  0.00    -0.246 NA
ATOM     23  S   UNL A   1      28.248  29.784  22.027  1.00  0.00    -0.127 S 
ATOM     24  C   UNL A   1      29.325  28.694  22.800  1.00  0.00     0.091 A 
ENDBRANCH  18  19
ENDBRANCH  17  18
ENDBRANCH  16  17
ENDBRANCH  14  16
ENDBRANCH   9  14
ENDBRANCH   6   8
ENDBRANCH   5   6
ENDBRANCH   4   5
ENDBRANCH   3   4
ENDBRANCH   2   3
ENDBRANCH   1   2
BRANCH   1  25
ATOM     25  C   UNL A   1      36.496  21.788  24.690  1.00  0.00     0.188 C 
BRANCH  25  26
ATOM     26  O   UNL A   1      37.791  21.213  24.659  1.00  0.00    -0.376 OA
BRANCH  26  27
ATOM     27  C   UNL A   1      37.935  19.858  25.053  1.00  0.00     0.202 C 
BRANCH  27  28
ATOM     28  C   UNL A   1      39.324  19.323  25.445  1.00  0.00     0.261 C 
BRANCH  28  29
ATOM     29  O   UNL A   1      39.924  19.908  26.611  1.00  0.00    -0.460 OA
BRANCH  29  30
ATOM     30  C   UNL A   1      41.191  20.380  26.443  1.00  0.00     0.338 C 
ATOM     31  O   UNL A   1      42.073  19.876  25.782  1.00  0.00    -0.246 OA
BRANCH  30  32
ATOM     32  C   UNL A   1      41.256  21.770  26.977  1.00  0.00     0.060 A 
ATOM     33  C   UNL A   1      40.516  22.765  26.310  1.00  0.00     0.016 A 
ATOM     34  C   UNL A   1      41.976  22.086  28.128  1.00  0.00     0.016 A 
ATOM     35  C   UNL A   1      40.517  24.079  26.772  1.00  0.00     0.010 A 
ATOM     36  C   UNL A   1      42.019  23.416  28.562  1.00  0.00     0.010 A 
ATOM     37  C   UNL A   1      41.324  24.421  27.860  1.00  0.00    -0.014 A 
BRANCH  37  38
ATOM     38  C   UNL A   1      41.687  25.843  28.064  1.00  0.00     0.031 A 
ATOM     39  C   UNL A   1      43.042  26.283  27.580  1.00  0.00     0.074 A 
ATOM     40  C   UNL A   1      40.852  26.725  28.639  1.00  0.00     0.049 A 
ATOM     41  N   UNL A   1      43.629  27.445  27.685  1.00  0.00    -0.248 NA
ATOM     42  C   UNL A   1      43.846  25.262  26.887  1.00  0.00     0.031 C 
ATOM     43  C   UNL A   1      39.497  26.436  29.101  1.00  0.00     0.029 A 
ATOM     44  N   UNL A   1      41.043  28.049  28.948  1.00  0.00    -0.354 N 
ATOM     45  C   UNL A   1      44.884  27.284  27.108  1.00  0.00     0.074 A 
ATOM     46  C   UNL A   1      44.978  25.909  26.669  1.00  0.00     0.031 C 
ATOM     47  C   UNL A   1      38.985  27.549  29.660  1.00  0.00     0.029 A 
ATOM     48  C   UNL A   1      39.987  28.613  29.623  1.00  0.00     0.049 A 
ATOM     49  H   UNL A   1      41.858  28.545  28.709  1.00  0.00     0.167 HD
ATOM     50  C   UNL A   1      45.869  28.196  26.946  1.00  0.00     0.034 A 
ATOM     51  C   UNL A   1      39.861  29.841  30.165  1.00  0.00     0.034 A 
ATOM     52  C   UNL A   1      45.773  29.560  27.386  1.00  0.00     0.049 A 
ATOM     53  C   UNL A   1      40.998  30.824  30.040  1.00  0.00     0.074 A 
ATOM     54  C   UNL A   1      46.700  30.577  27.250  1.00  0.00     0.029 A 
ATOM     55  N   UNL A   1      44.690  30.095  28.067  1.00  0.00    -0.354 N 
ATOM     56  N   UNL A   1      42.146  30.689  29.419  1.00  0.00    -0.248 NA
ATOM     57  C   UNL A   1      40.811  32.139  30.670  1.00  0.00     0.031 C 
ATOM     58  C   UNL A   1      46.195  31.715  27.887  1.00  0.00     0.029 A 
ATOM     59  C   UNL A   1      44.931  31.422  28.378  1.00  0.00     0.049 A 
ATOM     60  H   UNL A   1      43.869  29.602  28.297  1.00  0.00     0.167 HD
ATOM     61  C   UNL A   1      42.798  31.912  29.545  1.00  0.00     0.074 A 
ATOM     62  C   UNL A   1      41.911  32.779  30.294  1.00  0.00     0.031 C 
ATOM     63  C   UNL A   1      44.019  32.285  29.087  1.00  0.00     0.034 A 
BRANCH  50  64
ATOM     64  C   UNL A   1      47.135  27.729  26.276  1.00  0.00     0.023 A 
ATOM     65  C   UNL A   1      48.169  27.153  27.044  1.00  0.00     0.012 A 
ATOM     66  C   UNL A   1      47.307  27.870  24.885  1.00  0.00     0.148 A 
ATOM     67  C   UNL A   1      49.374  26.780  26.449  1.00  0.00     0.002 A 
ATOM     68  C   UNL A   1      48.489  27.446  24.291  1.00  0.00     0.091 A 
ATOM     69  F   UNL A   1      46.327  28.445  24.174  1.00  0.00    -0.205 F 
ATOM     70  C   UNL A   1      49.530  26.919  25.073  1.00  0.00     0.022 A 
BRANCH  68  71
ATOM     71  S   UNL A   1      48.751  27.507  22.516  1.00  0.00     0.127 S 
ATOM     72  O   UNL A   1      50.116  28.025  22.437  1.00  0.00    -0.237 OA
ATOM     73  O   UNL A   1      48.609  26.101  22.136  1.00  0.00    -0.237 OA
ATOM     74  O   UNL A   1      47.715  28.385  21.990  1.00  0.00    -0.744 OA
ENDBRANCH  68  71
ENDBRANCH  50  64
BRANCH  51  75
ATOM     75  C   UNL A   1      38.590  30.231  30.841  1.00  0.00     0.023 A 
ATOM     76  C   UNL A   1      38.381  29.855  32.182  1.00  0.00     0.012 A 
ATOM     77  C   UNL A   1      37.603  30.982  30.176  1.00  0.00     0.148 A 
ATOM     78  C   UNL A   1      37.202  30.202  32.844  1.00  0.00     0.002 A 
ATOM     79  C   UNL A   1      36.453  31.369  30.855  1.00  0.00     0.091 A 
ATOM     80  F   UNL A   1      37.817  31.318  28.896  1.00  0.00    -0.205 F 
ATOM     81  C   UNL A   1      36.244  30.967  32.185  1.00  0.00     0.022 A 
BRANCH  79  82
ATOM     82  S   UNL A   1      35.214  32.447  30.130  1.00  0.00     0.127 S 
ATOM     83  O   UNL A   1      34.290  32.635  31.246  1.00  0.00    -0.237 OA
ATOM     84  O   UNL A   1      36.011  33.624  29.784  1.00  0.00    -0.237 OA
ATOM     85  O   UNL A   1      34.676  31.722  28.987  1.00  0.00    -0.744 OA
ENDBRANCH  79  82
ENDBRANCH  51  75
BRANCH  63  86
ATOM     86  C   UNL A   1      44.460  33.706  29.331  1.00  0.00     0.023 A 
ATOM     87  C   UNL A   1      45.472  33.983  30.272  1.00  0.00     0.012 A 
ATOM     88  C   UNL A   1      43.922  34.762  28.567  1.00  0.00     0.148 A 
ATOM     89  C   UNL A   1      45.913  35.292  30.474  1.00  0.00     0.002 A 
ATOM     90  C   UNL A   1      44.406  36.054  28.734  1.00  0.00     0.091 A 
ATOM     91  F   UNL A   1      42.950  34.481  27.686  1.00  0.00    -0.205 F 
ATOM     92  C   UNL A   1      45.390  36.323  29.697  1.00  0.00     0.022 A 
BRANCH  90  93
ATOM     93  S   UNL A   1      43.864  37.426  27.708  1.00  0.00     0.127 S 
ATOM     94  O   UNL A   1      42.941  38.121  28.604  1.00  0.00    -0.237 OA
ATOM     95  O   UNL A   1      45.119  38.135  27.456  1.00  0.00    -0.237 OA
ATOM     96  O   UNL A   1      43.255  36.832  26.526  1.00  0.00    -0.744 OA
ENDBRANCH  90  93
ENDBRANCH  63  86
ENDBRANCH  37  38
ENDBRANCH  30  32
ENDBRANCH  29  30
ENDBRANCH  28  29
ENDBRANCH  27  28
ENDBRANCH  26  27
ENDBRANCH  25  26
ENDBRANCH   1  25
TORSDOF 25
ENDMDL
MODEL 2
REMARK VINA RESULT:     -10.0      1.621      2.014
REMARK SMILES Cc1nc(CSCC(=O)N2CCCC[C@@H]2C(=O)OCCOCCOCCOC(=O)c2ccc(-c3c4nc(c(-c5cccc(S(=O)(=O)[O-])c5F)c5ccc([nH]5)c(-c5cccc(S(=O)(=O)[O-])c5F)c5nc(c(-c6cccc(S(=O)(=O)[O-])c6F)c6ccc3[nH]6)C=C5)C=C4)cc2)cs1
REMARK SMILES IDX 22 1 21 2 20 3 19 4 18 5 16 6 17 7 15 8 10 9 11 10 12 11
REMARK SMILES IDX 14 12 13 13 8 14 9 15 7 16 6 17 5 18 4 19 1 20 2 21 3 22
REMARK SMILES IDX 94 23 93 24 23 25 24 26 25 27 26 28 27 29 28 30 29 31 30 32
REMARK SMILES IDX 31 33 92 34 32 35 91 36 33 37 34 38 35 39 85 40 36 41 90 42
REMARK SMILES IDX 84 43 86 44 37 45 89 46 83 47 82 48 38 50 70 51 50 52 69 53
REMARK SMILES IDX 51 54 54 55 68 56 87 57 52 58 53 59 67 61 88 62 55 63 39 64
REMARK SMILES IDX 40 65 48 66 41 67 43 68 49 69 42 70 44 71 45 72 46 73 47 74
REMARK SMILES IDX 71 75 72 76 80 77 73 78 75 79 81 80 74 81 76 82 77 83 78 84
REMARK SMILES IDX 79 85 56 86 57 87 65 88 58 89 60 90 66 91 59 92 61 93 62 94
REMARK SMILES IDX 63 95 64 96
REMARK H PARENT 86 49 54 60
REMARK Flexibility Score: inf
ROOT
ATOM      1  C   UNL A   1      35.208  23.309  25.909  1.00  0.00     0.188 C 
ENDROOT
BRANCH   1   2
ATOM      2  O   UNL A   1      34.088  22.460  26.091  1.00  0.00    -0.376 OA
BRANCH   2   3
ATOM      3  C   UNL A   1      33.312  22.718  27.253  1.00  0.00     0.202 C 
BRANCH   3   4
ATOM      4  C   UNL A   1      31.898  23.256  26.996  1.00  0.00     0.261 C 
BRANCH   4   5
ATOM      5  O   UNL A   1      31.670  24.675  26.808  1.00  0.00    -0.462 OA
BRANCH   5   6
ATOM      6  C   UNL A   1      31.241  25.227  25.650  1.00  0.00     0.328 C 
ATOM      7  O   UNL A   1      30.072  25.325  25.300  1.00  0.00    -0.250 OA
BRANCH   6   8
ATOM      8  C   UNL A   1      32.400  25.692  24.756  1.00  0.00     0.195 C 
ATOM      9  N   UNL A   1      32.633  27.141  24.814  1.00  0.00    -0.328 N 
ATOM     10  C   UNL A   1      33.659  27.694  23.942  1.00  0.00     0.120 C 
ATOM     11  C   UNL A   1      33.627  27.114  22.525  1.00  0.00     0.022 C 
ATOM     12  C   UNL A   1      32.370  25.129  23.330  1.00  0.00     0.037 C 
ATOM     13  C   UNL A   1      33.595  25.591  22.550  1.00  0.00     0.005 C 
BRANCH   9  14
ATOM     14  C   UNL A   1      31.646  27.990  25.311  1.00  0.00     0.233 C 
ATOM     15  O   UNL A   1      31.337  27.991  26.496  1.00  0.00    -0.274 OA
BRANCH  14  16
ATOM     16  C   UNL A   1      31.003  28.856  24.217  1.00  0.00     0.170 C 
BRANCH  16  17
ATOM     17  S   UNL A   1      30.065  27.921  22.953  1.00  0.00    -0.146 SA
BRANCH  17  18
ATOM     18  C   UNL A   1      28.448  28.714  23.126  1.00  0.00     0.127 C 
BRANCH  18  19
ATOM     19  C   UNL A   1      28.344  30.073  22.522  1.00  0.00     0.061 A 
ATOM     20  C   UNL A   1      29.032  33.593  23.139  1.00  0.00     0.079 C 
ATOM     21  C   UNL A   1      28.696  32.261  22.578  1.00  0.00     0.090 A 
ATOM     22  N   UNL A   1      28.778  31.153  23.274  1.00  0.00    -0.246 NA
ATOM     23  S   UNL A   1      28.167  32.073  20.958  1.00  0.00    -0.127 S 
ATOM     24  C   UNL A   1      28.011  30.384  21.216  1.00  0.00     0.091 A 
ENDBRANCH  18  19
ENDBRANCH  17  18
ENDBRANCH  16  17
ENDBRANCH  14  16
ENDBRANCH   9  14
ENDBRANCH   6   8
ENDBRANCH   5   6
ENDBRANCH   4   5
ENDBRANCH   3   4
ENDBRANCH   2   3
ENDBRANCH   1   2
BRANCH   1  25
ATOM     25  C   UNL A   1      35.870  23.190  24.533  1.00  0.00     0.188 C 
BRANCH  25  26
ATOM     26  O   UNL A   1      37.030  22.399  24.337  1.00  0.00    -0.376 OA
BRANCH  26  27
ATOM     27  C   UNL A   1      36.932  20.999  24.540  1.00  0.00     0.202 C 
BRANCH  27  28
ATOM     28  C   UNL A   1      38.141  20.224  25.095  1.00  0.00     0.261 C 
BRANCH  28  29
ATOM     29  O   UNL A   1      38.657  20.672  26.358  1.00  0.00    -0.460 OA
BRANCH  29  30
ATOM     30  C   UNL A   1      40.007  20.849  26.409  1.00  0.00     0.338 C 
ATOM     31  O   UNL A   1      40.851  20.162  25.876  1.00  0.00    -0.246 OA
BRANCH  30  32
ATOM     32  C   UNL A   1      40.289  22.188  27.000  1.00  0.00     0.060 A 
ATOM     33  C   UNL A   1      39.486  23.269  26.592  1.00  0.00     0.016 A 
ATOM     34  C   UNL A   1      41.277  22.375  27.966  1.00  0.00     0.016 A 
ATOM     35  C   UNL A   1      39.684  24.541  27.123  1.00  0.00     0.010 A 
ATOM     36  C   UNL A   1      41.511  23.663  28.461  1.00  0.00     0.010 A 
ATOM     37  C   UNL A   1      40.744  24.754  28.009  1.00  0.00    -0.014 A 
BRANCH  37  38
ATOM     38  C   UNL A   1      41.241  26.135  28.212  1.00  0.00     0.031 A 
ATOM     39  C   UNL A   1      42.618  26.453  27.694  1.00  0.00     0.074 A 
ATOM     40  C   UNL A   1      40.507  27.085  28.814  1.00  0.00     0.049 A 
ATOM     41  N   UNL A   1      43.312  27.555  27.791  1.00  0.00    -0.248 NA
ATOM     42  C   UNL A   1      43.307  25.367  26.974  1.00  0.00     0.031 C 
ATOM     43  C   UNL A   1      39.143  26.919  29.311  1.00  0.00     0.029 A 
ATOM     44  N   UNL A   1      40.826  28.383  29.126  1.00  0.00    -0.354 N 
ATOM     45  C   UNL A   1      44.532  27.284  27.180  1.00  0.00     0.074 A 
ATOM     46  C   UNL A   1      44.487  25.910  26.730  1.00  0.00     0.031 C 
ATOM     47  C   UNL A   1      38.750  28.069  29.890  1.00  0.00     0.029 A 
ATOM     48  C   UNL A   1      39.845  29.037  29.832  1.00  0.00     0.049 A 
ATOM     49  H   UNL A   1      41.677  28.805  28.869  1.00  0.00     0.167 HD
ATOM     50  C   UNL A   1      45.592  28.103  26.998  1.00  0.00     0.034 A 
ATOM     51  C   UNL A   1      39.847  30.267  30.385  1.00  0.00     0.034 A 
ATOM     52  C   UNL A   1      45.634  29.467  27.447  1.00  0.00     0.049 A 
ATOM     53  C   UNL A   1      41.066  31.142  30.236  1.00  0.00     0.074 A 
ATOM     54  C   UNL A   1      46.647  30.394  27.293  1.00  0.00     0.029 A 
ATOM     55  N   UNL A   1      44.622  30.092  28.161  1.00  0.00    -0.354 N 
ATOM     56  N   UNL A   1      42.180  30.907  29.583  1.00  0.00    -0.248 NA
ATOM     57  C   UNL A   1      41.018  32.463  30.878  1.00  0.00     0.031 C 
ATOM     58  C   UNL A   1      46.265  31.569  27.950  1.00  0.00     0.029 A 
ATOM     59  C   UNL A   1      44.993  31.389  28.473  1.00  0.00     0.049 A 
ATOM     60  H   UNL A   1      43.766  29.675  28.409  1.00  0.00     0.167 HD
ATOM     61  C   UNL A   1      42.945  32.063  29.699  1.00  0.00     0.074 A 
ATOM     62  C   UNL A   1      42.162  33.002  30.476  1.00  0.00     0.031 C 
ATOM     63  C   UNL A   1      44.184  32.327  29.211  1.00  0.00     0.034 A 
BRANCH  50  64
ATOM     64  C   UNL A   1      46.792  27.527  26.291  1.00  0.00     0.023 A 
ATOM     65  C   UNL A   1      46.869  27.568  24.883  1.00  0.00     0.012 A 
ATOM     66  C   UNL A   1      47.839  26.931  27.021  1.00  0.00     0.148 A 
ATOM     67  C   UNL A   1      47.939  26.976  24.211  1.00  0.00     0.002 A 
ATOM     68  C   UNL A   1      48.928  26.393  26.347  1.00  0.00     0.091 A 
ATOM     69  F   UNL A   1      47.738  26.876  28.357  1.00  0.00    -0.205 F 
ATOM     70  C   UNL A   1      48.971  26.396  24.944  1.00  0.00     0.022 A 
BRANCH  68  71
ATOM     71  S   UNL A   1      50.344  25.699  27.205  1.00  0.00     0.127 S 
ATOM     72  O   UNL A   1      51.042  26.905  27.647  1.00  0.00    -0.237 OA
ATOM     73  O   UNL A   1      49.709  24.934  28.280  1.00  0.00    -0.237 OA
ATOM     74  O   UNL A   1      51.050  24.889  26.222  1.00  0.00    -0.744 OA
ENDBRANCH  68  71
ENDBRANCH  50  64
BRANCH  51  75
ATOM     75  C   UNL A   1      38.635  30.766  31.097  1.00  0.00     0.023 A 
ATOM     76  C   UNL A   1      38.572  30.664  32.500  1.00  0.00     0.012 A 
ATOM     77  C   UNL A   1      37.563  31.355  30.401  1.00  0.00     0.148 A 
ATOM     78  C   UNL A   1      37.452  31.120  33.197  1.00  0.00     0.002 A 
ATOM     79  C   UNL A   1      36.472  31.853  31.104  1.00  0.00     0.091 A 
ATOM     80  F   UNL A   1      37.639  31.429  29.064  1.00  0.00    -0.205 F 
ATOM     81  C   UNL A   1      36.408  31.723  32.501  1.00  0.00     0.022 A 
BRANCH  79  82
ATOM     82  S   UNL A   1      35.131  32.746  30.310  1.00  0.00     0.127 S 
ATOM     83  O   UNL A   1      34.219  32.973  31.429  1.00  0.00    -0.237 OA
ATOM     84  O   UNL A   1      35.820  33.941  29.823  1.00  0.00    -0.237 OA
ATOM     85  O   UNL A   1      34.632  31.865  29.264  1.00  0.00    -0.744 OA
ENDBRANCH  79  82
ENDBRANCH  51  75
BRANCH  63  86
ATOM     86  C   UNL A   1      44.760  33.699  29.452  1.00  0.00     0.023 A 
ATOM     87  C   UNL A   1      45.512  33.958  30.615  1.00  0.00     0.012 A 
ATOM     88  C   UNL A   1      44.619  34.712  28.482  1.00  0.00     0.148 A 
ATOM     89  C   UNL A   1      46.083  35.215  30.825  1.00  0.00     0.002 A 
ATOM     90  C   UNL A   1      45.236  35.943  28.672  1.00  0.00     0.091 A 
ATOM     91  F   UNL A   1      43.888  34.451  27.388  1.00  0.00    -0.205 F 
ATOM     92  C   UNL A   1      45.956  36.201  29.848  1.00  0.00     0.022 A 
BRANCH  90  93
ATOM     93  S   UNL A   1      45.212  37.237  27.425  1.00  0.00     0.127 S 
ATOM     94  O   UNL A   1      45.974  36.620  26.341  1.00  0.00    -0.237 OA
ATOM     95  O   UNL A   1      43.781  37.383  27.160  1.00  0.00    -0.237 OA
ATOM     96  O   UNL A   1      45.836  38.401  28.039  1.00  0.00    -0.744 OA
ENDBRANCH  90  93
ENDBRANCH  63  86
ENDBRANCH  37  38
ENDBRANCH  30  32
ENDBRANCH  29  30
ENDBRANCH  28  29
ENDBRANCH  27  28
ENDBRANCH  26  27
ENDBRANCH  25  26
ENDBRANCH   1  25
TORSDOF 25
ENDMDL
MODEL 3
REMARK VINA RESULT:      -9.8      1.773      8.116
REMARK SMILES Cc1nc(CSCC(=O)N2CCCC[C@@H]2C(=O)OCCOCCOCCOC(=O)c2ccc(-c3c4nc(c(-c5cccc(S(=O)(=O)[O-])c5F)c5ccc([nH]5)c(-c5cccc(S(=O)(=O)[O-])c5F)c5nc(c(-c6cccc(S(=O)(=O)[O-])c6F)c6ccc3[nH]6)C=C5)C=C4)cc2)cs1
REMARK SMILES IDX 22 1 21 2 20 3 19 4 18 5 16 6 17 7 15 8 10 9 11 10 12 11
REMARK SMILES IDX 14 12 13 13 8 14 9 15 7 16 6 17 5 18 4 19 1 20 2 21 3 22
REMARK SMILES IDX 94 23 93 24 23 25 24 26 25 27 26 28 27 29 28 30 29 31 30 32
REMARK SMILES IDX 31 33 92 34 32 35 91 36 33 37 34 38 35 39 85 40 36 41 90 42
REMARK SMILES IDX 84 43 86 44 37 45 89 46 83 47 82 48 38 50 70 51 50 52 69 53
REMARK SMILES IDX 51 54 54 55 68 56 87 57 52 58 53 59 67 61 88 62 55 63 39 64
REMARK SMILES IDX 40 65 48 66 41 67 43 68 49 69 42 70 44 71 45 72 46 73 47 74
REMARK SMILES IDX 71 75 72 76 80 77 73 78 75 79 81 80 74 81 76 82 77 83 78 84
REMARK SMILES IDX 79 85 56 86 57 87 65 88 58 89 60 90 66 91 59 92 61 93 62 94
REMARK SMILES IDX 63 95 64 96
REMARK H PARENT 86 49 54 60
REMARK Flexibility Score: inf
ROOT
ATOM      1  C   UNL A   1      35.673  23.281  26.489  1.00  0.00     0.188 C 
ENDROOT
BRANCH   1   2
ATOM      2  O   UNL A   1      34.422  22.635  26.329  1.00  0.00    -0.376 OA
BRANCH   2   3
ATOM      3  C   UNL A   1      33.408  23.040  27.238  1.00  0.00     0.202 C 
BRANCH   3   4
ATOM      4  C   UNL A   1      32.150  23.644  26.597  1.00  0.00     0.261 C 
BRANCH   4   5
ATOM      5  O   UNL A   1      31.869  25.061  26.715  1.00  0.00    -0.462 OA
BRANCH   5   6
ATOM      6  C   UNL A   1      30.987  25.726  25.933  1.00  0.00     0.328 C 
ATOM      7  O   UNL A   1      29.785  25.503  25.871  1.00  0.00    -0.250 OA
BRANCH   6   8
ATOM      8  C   UNL A   1      31.663  26.792  25.061  1.00  0.00     0.195 C 
ATOM      9  N   UNL A   1      31.581  26.504  23.622  1.00  0.00    -0.328 N 
ATOM     10  C   UNL A   1      32.260  27.415  22.712  1.00  0.00     0.120 C 
ATOM     11  C   UNL A   1      33.654  27.826  23.197  1.00  0.00     0.022 C 
ATOM     12  C   UNL A   1      33.066  27.201  25.527  1.00  0.00     0.037 C 
ATOM     13  C   UNL A   1      33.619  28.310  24.641  1.00  0.00     0.005 C 
BRANCH   9  14
ATOM     14  C   UNL A   1      31.278  25.217  23.182  1.00  0.00     0.233 C 
ATOM     15  O   UNL A   1      30.210  24.681  23.452  1.00  0.00    -0.274 OA
BRANCH  14  16
ATOM     16  C   UNL A   1      32.423  24.580  22.381  1.00  0.00     0.170 C 
BRANCH  16  17
ATOM     17  S   UNL A   1      33.227  23.153  23.199  1.00  0.00    -0.146 SA
BRANCH  17  18
ATOM     18  C   UNL A   1      31.874  21.955  23.120  1.00  0.00     0.127 C 
BRANCH  18  19
ATOM     19  C   UNL A   1      32.170  20.628  23.733  1.00  0.00     0.061 A 
ATOM     20  C   UNL A   1      33.215  17.231  22.952  1.00  0.00     0.079 C 
ATOM     21  C   UNL A   1      32.842  18.521  23.582  1.00  0.00     0.090 A 
ATOM     22  N   UNL A   1      32.540  19.592  22.889  1.00  0.00    -0.246 NA
ATOM     23  S   UNL A   1      32.777  18.705  25.286  1.00  0.00    -0.127 S 
ATOM     24  C   UNL A   1      32.281  20.335  25.080  1.00  0.00     0.091 A 
ENDBRANCH  18  19
ENDBRANCH  17  18
ENDBRANCH  16  17
ENDBRANCH  14  16
ENDBRANCH   9  14
ENDBRANCH   6   8
ENDBRANCH   5   6
ENDBRANCH   4   5
ENDBRANCH   3   4
ENDBRANCH   2   3
ENDBRANCH   1   2
BRANCH   1  25
ATOM     25  C   UNL A   1      36.252  23.859  25.194  1.00  0.00     0.188 C 
BRANCH  25  26
ATOM     26  O   UNL A   1      37.031  23.068  24.314  1.00  0.00    -0.376 OA
BRANCH  26  27
ATOM     27  C   UNL A   1      36.779  21.673  24.262  1.00  0.00     0.202 C 
BRANCH  27  28
ATOM     28  C   UNL A   1      37.802  20.693  24.866  1.00  0.00     0.261 C 
BRANCH  28  29
ATOM     29  O   UNL A   1      38.310  21.026  26.167  1.00  0.00    -0.460 OA
BRANCH  29  30
ATOM     30  C   UNL A   1      39.666  20.977  26.296  1.00  0.00     0.338 C 
ATOM     31  O   UNL A   1      40.410  20.144  25.826  1.00  0.00    -0.246 OA
BRANCH  30  32
ATOM     32  C   UNL A   1      40.136  22.264  26.879  1.00  0.00     0.060 A 
ATOM     33  C   UNL A   1      39.573  23.456  26.382  1.00  0.00     0.016 A 
ATOM     34  C   UNL A   1      41.063  22.309  27.919  1.00  0.00     0.016 A 
ATOM     35  C   UNL A   1      39.953  24.691  26.901  1.00  0.00     0.010 A 
ATOM     36  C   UNL A   1      41.484  23.552  28.405  1.00  0.00     0.010 A 
ATOM     37  C   UNL A   1      40.962  24.745  27.867  1.00  0.00    -0.014 A 
BRANCH  37  38
ATOM     38  C   UNL A   1      41.681  26.023  28.082  1.00  0.00     0.031 A 
ATOM     39  C   UNL A   1      40.947  27.107  28.824  1.00  0.00     0.074 A 
ATOM     40  C   UNL A   1      42.939  26.223  27.657  1.00  0.00     0.049 A 
ATOM     41  N   UNL A   1      41.316  28.331  29.094  1.00  0.00    -0.248 NA
ATOM     42  C   UNL A   1      39.605  26.758  29.324  1.00  0.00     0.031 C 
ATOM     43  C   UNL A   1      43.773  25.237  26.974  1.00  0.00     0.029 A 
ATOM     44  N   UNL A   1      43.726  27.346  27.724  1.00  0.00    -0.354 N 
ATOM     45  C   UNL A   1      40.240  28.908  29.758  1.00  0.00     0.074 A 
ATOM     46  C   UNL A   1      39.200  27.907  29.837  1.00  0.00     0.031 C 
ATOM     47  C   UNL A   1      44.951  25.809  26.662  1.00  0.00     0.029 A 
ATOM     48  C   UNL A   1      44.939  27.206  27.094  1.00  0.00     0.049 A 
ATOM     49  H   UNL A   1      43.446  28.172  28.180  1.00  0.00     0.167 HD
ATOM     50  C   UNL A   1      40.126  30.156  30.268  1.00  0.00     0.034 A 
ATOM     51  C   UNL A   1      45.912  28.113  26.875  1.00  0.00     0.034 A 
ATOM     52  C   UNL A   1      41.161  31.149  30.186  1.00  0.00     0.049 A 
ATOM     53  C   UNL A   1      45.738  29.522  27.386  1.00  0.00     0.074 A 
ATOM     54  C   UNL A   1      41.161  32.436  30.691  1.00  0.00     0.029 A 
ATOM     55  N   UNL A   1      42.374  30.972  29.539  1.00  0.00    -0.354 N 
ATOM     56  N   UNL A   1      44.754  30.033  28.086  1.00  0.00    -0.248 NA
ATOM     57  C   UNL A   1      46.823  30.471  27.098  1.00  0.00     0.031 C 
ATOM     58  C   UNL A   1      42.359  33.052  30.312  1.00  0.00     0.029 A 
ATOM     59  C   UNL A   1      43.126  32.132  29.612  1.00  0.00     0.049 A 
ATOM     60  H   UNL A   1      42.659  30.142  29.092  1.00  0.00     0.167 HD
ATOM     61  C   UNL A   1      45.119  31.348  28.360  1.00  0.00     0.074 A 
ATOM     62  C   UNL A   1      46.421  31.550  27.758  1.00  0.00     0.031 C 
ATOM     63  C   UNL A   1      44.440  32.303  29.044  1.00  0.00     0.034 A 
BRANCH  50  64
ATOM     64  C   UNL A   1      38.826  30.505  30.944  1.00  0.00     0.023 A 
ATOM     65  C   UNL A   1      38.600  30.120  32.283  1.00  0.00     0.012 A 
ATOM     66  C   UNL A   1      37.819  31.205  30.250  1.00  0.00     0.148 A 
ATOM     67  C   UNL A   1      37.375  30.374  32.899  1.00  0.00     0.002 A 
ATOM     68  C   UNL A   1      36.622  31.503  30.889  1.00  0.00     0.091 A 
ATOM     69  F   UNL A   1      38.038  31.540  28.970  1.00  0.00    -0.205 F 
ATOM     70  C   UNL A   1      36.390  31.072  32.205  1.00  0.00     0.022 A 
BRANCH  68  71
ATOM     71  S   UNL A   1      35.327  32.468  30.106  1.00  0.00     0.127 S 
ATOM     72  O   UNL A   1      36.046  33.687  29.741  1.00  0.00    -0.237 OA
ATOM     73  O   UNL A   1      34.952  31.620  28.974  1.00  0.00    -0.237 OA
ATOM     74  O   UNL A   1      34.286  32.631  31.112  1.00  0.00    -0.744 OA
ENDBRANCH  68  71
ENDBRANCH  50  64
BRANCH  51  75
ATOM     75  C   UNL A   1      47.164  27.709  26.173  1.00  0.00     0.023 A 
ATOM     76  C   UNL A   1      48.204  27.111  26.911  1.00  0.00     0.012 A 
ATOM     77  C   UNL A   1      47.323  27.894  24.787  1.00  0.00     0.148 A 
ATOM     78  C   UNL A   1      49.389  26.723  26.285  1.00  0.00     0.002 A 
ATOM     79  C   UNL A   1      48.485  27.459  24.159  1.00  0.00     0.091 A 
ATOM     80  F   UNL A   1      46.326  28.477  24.106  1.00  0.00    -0.205 F 
ATOM     81  C   UNL A   1      49.526  26.887  24.909  1.00  0.00     0.022 A 
BRANCH  79  82
ATOM     82  S   UNL A   1      48.710  27.524  22.379  1.00  0.00     0.127 S 
ATOM     83  O   UNL A   1      48.687  26.107  22.022  1.00  0.00    -0.237 OA
ATOM     84  O   UNL A   1      47.533  28.284  21.960  1.00  0.00    -0.237 OA
ATOM     85  O   UNL A   1      49.979  28.204  22.163  1.00  0.00    -0.744 OA
ENDBRANCH  79  82
ENDBRANCH  51  75
BRANCH  63  86
ATOM     86  C   UNL A   1      45.104  33.644  29.229  1.00  0.00     0.023 A 
ATOM     87  C   UNL A   1      45.952  33.870  30.333  1.00  0.00     0.012 A 
ATOM     88  C   UNL A   1      44.947  34.658  28.262  1.00  0.00     0.148 A 
ATOM     89  C   UNL A   1      46.602  35.095  30.488  1.00  0.00     0.002 A 
ATOM     90  C   UNL A   1      45.641  35.855  28.395  1.00  0.00     0.091 A 
ATOM     91  F   UNL A   1      44.126  34.430  27.227  1.00  0.00    -0.205 F 
ATOM     92  C   UNL A   1      46.457  36.081  29.514  1.00  0.00     0.022 A 
BRANCH  90  93
ATOM     93  S   UNL A   1      45.596  37.141  27.141  1.00  0.00     0.127 S 
ATOM     94  O   UNL A   1      46.390  38.196  27.768  1.00  0.00    -0.237 OA
ATOM     95  O   UNL A   1      46.241  36.485  26.004  1.00  0.00    -0.237 OA
ATOM     96  O   UNL A   1      44.189  37.459  26.939  1.00  0.00    -0.744 OA
ENDBRANCH  90  93
ENDBRANCH  63  86
ENDBRANCH  37  38
ENDBRANCH  30  32
ENDBRANCH  29  30
ENDBRANCH  28  29
ENDBRANCH  27  28
ENDBRANCH  26  27
ENDBRANCH  25  26
ENDBRANCH   1  25
TORSDOF 25
ENDMDL
