MODEL 1
REMARK VINA RESULT:     -10.7      0.000      0.000
REMARK SMILES Cc1cscc1C(=O)N[C@H](C(=O)OCCOCCOCCOC(=O)c1ccc(-c2c3nc(c(-c4cccc(S(=O)(=O)[O-])c4F)c4ccc([nH]4)c(-c4cccc(S(=O)(=O)[O-])c4F)c4nc(c(-c5cccc(S(=O)(=O)[O-])c5F)c5ccc2[nH]5)C=C4)C=C3)cc1)c1ccccc1
REMARK SMILES IDX 18 1 17 2 16 3 15 4 14 5 13 6 11 7 12 8 10 9 9 10 7 11 8 12
REMARK SMILES IDX 6 14 1 15 2 16 3 17 4 18 5 19 88 20 89 21 93 22 90 23 92 24
REMARK SMILES IDX 91 25 19 26 20 27 21 28 22 29 23 30 24 31 25 32 26 33 87 34
REMARK SMILES IDX 27 35 86 36 28 37 29 38 30 39 80 40 31 41 85 42 79 43 81 44
REMARK SMILES IDX 32 45 84 46 78 47 77 48 33 50 65 51 45 52 64 53 46 54 49 55
REMARK SMILES IDX 63 56 82 57 47 58 48 59 62 61 83 62 50 63 34 64 35 65 43 66
REMARK SMILES IDX 36 67 38 68 44 69 37 70 39 71 40 72 41 73 42 74 66 75 67 76
REMARK SMILES IDX 75 77 68 78 70 79 76 80 69 81 71 82 72 83 73 84 74 85 51 86
REMARK SMILES IDX 52 87 60 88 53 89 55 90 61 91 54 92 56 93 57 94 58 95 59 96
REMARK H PARENT 9 13 81 49 49 60
REMARK Flexibility Score: inf
ROOT
ATOM      1  C   UNL A   1      35.926  22.403  24.272  1.00  0.00     0.188 C 
ENDROOT
BRANCH   1   2
ATOM      2  C   UNL A   1      34.871  23.518  24.275  1.00  0.00     0.188 C 
BRANCH   2   3
ATOM      3  O   UNL A   1      33.540  23.050  24.434  1.00  0.00    -0.376 OA
BRANCH   3   4
ATOM      4  C   UNL A   1      32.640  23.523  23.442  1.00  0.00     0.202 C 
BRANCH   4   5
ATOM      5  C   UNL A   1      33.248  23.642  22.038  1.00  0.00     0.261 C 
BRANCH   5   6
ATOM      6  O   UNL A   1      33.420  25.005  21.565  1.00  0.00    -0.461 OA
BRANCH   6   7
ATOM      7  C   UNL A   1      32.309  25.734  21.309  1.00  0.00     0.333 C 
ATOM      8  O   UNL A   1      31.794  25.725  20.192  1.00  0.00    -0.249 OA
BRANCH   7   9
ATOM      9  C   UNL A   1      31.887  26.743  22.427  1.00  0.00     0.223 C 
BRANCH   9  10
ATOM     10  N   UNL A   1      32.983  27.686  22.609  1.00  0.00    -0.335 N 
ATOM     11  C   UNL A   1      33.490  28.341  23.697  1.00  0.00     0.253 C 
ATOM     12  O   UNL A   1      34.543  28.944  23.462  1.00  0.00    -0.269 OA
ATOM     13  H   UNL A   1      33.458  27.896  21.772  1.00  0.00     0.165 HD
BRANCH  11  14
ATOM     14  C   UNL A   1      32.842  28.469  25.026  1.00  0.00     0.053 A 
ATOM     15  C   UNL A   1      32.176  26.083  26.107  1.00  0.00     0.046 C 
ATOM     16  C   UNL A   1      32.280  27.569  26.046  1.00  0.00    -0.028 A 
ATOM     17  C   UNL A   1      31.847  28.282  27.158  1.00  0.00     0.069 A 
ATOM     18  S   UNL A   1      32.089  29.953  27.043  1.00  0.00    -0.151 S 
ATOM     19  C   UNL A   1      32.794  29.774  25.513  1.00  0.00     0.079 A 
ENDBRANCH  11  14
ENDBRANCH   9  10
BRANCH   9  20
ATOM     20  C   UNL A   1      30.550  27.501  22.592  1.00  0.00    -0.014 A 
ATOM     21  C   UNL A   1      29.482  26.993  23.354  1.00  0.00     0.006 A 
ATOM     22  C   UNL A   1      30.392  28.834  22.144  1.00  0.00     0.006 A 
ATOM     23  C   UNL A   1      28.309  27.746  23.571  1.00  0.00     0.000 A 
ATOM     24  C   UNL A   1      29.221  29.576  22.328  1.00  0.00     0.000 A 
ATOM     25  C   UNL A   1      28.173  29.029  23.045  1.00  0.00     0.000 A 
ENDBRANCH   9  20
ENDBRANCH   7   9
ENDBRANCH   6   7
ENDBRANCH   5   6
ENDBRANCH   4   5
ENDBRANCH   3   4
ENDBRANCH   2   3
ENDBRANCH   1   2
BRANCH   1  26
ATOM     26  O   UNL A   1      35.650  21.127  24.823  1.00  0.00    -0.376 OA
BRANCH  26  27
ATOM     27  C   UNL A   1      36.694  20.169  24.811  1.00  0.00     0.202 C 
BRANCH  27  28
ATOM     28  C   UNL A   1      38.136  20.643  25.062  1.00  0.00     0.261 C 
BRANCH  28  29
ATOM     29  O   UNL A   1      38.753  20.202  26.287  1.00  0.00    -0.460 OA
BRANCH  29  30
ATOM     30  C   UNL A   1      40.082  20.450  26.395  1.00  0.00     0.338 C 
ATOM     31  O   UNL A   1      40.992  19.753  25.951  1.00  0.00    -0.246 OA
BRANCH  30  32
ATOM     32  C   UNL A   1      40.321  21.798  26.961  1.00  0.00     0.060 A 
ATOM     33  C   UNL A   1      39.601  22.883  26.435  1.00  0.00     0.016 A 
ATOM     34  C   UNL A   1      41.302  22.021  27.925  1.00  0.00     0.016 A 
ATOM     35  C   UNL A   1      39.876  24.188  26.838  1.00  0.00     0.010 A 
ATOM     36  C   UNL A   1      41.602  23.338  28.307  1.00  0.00     0.010 A 
ATOM     37  C   UNL A   1      40.918  24.431  27.738  1.00  0.00    -0.014 A 
BRANCH  37  38
ATOM     38  C   UNL A   1      41.421  25.819  27.920  1.00  0.00     0.031 A 
ATOM     39  C   UNL A   1      42.800  26.159  27.414  1.00  0.00     0.074 A 
ATOM     40  C   UNL A   1      40.673  26.776  28.498  1.00  0.00     0.049 A 
ATOM     41  N   UNL A   1      43.479  27.270  27.533  1.00  0.00    -0.248 NA
ATOM     42  C   UNL A   1      43.505  25.102  26.669  1.00  0.00     0.031 C 
ATOM     43  C   UNL A   1      39.305  26.606  28.981  1.00  0.00     0.029 A 
ATOM     44  N   UNL A   1      40.977  28.083  28.796  1.00  0.00    -0.354 N 
ATOM     45  C   UNL A   1      44.704  27.034  26.921  1.00  0.00     0.074 A 
ATOM     46  C   UNL A   1      44.674  25.674  26.428  1.00  0.00     0.031 C 
ATOM     47  C   UNL A   1      38.899  27.757  29.548  1.00  0.00     0.029 A 
ATOM     48  C   UNL A   1      39.990  28.730  29.502  1.00  0.00     0.049 A 
ATOM     49  H   UNL A   1      41.821  28.515  28.527  1.00  0.00     0.167 HD
ATOM     50  C   UNL A   1      45.760  27.870  26.777  1.00  0.00     0.034 A 
ATOM     51  C   UNL A   1      39.984  29.949  30.081  1.00  0.00     0.034 A 
ATOM     52  C   UNL A   1      45.789  29.230  27.245  1.00  0.00     0.049 A 
ATOM     53  C   UNL A   1      41.194  30.842  29.958  1.00  0.00     0.074 A 
ATOM     54  C   UNL A   1      46.805  30.160  27.114  1.00  0.00     0.029 A 
ATOM     55  N   UNL A   1      44.766  29.850  27.944  1.00  0.00    -0.354 N 
ATOM     56  N   UNL A   1      42.315  30.632  29.313  1.00  0.00    -0.248 NA
ATOM     57  C   UNL A   1      41.126  32.151  30.627  1.00  0.00     0.031 C 
ATOM     58  C   UNL A   1      46.411  31.332  27.769  1.00  0.00     0.029 A 
ATOM     59  C   UNL A   1      45.133  31.145  28.267  1.00  0.00     0.049 A 
ATOM     60  H   UNL A   1      43.906  29.431  28.176  1.00  0.00     0.167 HD
ATOM     61  C   UNL A   1      43.067  31.796  29.462  1.00  0.00     0.074 A 
ATOM     62  C   UNL A   1      42.266  32.713  30.245  1.00  0.00     0.031 C 
ATOM     63  C   UNL A   1      44.311  32.074  29.000  1.00  0.00     0.034 A 
BRANCH  50  64
ATOM     64  C   UNL A   1      46.985  27.333  26.085  1.00  0.00     0.023 A 
ATOM     65  C   UNL A   1      47.153  27.523  24.698  1.00  0.00     0.012 A 
ATOM     66  C   UNL A   1      47.996  26.686  26.823  1.00  0.00     0.148 A 
ATOM     67  C   UNL A   1      48.291  27.044  24.051  1.00  0.00     0.002 A 
ATOM     68  C   UNL A   1      49.149  26.256  26.179  1.00  0.00     0.091 A 
ATOM     69  F   UNL A   1      47.807  26.499  28.136  1.00  0.00    -0.205 F 
ATOM     70  C   UNL A   1      49.293  26.421  24.792  1.00  0.00     0.022 A 
BRANCH  68  71
ATOM     71  S   UNL A   1      50.528  25.515  27.058  1.00  0.00     0.127 S 
ATOM     72  O   UNL A   1      50.847  26.554  28.036  1.00  0.00    -0.237 OA
ATOM     73  O   UNL A   1      49.920  24.311  27.624  1.00  0.00    -0.237 OA
ATOM     74  O   UNL A   1      51.556  25.264  26.058  1.00  0.00    -0.744 OA
ENDBRANCH  68  71
ENDBRANCH  50  64
BRANCH  51  75
ATOM     75  C   UNL A   1      38.786  30.409  30.841  1.00  0.00     0.023 A 
ATOM     76  C   UNL A   1      38.691  30.151  32.223  1.00  0.00     0.012 A 
ATOM     77  C   UNL A   1      37.733  31.089  30.197  1.00  0.00     0.148 A 
ATOM     78  C   UNL A   1      37.558  30.533  32.941  1.00  0.00     0.002 A 
ATOM     79  C   UNL A   1      36.633  31.517  30.930  1.00  0.00     0.091 A 
ATOM     80  F   UNL A   1      37.831  31.305  28.878  1.00  0.00    -0.205 F 
ATOM     81  C   UNL A   1      36.534  31.223  32.298  1.00  0.00     0.022 A 
BRANCH  79  82
ATOM     82  S   UNL A   1      35.327  32.516  30.209  1.00  0.00     0.127 S 
ATOM     83  O   UNL A   1      34.879  31.671  29.104  1.00  0.00    -0.237 OA
ATOM     84  O   UNL A   1      34.385  32.627  31.323  1.00  0.00    -0.237 OA
ATOM     85  O   UNL A   1      35.957  33.773  29.827  1.00  0.00    -0.744 OA
ENDBRANCH  79  82
ENDBRANCH  51  75
BRANCH  63  86
ATOM     86  C   UNL A   1      44.879  33.446  29.274  1.00  0.00     0.023 A 
ATOM     87  C   UNL A   1      45.605  33.689  30.457  1.00  0.00     0.012 A 
ATOM     88  C   UNL A   1      44.759  34.475  28.318  1.00  0.00     0.148 A 
ATOM     89  C   UNL A   1      46.170  34.941  30.699  1.00  0.00     0.002 A 
ATOM     90  C   UNL A   1      45.369  35.703  28.542  1.00  0.00     0.091 A 
ATOM     91  F   UNL A   1      44.051  34.232  27.205  1.00  0.00    -0.205 F 
ATOM     92  C   UNL A   1      46.062  35.943  29.737  1.00  0.00     0.022 A 
BRANCH  90  93
ATOM     93  S   UNL A   1      45.367  37.019  27.318  1.00  0.00     0.127 S 
ATOM     94  O   UNL A   1      46.105  36.402  26.216  1.00  0.00    -0.237 OA
ATOM     95  O   UNL A   1      43.938  37.205  27.065  1.00  0.00    -0.237 OA
ATOM     96  O   UNL A   1      46.023  38.157  27.948  1.00  0.00    -0.744 OA
ENDBRANCH  90  93
ENDBRANCH  63  86
ENDBRANCH  37  38
ENDBRANCH  30  32
ENDBRANCH  29  30
ENDBRANCH  28  29
ENDBRANCH  27  28
ENDBRANCH  26  27
ENDBRANCH   1  26
TORSDOF 23
ENDMDL
MODEL 2
REMARK VINA RESULT:     -10.7      1.556      2.723
REMARK SMILES Cc1cscc1C(=O)N[C@H](C(=O)OCCOCCOCCOC(=O)c1ccc(-c2c3nc(c(-c4cccc(S(=O)(=O)[O-])c4F)c4ccc([nH]4)c(-c4cccc(S(=O)(=O)[O-])c4F)c4nc(c(-c5cccc(S(=O)(=O)[O-])c5F)c5ccc2[nH]5)C=C4)C=C3)cc1)c1ccccc1
REMARK SMILES IDX 18 1 17 2 16 3 15 4 14 5 13 6 11 7 12 8 10 9 9 10 7 11 8 12
REMARK SMILES IDX 6 14 1 15 2 16 3 17 4 18 5 19 88 20 89 21 93 22 90 23 92 24
REMARK SMILES IDX 91 25 19 26 20 27 21 28 22 29 23 30 24 31 25 32 26 33 87 34
REMARK SMILES IDX 27 35 86 36 28 37 29 38 30 39 80 40 31 41 85 42 79 43 81 44
REMARK SMILES IDX 32 45 84 46 78 47 77 48 33 50 65 51 45 52 64 53 46 54 49 55
REMARK SMILES IDX 63 56 82 57 47 58 48 59 62 61 83 62 50 63 34 64 35 65 43 66
REMARK SMILES IDX 36 67 38 68 44 69 37 70 39 71 40 72 41 73 42 74 66 75 67 76
REMARK SMILES IDX 75 77 68 78 70 79 76 80 69 81 71 82 72 83 73 84 74 85 51 86
REMARK SMILES IDX 52 87 60 88 53 89 55 90 61 91 54 92 56 93 57 94 58 95 59 96
REMARK H PARENT 9 13 81 49 49 60
REMARK Flexibility Score: inf
ROOT
ATOM      1  C   UNL A   1      36.325  22.646  25.364  1.00  0.00     0.188 C 
ENDROOT
BRANCH   1   2
ATOM      2  C   UNL A   1      35.312  23.501  26.136  1.00  0.00     0.188 C 
BRANCH   2   3
ATOM      3  O   UNL A   1      34.858  22.907  27.343  1.00  0.00    -0.376 OA
BRANCH   3   4
ATOM      4  C   UNL A   1      33.669  22.143  27.199  1.00  0.00     0.202 C 
BRANCH   4   5
ATOM      5  C   UNL A   1      32.687  22.688  26.153  1.00  0.00     0.261 C 
BRANCH   5   6
ATOM      6  O   UNL A   1      31.288  22.605  26.534  1.00  0.00    -0.461 OA
BRANCH   6   7
ATOM      7  C   UNL A   1      30.626  23.759  26.780  1.00  0.00     0.333 C 
ATOM      8  O   UNL A   1      29.602  23.764  27.463  1.00  0.00    -0.249 OA
BRANCH   7   9
ATOM      9  C   UNL A   1      31.102  25.003  25.962  1.00  0.00     0.223 C 
BRANCH   9  10
ATOM     10  N   UNL A   1      29.983  25.448  25.142  1.00  0.00    -0.335 N 
ATOM     11  C   UNL A   1      29.885  25.938  23.868  1.00  0.00     0.253 C 
ATOM     12  O   UNL A   1      28.719  26.054  23.474  1.00  0.00    -0.269 OA
ATOM     13  H   UNL A   1      29.114  25.385  25.602  1.00  0.00     0.165 HD
BRANCH  11  14
ATOM     14  C   UNL A   1      31.006  26.419  23.023  1.00  0.00     0.053 A 
ATOM     15  C   UNL A   1      31.744  28.955  23.599  1.00  0.00     0.046 C 
ATOM     16  C   UNL A   1      31.793  27.653  22.874  1.00  0.00    -0.028 A 
ATOM     17  C   UNL A   1      32.793  27.496  21.921  1.00  0.00     0.069 A 
ATOM     18  S   UNL A   1      32.837  25.958  21.215  1.00  0.00    -0.151 S 
ATOM     19  C   UNL A   1      31.535  25.451  22.171  1.00  0.00     0.079 A 
ENDBRANCH  11  14
ENDBRANCH   9  10
BRANCH   9  20
ATOM     20  C   UNL A   1      31.881  26.246  26.452  1.00  0.00    -0.014 A 
ATOM     21  C   UNL A   1      33.229  26.473  26.120  1.00  0.00     0.006 A 
ATOM     22  C   UNL A   1      31.230  27.320  27.106  1.00  0.00     0.006 A 
ATOM     23  C   UNL A   1      33.889  27.662  26.498  1.00  0.00     0.000 A 
ATOM     24  C   UNL A   1      31.885  28.487  27.510  1.00  0.00     0.000 A 
ATOM     25  C   UNL A   1      33.223  28.659  27.205  1.00  0.00     0.000 A 
ENDBRANCH   9  20
ENDBRANCH   7   9
ENDBRANCH   6   7
ENDBRANCH   5   6
ENDBRANCH   4   5
ENDBRANCH   3   4
ENDBRANCH   2   3
ENDBRANCH   1   2
BRANCH   1  26
ATOM     26  O   UNL A   1      36.252  21.231  25.373  1.00  0.00    -0.376 OA
BRANCH  26  27
ATOM     27  C   UNL A   1      37.400  20.513  24.954  1.00  0.00     0.202 C 
BRANCH  27  28
ATOM     28  C   UNL A   1      38.741  20.788  25.656  1.00  0.00     0.261 C 
BRANCH  28  29
ATOM     29  O   UNL A   1      39.600  19.651  25.868  1.00  0.00    -0.460 OA
BRANCH  29  30
ATOM     30  C   UNL A   1      40.814  19.927  26.404  1.00  0.00     0.338 C 
ATOM     31  O   UNL A   1      41.806  19.201  26.376  1.00  0.00    -0.246 OA
BRANCH  30  32
ATOM     32  C   UNL A   1      40.874  21.330  26.878  1.00  0.00     0.060 A 
ATOM     33  C   UNL A   1      40.383  22.342  26.038  1.00  0.00     0.016 A 
ATOM     34  C   UNL A   1      41.484  21.668  28.084  1.00  0.00     0.016 A 
ATOM     35  C   UNL A   1      40.527  23.686  26.375  1.00  0.00     0.010 A 
ATOM     36  C   UNL A   1      41.660  23.021  28.409  1.00  0.00     0.010 A 
ATOM     37  C   UNL A   1      41.218  24.038  27.539  1.00  0.00    -0.014 A 
BRANCH  37  38
ATOM     38  C   UNL A   1      41.653  25.447  27.736  1.00  0.00     0.031 A 
ATOM     39  C   UNL A   1      43.025  25.853  27.259  1.00  0.00     0.074 A 
ATOM     40  C   UNL A   1      40.850  26.366  28.302  1.00  0.00     0.049 A 
ATOM     41  N   UNL A   1      43.648  26.994  27.396  1.00  0.00    -0.248 NA
ATOM     42  C   UNL A   1      43.792  24.833  26.526  1.00  0.00     0.031 C 
ATOM     43  C   UNL A   1      39.481  26.132  28.756  1.00  0.00     0.029 A 
ATOM     44  N   UNL A   1      41.086  27.685  28.609  1.00  0.00    -0.354 N 
ATOM     45  C   UNL A   1      44.896  26.816  26.809  1.00  0.00     0.074 A 
ATOM     46  C   UNL A   1      44.939  25.459  26.311  1.00  0.00     0.031 C 
ATOM     47  C   UNL A   1      39.011  27.260  29.318  1.00  0.00     0.029 A 
ATOM     48  C   UNL A   1      40.057  28.283  29.298  1.00  0.00     0.049 A 
ATOM     49  H   UNL A   1      41.915  28.157  28.360  1.00  0.00     0.167 HD
ATOM     50  C   UNL A   1      45.914  27.701  26.689  1.00  0.00     0.034 A 
ATOM     51  C   UNL A   1      39.982  29.498  29.880  1.00  0.00     0.034 A 
ATOM     52  C   UNL A   1      45.871  29.059  27.162  1.00  0.00     0.049 A 
ATOM     53  C   UNL A   1      41.152  30.446  29.785  1.00  0.00     0.074 A 
ATOM     54  C   UNL A   1      46.845  30.036  27.055  1.00  0.00     0.029 A 
ATOM     55  N   UNL A   1      44.807  29.628  27.842  1.00  0.00    -0.354 N 
ATOM     56  N   UNL A   1      42.295  30.291  29.162  1.00  0.00    -0.248 NA
ATOM     57  C   UNL A   1      41.011  31.748  30.456  1.00  0.00     0.031 C 
ATOM     58  C   UNL A   1      46.385  31.185  27.705  1.00  0.00     0.029 A 
ATOM     59  C   UNL A   1      45.106  30.938  28.177  1.00  0.00     0.049 A 
ATOM     60  H   UNL A   1      43.962  29.169  28.054  1.00  0.00     0.167 HD
ATOM     61  C   UNL A   1      42.989  31.487  29.331  1.00  0.00     0.074 A 
ATOM     62  C   UNL A   1      42.130  32.363  30.100  1.00  0.00     0.031 C 
ATOM     63  C   UNL A   1      44.228  31.825  28.895  1.00  0.00     0.034 A 
BRANCH  50  64
ATOM     64  C   UNL A   1      47.177  27.224  26.021  1.00  0.00     0.023 A 
ATOM     65  C   UNL A   1      47.389  27.477  24.650  1.00  0.00     0.012 A 
ATOM     66  C   UNL A   1      48.177  26.571  26.768  1.00  0.00     0.148 A 
ATOM     67  C   UNL A   1      48.562  27.054  24.025  1.00  0.00     0.002 A 
ATOM     68  C   UNL A   1      49.363  26.197  26.149  1.00  0.00     0.091 A 
ATOM     69  F   UNL A   1      47.947  26.323  28.064  1.00  0.00    -0.205 F 
ATOM     70  C   UNL A   1      49.553  26.424  24.776  1.00  0.00     0.022 A 
BRANCH  68  71
ATOM     71  S   UNL A   1      50.729  25.453  27.047  1.00  0.00     0.127 S 
ATOM     72  O   UNL A   1      51.681  25.187  25.969  1.00  0.00    -0.237 OA
ATOM     73  O   UNL A   1      51.121  26.530  27.956  1.00  0.00    -0.237 OA
ATOM     74  O   UNL A   1      50.185  24.273  27.703  1.00  0.00    -0.744 OA
ENDBRANCH  68  71
ENDBRANCH  50  64
BRANCH  51  75
ATOM     75  C   UNL A   1      38.749  29.899  30.617  1.00  0.00     0.023 A 
ATOM     76  C   UNL A   1      38.540  29.443  31.933  1.00  0.00     0.012 A 
ATOM     77  C   UNL A   1      37.776  30.719  30.012  1.00  0.00     0.148 A 
ATOM     78  C   UNL A   1      37.371  29.770  32.621  1.00  0.00     0.002 A 
ATOM     79  C   UNL A   1      36.641  31.088  30.724  1.00  0.00     0.091 A 
ATOM     80  F   UNL A   1      37.982  31.124  28.752  1.00  0.00    -0.205 F 
ATOM     81  C   UNL A   1      36.427  30.598  32.021  1.00  0.00     0.022 A 
BRANCH  79  82
ATOM     82  S   UNL A   1      35.434  32.247  30.075  1.00  0.00     0.127 S 
ATOM     83  O   UNL A   1      36.259  33.425  29.816  1.00  0.00    -0.237 OA
ATOM     84  O   UNL A   1      34.961  31.549  28.879  1.00  0.00    -0.237 OA
ATOM     85  O   UNL A   1      34.429  32.397  31.119  1.00  0.00    -0.744 OA
ENDBRANCH  79  82
ENDBRANCH  51  75
BRANCH  63  86
ATOM     86  C   UNL A   1      44.726  33.220  29.186  1.00  0.00     0.023 A 
ATOM     87  C   UNL A   1      45.490  33.473  30.342  1.00  0.00     0.012 A 
ATOM     88  C   UNL A   1      44.502  34.266  28.267  1.00  0.00     0.148 A 
ATOM     89  C   UNL A   1      45.991  34.750  30.597  1.00  0.00     0.002 A 
ATOM     90  C   UNL A   1      45.048  35.522  28.501  1.00  0.00     0.091 A 
ATOM     91  F   UNL A   1      43.760  34.011  27.179  1.00  0.00    -0.205 F 
ATOM     92  C   UNL A   1      45.780  35.770  29.671  1.00  0.00     0.022 A 
BRANCH  90  93
ATOM     93  S   UNL A   1      44.913  36.869  27.319  1.00  0.00     0.127 S 
ATOM     94  O   UNL A   1      45.211  38.031  28.155  1.00  0.00    -0.237 OA
ATOM     95  O   UNL A   1      45.956  36.534  26.348  1.00  0.00    -0.237 OA
ATOM     96  O   UNL A   1      43.556  36.809  26.792  1.00  0.00    -0.744 OA
ENDBRANCH  90  93
ENDBRANCH  63  86
ENDBRANCH  37  38
ENDBRANCH  30  32
ENDBRANCH  29  30
ENDBRANCH  28  29
ENDBRANCH  27  28
ENDBRANCH  26  27
ENDBRANCH   1  26
TORSDOF 23
ENDMDL
MODEL 3
REMARK VINA RESULT:     -10.6      5.248     10.713
REMARK SMILES Cc1cscc1C(=O)N[C@H](C(=O)OCCOCCOCCOC(=O)c1ccc(-c2c3nc(c(-c4cccc(S(=O)(=O)[O-])c4F)c4ccc([nH]4)c(-c4cccc(S(=O)(=O)[O-])c4F)c4nc(c(-c5cccc(S(=O)(=O)[O-])c5F)c5ccc2[nH]5)C=C4)C=C3)cc1)c1ccccc1
REMARK SMILES IDX 18 1 17 2 16 3 15 4 14 5 13 6 11 7 12 8 10 9 9 10 7 11 8 12
REMARK SMILES IDX 6 14 1 15 2 16 3 17 4 18 5 19 88 20 89 21 93 22 90 23 92 24
REMARK SMILES IDX 91 25 19 26 20 27 21 28 22 29 23 30 24 31 25 32 26 33 87 34
REMARK SMILES IDX 27 35 86 36 28 37 29 38 30 39 80 40 31 41 85 42 79 43 81 44
REMARK SMILES IDX 32 45 84 46 78 47 77 48 33 50 65 51 45 52 64 53 46 54 49 55
REMARK SMILES IDX 63 56 82 57 47 58 48 59 62 61 83 62 50 63 34 64 35 65 43 66
REMARK SMILES IDX 36 67 38 68 44 69 37 70 39 71 40 72 41 73 42 74 66 75 67 76
REMARK SMILES IDX 75 77 68 78 70 79 76 80 69 81 71 82 72 83 73 84 74 85 51 86
REMARK SMILES IDX 52 87 60 88 53 89 55 90 61 91 54 92 56 93 57 94 58 95 59 96
REMARK H PARENT 9 13 81 49 49 60
REMARK Flexibility Score: inf
ROOT
ATOM      1  C   UNL A   1      32.783  29.278  25.985  1.00  0.00     0.188 C 
ENDROOT
BRANCH   1   2
ATOM      2  C   UNL A   1      33.596  28.705  24.816  1.00  0.00     0.188 C 
BRANCH   2   3
ATOM      3  O   UNL A   1      32.906  27.720  24.062  1.00  0.00    -0.376 OA
BRANCH   3   4
ATOM      4  C   UNL A   1      31.683  27.296  24.647  1.00  0.00     0.202 C 
BRANCH   4   5
ATOM      5  C   UNL A   1      31.284  25.854  24.308  1.00  0.00     0.261 C 
BRANCH   5   6
ATOM      6  O   UNL A   1      32.212  24.841  24.781  1.00  0.00    -0.461 OA
BRANCH   6   7
ATOM      7  C   UNL A   1      31.784  23.559  24.829  1.00  0.00     0.333 C 
ATOM      8  O   UNL A   1      30.684  23.280  25.306  1.00  0.00    -0.249 OA
BRANCH   7   9
ATOM      9  C   UNL A   1      32.850  22.473  24.473  1.00  0.00     0.223 C 
BRANCH   9  10
ATOM     10  N   UNL A   1      32.436  21.835  23.230  1.00  0.00    -0.335 N 
ATOM     11  C   UNL A   1      32.236  20.533  22.861  1.00  0.00     0.253 C 
ATOM     12  O   UNL A   1      31.723  20.412  21.743  1.00  0.00    -0.269 OA
ATOM     13  H   UNL A   1      32.265  22.477  22.502  1.00  0.00     0.165 HD
BRANCH  11  14
ATOM     14  C   UNL A   1      32.672  19.330  23.612  1.00  0.00     0.053 A 
ATOM     15  C   UNL A   1      32.803  19.743  26.280  1.00  0.00     0.046 C 
ATOM     16  C   UNL A   1      32.926  18.964  25.014  1.00  0.00    -0.028 A 
ATOM     17  C   UNL A   1      33.273  17.623  25.126  1.00  0.00     0.069 A 
ATOM     18  S   UNL A   1      33.297  16.792  23.652  1.00  0.00    -0.151 S 
ATOM     19  C   UNL A   1      32.830  18.192  22.822  1.00  0.00     0.079 A 
ENDBRANCH  11  14
ENDBRANCH   9  10
BRANCH   9  20
ATOM     20  C   UNL A   1      34.392  22.591  24.478  1.00  0.00    -0.014 A 
ATOM     21  C   UNL A   1      35.131  22.893  23.320  1.00  0.00     0.006 A 
ATOM     22  C   UNL A   1      35.133  22.591  25.685  1.00  0.00     0.006 A 
ATOM     23  C   UNL A   1      36.527  23.092  23.369  1.00  0.00     0.000 A 
ATOM     24  C   UNL A   1      36.520  22.757  25.737  1.00  0.00     0.000 A 
ATOM     25  C   UNL A   1      37.222  23.008  24.572  1.00  0.00     0.000 A 
ENDBRANCH   9  20
ENDBRANCH   7   9
ENDBRANCH   6   7
ENDBRANCH   5   6
ENDBRANCH   4   5
ENDBRANCH   3   4
ENDBRANCH   2   3
ENDBRANCH   1   2
BRANCH   1  26
ATOM     26  O   UNL A   1      32.911  30.635  26.374  1.00  0.00    -0.376 OA
BRANCH  26  27
ATOM     27  C   UNL A   1      31.719  31.381  26.550  1.00  0.00     0.202 C 
BRANCH  27  28
ATOM     28  C   UNL A   1      31.818  32.813  27.102  1.00  0.00     0.261 C 
BRANCH  28  29
ATOM     29  O   UNL A   1      33.107  33.451  27.005  1.00  0.00    -0.460 OA
BRANCH  29  30
ATOM     30  C   UNL A   1      33.682  33.790  28.186  1.00  0.00     0.338 C 
ATOM     31  O   UNL A   1      33.214  34.546  29.034  1.00  0.00    -0.246 OA
BRANCH  30  32
ATOM     32  C   UNL A   1      34.892  32.972  28.436  1.00  0.00     0.060 A 
ATOM     33  C   UNL A   1      34.727  31.625  28.799  1.00  0.00     0.016 A 
ATOM     34  C   UNL A   1      36.168  33.530  28.411  1.00  0.00     0.016 A 
ATOM     35  C   UNL A   1      35.819  30.844  29.169  1.00  0.00     0.010 A 
ATOM     36  C   UNL A   1      37.265  32.754  28.816  1.00  0.00     0.010 A 
ATOM     37  C   UNL A   1      37.092  31.418  29.234  1.00  0.00    -0.014 A 
BRANCH  37  38
ATOM     38  C   UNL A   1      38.190  30.693  29.928  1.00  0.00     0.031 A 
ATOM     39  C   UNL A   1      38.488  31.038  31.365  1.00  0.00     0.074 A 
ATOM     40  C   UNL A   1      38.901  29.727  29.317  1.00  0.00     0.049 A 
ATOM     41  N   UNL A   1      39.443  30.602  32.143  1.00  0.00    -0.248 NA
ATOM     42  C   UNL A   1      37.581  32.003  32.009  1.00  0.00     0.031 C 
ATOM     43  C   UNL A   1      38.686  29.250  27.954  1.00  0.00     0.029 A 
ATOM     44  N   UNL A   1      39.968  28.989  29.769  1.00  0.00    -0.354 N 
ATOM     45  C   UNL A   1      39.283  31.271  33.351  1.00  0.00     0.074 A 
ATOM     46  C   UNL A   1      38.135  32.139  33.204  1.00  0.00     0.031 C 
ATOM     47  C   UNL A   1      39.617  28.322  27.666  1.00  0.00     0.029 A 
ATOM     48  C   UNL A   1      40.516  28.170  28.810  1.00  0.00     0.049 A 
ATOM     49  H   UNL A   1      40.309  29.042  30.692  1.00  0.00     0.167 HD
ATOM     50  C   UNL A   1      40.019  31.172  34.484  1.00  0.00     0.034 A 
ATOM     51  C   UNL A   1      41.635  27.417  28.838  1.00  0.00     0.034 A 
ATOM     52  C   UNL A   1      41.147  30.294  34.646  1.00  0.00     0.049 A 
ATOM     53  C   UNL A   1      42.473  27.367  30.091  1.00  0.00     0.074 A 
ATOM     54  C   UNL A   1      41.932  30.105  35.769  1.00  0.00     0.029 A 
ATOM     55  N   UNL A   1      41.661  29.473  33.656  1.00  0.00    -0.354 N 
ATOM     56  N   UNL A   1      42.266  27.946  31.249  1.00  0.00    -0.248 NA
ATOM     57  C   UNL A   1      43.689  26.539  30.048  1.00  0.00     0.031 C 
ATOM     58  C   UNL A   1      42.946  29.197  35.447  1.00  0.00     0.029 A 
ATOM     59  C   UNL A   1      42.764  28.787  34.136  1.00  0.00     0.049 A 
ATOM     60  H   UNL A   1      41.295  29.389  32.746  1.00  0.00     0.167 HD
ATOM     61  C   UNL A   1      43.299  27.520  32.081  1.00  0.00     0.074 A 
ATOM     62  C   UNL A   1      44.121  26.621  31.299  1.00  0.00     0.031 C 
ATOM     63  C   UNL A   1      43.548  27.852  33.372  1.00  0.00     0.034 A 
BRANCH  50  64
ATOM     64  C   UNL A   1      39.628  32.044  35.648  1.00  0.00     0.023 A 
ATOM     65  C   UNL A   1      40.160  33.344  35.767  1.00  0.00     0.012 A 
ATOM     66  C   UNL A   1      38.689  31.590  36.596  1.00  0.00     0.148 A 
ATOM     67  C   UNL A   1      39.791  34.165  36.832  1.00  0.00     0.002 A 
ATOM     68  C   UNL A   1      38.290  32.432  37.626  1.00  0.00     0.091 A 
ATOM     69  F   UNL A   1      38.210  30.344  36.475  1.00  0.00    -0.205 F 
ATOM     70  C   UNL A   1      38.849  33.714  37.755  1.00  0.00     0.022 A 
BRANCH  68  71
ATOM     71  S   UNL A   1      37.026  31.972  38.816  1.00  0.00     0.127 S 
ATOM     72  O   UNL A   1      36.927  30.530  38.600  1.00  0.00    -0.237 OA
ATOM     73  O   UNL A   1      37.644  32.359  40.085  1.00  0.00    -0.237 OA
ATOM     74  O   UNL A   1      35.840  32.738  38.459  1.00  0.00    -0.744 OA
ENDBRANCH  68  71
ENDBRANCH  50  64
BRANCH  51  75
ATOM     75  C   UNL A   1      42.043  26.640  27.631  1.00  0.00     0.023 A 
ATOM     76  C   UNL A   1      42.701  27.289  26.569  1.00  0.00     0.012 A 
ATOM     77  C   UNL A   1      41.768  25.261  27.528  1.00  0.00     0.148 A 
ATOM     78  C   UNL A   1      43.048  26.589  25.413  1.00  0.00     0.002 A 
ATOM     79  C   UNL A   1      42.169  24.558  26.398  1.00  0.00     0.091 A 
ATOM     80  F   UNL A   1      41.122  24.666  28.539  1.00  0.00    -0.205 F 
ATOM     81  C   UNL A   1      42.791  25.223  25.331  1.00  0.00     0.022 A 
BRANCH  79  82
ATOM     82  S   UNL A   1      41.987  22.777  26.261  1.00  0.00     0.127 S 
ATOM     83  O   UNL A   1      42.614  22.510  24.969  1.00  0.00    -0.237 OA
ATOM     84  O   UNL A   1      42.743  22.308  27.423  1.00  0.00    -0.237 OA
ATOM     85  O   UNL A   1      40.555  22.520  26.333  1.00  0.00    -0.744 OA
ENDBRANCH  79  82
ENDBRANCH  51  75
BRANCH  63  86
ATOM     86  C   UNL A   1      44.728  27.204  34.056  1.00  0.00     0.023 A 
ATOM     87  C   UNL A   1      45.997  27.815  34.009  1.00  0.00     0.012 A 
ATOM     88  C   UNL A   1      44.559  26.027  34.814  1.00  0.00     0.148 A 
ATOM     89  C   UNL A   1      47.084  27.246  34.674  1.00  0.00     0.002 A 
ATOM     90  C   UNL A   1      45.633  25.495  35.516  1.00  0.00     0.091 A 
ATOM     91  F   UNL A   1      43.348  25.451  34.835  1.00  0.00    -0.205 F 
ATOM     92  C   UNL A   1      46.899  26.094  35.436  1.00  0.00     0.022 A 
BRANCH  90  93
ATOM     93  S   UNL A   1      45.468  24.073  36.602  1.00  0.00     0.127 S 
ATOM     94  O   UNL A   1      44.849  23.090  35.715  1.00  0.00    -0.237 OA
ATOM     95  O   UNL A   1      46.859  23.787  36.952  1.00  0.00    -0.237 OA
ATOM     96  O   UNL A   1      44.642  24.513  37.719  1.00  0.00    -0.744 OA
ENDBRANCH  90  93
ENDBRANCH  63  86
ENDBRANCH  37  38
ENDBRANCH  30  32
ENDBRANCH  29  30
ENDBRANCH  28  29
ENDBRANCH  27  28
ENDBRANCH  26  27
ENDBRANCH   1  26
TORSDOF 23
ENDMDL
