MODEL 1
REMARK VINA RESULT:      -9.3      0.000      0.000
REMARK SMILES C[C@]([NH2+]C[C@H]1Cc2ccccc2O1)(C(=O)OCCOCCOCCOC(=O)c1ccc(-c2c3nc(c(-c4cccc(S(=O)(=O)[O-])c4F)c4ccc([nH]4)c(-c4cccc(S(=O)(=O)[O-])c4F)c4nc(c(-c5cccc(S(=O)(=O)[O-])c5F)c5ccc2[nH]5)C=C4)C=C3)cc1)C(F)(F)F
REMARK SMILES IDX 20 1 19 2 18 3 17 4 16 5 14 6 15 7 2 8 1 9 91 10 92 11 93 12
REMARK SMILES IDX 94 13 3 14 4 17 5 18 6 19 13 20 7 21 12 22 8 23 11 24 9 25
REMARK SMILES IDX 10 26 21 27 22 28 23 29 24 30 25 31 26 32 27 33 28 34 29 35
REMARK SMILES IDX 90 36 30 37 89 38 31 39 32 40 33 41 83 42 34 43 88 44 82 45
REMARK SMILES IDX 84 46 35 47 87 48 81 49 80 50 36 52 68 53 48 54 67 55 49 56
REMARK SMILES IDX 52 57 66 58 85 59 50 60 51 61 65 63 86 64 53 65 37 66 38 67
REMARK SMILES IDX 46 68 39 69 41 70 47 71 40 72 42 73 43 74 44 75 45 76 69 77
REMARK SMILES IDX 70 78 78 79 71 80 73 81 79 82 72 83 74 84 75 85 76 86 77 87
REMARK SMILES IDX 54 88 55 89 63 90 56 91 58 92 64 93 57 94 59 95 60 96 61 97
REMARK SMILES IDX 62 98
REMARK H PARENT 3 15 3 16 84 51 52 62
REMARK Flexibility Score: inf
ROOT
ATOM      1  C   UNL A   1      34.246  31.738  28.223  1.00  0.00     0.188 C 
ENDROOT
BRANCH   1   2
ATOM      2  O   UNL A   1      34.520  30.428  27.747  1.00  0.00    -0.376 OA
BRANCH   2   3
ATOM      3  C   UNL A   1      33.695  29.864  26.737  1.00  0.00     0.202 C 
BRANCH   3   4
ATOM      4  C   UNL A   1      32.174  29.705  26.932  1.00  0.00     0.261 C 
BRANCH   4   5
ATOM      5  O   UNL A   1      31.555  28.560  26.311  1.00  0.00    -0.458 OA
BRANCH   5   6
ATOM      6  C   UNL A   1      31.444  28.601  24.949  1.00  0.00     0.377 C 
ATOM      7  O   UNL A   1      31.013  29.576  24.344  1.00  0.00    -0.244 OA
BRANCH   6   8
ATOM      8  C   UNL A   1      31.818  27.273  24.261  1.00  0.00     0.287 C 
ATOM      9  C   UNL A   1      31.051  27.278  22.926  1.00  0.00     0.103 C 
BRANCH   8  10
ATOM     10  C   UNL A   1      33.340  27.391  23.995  1.00  0.00     0.455 C 
ATOM     11  F   UNL A   1      34.068  27.211  25.124  1.00  0.00    -0.164 F 
ATOM     12  F   UNL A   1      33.744  26.433  23.119  1.00  0.00    -0.164 F 
ATOM     13  F   UNL A   1      33.698  28.575  23.456  1.00  0.00    -0.164 F 
ENDBRANCH   8  10
BRANCH   8  14
ATOM     14  N   UNL A   1      31.479  26.069  25.129  1.00  0.00    -0.322 N 
ATOM     15  H   UNL A   1      30.998  26.406  25.963  1.00  0.00     0.347 HD
ATOM     16  H   UNL A   1      32.364  25.605  25.331  1.00  0.00     0.347 HD
BRANCH  14  17
ATOM     17  C   UNL A   1      30.628  25.066  24.492  1.00  0.00     0.307 C 
BRANCH  17  18
ATOM     18  C   UNL A   1      31.027  23.575  24.662  1.00  0.00     0.232 C 
ATOM     19  C   UNL A   1      31.770  22.914  23.489  1.00  0.00     0.090 C 
ATOM     20  O   UNL A   1      31.934  23.537  25.810  1.00  0.00    -0.484 OA
ATOM     21  C   UNL A   1      33.158  23.259  23.877  1.00  0.00    -0.002 A 
ATOM     22  C   UNL A   1      33.174  23.602  25.221  1.00  0.00     0.123 A 
ATOM     23  C   UNL A   1      34.320  23.254  23.131  1.00  0.00     0.007 A 
ATOM     24  C   UNL A   1      34.325  24.009  25.861  1.00  0.00     0.047 A 
ATOM     25  C   UNL A   1      35.499  23.669  23.756  1.00  0.00     0.001 A 
ATOM     26  C   UNL A   1      35.499  24.058  25.108  1.00  0.00     0.004 A 
ENDBRANCH  17  18
ENDBRANCH  14  17
ENDBRANCH   8  14
ENDBRANCH   6   8
ENDBRANCH   5   6
ENDBRANCH   4   5
ENDBRANCH   3   4
ENDBRANCH   2   3
ENDBRANCH   1   2
BRANCH   1  27
ATOM     27  C   UNL A   1      35.229  32.869  27.874  1.00  0.00     0.188 C 
BRANCH  27  28
ATOM     28  O   UNL A   1      34.621  34.126  27.659  1.00  0.00    -0.376 OA
BRANCH  28  29
ATOM     29  C   UNL A   1      33.239  34.243  27.966  1.00  0.00     0.202 C 
BRANCH  29  30
ATOM     30  C   UNL A   1      32.708  35.208  29.051  1.00  0.00     0.261 C 
BRANCH  30  31
ATOM     31  O   UNL A   1      33.627  35.678  30.049  1.00  0.00    -0.460 OA
BRANCH  31  32
ATOM     32  C   UNL A   1      33.666  35.010  31.222  1.00  0.00     0.338 C 
ATOM     33  O   UNL A   1      32.786  34.990  32.076  1.00  0.00    -0.246 OA
BRANCH  32  34
ATOM     34  C   UNL A   1      34.835  34.101  31.204  1.00  0.00     0.060 A 
ATOM     35  C   UNL A   1      34.686  32.806  31.725  1.00  0.00     0.016 A 
ATOM     36  C   UNL A   1      36.068  34.514  30.693  1.00  0.00     0.016 A 
ATOM     37  C   UNL A   1      35.780  31.944  31.792  1.00  0.00     0.010 A 
ATOM     38  C   UNL A   1      37.171  33.656  30.784  1.00  0.00     0.010 A 
ATOM     39  C   UNL A   1      37.043  32.388  31.383  1.00  0.00    -0.014 A 
BRANCH  39  40
ATOM     40  C   UNL A   1      38.245  31.637  31.827  1.00  0.00     0.031 A 
ATOM     41  C   UNL A   1      38.847  31.997  33.163  1.00  0.00     0.074 A 
ATOM     42  C   UNL A   1      38.770  30.632  31.104  1.00  0.00     0.049 A 
ATOM     43  N   UNL A   1      39.873  31.476  33.782  1.00  0.00    -0.248 NA
ATOM     44  C   UNL A   1      38.198  33.097  33.899  1.00  0.00     0.031 C 
ATOM     45  C   UNL A   1      38.272  30.167  29.811  1.00  0.00     0.029 A 
ATOM     46  N   UNL A   1      39.855  29.829  31.357  1.00  0.00    -0.354 N 
ATOM     47  C   UNL A   1      40.016  32.203  34.958  1.00  0.00     0.074 A 
ATOM     48  C   UNL A   1      38.979  33.211  34.962  1.00  0.00     0.031 C 
ATOM     49  C   UNL A   1      39.065  29.171  29.374  1.00  0.00     0.029 A 
ATOM     50  C   UNL A   1      40.135  28.944  30.344  1.00  0.00     0.049 A 
ATOM     51  H   UNL A   1      40.384  29.883  32.186  1.00  0.00     0.167 HD
ATOM     52  C   UNL A   1      40.918  32.043  35.954  1.00  0.00     0.034 A 
ATOM     53  C   UNL A   1      41.147  28.060  30.213  1.00  0.00     0.034 A 
ATOM     54  C   UNL A   1      41.938  31.033  35.961  1.00  0.00     0.049 A 
ATOM     55  C   UNL A   1      42.155  27.918  31.326  1.00  0.00     0.074 A 
ATOM     56  C   UNL A   1      42.872  30.761  36.946  1.00  0.00     0.029 A 
ATOM     57  N   UNL A   1      42.174  30.139  34.929  1.00  0.00    -0.354 N 
ATOM     58  N   UNL A   1      42.209  28.538  32.481  1.00  0.00    -0.248 NA
ATOM     59  C   UNL A   1      43.219  26.921  31.134  1.00  0.00     0.031 C 
ATOM     60  C   UNL A   1      43.698  29.730  36.490  1.00  0.00     0.029 A 
ATOM     61  C   UNL A   1      43.246  29.323  35.245  1.00  0.00     0.049 A 
ATOM     62  H   UNL A   1      41.654  30.091  34.094  1.00  0.00     0.167 HD
ATOM     63  C   UNL A   1      43.278  27.971  33.172  1.00  0.00     0.074 A 
ATOM     64  C   UNL A   1      43.834  26.949  32.309  1.00  0.00     0.031 C 
ATOM     65  C   UNL A   1      43.757  28.271  34.404  1.00  0.00     0.034 A 
BRANCH  52  66
ATOM     66  C   UNL A   1      40.840  32.991  37.123  1.00  0.00     0.023 A 
ATOM     67  C   UNL A   1      41.712  34.097  37.196  1.00  0.00     0.012 A 
ATOM     68  C   UNL A   1      39.873  32.806  38.129  1.00  0.00     0.148 A 
ATOM     69  C   UNL A   1      41.646  34.982  38.271  1.00  0.00     0.002 A 
ATOM     70  C   UNL A   1      39.780  33.720  39.171  1.00  0.00     0.091 A 
ATOM     71  F   UNL A   1      39.071  31.734  38.054  1.00  0.00    -0.205 F 
ATOM     72  C   UNL A   1      40.674  34.800  39.251  1.00  0.00     0.022 A 
BRANCH  70  73
ATOM     73  S   UNL A   1      38.509  33.618  40.435  1.00  0.00     0.127 S 
ATOM     74  O   UNL A   1      38.628  34.925  41.079  1.00  0.00    -0.237 OA
ATOM     75  O   UNL A   1      37.297  33.440  39.635  1.00  0.00    -0.237 OA
ATOM     76  O   UNL A   1      38.860  32.477  41.269  1.00  0.00    -0.744 OA
ENDBRANCH  70  73
ENDBRANCH  52  66
BRANCH  53  77
ATOM     77  C   UNL A   1      41.244  27.204  28.995  1.00  0.00     0.023 A 
ATOM     78  C   UNL A   1      40.506  26.006  28.924  1.00  0.00     0.012 A 
ATOM     79  C   UNL A   1      42.078  27.562  27.917  1.00  0.00     0.148 A 
ATOM     80  C   UNL A   1      40.625  25.161  27.819  1.00  0.00     0.002 A 
ATOM     81  C   UNL A   1      42.149  26.743  26.795  1.00  0.00     0.091 A 
ATOM     82  F   UNL A   1      42.785  28.697  28.011  1.00  0.00    -0.205 F 
ATOM     83  C   UNL A   1      41.439  25.533  26.752  1.00  0.00     0.022 A 
BRANCH  81  84
ATOM     84  S   UNL A   1      43.083  27.191  25.330  1.00  0.00     0.127 S 
ATOM     85  O   UNL A   1      44.332  27.680  25.908  1.00  0.00    -0.237 OA
ATOM     86  O   UNL A   1      43.188  25.906  24.637  1.00  0.00    -0.237 OA
ATOM     87  O   UNL A   1      42.279  28.187  24.636  1.00  0.00    -0.744 OA
ENDBRANCH  81  84
ENDBRANCH  53  77
BRANCH  65  88
ATOM     88  C   UNL A   1      44.898  27.441  34.939  1.00  0.00     0.023 A 
ATOM     89  C   UNL A   1      46.232  27.849  34.740  1.00  0.00     0.012 A 
ATOM     90  C   UNL A   1      44.639  26.281  35.698  1.00  0.00     0.148 A 
ATOM     91  C   UNL A   1      47.289  27.091  35.245  1.00  0.00     0.002 A 
ATOM     92  C   UNL A   1      45.694  25.563  36.246  1.00  0.00     0.091 A 
ATOM     93  F   UNL A   1      43.366  25.897  35.866  1.00  0.00    -0.205 F 
ATOM     94  C   UNL A   1      47.021  25.956  36.007  1.00  0.00     0.022 A 
BRANCH  92  95
ATOM     95  S   UNL A   1      45.437  24.151  37.326  1.00  0.00     0.127 S 
ATOM     96  O   UNL A   1      46.787  23.910  37.830  1.00  0.00    -0.237 OA
ATOM     97  O   UNL A   1      44.501  24.683  38.318  1.00  0.00    -0.237 OA
ATOM     98  O   UNL A   1      44.886  23.097  36.483  1.00  0.00    -0.744 OA
ENDBRANCH  92  95
ENDBRANCH  65  88
ENDBRANCH  39  40
ENDBRANCH  32  34
ENDBRANCH  31  32
ENDBRANCH  30  31
ENDBRANCH  29  30
ENDBRANCH  28  29
ENDBRANCH  27  28
ENDBRANCH   1  27
TORSDOF 24
ENDMDL
MODEL 2
REMARK VINA RESULT:      -8.9      1.989      2.321
REMARK SMILES C[C@]([NH2+]C[C@H]1Cc2ccccc2O1)(C(=O)OCCOCCOCCOC(=O)c1ccc(-c2c3nc(c(-c4cccc(S(=O)(=O)[O-])c4F)c4ccc([nH]4)c(-c4cccc(S(=O)(=O)[O-])c4F)c4nc(c(-c5cccc(S(=O)(=O)[O-])c5F)c5ccc2[nH]5)C=C4)C=C3)cc1)C(F)(F)F
REMARK SMILES IDX 20 1 19 2 18 3 17 4 16 5 14 6 15 7 2 8 1 9 91 10 92 11 93 12
REMARK SMILES IDX 94 13 3 14 4 17 5 18 6 19 13 20 7 21 12 22 8 23 11 24 9 25
REMARK SMILES IDX 10 26 21 27 22 28 23 29 24 30 25 31 26 32 27 33 28 34 29 35
REMARK SMILES IDX 90 36 30 37 89 38 31 39 32 40 33 41 83 42 34 43 88 44 82 45
REMARK SMILES IDX 84 46 35 47 87 48 81 49 80 50 36 52 68 53 48 54 67 55 49 56
REMARK SMILES IDX 52 57 66 58 85 59 50 60 51 61 65 63 86 64 53 65 37 66 38 67
REMARK SMILES IDX 46 68 39 69 41 70 47 71 40 72 42 73 43 74 44 75 45 76 69 77
REMARK SMILES IDX 70 78 78 79 71 80 73 81 79 82 72 83 74 84 75 85 76 86 77 87
REMARK SMILES IDX 54 88 55 89 63 90 56 91 58 92 64 93 57 94 59 95 60 96 61 97
REMARK SMILES IDX 62 98
REMARK H PARENT 3 15 3 16 84 51 52 62
REMARK Flexibility Score: inf
ROOT
ATOM      1  C   UNL A   1      34.101  31.799  28.153  1.00  0.00     0.188 C 
ENDROOT
BRANCH   1   2
ATOM      2  O   UNL A   1      34.388  30.608  27.433  1.00  0.00    -0.376 OA
BRANCH   2   3
ATOM      3  C   UNL A   1      33.474  30.151  26.446  1.00  0.00     0.202 C 
BRANCH   3   4
ATOM      4  C   UNL A   1      31.993  29.882  26.779  1.00  0.00     0.261 C 
BRANCH   4   5
ATOM      5  O   UNL A   1      31.531  28.523  26.635  1.00  0.00    -0.458 OA
BRANCH   5   6
ATOM      6  C   UNL A   1      31.424  28.057  25.353  1.00  0.00     0.377 C 
ATOM      7  O   UNL A   1      31.018  28.746  24.424  1.00  0.00    -0.244 OA
BRANCH   6   8
ATOM      8  C   UNL A   1      31.769  26.561  25.212  1.00  0.00     0.287 C 
ATOM      9  C   UNL A   1      31.085  26.108  23.910  1.00  0.00     0.103 C 
BRANCH   8  10
ATOM     10  C   UNL A   1      33.309  26.536  25.034  1.00  0.00     0.455 C 
ATOM     11  F   UNL A   1      33.724  25.430  24.369  1.00  0.00    -0.164 F 
ATOM     12  F   UNL A   1      33.719  27.604  24.301  1.00  0.00    -0.164 F 
ATOM     13  F   UNL A   1      33.983  26.594  26.201  1.00  0.00    -0.164 F 
ENDBRANCH   8  10
BRANCH   8  14
ATOM     14  N   UNL A   1      31.318  25.759  26.425  1.00  0.00    -0.322 N 
ATOM     15  H   UNL A   1      30.964  26.412  27.123  1.00  0.00     0.347 HD
ATOM     16  H   UNL A   1      32.134  25.233  26.738  1.00  0.00     0.347 HD
BRANCH  14  17
ATOM     17  C   UNL A   1      30.274  24.771  26.159  1.00  0.00     0.307 C 
BRANCH  17  18
ATOM     18  C   UNL A   1      30.470  23.346  26.744  1.00  0.00     0.232 C 
ATOM     19  C   UNL A   1      30.725  22.209  25.742  1.00  0.00     0.090 C 
ATOM     20  O   UNL A   1      31.657  23.428  27.598  1.00  0.00    -0.484 OA
ATOM     21  C   UNL A   1      32.201  22.305  25.661  1.00  0.00    -0.002 A 
ATOM     22  C   UNL A   1      32.664  23.014  26.759  1.00  0.00     0.123 A 
ATOM     23  C   UNL A   1      33.079  21.797  24.722  1.00  0.00     0.007 A 
ATOM     24  C   UNL A   1      34.000  23.299  26.940  1.00  0.00     0.047 A 
ATOM     25  C   UNL A   1      34.438  22.079  24.880  1.00  0.00     0.001 A 
ATOM     26  C   UNL A   1      34.895  22.837  25.974  1.00  0.00     0.004 A 
ENDBRANCH  17  18
ENDBRANCH  14  17
ENDBRANCH   8  14
ENDBRANCH   6   8
ENDBRANCH   5   6
ENDBRANCH   4   5
ENDBRANCH   3   4
ENDBRANCH   2   3
ENDBRANCH   1   2
BRANCH   1  27
ATOM     27  C   UNL A   1      35.085  32.977  28.050  1.00  0.00     0.188 C 
BRANCH  27  28
ATOM     28  O   UNL A   1      34.491  34.205  27.686  1.00  0.00    -0.376 OA
BRANCH  28  29
ATOM     29  C   UNL A   1      33.139  34.413  28.069  1.00  0.00     0.202 C 
BRANCH  29  30
ATOM     30  C   UNL A   1      32.747  35.177  29.355  1.00  0.00     0.261 C 
BRANCH  30  31
ATOM     31  O   UNL A   1      33.791  35.545  30.269  1.00  0.00    -0.460 OA
BRANCH  31  32
ATOM     32  C   UNL A   1      33.871  34.859  31.431  1.00  0.00     0.338 C 
ATOM     33  O   UNL A   1      33.009  34.803  32.301  1.00  0.00    -0.246 OA
BRANCH  32  34
ATOM     34  C   UNL A   1      35.062  33.981  31.375  1.00  0.00     0.060 A 
ATOM     35  C   UNL A   1      34.938  32.653  31.812  1.00  0.00     0.016 A 
ATOM     36  C   UNL A   1      36.292  34.454  30.910  1.00  0.00     0.016 A 
ATOM     37  C   UNL A   1      36.052  31.815  31.842  1.00  0.00     0.010 A 
ATOM     38  C   UNL A   1      37.414  33.618  30.965  1.00  0.00     0.010 A 
ATOM     39  C   UNL A   1      37.309  32.313  31.482  1.00  0.00    -0.014 A 
BRANCH  39  40
ATOM     40  C   UNL A   1      38.523  31.565  31.898  1.00  0.00     0.031 A 
ATOM     41  C   UNL A   1      39.147  31.917  33.225  1.00  0.00     0.074 A 
ATOM     42  C   UNL A   1      39.039  30.568  31.156  1.00  0.00     0.049 A 
ATOM     43  N   UNL A   1      40.188  31.396  33.820  1.00  0.00    -0.248 NA
ATOM     44  C   UNL A   1      38.507  33.008  33.981  1.00  0.00     0.031 C 
ATOM     45  C   UNL A   1      38.519  30.111  29.870  1.00  0.00     0.029 A 
ATOM     46  N   UNL A   1      40.133  29.769  31.383  1.00  0.00    -0.354 N 
ATOM     47  C   UNL A   1      40.349  32.115  34.999  1.00  0.00     0.074 A 
ATOM     48  C   UNL A   1      39.307  33.117  35.031  1.00  0.00     0.031 C 
ATOM     49  C   UNL A   1      39.309  29.123  29.409  1.00  0.00     0.029 A 
ATOM     50  C   UNL A   1      40.398  28.893  30.358  1.00  0.00     0.049 A 
ATOM     51  H   UNL A   1      40.676  29.818  32.203  1.00  0.00     0.167 HD
ATOM     52  C   UNL A   1      41.270  31.951  35.977  1.00  0.00     0.034 A 
ATOM     53  C   UNL A   1      41.411  28.015  30.201  1.00  0.00     0.034 A 
ATOM     54  C   UNL A   1      42.296  30.946  35.957  1.00  0.00     0.049 A 
ATOM     55  C   UNL A   1      42.441  27.869  31.294  1.00  0.00     0.074 A 
ATOM     56  C   UNL A   1      43.248  30.671  36.922  1.00  0.00     0.029 A 
ATOM     57  N   UNL A   1      42.516  30.061  34.914  1.00  0.00    -0.354 N 
ATOM     58  N   UNL A   1      42.513  28.480  32.452  1.00  0.00    -0.248 NA
ATOM     59  C   UNL A   1      43.506  26.879  31.074  1.00  0.00     0.031 C 
ATOM     60  C   UNL A   1      44.071  29.648  36.443  1.00  0.00     0.029 A 
ATOM     61  C   UNL A   1      43.598  29.248  35.203  1.00  0.00     0.049 A 
ATOM     62  H   UNL A   1      41.980  30.018  34.088  1.00  0.00     0.167 HD
ATOM     63  C   UNL A   1      43.597  27.913  33.118  1.00  0.00     0.074 A 
ATOM     64  C   UNL A   1      44.142  26.901  32.237  1.00  0.00     0.031 C 
ATOM     65  C   UNL A   1      44.098  28.206  34.344  1.00  0.00     0.034 A 
BRANCH  52  66
ATOM     66  C   UNL A   1      41.210  32.889  37.154  1.00  0.00     0.023 A 
ATOM     67  C   UNL A   1      40.385  32.587  38.258  1.00  0.00     0.012 A 
ATOM     68  C   UNL A   1      42.004  34.051  37.184  1.00  0.00     0.148 A 
ATOM     69  C   UNL A   1      40.324  33.446  39.354  1.00  0.00     0.002 A 
ATOM     70  C   UNL A   1      41.977  34.876  38.302  1.00  0.00     0.091 A 
ATOM     71  F   UNL A   1      42.763  34.333  36.115  1.00  0.00    -0.205 F 
ATOM     72  C   UNL A   1      41.128  34.583  39.381  1.00  0.00     0.022 A 
BRANCH  70  73
ATOM     73  S   UNL A   1      43.037  36.316  38.466  1.00  0.00     0.127 S 
ATOM     74  O   UNL A   1      44.366  35.716  38.381  1.00  0.00    -0.237 OA
ATOM     75  O   UNL A   1      42.651  37.113  37.300  1.00  0.00    -0.237 OA
ATOM     76  O   UNL A   1      42.704  36.917  39.750  1.00  0.00    -0.744 OA
ENDBRANCH  70  73
ENDBRANCH  52  66
BRANCH  53  77
ATOM     77  C   UNL A   1      41.490  27.169  28.975  1.00  0.00     0.023 A 
ATOM     78  C   UNL A   1      40.672  26.028  28.861  1.00  0.00     0.012 A 
ATOM     79  C   UNL A   1      42.383  27.480  27.930  1.00  0.00     0.148 A 
ATOM     80  C   UNL A   1      40.769  25.190  27.749  1.00  0.00     0.002 A 
ATOM     81  C   UNL A   1      42.435  26.672  26.800  1.00  0.00     0.091 A 
ATOM     82  F   UNL A   1      43.165  28.561  28.065  1.00  0.00    -0.205 F 
ATOM     83  C   UNL A   1      41.644  25.516  26.716  1.00  0.00     0.022 A 
BRANCH  81  84
ATOM     84  S   UNL A   1      43.449  27.070  25.373  1.00  0.00     0.127 S 
ATOM     85  O   UNL A   1      43.782  25.743  24.862  1.00  0.00    -0.237 OA
ATOM     86  O   UNL A   1      42.514  27.832  24.544  1.00  0.00    -0.237 OA
ATOM     87  O   UNL A   1      44.570  27.845  25.887  1.00  0.00    -0.744 OA
ENDBRANCH  81  84
ENDBRANCH  53  77
BRANCH  65  88
ATOM     88  C   UNL A   1      45.253  27.378  34.851  1.00  0.00     0.023 A 
ATOM     89  C   UNL A   1      45.018  26.206  35.598  1.00  0.00     0.012 A 
ATOM     90  C   UNL A   1      46.579  27.735  34.529  1.00  0.00     0.148 A 
ATOM     91  C   UNL A   1      46.084  25.431  36.057  1.00  0.00     0.002 A 
ATOM     92  C   UNL A   1      47.632  26.928  34.940  1.00  0.00     0.091 A 
ATOM     93  F   UNL A   1      46.787  28.860  33.831  1.00  0.00    -0.205 F 
ATOM     94  C   UNL A   1      47.389  25.784  35.718  1.00  0.00     0.022 A 
BRANCH  92  95
ATOM     95  S   UNL A   1      49.333  27.250  34.462  1.00  0.00     0.127 S 
ATOM     96  O   UNL A   1      49.508  28.634  34.896  1.00  0.00    -0.237 OA
ATOM     97  O   UNL A   1      50.072  26.264  35.252  1.00  0.00    -0.237 OA
ATOM     98  O   UNL A   1      49.392  27.033  33.022  1.00  0.00    -0.744 OA
ENDBRANCH  92  95
ENDBRANCH  65  88
ENDBRANCH  39  40
ENDBRANCH  32  34
ENDBRANCH  31  32
ENDBRANCH  30  31
ENDBRANCH  29  30
ENDBRANCH  28  29
ENDBRANCH  27  28
ENDBRANCH   1  27
TORSDOF 24
ENDMDL
MODEL 3
REMARK VINA RESULT:      -8.9      2.009      8.163
REMARK SMILES C[C@]([NH2+]C[C@H]1Cc2ccccc2O1)(C(=O)OCCOCCOCCOC(=O)c1ccc(-c2c3nc(c(-c4cccc(S(=O)(=O)[O-])c4F)c4ccc([nH]4)c(-c4cccc(S(=O)(=O)[O-])c4F)c4nc(c(-c5cccc(S(=O)(=O)[O-])c5F)c5ccc2[nH]5)C=C4)C=C3)cc1)C(F)(F)F
REMARK SMILES IDX 20 1 19 2 18 3 17 4 16 5 14 6 15 7 2 8 1 9 91 10 92 11 93 12
REMARK SMILES IDX 94 13 3 14 4 17 5 18 6 19 13 20 7 21 12 22 8 23 11 24 9 25
REMARK SMILES IDX 10 26 21 27 22 28 23 29 24 30 25 31 26 32 27 33 28 34 29 35
REMARK SMILES IDX 90 36 30 37 89 38 31 39 32 40 33 41 83 42 34 43 88 44 82 45
REMARK SMILES IDX 84 46 35 47 87 48 81 49 80 50 36 52 68 53 48 54 67 55 49 56
REMARK SMILES IDX 52 57 66 58 85 59 50 60 51 61 65 63 86 64 53 65 37 66 38 67
REMARK SMILES IDX 46 68 39 69 41 70 47 71 40 72 42 73 43 74 44 75 45 76 69 77
REMARK SMILES IDX 70 78 78 79 71 80 73 81 79 82 72 83 74 84 75 85 76 86 77 87
REMARK SMILES IDX 54 88 55 89 63 90 56 91 58 92 64 93 57 94 59 95 60 96 61 97
REMARK SMILES IDX 62 98
REMARK H PARENT 3 15 3 16 84 51 52 62
REMARK Flexibility Score: inf
ROOT
ATOM      1  C   UNL A   1      32.076  28.338  25.180  1.00  0.00     0.188 C 
ENDROOT
BRANCH   1   2
ATOM      2  O   UNL A   1      33.295  28.250  24.455  1.00  0.00    -0.376 OA
BRANCH   2   3
ATOM      3  C   UNL A   1      33.689  27.003  23.900  1.00  0.00     0.202 C 
BRANCH   3   4
ATOM      4  C   UNL A   1      32.670  25.874  23.647  1.00  0.00     0.261 C 
BRANCH   4   5
ATOM      5  O   UNL A   1      31.956  25.374  24.796  1.00  0.00    -0.458 OA
BRANCH   5   6
ATOM      6  C   UNL A   1      32.710  24.732  25.741  1.00  0.00     0.377 C 
ATOM      7  O   UNL A   1      33.599  25.289  26.375  1.00  0.00    -0.244 OA
BRANCH   6   8
ATOM      8  C   UNL A   1      32.399  23.227  25.857  1.00  0.00     0.287 C 
ATOM      9  C   UNL A   1      32.955  22.803  27.228  1.00  0.00     0.103 C 
BRANCH   8  10
ATOM     10  C   UNL A   1      30.851  23.152  25.871  1.00  0.00     0.455 C 
ATOM     11  F   UNL A   1      30.405  21.908  26.174  1.00  0.00    -0.164 F 
ATOM     12  F   UNL A   1      30.345  23.984  26.819  1.00  0.00    -0.164 F 
ATOM     13  F   UNL A   1      30.287  23.520  24.702  1.00  0.00    -0.164 F 
ENDBRANCH   8  10
BRANCH   8  14
ATOM     14  N   UNL A   1      33.002  22.433  24.706  1.00  0.00    -0.322 N 
ATOM     15  H   UNL A   1      32.936  23.000  23.862  1.00  0.00     0.347 HD
ATOM     16  H   UNL A   1      32.472  21.563  24.652  1.00  0.00     0.347 HD
BRANCH  14  17
ATOM     17  C   UNL A   1      34.400  22.048  24.886  1.00  0.00     0.307 C 
BRANCH  17  18
ATOM     18  C   UNL A   1      35.450  22.704  23.949  1.00  0.00     0.232 C 
ATOM     19  C   UNL A   1      36.093  24.015  24.431  1.00  0.00     0.090 C 
ATOM     20  O   UNL A   1      36.532  21.726  23.820  1.00  0.00    -0.484 OA
ATOM     21  C   UNL A   1      37.229  23.443  25.191  1.00  0.00    -0.002 A 
ATOM     22  C   UNL A   1      37.423  22.131  24.785  1.00  0.00     0.123 A 
ATOM     23  C   UNL A   1      38.047  24.020  26.143  1.00  0.00     0.007 A 
ATOM     24  C   UNL A   1      38.390  21.324  25.345  1.00  0.00     0.047 A 
ATOM     25  C   UNL A   1      39.031  23.220  26.730  1.00  0.00     0.001 A 
ATOM     26  C   UNL A   1      39.193  21.877  26.345  1.00  0.00     0.004 A 
ENDBRANCH  17  18
ENDBRANCH  14  17
ENDBRANCH   8  14
ENDBRANCH   6   8
ENDBRANCH   5   6
ENDBRANCH   4   5
ENDBRANCH   3   4
ENDBRANCH   2   3
ENDBRANCH   1   2
BRANCH   1  27
ATOM     27  C   UNL A   1      32.136  28.631  26.689  1.00  0.00     0.188 C 
BRANCH  27  28
ATOM     28  O   UNL A   1      31.506  29.834  27.076  1.00  0.00    -0.376 OA
BRANCH  28  29
ATOM     29  C   UNL A   1      31.670  30.959  26.224  1.00  0.00     0.202 C 
BRANCH  29  30
ATOM     30  C   UNL A   1      32.021  32.365  26.762  1.00  0.00     0.261 C 
BRANCH  30  31
ATOM     31  O   UNL A   1      33.081  32.477  27.724  1.00  0.00    -0.460 OA
BRANCH  31  32
ATOM     32  C   UNL A   1      33.362  33.710  28.199  1.00  0.00     0.338 C 
ATOM     33  O   UNL A   1      32.712  34.730  28.001  1.00  0.00    -0.246 OA
BRANCH  32  34
ATOM     34  C   UNL A   1      34.441  33.589  29.206  1.00  0.00     0.060 A 
ATOM     35  C   UNL A   1      35.742  33.975  28.847  1.00  0.00     0.016 A 
ATOM     36  C   UNL A   1      34.185  33.094  30.488  1.00  0.00     0.016 A 
ATOM     37  C   UNL A   1      36.798  33.810  29.742  1.00  0.00     0.010 A 
ATOM     38  C   UNL A   1      35.251  32.907  31.376  1.00  0.00     0.010 A 
ATOM     39  C   UNL A   1      36.569  33.213  30.987  1.00  0.00    -0.014 A 
BRANCH  39  40
ATOM     40  C   UNL A   1      37.727  32.677  31.748  1.00  0.00     0.031 A 
ATOM     41  C   UNL A   1      38.527  31.563  31.120  1.00  0.00     0.074 A 
ATOM     42  C   UNL A   1      38.099  33.183  32.938  1.00  0.00     0.049 A 
ATOM     43  N   UNL A   1      39.589  30.947  31.567  1.00  0.00    -0.248 NA
ATOM     44  C   UNL A   1      38.062  31.081  29.808  1.00  0.00     0.031 C 
ATOM     45  C   UNL A   1      37.430  34.274  33.642  1.00  0.00     0.029 A 
ATOM     46  N   UNL A   1      39.133  32.828  33.768  1.00  0.00    -0.354 N 
ATOM     47  C   UNL A   1      39.898  29.985  30.613  1.00  0.00     0.074 A 
ATOM     48  C   UNL A   1      38.905  30.089  29.567  1.00  0.00     0.031 C 
ATOM     49  C   UNL A   1      38.059  34.486  34.813  1.00  0.00     0.029 A 
ATOM     50  C   UNL A   1      39.162  33.534  34.947  1.00  0.00     0.049 A 
ATOM     51  H   UNL A   1      39.793  32.132  33.541  1.00  0.00     0.167 HD
ATOM     52  C   UNL A   1      40.923  29.100  30.596  1.00  0.00     0.034 A 
ATOM     53  C   UNL A   1      39.978  33.415  36.015  1.00  0.00     0.034 A 
ATOM     54  C   UNL A   1      41.921  29.005  31.624  1.00  0.00     0.049 A 
ATOM     55  C   UNL A   1      41.098  32.404  35.983  1.00  0.00     0.074 A 
ATOM     56  C   UNL A   1      43.025  28.172  31.675  1.00  0.00     0.029 A 
ATOM     57  N   UNL A   1      41.931  29.755  32.789  1.00  0.00    -0.354 N 
ATOM     58  N   UNL A   1      41.442  31.577  35.024  1.00  0.00    -0.248 NA
ATOM     59  C   UNL A   1      41.968  32.339  37.167  1.00  0.00     0.031 C 
ATOM     60  C   UNL A   1      43.677  28.388  32.893  1.00  0.00     0.029 A 
ATOM     61  C   UNL A   1      43.012  29.395  33.574  1.00  0.00     0.049 A 
ATOM     62  H   UNL A   1      41.266  30.442  33.023  1.00  0.00     0.167 HD
ATOM     63  C   UNL A   1      42.596  30.935  35.467  1.00  0.00     0.074 A 
ATOM     64  C   UNL A   1      42.897  31.478  36.776  1.00  0.00     0.031 C 
ATOM     65  C   UNL A   1      43.335  29.981  34.850  1.00  0.00     0.034 A 
BRANCH  52  66
ATOM     66  C   UNL A   1      41.011  28.159  29.423  1.00  0.00     0.023 A 
ATOM     67  C   UNL A   1      40.333  26.923  29.454  1.00  0.00     0.012 A 
ATOM     68  C   UNL A   1      41.736  28.520  28.270  1.00  0.00     0.148 A 
ATOM     69  C   UNL A   1      40.405  26.047  28.373  1.00  0.00     0.002 A 
ATOM     70  C   UNL A   1      41.761  27.664  27.177  1.00  0.00     0.091 A 
ATOM     71  F   UNL A   1      42.394  29.688  28.270  1.00  0.00    -0.205 F 
ATOM     72  C   UNL A   1      41.109  26.422  27.231  1.00  0.00     0.022 A 
BRANCH  70  73
ATOM     73  S   UNL A   1      42.570  28.093  25.632  1.00  0.00     0.127 S 
ATOM     74  O   UNL A   1      43.917  28.430  26.088  1.00  0.00    -0.237 OA
ATOM     75  O   UNL A   1      42.476  26.841  24.880  1.00  0.00    -0.237 OA
ATOM     76  O   UNL A   1      41.807  29.198  25.070  1.00  0.00    -0.744 OA
ENDBRANCH  70  73
ENDBRANCH  52  66
BRANCH  53  77
ATOM     77  C   UNL A   1      39.799  34.303  37.200  1.00  0.00     0.023 A 
ATOM     78  C   UNL A   1      40.270  35.630  37.155  1.00  0.00     0.012 A 
ATOM     79  C   UNL A   1      39.182  33.833  38.377  1.00  0.00     0.148 A 
ATOM     80  C   UNL A   1      40.165  36.461  38.271  1.00  0.00     0.002 A 
ATOM     81  C   UNL A   1      39.031  34.684  39.466  1.00  0.00     0.091 A 
ATOM     82  F   UNL A   1      38.756  32.563  38.406  1.00  0.00    -0.205 F 
ATOM     83  C   UNL A   1      39.539  35.991  39.423  1.00  0.00     0.022 A 
BRANCH  81  84
ATOM     84  S   UNL A   1      38.143  34.204  40.951  1.00  0.00     0.127 S 
ATOM     85  O   UNL A   1      39.147  33.415  41.659  1.00  0.00    -0.237 OA
ATOM     86  O   UNL A   1      37.844  35.504  41.554  1.00  0.00    -0.237 OA
ATOM     87  O   UNL A   1      36.973  33.467  40.492  1.00  0.00    -0.744 OA
ENDBRANCH  81  84
ENDBRANCH  53  77
BRANCH  65  88
ATOM     88  C   UNL A   1      44.590  29.504  35.539  1.00  0.00     0.023 A 
ATOM     89  C   UNL A   1      45.828  30.122  35.276  1.00  0.00     0.012 A 
ATOM     90  C   UNL A   1      44.524  28.475  36.501  1.00  0.00     0.148 A 
ATOM     91  C   UNL A   1      46.988  29.692  35.922  1.00  0.00     0.002 A 
ATOM     92  C   UNL A   1      45.673  28.090  37.183  1.00  0.00     0.091 A 
ATOM     93  F   UNL A   1      43.342  27.886  36.730  1.00  0.00    -0.205 F 
ATOM     94  C   UNL A   1      46.909  28.686  36.883  1.00  0.00     0.022 A 
BRANCH  92  95
ATOM     95  S   UNL A   1      45.644  26.878  38.507  1.00  0.00     0.127 S 
ATOM     96  O   UNL A   1      44.725  27.498  39.460  1.00  0.00    -0.237 OA
ATOM     97  O   UNL A   1      45.114  25.691  37.833  1.00  0.00    -0.237 OA
ATOM     98  O   UNL A   1      47.023  26.746  38.961  1.00  0.00    -0.744 OA
ENDBRANCH  92  95
ENDBRANCH  65  88
ENDBRANCH  39  40
ENDBRANCH  32  34
ENDBRANCH  31  32
ENDBRANCH  30  31
ENDBRANCH  29  30
ENDBRANCH  28  29
ENDBRANCH  27  28
ENDBRANCH   1  27
TORSDOF 24
ENDMDL
