MODEL 1
REMARK VINA RESULT:     -10.2      0.000      0.000
REMARK SMILES C[C@@H]1CC(C)(C)C[C@@](CC(=O)Nc2cccc(C(F)(F)F)c2)(C(=O)OCCOCCOCCOC(=O)c2ccc(-c3c4nc(c(-c5cccc(S(=O)(=O)[O-])c5F)c5ccc([nH]5)c(-c5cccc(S(=O)(=O)[O-])c5F)c5nc(c(-c6cccc(S(=O)(=O)[O-])c6F)c6ccc3[nH]6)C=C5)C=C4)cc2)C1
REMARK SMILES IDX 29 1 28 2 27 3 26 4 25 5 23 6 24 7 8 8 1 9 2 10 3 11 100 12
REMARK SMILES IDX 4 13 5 14 6 15 7 16 9 17 10 18 11 19 12 20 13 22 14 23 22 24
REMARK SMILES IDX 15 25 17 26 16 27 18 28 19 29 20 30 21 31 30 32 31 33 32 34
REMARK SMILES IDX 33 35 34 36 35 37 36 38 37 39 38 40 99 41 39 42 98 43 40 44
REMARK SMILES IDX 41 45 42 46 92 47 43 48 97 49 91 50 93 51 44 52 96 53 90 54
REMARK SMILES IDX 89 55 45 57 77 58 57 59 76 60 58 61 61 62 75 63 94 64 59 65
REMARK SMILES IDX 60 66 74 68 95 69 62 70 46 71 47 72 55 73 48 74 50 75 56 76
REMARK SMILES IDX 49 77 51 78 52 79 53 80 54 81 78 82 79 83 87 84 80 85 82 86
REMARK SMILES IDX 88 87 81 88 83 89 84 90 85 91 86 92 63 93 64 94 72 95 65 96
REMARK SMILES IDX 67 97 73 98 66 99 68 100 69 101 70 102 71 103
REMARK H PARENT 12 21 93 56 61 67
REMARK Flexibility Score: inf
ROOT
ATOM      1  C   UNL A   1      40.263  20.775  26.389  1.00  0.00     0.188 C 
ENDROOT
BRANCH   1   2
ATOM      2  O   UNL A   1      39.601  22.002  26.154  1.00  0.00    -0.376 OA
BRANCH   2   3
ATOM      3  C   UNL A   1      38.194  21.942  26.059  1.00  0.00     0.202 C 
BRANCH   3   4
ATOM      4  C   UNL A   1      37.664  21.911  24.628  1.00  0.00     0.261 C 
BRANCH   4   5
ATOM      5  O   UNL A   1      36.451  22.643  24.321  1.00  0.00    -0.463 OA
BRANCH   5   6
ATOM      6  C   UNL A   1      35.289  22.236  24.897  1.00  0.00     0.312 C 
ATOM      7  O   UNL A   1      35.099  21.081  25.246  1.00  0.00    -0.252 OA
BRANCH   6   8
ATOM      8  C   UNL A   1      34.198  23.327  24.951  1.00  0.00     0.078 C 
ATOM      9  C   UNL A   1      33.155  26.276  26.156  1.00  0.00     0.008 C 
ATOM     10  C   UNL A   1      34.156  25.965  25.053  1.00  0.00    -0.013 C 
ATOM     11  C   UNL A   1      33.606  26.044  23.643  1.00  0.00     0.009 C 
ATOM     12  C   UNL A   1      34.916  24.665  25.220  1.00  0.00     0.022 C 
ATOM     13  C   UNL A   1      32.854  24.791  23.134  1.00  0.00    -0.034 C 
ATOM     14  C   UNL A   1      31.390  24.808  23.608  1.00  0.00     0.011 C 
ATOM     15  C   UNL A   1      32.809  24.941  21.590  1.00  0.00     0.011 C 
ATOM     16  C   UNL A   1      33.565  23.440  23.514  1.00  0.00     0.025 C 
BRANCH   8  17
ATOM     17  C   UNL A   1      33.205  22.844  26.036  1.00  0.00     0.119 C 
BRANCH  17  18
ATOM     18  C   UNL A   1      31.925  22.057  25.822  1.00  0.00     0.225 C 
ATOM     19  O   UNL A   1      30.885  22.615  26.234  1.00  0.00    -0.275 OA
ATOM     20  N   UNL A   1      31.668  20.878  25.224  1.00  0.00    -0.326 N 
ATOM     21  H   UNL A   1      30.693  20.749  25.182  1.00  0.00     0.169 HD
BRANCH  20  22
ATOM     22  C   UNL A   1      32.299  19.764  24.640  1.00  0.00     0.041 A 
ATOM     23  C   UNL A   1      32.284  19.757  23.238  1.00  0.00     0.026 A 
ATOM     24  C   UNL A   1      32.823  18.646  25.278  1.00  0.00     0.039 A 
ATOM     25  C   UNL A   1      32.635  18.621  22.510  1.00  0.00     0.003 A 
ATOM     26  C   UNL A   1      33.068  17.443  24.570  1.00  0.00     0.058 A 
ATOM     27  C   UNL A   1      32.982  17.453  23.175  1.00  0.00     0.013 A 
BRANCH  26  28
ATOM     28  C   UNL A   1      33.315  16.128  25.293  1.00  0.00     0.416 C 
ATOM     29  F   UNL A   1      32.791  16.106  26.548  1.00  0.00    -0.166 F 
ATOM     30  F   UNL A   1      32.766  15.067  24.640  1.00  0.00    -0.166 F 
ATOM     31  F   UNL A   1      34.637  15.858  25.449  1.00  0.00    -0.166 F 
ENDBRANCH  26  28
ENDBRANCH  20  22
ENDBRANCH  17  18
ENDBRANCH   8  17
ENDBRANCH   6   8
ENDBRANCH   5   6
ENDBRANCH   4   5
ENDBRANCH   3   4
ENDBRANCH   2   3
ENDBRANCH   1   2
BRANCH   1  32
ATOM     32  C   UNL A   1      41.264  20.818  27.558  1.00  0.00     0.188 C 
BRANCH  32  33
ATOM     33  O   UNL A   1      42.444  21.607  27.471  1.00  0.00    -0.376 OA
BRANCH  33  34
ATOM     34  C   UNL A   1      42.571  22.560  26.426  1.00  0.00     0.202 C 
BRANCH  34  35
ATOM     35  C   UNL A   1      43.439  23.816  26.638  1.00  0.00     0.261 C 
BRANCH  35  36
ATOM     36  O   UNL A   1      42.758  25.024  27.028  1.00  0.00    -0.460 OA
BRANCH  36  37
ATOM     37  C   UNL A   1      42.694  26.015  26.103  1.00  0.00     0.338 C 
ATOM     38  O   UNL A   1      42.274  25.909  24.956  1.00  0.00    -0.246 OA
BRANCH  37  39
ATOM     39  C   UNL A   1      43.022  27.332  26.710  1.00  0.00     0.060 A 
ATOM     40  C   UNL A   1      43.732  27.350  27.923  1.00  0.00     0.016 A 
ATOM     41  C   UNL A   1      42.621  28.535  26.129  1.00  0.00     0.016 A 
ATOM     42  C   UNL A   1      44.014  28.555  28.570  1.00  0.00     0.010 A 
ATOM     43  C   UNL A   1      42.874  29.745  26.798  1.00  0.00     0.010 A 
ATOM     44  C   UNL A   1      43.541  29.760  28.040  1.00  0.00    -0.014 A 
BRANCH  44  45
ATOM     45  C   UNL A   1      43.557  30.992  28.876  1.00  0.00     0.031 A 
ATOM     46  C   UNL A   1      44.770  31.887  28.805  1.00  0.00     0.074 A 
ATOM     47  C   UNL A   1      42.530  31.324  29.682  1.00  0.00     0.049 A 
ATOM     48  N   UNL A   1      45.044  32.971  29.482  1.00  0.00    -0.248 NA
ATOM     49  C   UNL A   1      45.815  31.504  27.839  1.00  0.00     0.031 C 
ATOM     50  C   UNL A   1      41.289  30.568  29.832  1.00  0.00     0.029 A 
ATOM     51  N   UNL A   1      42.390  32.376  30.560  1.00  0.00    -0.354 N 
ATOM     52  C   UNL A   1      46.310  33.368  29.067  1.00  0.00     0.074 A 
ATOM     53  C   UNL A   1      46.746  32.419  28.067  1.00  0.00     0.031 C 
ATOM     54  C   UNL A   1      40.534  31.152  30.780  1.00  0.00     0.029 A 
ATOM     55  C   UNL A   1      41.249  32.305  31.326  1.00  0.00     0.049 A 
ATOM     56  H   UNL A   1      43.044  33.109  30.631  1.00  0.00     0.167 HD
ATOM     57  C   UNL A   1      47.047  34.425  29.482  1.00  0.00     0.034 A 
ATOM     58  C   UNL A   1      40.848  33.059  32.373  1.00  0.00     0.034 A 
ATOM     59  C   UNL A   1      46.606  35.389  30.452  1.00  0.00     0.049 A 
ATOM     60  C   UNL A   1      41.703  34.221  32.824  1.00  0.00     0.074 A 
ATOM     61  C   UNL A   1      47.257  36.536  30.875  1.00  0.00     0.029 A 
ATOM     62  N   UNL A   1      45.425  35.311  31.168  1.00  0.00    -0.354 N 
ATOM     63  N   UNL A   1      42.834  34.660  32.328  1.00  0.00    -0.248 NA
ATOM     64  C   UNL A   1      41.207  35.013  33.962  1.00  0.00     0.031 C 
ATOM     65  C   UNL A   1      46.492  37.124  31.886  1.00  0.00     0.029 A 
ATOM     66  C   UNL A   1      45.339  36.374  32.051  1.00  0.00     0.049 A 
ATOM     67  H   UNL A   1      44.747  34.606  31.065  1.00  0.00     0.167 HD
ATOM     68  C   UNL A   1      43.159  35.798  33.062  1.00  0.00     0.074 A 
ATOM     69  C   UNL A   1      42.095  35.995  34.022  1.00  0.00     0.031 C 
ATOM     70  C   UNL A   1      44.247  36.600  32.959  1.00  0.00     0.034 A 
BRANCH  57  71
ATOM     71  C   UNL A   1      48.422  34.609  28.898  1.00  0.00     0.023 A 
ATOM     72  C   UNL A   1      49.554  34.130  29.586  1.00  0.00     0.012 A 
ATOM     73  C   UNL A   1      48.574  35.162  27.610  1.00  0.00     0.148 A 
ATOM     74  C   UNL A   1      50.819  34.211  29.006  1.00  0.00     0.002 A 
ATOM     75  C   UNL A   1      49.829  35.193  27.020  1.00  0.00     0.091 A 
ATOM     76  F   UNL A   1      47.484  35.628  26.986  1.00  0.00    -0.205 F 
ATOM     77  C   UNL A   1      50.955  34.728  27.719  1.00  0.00     0.022 A 
BRANCH  75  78
ATOM     78  S   UNL A   1      50.094  35.757  25.335  1.00  0.00     0.127 S 
ATOM     79  O   UNL A   1      48.749  35.650  24.772  1.00  0.00    -0.237 OA
ATOM     80  O   UNL A   1      50.560  37.128  25.543  1.00  0.00    -0.237 OA
ATOM     81  O   UNL A   1      51.080  34.856  24.756  1.00  0.00    -0.744 OA
ENDBRANCH  75  78
ENDBRANCH  57  71
BRANCH  58  82
ATOM     82  C   UNL A   1      39.576  32.747  33.093  1.00  0.00     0.023 A 
ATOM     83  C   UNL A   1      39.566  31.765  34.105  1.00  0.00     0.012 A 
ATOM     84  C   UNL A   1      38.367  33.379  32.744  1.00  0.00     0.148 A 
ATOM     85  C   UNL A   1      38.371  31.383  34.716  1.00  0.00     0.002 A 
ATOM     86  C   UNL A   1      37.190  33.038  33.400  1.00  0.00     0.091 A 
ATOM     87  F   UNL A   1      38.388  34.293  31.763  1.00  0.00    -0.205 F 
ATOM     88  C   UNL A   1      37.185  32.024  34.370  1.00  0.00     0.022 A 
BRANCH  86  89
ATOM     89  S   UNL A   1      35.637  33.891  33.101  1.00  0.00     0.127 S 
ATOM     90  O   UNL A   1      35.990  35.273  33.417  1.00  0.00    -0.237 OA
ATOM     91  O   UNL A   1      35.414  33.623  31.679  1.00  0.00    -0.237 OA
ATOM     92  O   UNL A   1      34.668  33.265  33.990  1.00  0.00    -0.744 OA
ENDBRANCH  86  89
ENDBRANCH  58  82
BRANCH  70  93
ATOM     93  C   UNL A   1      44.326  37.810  33.857  1.00  0.00     0.023 A 
ATOM     94  C   UNL A   1      45.037  37.749  35.073  1.00  0.00     0.012 A 
ATOM     95  C   UNL A   1      43.761  39.036  33.451  1.00  0.00     0.148 A 
ATOM     96  C   UNL A   1      45.149  38.877  35.886  1.00  0.00     0.002 A 
ATOM     97  C   UNL A   1      43.924  40.168  34.239  1.00  0.00     0.091 A 
ATOM     98  F   UNL A   1      43.078  39.074  32.297  1.00  0.00    -0.205 F 
ATOM     99  C   UNL A   1      44.604  40.088  35.464  1.00  0.00     0.022 A 
BRANCH  97 100
ATOM    100  S   UNL A   1      43.346  41.791  33.728  1.00  0.00     0.127 S 
ATOM    101  O   UNL A   1      41.897  41.602  33.718  1.00  0.00    -0.237 OA
ATOM    102  O   UNL A   1      43.842  42.650  34.804  1.00  0.00    -0.237 OA
ATOM    103  O   UNL A   1      43.949  42.044  32.426  1.00  0.00    -0.744 OA
ENDBRANCH  97 100
ENDBRANCH  70  93
ENDBRANCH  44  45
ENDBRANCH  37  39
ENDBRANCH  36  37
ENDBRANCH  35  36
ENDBRANCH  34  35
ENDBRANCH  33  34
ENDBRANCH  32  33
ENDBRANCH   1  32
TORSDOF 24
ENDMDL
MODEL 2
REMARK VINA RESULT:      -9.9      6.859     11.478
REMARK SMILES C[C@@H]1CC(C)(C)C[C@@](CC(=O)Nc2cccc(C(F)(F)F)c2)(C(=O)OCCOCCOCCOC(=O)c2ccc(-c3c4nc(c(-c5cccc(S(=O)(=O)[O-])c5F)c5ccc([nH]5)c(-c5cccc(S(=O)(=O)[O-])c5F)c5nc(c(-c6cccc(S(=O)(=O)[O-])c6F)c6ccc3[nH]6)C=C5)C=C4)cc2)C1
REMARK SMILES IDX 29 1 28 2 27 3 26 4 25 5 23 6 24 7 8 8 1 9 2 10 3 11 100 12
REMARK SMILES IDX 4 13 5 14 6 15 7 16 9 17 10 18 11 19 12 20 13 22 14 23 22 24
REMARK SMILES IDX 15 25 17 26 16 27 18 28 19 29 20 30 21 31 30 32 31 33 32 34
REMARK SMILES IDX 33 35 34 36 35 37 36 38 37 39 38 40 99 41 39 42 98 43 40 44
REMARK SMILES IDX 41 45 42 46 92 47 43 48 97 49 91 50 93 51 44 52 96 53 90 54
REMARK SMILES IDX 89 55 45 57 77 58 57 59 76 60 58 61 61 62 75 63 94 64 59 65
REMARK SMILES IDX 60 66 74 68 95 69 62 70 46 71 47 72 55 73 48 74 50 75 56 76
REMARK SMILES IDX 49 77 51 78 52 79 53 80 54 81 78 82 79 83 87 84 80 85 82 86
REMARK SMILES IDX 88 87 81 88 83 89 84 90 85 91 86 92 63 93 64 94 72 95 65 96
REMARK SMILES IDX 67 97 73 98 66 99 68 100 69 101 70 102 71 103
REMARK H PARENT 12 21 93 56 61 67
REMARK Flexibility Score: inf
ROOT
ATOM      1  C   UNL A   1      35.499  31.748  27.907  1.00  0.00     0.188 C 
ENDROOT
BRANCH   1   2
ATOM      2  O   UNL A   1      34.155  31.317  27.825  1.00  0.00    -0.376 OA
BRANCH   2   3
ATOM      3  C   UNL A   1      33.882  30.307  26.878  1.00  0.00     0.202 C 
BRANCH   3   4
ATOM      4  C   UNL A   1      33.914  28.890  27.446  1.00  0.00     0.261 C 
BRANCH   4   5
ATOM      5  O   UNL A   1      33.435  27.800  26.619  1.00  0.00    -0.463 OA
BRANCH   5   6
ATOM      6  C   UNL A   1      32.103  27.530  26.617  1.00  0.00     0.312 C 
ATOM      7  O   UNL A   1      31.488  27.253  27.636  1.00  0.00    -0.252 OA
BRANCH   6   8
ATOM      8  C   UNL A   1      31.472  27.480  25.208  1.00  0.00     0.078 C 
ATOM      9  C   UNL A   1      29.218  28.678  23.036  1.00  0.00     0.008 C 
ATOM     10  C   UNL A   1      30.558  29.250  23.475  1.00  0.00    -0.013 C 
ATOM     11  C   UNL A   1      31.715  28.976  22.534  1.00  0.00     0.009 C 
ATOM     12  C   UNL A   1      30.973  28.904  24.891  1.00  0.00     0.022 C 
ATOM     13  C   UNL A   1      32.402  27.598  22.684  1.00  0.00    -0.034 C 
ATOM     14  C   UNL A   1      31.630  26.520  21.901  1.00  0.00     0.011 C 
ATOM     15  C   UNL A   1      33.773  27.746  21.973  1.00  0.00     0.011 C 
ATOM     16  C   UNL A   1      32.624  27.170  24.181  1.00  0.00     0.025 C 
BRANCH   8  17
ATOM     17  C   UNL A   1      30.395  26.372  25.293  1.00  0.00     0.119 C 
BRANCH  17  18
ATOM     18  C   UNL A   1      30.209  25.201  24.346  1.00  0.00     0.225 C 
ATOM     19  O   UNL A   1      29.311  25.349  23.489  1.00  0.00    -0.275 OA
ATOM     20  N   UNL A   1      30.857  24.028  24.206  1.00  0.00    -0.326 N 
ATOM     21  H   UNL A   1      30.519  23.572  23.402  1.00  0.00     0.169 HD
BRANCH  20  22
ATOM     22  C   UNL A   1      31.845  23.223  24.803  1.00  0.00     0.041 A 
ATOM     23  C   UNL A   1      32.951  23.932  25.296  1.00  0.00     0.026 A 
ATOM     24  C   UNL A   1      31.899  21.836  24.858  1.00  0.00     0.039 A 
ATOM     25  C   UNL A   1      34.120  23.279  25.685  1.00  0.00     0.003 A 
ATOM     26  C   UNL A   1      33.113  21.158  25.131  1.00  0.00     0.058 A 
ATOM     27  C   UNL A   1      34.218  21.900  25.560  1.00  0.00     0.013 A 
BRANCH  26  28
ATOM     28  C   UNL A   1      33.272  19.668  24.868  1.00  0.00     0.416 C 
ATOM     29  F   UNL A   1      32.688  18.896  25.822  1.00  0.00    -0.166 F 
ATOM     30  F   UNL A   1      32.713  19.289  23.686  1.00  0.00    -0.166 F 
ATOM     31  F   UNL A   1      34.573  19.280  24.834  1.00  0.00    -0.166 F 
ENDBRANCH  26  28
ENDBRANCH  20  22
ENDBRANCH  17  18
ENDBRANCH   8  17
ENDBRANCH   6   8
ENDBRANCH   5   6
ENDBRANCH   4   5
ENDBRANCH   3   4
ENDBRANCH   2   3
ENDBRANCH   1   2
BRANCH   1  32
ATOM     32  C   UNL A   1      35.668  33.162  28.494  1.00  0.00     0.188 C 
BRANCH  32  33
ATOM     33  O   UNL A   1      35.049  33.513  29.725  1.00  0.00    -0.376 OA
BRANCH  33  34
ATOM     34  C   UNL A   1      35.377  32.789  30.902  1.00  0.00     0.202 C 
BRANCH  34  35
ATOM     35  C   UNL A   1      36.856  32.611  31.301  1.00  0.00     0.261 C 
BRANCH  35  36
ATOM     36  O   UNL A   1      37.513  31.408  30.859  1.00  0.00    -0.460 OA
BRANCH  36  37
ATOM     37  C   UNL A   1      37.262  30.279  31.569  1.00  0.00     0.338 C 
ATOM     38  O   UNL A   1      36.169  29.746  31.719  1.00  0.00    -0.246 OA
BRANCH  37  39
ATOM     39  C   UNL A   1      38.528  29.629  32.001  1.00  0.00     0.060 A 
ATOM     40  C   UNL A   1      39.659  30.439  32.203  1.00  0.00     0.016 A 
ATOM     41  C   UNL A   1      38.628  28.249  32.181  1.00  0.00     0.016 A 
ATOM     42  C   UNL A   1      40.890  29.876  32.550  1.00  0.00     0.010 A 
ATOM     43  C   UNL A   1      39.874  27.681  32.495  1.00  0.00     0.010 A 
ATOM     44  C   UNL A   1      41.020  28.488  32.646  1.00  0.00    -0.014 A 
BRANCH  44  45
ATOM     45  C   UNL A   1      42.377  27.874  32.695  1.00  0.00     0.031 A 
ATOM     46  C   UNL A   1      43.005  27.638  34.046  1.00  0.00     0.074 A 
ATOM     47  C   UNL A   1      43.047  27.530  31.579  1.00  0.00     0.049 A 
ATOM     48  N   UNL A   1      44.194  27.182  34.342  1.00  0.00    -0.248 NA
ATOM     49  C   UNL A   1      42.178  27.961  35.223  1.00  0.00     0.031 C 
ATOM     50  C   UNL A   1      42.554  27.678  30.212  1.00  0.00     0.029 A 
ATOM     51  N   UNL A   1      44.314  27.013  31.424  1.00  0.00    -0.354 N 
ATOM     52  C   UNL A   1      44.279  27.216  35.730  1.00  0.00     0.074 A 
ATOM     53  C   UNL A   1      43.016  27.721  36.221  1.00  0.00     0.031 C 
ATOM     54  C   UNL A   1      43.523  27.308  29.356  1.00  0.00     0.029 A 
ATOM     55  C   UNL A   1      44.716  26.925  30.111  1.00  0.00     0.049 A 
ATOM     56  H   UNL A   1      44.878  26.734  32.181  1.00  0.00     0.167 HD
ATOM     57  C   UNL A   1      45.315  26.861  36.525  1.00  0.00     0.034 A 
ATOM     58  C   UNL A   1      45.918  26.610  29.581  1.00  0.00     0.034 A 
ATOM     59  C   UNL A   1      46.561  26.329  36.045  1.00  0.00     0.049 A 
ATOM     60  C   UNL A   1      47.061  26.237  30.497  1.00  0.00     0.074 A 
ATOM     61  C   UNL A   1      47.637  25.871  36.786  1.00  0.00     0.029 A 
ATOM     62  N   UNL A   1      46.910  26.208  34.712  1.00  0.00    -0.354 N 
ATOM     63  N   UNL A   1      47.079  26.146  31.805  1.00  0.00    -0.248 NA
ATOM     64  C   UNL A   1      48.343  25.893  29.861  1.00  0.00     0.031 C 
ATOM     65  C   UNL A   1      48.659  25.521  35.899  1.00  0.00     0.029 A 
ATOM     66  C   UNL A   1      48.196  25.707  34.607  1.00  0.00     0.049 A 
ATOM     67  H   UNL A   1      46.330  26.441  33.952  1.00  0.00     0.167 HD
ATOM     68  C   UNL A   1      48.352  25.693  32.140  1.00  0.00     0.074 A 
ATOM     69  C   UNL A   1      49.071  25.507  30.899  1.00  0.00     0.031 C 
ATOM     70  C   UNL A   1      48.884  25.464  33.367  1.00  0.00     0.034 A 
BRANCH  57  71
ATOM     71  C   UNL A   1      45.165  27.037  38.013  1.00  0.00     0.023 A 
ATOM     72  C   UNL A   1      44.709  25.969  38.810  1.00  0.00     0.012 A 
ATOM     73  C   UNL A   1      45.587  28.232  38.628  1.00  0.00     0.148 A 
ATOM     74  C   UNL A   1      44.660  26.095  40.198  1.00  0.00     0.002 A 
ATOM     75  C   UNL A   1      45.582  28.332  40.013  1.00  0.00     0.091 A 
ATOM     76  F   UNL A   1      45.999  29.239  37.846  1.00  0.00    -0.205 F 
ATOM     77  C   UNL A   1      45.110  27.268  40.799  1.00  0.00     0.022 A 
BRANCH  75  78
ATOM     78  S   UNL A   1      46.225  29.765  40.884  1.00  0.00     0.127 S 
ATOM     79  O   UNL A   1      47.604  29.810  40.402  1.00  0.00    -0.237 OA
ATOM     80  O   UNL A   1      45.367  30.837  40.378  1.00  0.00    -0.237 OA
ATOM     81  O   UNL A   1      46.074  29.478  42.303  1.00  0.00    -0.744 OA
ENDBRANCH  75  78
ENDBRANCH  57  71
BRANCH  58  82
ATOM     82  C   UNL A   1      46.130  26.640  28.102  1.00  0.00     0.023 A 
ATOM     83  C   UNL A   1      46.389  27.865  27.455  1.00  0.00     0.012 A 
ATOM     84  C   UNL A   1      46.023  25.468  27.327  1.00  0.00     0.148 A 
ATOM     85  C   UNL A   1      46.484  27.931  26.064  1.00  0.00     0.002 A 
ATOM     86  C   UNL A   1      46.181  25.530  25.947  1.00  0.00     0.091 A 
ATOM     87  F   UNL A   1      45.753  24.314  27.954  1.00  0.00    -0.205 F 
ATOM     88  C   UNL A   1      46.388  26.764  25.311  1.00  0.00     0.022 A 
BRANCH  86  89
ATOM     89  S   UNL A   1      46.188  24.064  24.910  1.00  0.00     0.127 S 
ATOM     90  O   UNL A   1      44.799  24.009  24.461  1.00  0.00    -0.237 OA
ATOM     91  O   UNL A   1      47.155  24.432  23.874  1.00  0.00    -0.237 OA
ATOM     92  O   UNL A   1      46.619  22.973  25.774  1.00  0.00    -0.744 OA
ENDBRANCH  86  89
ENDBRANCH  58  82
BRANCH  70  93
ATOM     93  C   UNL A   1      50.289  24.922  33.444  1.00  0.00     0.023 A 
ATOM     94  C   UNL A   1      51.390  25.802  33.472  1.00  0.00     0.012 A 
ATOM     95  C   UNL A   1      50.512  23.535  33.571  1.00  0.00     0.148 A 
ATOM     96  C   UNL A   1      52.690  25.306  33.586  1.00  0.00     0.002 A 
ATOM     97  C   UNL A   1      51.804  23.054  33.739  1.00  0.00     0.091 A 
ATOM     98  F   UNL A   1      49.454  22.712  33.529  1.00  0.00    -0.205 F 
ATOM     99  C   UNL A   1      52.896  23.936  33.731  1.00  0.00     0.022 A 
BRANCH  97 100
ATOM    100  S   UNL A   1      52.156  21.318  34.037  1.00  0.00     0.127 S 
ATOM    101  O   UNL A   1      51.647  20.697  32.815  1.00  0.00    -0.237 OA
ATOM    102  O   UNL A   1      53.614  21.314  34.161  1.00  0.00    -0.237 OA
ATOM    103  O   UNL A   1      51.444  20.964  35.257  1.00  0.00    -0.744 OA
ENDBRANCH  97 100
ENDBRANCH  70  93
ENDBRANCH  44  45
ENDBRANCH  37  39
ENDBRANCH  36  37
ENDBRANCH  35  36
ENDBRANCH  34  35
ENDBRANCH  33  34
ENDBRANCH  32  33
ENDBRANCH   1  32
TORSDOF 24
ENDMDL
MODEL 3
REMARK VINA RESULT:      -9.9      3.757      8.852
REMARK SMILES C[C@@H]1CC(C)(C)C[C@@](CC(=O)Nc2cccc(C(F)(F)F)c2)(C(=O)OCCOCCOCCOC(=O)c2ccc(-c3c4nc(c(-c5cccc(S(=O)(=O)[O-])c5F)c5ccc([nH]5)c(-c5cccc(S(=O)(=O)[O-])c5F)c5nc(c(-c6cccc(S(=O)(=O)[O-])c6F)c6ccc3[nH]6)C=C5)C=C4)cc2)C1
REMARK SMILES IDX 29 1 28 2 27 3 26 4 25 5 23 6 24 7 8 8 1 9 2 10 3 11 100 12
REMARK SMILES IDX 4 13 5 14 6 15 7 16 9 17 10 18 11 19 12 20 13 22 14 23 22 24
REMARK SMILES IDX 15 25 17 26 16 27 18 28 19 29 20 30 21 31 30 32 31 33 32 34
REMARK SMILES IDX 33 35 34 36 35 37 36 38 37 39 38 40 99 41 39 42 98 43 40 44
REMARK SMILES IDX 41 45 42 46 92 47 43 48 97 49 91 50 93 51 44 52 96 53 90 54
REMARK SMILES IDX 89 55 45 57 77 58 57 59 76 60 58 61 61 62 75 63 94 64 59 65
REMARK SMILES IDX 60 66 74 68 95 69 62 70 46 71 47 72 55 73 48 74 50 75 56 76
REMARK SMILES IDX 49 77 51 78 52 79 53 80 54 81 78 82 79 83 87 84 80 85 82 86
REMARK SMILES IDX 88 87 81 88 83 89 84 90 85 91 86 92 63 93 64 94 72 95 65 96
REMARK SMILES IDX 67 97 73 98 66 99 68 100 69 101 70 102 71 103
REMARK H PARENT 12 21 93 56 61 67
REMARK Flexibility Score: inf
ROOT
ATOM      1  C   UNL A   1      33.699  33.159  28.021  1.00  0.00     0.188 C 
ENDROOT
BRANCH   1   2
ATOM      2  O   UNL A   1      34.739  32.282  27.638  1.00  0.00    -0.376 OA
BRANCH   2   3
ATOM      3  C   UNL A   1      34.360  30.954  27.350  1.00  0.00     0.202 C 
BRANCH   3   4
ATOM      4  C   UNL A   1      32.853  30.746  27.225  1.00  0.00     0.261 C 
BRANCH   4   5
ATOM      5  O   UNL A   1      32.366  29.733  26.309  1.00  0.00    -0.463 OA
BRANCH   5   6
ATOM      6  C   UNL A   1      32.093  28.496  26.802  1.00  0.00     0.312 C 
ATOM      7  O   UNL A   1      32.210  28.221  27.986  1.00  0.00    -0.252 OA
BRANCH   6   8
ATOM      8  C   UNL A   1      31.748  27.450  25.719  1.00  0.00     0.078 C 
ATOM      9  C   UNL A   1      30.664  24.372  24.955  1.00  0.00     0.008 C 
ATOM     10  C   UNL A   1      29.887  25.607  25.386  1.00  0.00    -0.013 C 
ATOM     11  C   UNL A   1      29.257  26.399  24.258  1.00  0.00     0.009 C 
ATOM     12  C   UNL A   1      30.638  26.553  26.302  1.00  0.00     0.022 C 
ATOM     13  C   UNL A   1      30.185  27.399  23.527  1.00  0.00    -0.034 C 
ATOM     14  C   UNL A   1      31.007  26.681  22.442  1.00  0.00     0.011 C 
ATOM     15  C   UNL A   1      29.233  28.366  22.776  1.00  0.00     0.011 C 
ATOM     16  C   UNL A   1      31.111  28.216  24.501  1.00  0.00     0.025 C 
BRANCH   8  17
ATOM     17  C   UNL A   1      33.094  26.759  25.390  1.00  0.00     0.119 C 
BRANCH  17  18
ATOM     18  C   UNL A   1      33.716  26.573  24.018  1.00  0.00     0.225 C 
ATOM     19  O   UNL A   1      34.051  27.629  23.440  1.00  0.00    -0.275 OA
ATOM     20  N   UNL A   1      34.031  25.478  23.300  1.00  0.00    -0.326 N 
ATOM     21  H   UNL A   1      34.527  25.756  22.496  1.00  0.00     0.169 HD
BRANCH  20  22
ATOM     22  C   UNL A   1      33.901  24.076  23.290  1.00  0.00     0.041 A 
ATOM     23  C   UNL A   1      32.961  23.587  22.371  1.00  0.00     0.026 A 
ATOM     24  C   UNL A   1      34.499  23.156  24.142  1.00  0.00     0.039 A 
ATOM     25  C   UNL A   1      32.528  22.262  22.407  1.00  0.00     0.003 A 
ATOM     26  C   UNL A   1      33.991  21.841  24.279  1.00  0.00     0.058 A 
ATOM     27  C   UNL A   1      33.007  21.403  23.386  1.00  0.00     0.013 A 
BRANCH  26  28
ATOM     28  C   UNL A   1      34.408  20.939  25.430  1.00  0.00     0.416 C 
ATOM     29  F   UNL A   1      33.487  20.894  26.429  1.00  0.00    -0.166 F 
ATOM     30  F   UNL A   1      34.596  19.650  25.036  1.00  0.00    -0.166 F 
ATOM     31  F   UNL A   1      35.562  21.346  26.020  1.00  0.00    -0.166 F 
ENDBRANCH  26  28
ENDBRANCH  20  22
ENDBRANCH  17  18
ENDBRANCH   8  17
ENDBRANCH   6   8
ENDBRANCH   5   6
ENDBRANCH   4   5
ENDBRANCH   3   4
ENDBRANCH   2   3
ENDBRANCH   1   2
BRANCH   1  32
ATOM     32  C   UNL A   1      33.991  33.954  29.306  1.00  0.00     0.188 C 
BRANCH  32  33
ATOM     33  O   UNL A   1      35.318  34.356  29.623  1.00  0.00    -0.376 OA
BRANCH  33  34
ATOM     34  C   UNL A   1      36.180  33.447  30.293  1.00  0.00     0.202 C 
BRANCH  34  35
ATOM     35  C   UNL A   1      35.614  32.529  31.395  1.00  0.00     0.261 C 
BRANCH  35  36
ATOM     36  O   UNL A   1      36.556  31.982  32.338  1.00  0.00    -0.460 OA
BRANCH  36  37
ATOM     37  C   UNL A   1      36.960  30.703  32.126  1.00  0.00     0.338 C 
ATOM     38  O   UNL A   1      36.258  29.701  32.196  1.00  0.00    -0.246 OA
BRANCH  37  39
ATOM     39  C   UNL A   1      38.348  30.665  31.593  1.00  0.00     0.060 A 
ATOM     40  C   UNL A   1      39.415  30.722  32.506  1.00  0.00     0.016 A 
ATOM     41  C   UNL A   1      38.614  30.604  30.225  1.00  0.00     0.016 A 
ATOM     42  C   UNL A   1      40.739  30.752  32.059  1.00  0.00     0.010 A 
ATOM     43  C   UNL A   1      39.943  30.669  29.775  1.00  0.00     0.010 A 
ATOM     44  C   UNL A   1      41.013  30.779  30.688  1.00  0.00    -0.014 A 
BRANCH  44  45
ATOM     45  C   UNL A   1      42.380  31.132  30.215  1.00  0.00     0.031 A 
ATOM     46  C   UNL A   1      42.729  32.592  30.067  1.00  0.00     0.074 A 
ATOM     47  C   UNL A   1      43.300  30.193  29.919  1.00  0.00     0.049 A 
ATOM     48  N   UNL A   1      43.824  33.143  29.613  1.00  0.00    -0.248 NA
ATOM     49  C   UNL A   1      41.702  33.561  30.489  1.00  0.00     0.031 C 
ATOM     50  C   UNL A   1      43.109  28.750  30.038  1.00  0.00     0.029 A 
ATOM     51  N   UNL A   1      44.576  30.323  29.420  1.00  0.00    -0.354 N 
ATOM     52  C   UNL A   1      43.599  34.515  29.642  1.00  0.00     0.074 A 
ATOM     53  C   UNL A   1      42.270  34.716  30.174  1.00  0.00     0.031 C 
ATOM     54  C   UNL A   1      44.208  28.125  29.579  1.00  0.00     0.029 A 
ATOM     55  C   UNL A   1      45.169  29.121  29.105  1.00  0.00     0.049 A 
ATOM     56  H   UNL A   1      45.022  31.193  29.300  1.00  0.00     0.167 HD
ATOM     57  C   UNL A   1      44.423  35.518  29.258  1.00  0.00     0.034 A 
ATOM     58  C   UNL A   1      46.333  28.857  28.474  1.00  0.00     0.034 A 
ATOM     59  C   UNL A   1      45.757  35.327  28.759  1.00  0.00     0.049 A 
ATOM     60  C   UNL A   1      47.221  30.000  28.040  1.00  0.00     0.074 A 
ATOM     61  C   UNL A   1      46.689  36.292  28.419  1.00  0.00     0.029 A 
ATOM     62  N   UNL A   1      46.338  34.098  28.503  1.00  0.00    -0.354 N 
ATOM     63  N   UNL A   1      47.049  31.290  28.199  1.00  0.00    -0.248 NA
ATOM     64  C   UNL A   1      48.483  29.649  27.367  1.00  0.00     0.031 C 
ATOM     65  C   UNL A   1      47.817  35.646  27.907  1.00  0.00     0.029 A 
ATOM     66  C   UNL A   1      47.608  34.279  27.982  1.00  0.00     0.049 A 
ATOM     67  H   UNL A   1      45.913  33.226  28.666  1.00  0.00     0.167 HD
ATOM     68  C   UNL A   1      48.195  31.895  27.689  1.00  0.00     0.074 A 
ATOM     69  C   UNL A   1      49.064  30.832  27.235  1.00  0.00     0.031 C 
ATOM     70  C   UNL A   1      48.494  33.215  27.592  1.00  0.00     0.034 A 
BRANCH  57  71
ATOM     71  C   UNL A   1      43.916  36.933  29.352  1.00  0.00     0.023 A 
ATOM     72  C   UNL A   1      44.178  37.705  30.500  1.00  0.00     0.012 A 
ATOM     73  C   UNL A   1      43.274  37.527  28.246  1.00  0.00     0.148 A 
ATOM     74  C   UNL A   1      43.795  39.045  30.553  1.00  0.00     0.002 A 
ATOM     75  C   UNL A   1      42.941  38.874  28.287  1.00  0.00     0.091 A 
ATOM     76  F   UNL A   1      43.020  36.766  27.174  1.00  0.00    -0.205 F 
ATOM     77  C   UNL A   1      43.191  39.632  29.443  1.00  0.00     0.022 A 
BRANCH  75  78
ATOM     78  S   UNL A   1      42.243  39.743  26.879  1.00  0.00     0.127 S 
ATOM     79  O   UNL A   1      41.688  40.938  27.514  1.00  0.00    -0.237 OA
ATOM     80  O   UNL A   1      43.426  39.985  26.054  1.00  0.00    -0.237 OA
ATOM     81  O   UNL A   1      41.261  38.842  26.293  1.00  0.00    -0.744 OA
ENDBRANCH  75  78
ENDBRANCH  57  71
BRANCH  58  82
ATOM     82  C   UNL A   1      46.742  27.448  28.189  1.00  0.00     0.023 A 
ATOM     83  C   UNL A   1      47.606  26.776  29.078  1.00  0.00     0.012 A 
ATOM     84  C   UNL A   1      46.323  26.789  27.017  1.00  0.00     0.148 A 
ATOM     85  C   UNL A   1      48.084  25.499  28.779  1.00  0.00     0.002 A 
ATOM     86  C   UNL A   1      46.754  25.494  26.755  1.00  0.00     0.091 A 
ATOM     87  F   UNL A   1      45.521  27.450  26.170  1.00  0.00    -0.205 F 
ATOM     88  C   UNL A   1      47.654  24.856  27.623  1.00  0.00     0.022 A 
BRANCH  86  89
ATOM     89  S   UNL A   1      46.159  24.545  25.351  1.00  0.00     0.127 S 
ATOM     90  O   UNL A   1      46.773  25.253  24.230  1.00  0.00    -0.237 OA
ATOM     91  O   UNL A   1      46.721  23.220  25.622  1.00  0.00    -0.237 OA
ATOM     92  O   UNL A   1      44.706  24.607  25.421  1.00  0.00    -0.744 OA
ENDBRANCH  86  89
ENDBRANCH  58  82
BRANCH  70  93
ATOM     93  C   UNL A   1      49.842  33.599  27.035  1.00  0.00     0.023 A 
ATOM     94  C   UNL A   1      49.999  33.846  25.656  1.00  0.00     0.012 A 
ATOM     95  C   UNL A   1      50.939  33.796  27.899  1.00  0.00     0.148 A 
ATOM     96  C   UNL A   1      51.234  34.243  25.143  1.00  0.00     0.002 A 
ATOM     97  C   UNL A   1      52.151  34.244  27.388  1.00  0.00     0.091 A 
ATOM     98  F   UNL A   1      50.776  33.545  29.206  1.00  0.00    -0.205 F 
ATOM     99  C   UNL A   1      52.305  34.454  26.009  1.00  0.00     0.022 A 
BRANCH  97 100
ATOM    100  S   UNL A   1      53.553  34.642  28.438  1.00  0.00     0.127 S 
ATOM    101  O   UNL A   1      53.896  33.330  28.985  1.00  0.00    -0.237 OA
ATOM    102  O   UNL A   1      54.520  35.173  27.477  1.00  0.00    -0.237 OA
ATOM    103  O   UNL A   1      53.069  35.613  29.410  1.00  0.00    -0.744 OA
ENDBRANCH  97 100
ENDBRANCH  70  93
ENDBRANCH  44  45
ENDBRANCH  37  39
ENDBRANCH  36  37
ENDBRANCH  35  36
ENDBRANCH  34  35
ENDBRANCH  33  34
ENDBRANCH  32  33
ENDBRANCH   1  32
TORSDOF 24
ENDMDL
