MODEL 1
REMARK VINA RESULT:      -9.9      0.000      0.000
REMARK SMILES Cc1cc(C(=O)NC[C@@H]2CC[C@H](C(=O)OCCOCCOCCOC(=O)c3ccc(-c4c5nc(c(-c6cccc(S(=O)(=O)[O-])c6F)c6ccc([nH]6)c(-c6cccc(S(=O)(=O)[O-])c6F)c6nc(c(-c7cccc(S(=O)(=O)[O-])c7F)c7ccc4[nH]7)C=C6)C=C5)cc3)O2)on1
REMARK SMILES IDX 19 1 18 2 17 3 16 4 15 5 13 6 14 7 12 8 9 9 10 10 90 11
REMARK SMILES IDX 11 12 8 13 7 14 5 15 6 16 4 18 1 19 2 20 3 21 92 22 91 23
REMARK SMILES IDX 20 24 21 25 22 26 23 27 24 28 25 29 26 30 27 31 28 32 89 33
REMARK SMILES IDX 29 34 88 35 30 36 31 37 32 38 82 39 33 40 87 41 81 42 83 43
REMARK SMILES IDX 34 44 86 45 80 46 79 47 35 49 67 50 47 51 66 52 48 53 51 54
REMARK SMILES IDX 65 55 84 56 49 57 50 58 64 60 85 61 52 62 36 63 37 64 45 65
REMARK SMILES IDX 38 66 40 67 46 68 39 69 41 70 42 71 43 72 44 73 68 74 69 75
REMARK SMILES IDX 77 76 70 77 72 78 78 79 71 80 73 81 74 82 75 83 76 84 53 85
REMARK SMILES IDX 54 86 62 87 55 88 57 89 63 90 56 91 58 92 59 93 60 94 61 95
REMARK H PARENT 7 17 83 48 51 59
REMARK Flexibility Score: inf
ROOT
ATOM      1  C   UNL A   1      45.468  43.223  27.086  1.00  0.00     0.188 C 
ENDROOT
BRANCH   1   2
ATOM      2  O   UNL A   1      46.517  42.977  26.156  1.00  0.00    -0.376 OA
BRANCH   2   3
ATOM      3  C   UNL A   1      46.612  43.850  25.030  1.00  0.00     0.202 C 
BRANCH   3   4
ATOM      4  C   UNL A   1      46.519  43.214  23.633  1.00  0.00     0.261 C 
BRANCH   4   5
ATOM      5  O   UNL A   1      45.651  43.932  22.724  1.00  0.00    -0.461 OA
BRANCH   5   6
ATOM      6  C   UNL A   1      44.344  44.019  23.089  1.00  0.00     0.335 C 
ATOM      7  O   UNL A   1      43.779  45.075  23.358  1.00  0.00    -0.249 OA
BRANCH   6   8
ATOM      8  C   UNL A   1      43.628  42.656  23.148  1.00  0.00     0.228 C 
ATOM      9  C   UNL A   1      42.554  42.461  21.102  1.00  0.00     0.138 C 
ATOM     10  C   UNL A   1      41.490  42.850  22.119  1.00  0.00     0.037 C 
ATOM     11  O   UNL A   1      43.712  42.042  21.849  1.00  0.00    -0.361 OA
ATOM     12  C   UNL A   1      42.145  42.594  23.454  1.00  0.00     0.047 C 
BRANCH   9  13
ATOM     13  C   UNL A   1      42.922  43.641  20.186  1.00  0.00     0.148 C 
BRANCH  13  14
ATOM     14  N   UNL A   1      43.148  43.194  18.828  1.00  0.00    -0.347 N 
ATOM     15  C   UNL A   1      43.311  43.912  17.671  1.00  0.00     0.289 C 
ATOM     16  O   UNL A   1      43.512  43.259  16.645  1.00  0.00    -0.266 OA
ATOM     17  H   UNL A   1      43.192  42.217  18.719  1.00  0.00     0.164 HD
BRANCH  15  18
ATOM     18  C   UNL A   1      43.271  45.360  17.683  1.00  0.00     0.224 A 
ATOM     19  C   UNL A   1      42.412  48.922  17.631  1.00  0.00     0.070 C 
ATOM     20  C   UNL A   1      42.978  47.559  17.698  1.00  0.00     0.081 A 
ATOM     21  C   UNL A   1      42.342  46.337  17.395  1.00  0.00     0.083 A 
ATOM     22  N   UNL A   1      44.238  47.361  18.090  1.00  0.00    -0.084 NA
ATOM     23  O   UNL A   1      44.425  45.990  18.068  1.00  0.00    -0.351 OA
ENDBRANCH  15  18
ENDBRANCH  13  14
ENDBRANCH   9  13
ENDBRANCH   6   8
ENDBRANCH   5   6
ENDBRANCH   4   5
ENDBRANCH   3   4
ENDBRANCH   2   3
ENDBRANCH   1   2
BRANCH   1  24
ATOM     24  C   UNL A   1      45.776  42.894  28.551  1.00  0.00     0.188 C 
BRANCH  24  25
ATOM     25  O   UNL A   1      45.102  41.751  29.042  1.00  0.00    -0.376 OA
BRANCH  25  26
ATOM     26  C   UNL A   1      44.802  40.669  28.167  1.00  0.00     0.202 C 
BRANCH  26  27
ATOM     27  C   UNL A   1      45.424  39.277  28.425  1.00  0.00     0.261 C 
BRANCH  27  28
ATOM     28  O   UNL A   1      44.523  38.203  28.751  1.00  0.00    -0.460 OA
BRANCH  28  29
ATOM     29  C   UNL A   1      44.761  37.523  29.901  1.00  0.00     0.338 C 
ATOM     30  O   UNL A   1      44.762  37.989  31.023  1.00  0.00    -0.246 OA
BRANCH  29  31
ATOM     31  C   UNL A   1      44.709  36.063  29.594  1.00  0.00     0.060 A 
ATOM     32  C   UNL A   1      44.275  35.683  28.314  1.00  0.00     0.016 A 
ATOM     33  C   UNL A   1      45.159  35.090  30.491  1.00  0.00     0.016 A 
ATOM     34  C   UNL A   1      44.213  34.332  27.961  1.00  0.00     0.010 A 
ATOM     35  C   UNL A   1      45.085  33.735  30.141  1.00  0.00     0.010 A 
ATOM     36  C   UNL A   1      44.557  33.347  28.895  1.00  0.00    -0.014 A 
BRANCH  36  37
ATOM     37  C   UNL A   1      44.107  31.948  28.670  1.00  0.00     0.031 A 
ATOM     38  C   UNL A   1      42.763  31.548  29.228  1.00  0.00     0.074 A 
ATOM     39  C   UNL A   1      44.829  31.055  27.967  1.00  0.00     0.049 A 
ATOM     40  N   UNL A   1      42.139  30.402  29.160  1.00  0.00    -0.248 NA
ATOM     41  C   UNL A   1      42.025  32.590  29.964  1.00  0.00     0.031 C 
ATOM     42  C   UNL A   1      46.134  31.304  27.361  1.00  0.00     0.029 A 
ATOM     43  N   UNL A   1      44.559  29.743  27.660  1.00  0.00    -0.354 N 
ATOM     44  C   UNL A   1      40.953  30.575  29.866  1.00  0.00     0.074 A 
ATOM     45  C   UNL A   1      40.954  31.929  30.372  1.00  0.00     0.031 C 
ATOM     46  C   UNL A   1      46.564  30.173  26.772  1.00  0.00     0.029 A 
ATOM     47  C   UNL A   1      45.573  29.114  26.976  1.00  0.00     0.049 A 
ATOM     48  H   UNL A   1      43.719  29.293  27.907  1.00  0.00     0.167 HD
ATOM     49  C   UNL A   1      39.942  29.697  30.065  1.00  0.00     0.034 A 
ATOM     50  C   UNL A   1      45.695  27.831  26.574  1.00  0.00     0.034 A 
ATOM     51  C   UNL A   1      39.926  28.355  29.555  1.00  0.00     0.049 A 
ATOM     52  C   UNL A   1      44.566  26.862  26.832  1.00  0.00     0.074 A 
ATOM     53  C   UNL A   1      38.931  27.402  29.675  1.00  0.00     0.029 A 
ATOM     54  N   UNL A   1      40.959  27.769  28.842  1.00  0.00    -0.354 N 
ATOM     55  N   UNL A   1      43.407  27.072  27.408  1.00  0.00    -0.248 NA
ATOM     56  C   UNL A   1      44.748  25.485  26.345  1.00  0.00     0.031 C 
ATOM     57  C   UNL A   1      39.377  26.225  29.064  1.00  0.00     0.029 A 
ATOM     58  C   UNL A   1      40.630  26.462  28.521  1.00  0.00     0.049 A 
ATOM     59  H   UNL A   1      41.802  28.214  28.599  1.00  0.00     0.167 HD
ATOM     60  C   UNL A   1      42.706  25.873  27.312  1.00  0.00     0.074 A 
ATOM     61  C   UNL A   1      43.565  24.945  26.606  1.00  0.00     0.031 C 
ATOM     62  C   UNL A   1      41.468  25.563  27.770  1.00  0.00     0.034 A 
BRANCH  49  63
ATOM     63  C   UNL A   1      38.758  30.175  30.865  1.00  0.00     0.023 A 
ATOM     64  C   UNL A   1      38.687  29.903  32.246  1.00  0.00     0.012 A 
ATOM     65  C   UNL A   1      37.734  30.922  30.254  1.00  0.00     0.148 A 
ATOM     66  C   UNL A   1      37.597  30.334  33.001  1.00  0.00     0.002 A 
ATOM     67  C   UNL A   1      36.675  31.393  31.022  1.00  0.00     0.091 A 
ATOM     68  F   UNL A   1      37.805  31.148  28.935  1.00  0.00    -0.205 F 
ATOM     69  C   UNL A   1      36.597  31.088  32.390  1.00  0.00     0.022 A 
BRANCH  67  70
ATOM     70  S   UNL A   1      35.381  32.439  30.347  1.00  0.00     0.127 S 
ATOM     71  O   UNL A   1      34.490  32.583  31.497  1.00  0.00    -0.237 OA
ATOM     72  O   UNL A   1      36.121  33.650  29.993  1.00  0.00    -0.237 OA
ATOM     73  O   UNL A   1      34.825  31.712  29.215  1.00  0.00    -0.744 OA
ENDBRANCH  67  70
ENDBRANCH  49  63
BRANCH  50  74
ATOM     74  C   UNL A   1      46.921  27.380  25.854  1.00  0.00     0.023 A 
ATOM     75  C   UNL A   1      47.916  26.663  26.546  1.00  0.00     0.012 A 
ATOM     76  C   UNL A   1      47.111  27.674  24.489  1.00  0.00     0.148 A 
ATOM     77  C   UNL A   1      49.095  26.278  25.904  1.00  0.00     0.002 A 
ATOM     78  C   UNL A   1      48.262  27.239  23.842  1.00  0.00     0.091 A 
ATOM     79  F   UNL A   1      46.163  28.374  23.854  1.00  0.00    -0.205 F 
ATOM     80  C   UNL A   1      49.263  26.558  24.551  1.00  0.00     0.022 A 
BRANCH  78  81
ATOM     81  S   UNL A   1      48.514  27.451  22.075  1.00  0.00     0.127 S 
ATOM     82  O   UNL A   1      47.276  28.115  21.674  1.00  0.00    -0.237 OA
ATOM     83  O   UNL A   1      49.707  28.297  22.045  1.00  0.00    -0.237 OA
ATOM     84  O   UNL A   1      48.712  26.110  21.541  1.00  0.00    -0.744 OA
ENDBRANCH  78  81
ENDBRANCH  50  74
BRANCH  62  85
ATOM     85  C   UNL A   1      40.926  24.186  27.472  1.00  0.00     0.023 A 
ATOM     86  C   UNL A   1      41.536  23.045  28.029  1.00  0.00     0.012 A 
ATOM     87  C   UNL A   1      39.769  24.032  26.683  1.00  0.00     0.148 A 
ATOM     88  C   UNL A   1      41.032  21.771  27.766  1.00  0.00     0.002 A 
ATOM     89  C   UNL A   1      39.239  22.765  26.471  1.00  0.00     0.091 A 
ATOM     90  F   UNL A   1      39.208  25.126  26.148  1.00  0.00    -0.205 F 
ATOM     91  C   UNL A   1      39.879  21.632  26.997  1.00  0.00     0.022 A 
BRANCH  89  92
ATOM     92  S   UNL A   1      37.701  22.503  25.580  1.00  0.00     0.127 S 
ATOM     93  O   UNL A   1      37.919  23.293  24.370  1.00  0.00    -0.237 OA
ATOM     94  O   UNL A   1      37.707  21.054  25.370  1.00  0.00    -0.237 OA
ATOM     95  O   UNL A   1      36.643  22.980  26.459  1.00  0.00    -0.744 OA
ENDBRANCH  89  92
ENDBRANCH  62  85
ENDBRANCH  36  37
ENDBRANCH  29  31
ENDBRANCH  28  29
ENDBRANCH  27  28
ENDBRANCH  26  27
ENDBRANCH  25  26
ENDBRANCH  24  25
ENDBRANCH   1  24
TORSDOF 23
ENDMDL
MODEL 2
REMARK VINA RESULT:      -9.8      6.405     11.807
REMARK SMILES Cc1cc(C(=O)NC[C@@H]2CC[C@H](C(=O)OCCOCCOCCOC(=O)c3ccc(-c4c5nc(c(-c6cccc(S(=O)(=O)[O-])c6F)c6ccc([nH]6)c(-c6cccc(S(=O)(=O)[O-])c6F)c6nc(c(-c7cccc(S(=O)(=O)[O-])c7F)c7ccc4[nH]7)C=C6)C=C5)cc3)O2)on1
REMARK SMILES IDX 19 1 18 2 17 3 16 4 15 5 13 6 14 7 12 8 9 9 10 10 90 11
REMARK SMILES IDX 11 12 8 13 7 14 5 15 6 16 4 18 1 19 2 20 3 21 92 22 91 23
REMARK SMILES IDX 20 24 21 25 22 26 23 27 24 28 25 29 26 30 27 31 28 32 89 33
REMARK SMILES IDX 29 34 88 35 30 36 31 37 32 38 82 39 33 40 87 41 81 42 83 43
REMARK SMILES IDX 34 44 86 45 80 46 79 47 35 49 67 50 47 51 66 52 48 53 51 54
REMARK SMILES IDX 65 55 84 56 49 57 50 58 64 60 85 61 52 62 36 63 37 64 45 65
REMARK SMILES IDX 38 66 40 67 46 68 39 69 41 70 42 71 43 72 44 73 68 74 69 75
REMARK SMILES IDX 77 76 70 77 72 78 78 79 71 80 73 81 74 82 75 83 76 84 53 85
REMARK SMILES IDX 54 86 62 87 55 88 57 89 63 90 56 91 58 92 59 93 60 94 61 95
REMARK H PARENT 7 17 83 48 51 59
REMARK Flexibility Score: inf
ROOT
ATOM      1  C   UNL A   1      33.648  37.521  31.705  1.00  0.00     0.188 C 
ENDROOT
BRANCH   1   2
ATOM      2  O   UNL A   1      32.696  37.180  30.704  1.00  0.00    -0.376 OA
BRANCH   2   3
ATOM      3  C   UNL A   1      33.095  37.335  29.341  1.00  0.00     0.202 C 
BRANCH   3   4
ATOM      4  C   UNL A   1      33.250  36.056  28.501  1.00  0.00     0.261 C 
BRANCH   4   5
ATOM      5  O   UNL A   1      32.957  34.842  29.232  1.00  0.00    -0.461 OA
BRANCH   5   6
ATOM      6  C   UNL A   1      34.031  34.124  29.654  1.00  0.00     0.335 C 
ATOM      7  O   UNL A   1      34.047  33.462  30.687  1.00  0.00    -0.249 OA
BRANCH   6   8
ATOM      8  C   UNL A   1      35.249  34.224  28.715  1.00  0.00     0.228 C 
ATOM      9  C   UNL A   1      35.419  32.128  27.738  1.00  0.00     0.138 C 
ATOM     10  C   UNL A   1      36.488  32.195  28.820  1.00  0.00     0.037 C 
ATOM     11  O   UNL A   1      34.962  33.476  27.519  1.00  0.00    -0.361 OA
ATOM     12  C   UNL A   1      36.588  33.663  29.150  1.00  0.00     0.047 C 
BRANCH   9  13
ATOM     13  C   UNL A   1      34.237  31.239  28.161  1.00  0.00     0.148 C 
BRANCH  13  14
ATOM     14  N   UNL A   1      33.051  31.554  27.396  1.00  0.00    -0.347 N 
ATOM     15  C   UNL A   1      32.248  30.749  26.628  1.00  0.00     0.289 C 
ATOM     16  O   UNL A   1      31.276  31.291  26.098  1.00  0.00    -0.266 OA
ATOM     17  H   UNL A   1      32.775  32.498  27.434  1.00  0.00     0.164 HD
BRANCH  15  18
ATOM     18  C   UNL A   1      32.533  29.336  26.483  1.00  0.00     0.224 A 
ATOM     19  C   UNL A   1      32.494  25.701  26.016  1.00  0.00     0.070 C 
ATOM     20  C   UNL A   1      32.744  27.145  26.209  1.00  0.00     0.081 A 
ATOM     21  C   UNL A   1      31.802  28.168  26.446  1.00  0.00     0.083 A 
ATOM     22  N   UNL A   1      33.985  27.635  26.162  1.00  0.00    -0.084 NA
ATOM     23  O   UNL A   1      33.854  29.000  26.347  1.00  0.00    -0.351 OA
ENDBRANCH  15  18
ENDBRANCH  13  14
ENDBRANCH   9  13
ENDBRANCH   6   8
ENDBRANCH   5   6
ENDBRANCH   4   5
ENDBRANCH   3   4
ENDBRANCH   2   3
ENDBRANCH   1   2
BRANCH   1  24
ATOM     24  C   UNL A   1      33.669  36.623  32.947  1.00  0.00     0.188 C 
BRANCH  24  25
ATOM     25  O   UNL A   1      34.955  36.142  33.291  1.00  0.00    -0.376 OA
BRANCH  25  26
ATOM     26  C   UNL A   1      35.090  34.929  34.024  1.00  0.00     0.202 C 
BRANCH  26  27
ATOM     27  C   UNL A   1      35.335  33.600  33.272  1.00  0.00     0.261 C 
BRANCH  27  28
ATOM     28  O   UNL A   1      35.659  32.444  34.066  1.00  0.00    -0.460 OA
BRANCH  28  29
ATOM     29  C   UNL A   1      36.936  32.340  34.515  1.00  0.00     0.338 C 
ATOM     30  O   UNL A   1      37.319  32.559  35.647  1.00  0.00    -0.246 OA
BRANCH  29  31
ATOM     31  C   UNL A   1      37.731  31.615  33.480  1.00  0.00     0.060 A 
ATOM     32  C   UNL A   1      38.868  30.912  33.909  1.00  0.00     0.016 A 
ATOM     33  C   UNL A   1      37.333  31.543  32.142  1.00  0.00     0.016 A 
ATOM     34  C   UNL A   1      39.649  30.205  32.990  1.00  0.00     0.010 A 
ATOM     35  C   UNL A   1      38.124  30.844  31.219  1.00  0.00     0.010 A 
ATOM     36  C   UNL A   1      39.318  30.220  31.630  1.00  0.00    -0.014 A 
BRANCH  36  37
ATOM     37  C   UNL A   1      40.347  29.832  30.630  1.00  0.00     0.031 A 
ATOM     38  C   UNL A   1      41.482  30.796  30.384  1.00  0.00     0.074 A 
ATOM     39  C   UNL A   1      40.320  28.655  29.977  1.00  0.00     0.049 A 
ATOM     40  N   UNL A   1      42.507  30.692  29.579  1.00  0.00    -0.248 NA
ATOM     41  C   UNL A   1      41.452  32.052  31.156  1.00  0.00     0.031 C 
ATOM     42  C   UNL A   1      39.296  27.624  30.122  1.00  0.00     0.029 A 
ATOM     43  N   UNL A   1      41.186  28.141  29.041  1.00  0.00    -0.354 N 
ATOM     44  C   UNL A   1      43.224  31.875  29.726  1.00  0.00     0.074 A 
ATOM     45  C   UNL A   1      42.507  32.691  30.680  1.00  0.00     0.031 C 
ATOM     46  C   UNL A   1      39.579  26.608  29.286  1.00  0.00     0.029 A 
ATOM     47  C   UNL A   1      40.795  26.923  28.534  1.00  0.00     0.049 A 
ATOM     48  H   UNL A   1      42.009  28.601  28.759  1.00  0.00     0.167 HD
ATOM     49  C   UNL A   1      44.384  32.248  29.138  1.00  0.00     0.034 A 
ATOM     50  C   UNL A   1      41.344  26.161  27.565  1.00  0.00     0.034 A 
ATOM     51  C   UNL A   1      45.110  31.439  28.199  1.00  0.00     0.049 A 
ATOM     52  C   UNL A   1      42.624  26.610  26.902  1.00  0.00     0.074 A 
ATOM     53  C   UNL A   1      46.313  31.716  27.575  1.00  0.00     0.029 A 
ATOM     54  N   UNL A   1      44.695  30.200  27.737  1.00  0.00    -0.354 N 
ATOM     55  N   UNL A   1      43.345  27.682  27.129  1.00  0.00    -0.248 NA
ATOM     56  C   UNL A   1      43.187  25.721  25.873  1.00  0.00     0.031 C 
ATOM     57  C   UNL A   1      46.608  30.660  26.707  1.00  0.00     0.029 A 
ATOM     58  C   UNL A   1      45.614  29.703  26.828  1.00  0.00     0.049 A 
ATOM     59  H   UNL A   1      43.870  29.742  28.013  1.00  0.00     0.167 HD
ATOM     60  C   UNL A   1      44.466  27.573  26.311  1.00  0.00     0.074 A 
ATOM     61  C   UNL A   1      44.337  26.322  25.594  1.00  0.00     0.031 C 
ATOM     62  C   UNL A   1      45.505  28.432  26.160  1.00  0.00     0.034 A 
BRANCH  49  63
ATOM     63  C   UNL A   1      44.946  33.596  29.507  1.00  0.00     0.023 A 
ATOM     64  C   UNL A   1      45.747  33.732  30.659  1.00  0.00     0.012 A 
ATOM     65  C   UNL A   1      44.708  34.720  28.694  1.00  0.00     0.148 A 
ATOM     66  C   UNL A   1      46.272  34.973  31.018  1.00  0.00     0.002 A 
ATOM     67  C   UNL A   1      45.276  35.943  29.029  1.00  0.00     0.091 A 
ATOM     68  F   UNL A   1      43.922  34.576  27.618  1.00  0.00    -0.205 F 
ATOM     69  C   UNL A   1      46.045  36.075  30.197  1.00  0.00     0.022 A 
BRANCH  67  70
ATOM     70  S   UNL A   1      45.111  37.402  27.996  1.00  0.00     0.127 S 
ATOM     71  O   UNL A   1      44.665  38.401  28.966  1.00  0.00    -0.237 OA
ATOM     72  O   UNL A   1      46.478  37.590  27.511  1.00  0.00    -0.237 OA
ATOM     73  O   UNL A   1      44.141  37.058  26.966  1.00  0.00    -0.744 OA
ENDBRANCH  67  70
ENDBRANCH  49  63
BRANCH  50  74
ATOM     74  C   UNL A   1      40.710  24.868  27.174  1.00  0.00     0.023 A 
ATOM     75  C   UNL A   1      39.391  24.856  26.681  1.00  0.00     0.012 A 
ATOM     76  C   UNL A   1      41.406  23.650  27.304  1.00  0.00     0.148 A 
ATOM     77  C   UNL A   1      38.762  23.652  26.360  1.00  0.00     0.002 A 
ATOM     78  C   UNL A   1      40.792  22.460  26.928  1.00  0.00     0.091 A 
ATOM     79  F   UNL A   1      42.652  23.681  27.792  1.00  0.00    -0.205 F 
ATOM     80  C   UNL A   1      39.464  22.456  26.474  1.00  0.00     0.022 A 
BRANCH  78  81
ATOM     81  S   UNL A   1      41.658  20.886  26.932  1.00  0.00     0.127 S 
ATOM     82  O   UNL A   1      42.380  20.938  25.663  1.00  0.00    -0.237 OA
ATOM     83  O   UNL A   1      42.496  21.010  28.125  1.00  0.00    -0.237 OA
ATOM     84  O   UNL A   1      40.622  19.866  27.026  1.00  0.00    -0.744 OA
ENDBRANCH  78  81
ENDBRANCH  50  74
BRANCH  62  85
ATOM     85  C   UNL A   1      46.626  28.029  25.234  1.00  0.00     0.023 A 
ATOM     86  C   UNL A   1      46.537  28.288  23.852  1.00  0.00     0.012 A 
ATOM     87  C   UNL A   1      47.801  27.445  25.749  1.00  0.00     0.148 A 
ATOM     88  C   UNL A   1      47.577  27.929  22.994  1.00  0.00     0.002 A 
ATOM     89  C   UNL A   1      48.856  27.141  24.897  1.00  0.00     0.091 A 
ATOM     90  F   UNL A   1      47.865  27.192  27.065  1.00  0.00    -0.205 F 
ATOM     91  C   UNL A   1      48.739  27.366  23.517  1.00  0.00     0.022 A 
BRANCH  89  92
ATOM     92  S   UNL A   1      50.426  26.510  25.498  1.00  0.00     0.127 S 
ATOM     93  O   UNL A   1      51.184  26.363  24.257  1.00  0.00    -0.237 OA
ATOM     94  O   UNL A   1      50.885  27.596  26.367  1.00  0.00    -0.237 OA
ATOM     95  O   UNL A   1      50.119  25.270  26.197  1.00  0.00    -0.744 OA
ENDBRANCH  89  92
ENDBRANCH  62  85
ENDBRANCH  36  37
ENDBRANCH  29  31
ENDBRANCH  28  29
ENDBRANCH  27  28
ENDBRANCH  26  27
ENDBRANCH  25  26
ENDBRANCH  24  25
ENDBRANCH   1  24
TORSDOF 23
ENDMDL
MODEL 3
REMARK VINA RESULT:      -9.7      6.954     11.888
REMARK SMILES Cc1cc(C(=O)NC[C@@H]2CC[C@H](C(=O)OCCOCCOCCOC(=O)c3ccc(-c4c5nc(c(-c6cccc(S(=O)(=O)[O-])c6F)c6ccc([nH]6)c(-c6cccc(S(=O)(=O)[O-])c6F)c6nc(c(-c7cccc(S(=O)(=O)[O-])c7F)c7ccc4[nH]7)C=C6)C=C5)cc3)O2)on1
REMARK SMILES IDX 19 1 18 2 17 3 16 4 15 5 13 6 14 7 12 8 9 9 10 10 90 11
REMARK SMILES IDX 11 12 8 13 7 14 5 15 6 16 4 18 1 19 2 20 3 21 92 22 91 23
REMARK SMILES IDX 20 24 21 25 22 26 23 27 24 28 25 29 26 30 27 31 28 32 89 33
REMARK SMILES IDX 29 34 88 35 30 36 31 37 32 38 82 39 33 40 87 41 81 42 83 43
REMARK SMILES IDX 34 44 86 45 80 46 79 47 35 49 67 50 47 51 66 52 48 53 51 54
REMARK SMILES IDX 65 55 84 56 49 57 50 58 64 60 85 61 52 62 36 63 37 64 45 65
REMARK SMILES IDX 38 66 40 67 46 68 39 69 41 70 42 71 43 72 44 73 68 74 69 75
REMARK SMILES IDX 77 76 70 77 72 78 78 79 71 80 73 81 74 82 75 83 76 84 53 85
REMARK SMILES IDX 54 86 62 87 55 88 57 89 63 90 56 91 58 92 59 93 60 94 61 95
REMARK H PARENT 7 17 83 48 51 59
REMARK Flexibility Score: inf
ROOT
ATOM      1  C   UNL A   1      33.653  37.495  31.774  1.00  0.00     0.188 C 
ENDROOT
BRANCH   1   2
ATOM      2  O   UNL A   1      32.711  37.183  30.755  1.00  0.00    -0.376 OA
BRANCH   2   3
ATOM      3  C   UNL A   1      33.142  37.320  29.400  1.00  0.00     0.202 C 
BRANCH   3   4
ATOM      4  C   UNL A   1      33.263  36.035  28.564  1.00  0.00     0.261 C 
BRANCH   4   5
ATOM      5  O   UNL A   1      32.947  34.830  29.302  1.00  0.00    -0.461 OA
BRANCH   5   6
ATOM      6  C   UNL A   1      34.007  34.081  29.705  1.00  0.00     0.335 C 
ATOM      7  O   UNL A   1      34.011  33.395  30.723  1.00  0.00    -0.249 OA
BRANCH   6   8
ATOM      8  C   UNL A   1      35.225  34.177  28.765  1.00  0.00     0.228 C 
ATOM      9  C   UNL A   1      35.260  32.154  27.631  1.00  0.00     0.138 C 
ATOM     10  C   UNL A   1      36.336  32.073  28.705  1.00  0.00     0.037 C 
ATOM     11  O   UNL A   1      34.887  33.541  27.519  1.00  0.00    -0.361 OA
ATOM     12  C   UNL A   1      36.528  33.503  29.144  1.00  0.00     0.047 C 
BRANCH   9  13
ATOM     13  C   UNL A   1      34.027  31.310  27.997  1.00  0.00     0.148 C 
BRANCH  13  14
ATOM     14  N   UNL A   1      32.851  31.778  27.296  1.00  0.00    -0.347 N 
ATOM     15  C   UNL A   1      31.965  31.101  26.496  1.00  0.00     0.289 C 
ATOM     16  O   UNL A   1      31.027  31.759  26.039  1.00  0.00    -0.266 OA
ATOM     17  H   UNL A   1      32.656  32.735  27.412  1.00  0.00     0.164 HD
BRANCH  15  18
ATOM     18  C   UNL A   1      32.128  29.685  26.238  1.00  0.00     0.224 A 
ATOM     19  C   UNL A   1      32.898  26.343  24.948  1.00  0.00     0.070 C 
ATOM     20  C   UNL A   1      32.505  27.578  25.659  1.00  0.00     0.081 A 
ATOM     21  C   UNL A   1      32.513  28.902  25.171  1.00  0.00     0.083 A 
ATOM     22  N   UNL A   1      32.086  27.533  26.925  1.00  0.00    -0.084 NA
ATOM     23  O   UNL A   1      31.837  28.847  27.282  1.00  0.00    -0.351 OA
ENDBRANCH  15  18
ENDBRANCH  13  14
ENDBRANCH   9  13
ENDBRANCH   6   8
ENDBRANCH   5   6
ENDBRANCH   4   5
ENDBRANCH   3   4
ENDBRANCH   2   3
ENDBRANCH   1   2
BRANCH   1  24
ATOM     24  C   UNL A   1      33.684  36.544  32.976  1.00  0.00     0.188 C 
BRANCH  24  25
ATOM     25  O   UNL A   1      34.977  36.071  33.307  1.00  0.00    -0.376 OA
BRANCH  25  26
ATOM     26  C   UNL A   1      35.133  34.799  33.926  1.00  0.00     0.202 C 
BRANCH  26  27
ATOM     27  C   UNL A   1      35.481  33.562  33.066  1.00  0.00     0.261 C 
BRANCH  27  28
ATOM     28  O   UNL A   1      35.751  32.331  33.760  1.00  0.00    -0.460 OA
BRANCH  28  29
ATOM     29  C   UNL A   1      36.994  32.174  34.281  1.00  0.00     0.338 C 
ATOM     30  O   UNL A   1      37.324  32.392  35.430  1.00  0.00    -0.246 OA
BRANCH  29  31
ATOM     31  C   UNL A   1      37.811  31.398  33.301  1.00  0.00     0.060 A 
ATOM     32  C   UNL A   1      38.853  30.605  33.807  1.00  0.00     0.016 A 
ATOM     33  C   UNL A   1      37.514  31.366  31.936  1.00  0.00     0.016 A 
ATOM     34  C   UNL A   1      39.648  29.847  32.943  1.00  0.00     0.010 A 
ATOM     35  C   UNL A   1      38.320  30.615  31.068  1.00  0.00     0.010 A 
ATOM     36  C   UNL A   1      39.426  29.897  31.562  1.00  0.00    -0.014 A 
BRANCH  36  37
ATOM     37  C   UNL A   1      40.498  29.438  30.639  1.00  0.00     0.031 A 
ATOM     38  C   UNL A   1      41.658  30.372  30.395  1.00  0.00     0.074 A 
ATOM     39  C   UNL A   1      40.486  28.225  30.056  1.00  0.00     0.049 A 
ATOM     40  N   UNL A   1      42.719  30.208  29.650  1.00  0.00    -0.248 NA
ATOM     41  C   UNL A   1      41.608  31.672  31.089  1.00  0.00     0.031 C 
ATOM     42  C   UNL A   1      39.440  27.217  30.210  1.00  0.00     0.029 A 
ATOM     43  N   UNL A   1      41.389  27.645  29.197  1.00  0.00    -0.354 N 
ATOM     44  C   UNL A   1      43.446  31.389  29.763  1.00  0.00     0.074 A 
ATOM     45  C   UNL A   1      42.695  32.269  30.630  1.00  0.00     0.031 C 
ATOM     46  C   UNL A   1      39.750  26.149  29.451  1.00  0.00     0.029 A 
ATOM     47  C   UNL A   1      41.005  26.405  28.744  1.00  0.00     0.049 A 
ATOM     48  H   UNL A   1      42.232  28.078  28.930  1.00  0.00     0.167 HD
ATOM     49  C   UNL A   1      44.640  31.713  29.213  1.00  0.00     0.034 A 
ATOM     50  C   UNL A   1      41.590  25.579  27.850  1.00  0.00     0.034 A 
ATOM     51  C   UNL A   1      45.399  30.840  28.362  1.00  0.00     0.049 A 
ATOM     52  C   UNL A   1      42.908  25.973  27.227  1.00  0.00     0.074 A 
ATOM     53  C   UNL A   1      46.635  31.066  27.783  1.00  0.00     0.029 A 
ATOM     54  N   UNL A   1      44.989  29.581  27.953  1.00  0.00    -0.354 N 
ATOM     55  N   UNL A   1      43.633  27.048  27.427  1.00  0.00    -0.248 NA
ATOM     56  C   UNL A   1      43.509  25.018  26.282  1.00  0.00     0.031 C 
ATOM     57  C   UNL A   1      46.958  29.956  26.995  1.00  0.00     0.029 A 
ATOM     58  C   UNL A   1      45.944  29.020  27.122  1.00  0.00     0.049 A 
ATOM     59  H   UNL A   1      44.144  29.150  28.213  1.00  0.00     0.167 HD
ATOM     60  C   UNL A   1      44.791  26.877  26.674  1.00  0.00     0.074 A 
ATOM     61  C   UNL A   1      44.680  25.587  26.026  1.00  0.00     0.031 C 
ATOM     62  C   UNL A   1      45.850  27.712  26.525  1.00  0.00     0.034 A 
BRANCH  49  63
ATOM     63  C   UNL A   1      45.202  33.073  29.530  1.00  0.00     0.023 A 
ATOM     64  C   UNL A   1      44.872  34.177  28.717  1.00  0.00     0.012 A 
ATOM     65  C   UNL A   1      46.029  33.265  30.653  1.00  0.00     0.148 A 
ATOM     66  C   UNL A   1      45.387  35.443  28.995  1.00  0.00     0.002 A 
ATOM     67  C   UNL A   1      46.497  34.538  30.953  1.00  0.00     0.091 A 
ATOM     68  F   UNL A   1      46.353  32.198  31.398  1.00  0.00    -0.205 F 
ATOM     69  C   UNL A   1      46.190  35.624  30.118  1.00  0.00     0.022 A 
BRANCH  67  70
ATOM     70  S   UNL A   1      47.470  34.890  32.420  1.00  0.00     0.127 S 
ATOM     71  O   UNL A   1      48.168  33.622  32.621  1.00  0.00    -0.237 OA
ATOM     72  O   UNL A   1      48.322  35.989  31.967  1.00  0.00    -0.237 OA
ATOM     73  O   UNL A   1      46.516  35.248  33.460  1.00  0.00    -0.744 OA
ENDBRANCH  67  70
ENDBRANCH  49  63
BRANCH  50  74
ATOM     74  C   UNL A   1      40.958  24.274  27.504  1.00  0.00     0.023 A 
ATOM     75  C   UNL A   1      41.592  23.070  27.868  1.00  0.00     0.012 A 
ATOM     76  C   UNL A   1      39.738  24.221  26.802  1.00  0.00     0.148 A 
ATOM     77  C   UNL A   1      41.044  21.838  27.507  1.00  0.00     0.002 A 
ATOM     78  C   UNL A   1      39.169  22.990  26.495  1.00  0.00     0.091 A 
ATOM     79  F   UNL A   1      39.160  25.376  26.447  1.00  0.00    -0.205 F 
ATOM     80  C   UNL A   1      39.829  21.797  26.830  1.00  0.00     0.022 A 
BRANCH  78  81
ATOM     81  S   UNL A   1      37.552  22.839  25.727  1.00  0.00     0.127 S 
ATOM     82  O   UNL A   1      36.714  23.614  26.638  1.00  0.00    -0.237 OA
ATOM     83  O   UNL A   1      37.784  23.460  24.422  1.00  0.00    -0.237 OA
ATOM     84  O   UNL A   1      37.272  21.410  25.673  1.00  0.00    -0.744 OA
ENDBRANCH  78  81
ENDBRANCH  50  74
BRANCH  62  85
ATOM     85  C   UNL A   1      47.010  27.242  25.682  1.00  0.00     0.023 A 
ATOM     86  C   UNL A   1      47.926  26.302  26.192  1.00  0.00     0.012 A 
ATOM     87  C   UNL A   1      47.154  27.694  24.355  1.00  0.00     0.148 A 
ATOM     88  C   UNL A   1      48.993  25.855  25.411  1.00  0.00     0.002 A 
ATOM     89  C   UNL A   1      48.187  27.204  23.565  1.00  0.00     0.091 A 
ATOM     90  F   UNL A   1      46.283  28.602  23.889  1.00  0.00    -0.205 F 
ATOM     91  C   UNL A   1      49.117  26.297  24.096  1.00  0.00     0.022 A 
BRANCH  89  92
ATOM     92  S   UNL A   1      48.360  27.640  21.831  1.00  0.00     0.127 S 
ATOM     93  O   UNL A   1      47.223  28.536  21.633  1.00  0.00    -0.237 OA
ATOM     94  O   UNL A   1      49.667  28.300  21.806  1.00  0.00    -0.237 OA
ATOM     95  O   UNL A   1      48.306  26.385  21.094  1.00  0.00    -0.744 OA
ENDBRANCH  89  92
ENDBRANCH  62  85
ENDBRANCH  36  37
ENDBRANCH  29  31
ENDBRANCH  28  29
ENDBRANCH  27  28
ENDBRANCH  26  27
ENDBRANCH  25  26
ENDBRANCH  24  25
ENDBRANCH   1  24
TORSDOF 23
ENDMDL
