MODEL 1
REMARK VINA RESULT:     -10.3      0.000      0.000
REMARK SMILES COC(=O)c1ccc2c(c1)=N[C@H](c1cn(CCC(=O)OCCOCCOCCOC(=O)c3ccc(-c4c5nc(c(-c6cccc(S(=O)(=O)[O-])c6F)c6ccc([nH]6)c(-c6cccc(S(=O)(=O)[O-])c6F)c6nc(c(-c7cccc(S(=O)(=O)[O-])c7F)c7ccc4[nH]7)C=C6)C=C5)cc3)c3ccccc13)N=2
REMARK SMILES IDX 24 1 23 2 22 3 21 4 20 5 18 6 19 7 17 8 16 9 15 10 13 11
REMARK SMILES IDX 14 12 100 13 95 14 99 15 96 16 98 17 97 18 12 19 5 20 6 21
REMARK SMILES IDX 10 22 7 23 9 24 8 25 11 26 101 27 3 28 4 29 2 30 1 31 25 32
REMARK SMILES IDX 26 33 27 34 28 35 29 36 30 37 31 38 32 39 33 40 94 41 34 42
REMARK SMILES IDX 93 43 35 44 36 45 37 46 87 47 38 48 92 49 86 50 88 51 39 52
REMARK SMILES IDX 91 53 85 54 84 55 40 57 72 58 52 59 71 60 53 61 56 62 70 63
REMARK SMILES IDX 89 64 54 65 55 66 69 68 90 69 57 70 41 71 42 72 50 73 43 74
REMARK SMILES IDX 45 75 51 76 44 77 46 78 47 79 48 80 49 81 73 82 74 83 82 84
REMARK SMILES IDX 75 85 77 86 83 87 76 88 78 89 79 90 80 91 81 92 58 93 59 94
REMARK SMILES IDX 67 95 60 96 62 97 68 98 61 99 63 100 64 101 65 102 66 103
REMARK H PARENT 88 56 56 67
REMARK Flexibility Score: inf
ROOT
ATOM      1  C   UNL A   1      32.855  29.166  24.810  1.00  0.00     0.188 C 
ENDROOT
BRANCH   1   2
ATOM      2  O   UNL A   1      32.603  27.782  24.674  1.00  0.00    -0.376 OA
BRANCH   2   3
ATOM      3  C   UNL A   1      31.325  27.297  25.092  1.00  0.00     0.202 C 
BRANCH   3   4
ATOM      4  C   UNL A   1      31.123  25.781  25.144  1.00  0.00     0.261 C 
BRANCH   4   5
ATOM      5  O   UNL A   1      31.391  25.286  26.480  1.00  0.00    -0.463 OA
BRANCH   5   6
ATOM      6  C   UNL A   1      31.212  23.958  26.633  1.00  0.00     0.307 C 
ATOM      7  O   UNL A   1      30.518  23.301  25.854  1.00  0.00    -0.252 OA
BRANCH   6   8
ATOM      8  C   UNL A   1      32.085  23.236  27.656  1.00  0.00     0.144 C 
BRANCH   8   9
ATOM      9  C   UNL A   1      33.039  22.059  27.663  1.00  0.00     0.134 C 
BRANCH   9  10
ATOM     10  N   UNL A   1      33.928  22.082  26.546  1.00  0.00    -0.346 N 
ATOM     11  C   UNL A   1      35.149  23.113  25.089  1.00  0.00     0.024 A 
ATOM     12  C   UNL A   1      35.051  22.861  26.451  1.00  0.00     0.094 A 
ATOM     13  C   UNL A   1      33.838  22.861  24.573  1.00  0.00     0.007 A 
ATOM     14  C   UNL A   1      33.534  21.720  25.290  1.00  0.00     0.048 A 
ATOM     15  C   UNL A   1      33.143  23.095  23.381  1.00  0.00     0.011 A 
ATOM     16  C   UNL A   1      32.924  20.603  24.737  1.00  0.00     0.027 A 
ATOM     17  C   UNL A   1      32.422  22.030  22.833  1.00  0.00     0.001 A 
ATOM     18  C   UNL A   1      32.421  20.775  23.448  1.00  0.00     0.002 A 
BRANCH  11  19
ATOM     19  C   UNL A   1      36.426  23.054  24.298  1.00  0.00     0.255 C 
ATOM     20  C   UNL A   1      39.795  20.976  26.503  1.00  0.00     0.062 A 
ATOM     21  C   UNL A   1      39.346  19.890  25.635  1.00  0.00     0.018 A 
ATOM     22  C   UNL A   1      39.192  22.179  26.514  1.00  0.00     0.046 A 
ATOM     23  C   UNL A   1      38.318  20.000  24.782  1.00  0.00     0.031 A 
ATOM     24  C   UNL A   1      38.106  22.405  25.546  1.00  0.00     0.087 A 
ATOM     25  C   UNL A   1      37.646  21.298  24.687  1.00  0.00     0.086 A 
ATOM     26  N   UNL A   1      37.510  23.505  25.247  1.00  0.00    -0.252 NA
ATOM     27  N   UNL A   1      36.718  21.655  23.866  1.00  0.00    -0.252 NA
BRANCH  20  28
ATOM     28  C   UNL A   1      40.967  20.796  27.410  1.00  0.00     0.337 C 
ATOM     29  O   UNL A   1      41.521  21.700  28.032  1.00  0.00    -0.246 OA
BRANCH  28  30
ATOM     30  O   UNL A   1      41.349  19.492  27.410  1.00  0.00    -0.465 OA
ATOM     31  C   UNL A   1      42.536  19.212  26.666  1.00  0.00     0.282 C 
ENDBRANCH  28  30
ENDBRANCH  20  28
ENDBRANCH  11  19
ENDBRANCH   9  10
ENDBRANCH   8   9
ENDBRANCH   6   8
ENDBRANCH   5   6
ENDBRANCH   4   5
ENDBRANCH   3   4
ENDBRANCH   2   3
ENDBRANCH   1   2
BRANCH   1  32
ATOM     32  C   UNL A   1      31.888  29.978  25.659  1.00  0.00     0.188 C 
BRANCH  32  33
ATOM     33  O   UNL A   1      32.309  30.901  26.627  1.00  0.00    -0.376 OA
BRANCH  33  34
ATOM     34  C   UNL A   1      31.504  32.039  26.843  1.00  0.00     0.202 C 
BRANCH  34  35
ATOM     35  C   UNL A   1      32.193  33.383  27.156  1.00  0.00     0.261 C 
BRANCH  35  36
ATOM     36  O   UNL A   1      32.150  33.769  28.545  1.00  0.00    -0.460 OA
BRANCH  36  37
ATOM     37  C   UNL A   1      32.848  34.900  28.885  1.00  0.00     0.338 C 
ATOM     38  O   UNL A   1      32.358  35.971  29.199  1.00  0.00    -0.246 OA
BRANCH  37  39
ATOM     39  C   UNL A   1      34.278  34.521  29.149  1.00  0.00     0.060 A 
ATOM     40  C   UNL A   1      35.256  34.598  28.149  1.00  0.00     0.016 A 
ATOM     41  C   UNL A   1      34.531  33.743  30.293  1.00  0.00     0.016 A 
ATOM     42  C   UNL A   1      36.415  33.808  28.246  1.00  0.00     0.010 A 
ATOM     43  C   UNL A   1      35.701  32.967  30.389  1.00  0.00     0.010 A 
ATOM     44  C   UNL A   1      36.639  32.954  29.349  1.00  0.00    -0.014 A 
BRANCH  44  45
ATOM     45  C   UNL A   1      37.997  32.383  29.560  1.00  0.00     0.031 A 
ATOM     46  C   UNL A   1      38.052  30.988  29.094  1.00  0.00     0.074 A 
ATOM     47  C   UNL A   1      39.157  32.911  30.022  1.00  0.00     0.049 A 
ATOM     48  N   UNL A   1      38.073  29.961  29.878  1.00  0.00    -0.248 NA
ATOM     49  C   UNL A   1      37.855  30.684  27.675  1.00  0.00     0.031 C 
ATOM     50  C   UNL A   1      39.357  34.203  30.622  1.00  0.00     0.029 A 
ATOM     51  N   UNL A   1      40.448  32.447  30.039  1.00  0.00    -0.354 N 
ATOM     52  C   UNL A   1      38.192  28.880  29.026  1.00  0.00     0.074 A 
ATOM     53  C   UNL A   1      37.849  29.349  27.705  1.00  0.00     0.031 C 
ATOM     54  C   UNL A   1      40.633  34.628  30.547  1.00  0.00     0.029 A 
ATOM     55  C   UNL A   1      41.406  33.457  30.188  1.00  0.00     0.049 A 
ATOM     56  H   UNL A   1      40.678  31.493  29.954  1.00  0.00     0.167 HD
ATOM     57  C   UNL A   1      38.884  27.778  29.411  1.00  0.00     0.034 A 
ATOM     58  C   UNL A   1      42.743  33.400  30.397  1.00  0.00     0.034 A 
ATOM     59  C   UNL A   1      39.196  27.780  30.811  1.00  0.00     0.049 A 
ATOM     60  C   UNL A   1      43.007  32.086  30.993  1.00  0.00     0.074 A 
ATOM     61  C   UNL A   1      38.521  27.574  31.994  1.00  0.00     0.029 A 
ATOM     62  N   UNL A   1      40.357  28.442  31.111  1.00  0.00    -0.354 N 
ATOM     63  N   UNL A   1      42.648  31.768  32.205  1.00  0.00    -0.248 NA
ATOM     64  C   UNL A   1      43.330  30.979  30.108  1.00  0.00     0.031 C 
ATOM     65  C   UNL A   1      39.239  28.295  32.993  1.00  0.00     0.029 A 
ATOM     66  C   UNL A   1      40.352  28.890  32.402  1.00  0.00     0.049 A 
ATOM     67  H   UNL A   1      41.099  28.579  30.477  1.00  0.00     0.167 HD
ATOM     68  C   UNL A   1      42.261  30.446  32.089  1.00  0.00     0.074 A 
ATOM     69  C   UNL A   1      42.848  29.974  30.840  1.00  0.00     0.031 C 
ATOM     70  C   UNL A   1      41.239  29.947  32.836  1.00  0.00     0.034 A 
BRANCH  57  71
ATOM     71  C   UNL A   1      39.696  26.985  28.435  1.00  0.00     0.023 A 
ATOM     72  C   UNL A   1      39.606  25.584  28.455  1.00  0.00     0.012 A 
ATOM     73  C   UNL A   1      40.726  27.573  27.664  1.00  0.00     0.148 A 
ATOM     74  C   UNL A   1      40.476  24.801  27.690  1.00  0.00     0.002 A 
ATOM     75  C   UNL A   1      41.532  26.800  26.846  1.00  0.00     0.091 A 
ATOM     76  F   UNL A   1      41.000  28.875  27.824  1.00  0.00    -0.205 F 
ATOM     77  C   UNL A   1      41.420  25.408  26.864  1.00  0.00     0.022 A 
BRANCH  75  78
ATOM     78  S   UNL A   1      42.737  27.537  25.739  1.00  0.00     0.127 S 
ATOM     79  O   UNL A   1      43.208  26.370  25.000  1.00  0.00    -0.237 OA
ATOM     80  O   UNL A   1      41.904  28.465  24.974  1.00  0.00    -0.237 OA
ATOM     81  O   UNL A   1      43.712  28.184  26.607  1.00  0.00    -0.744 OA
ENDBRANCH  75  78
ENDBRANCH  57  71
BRANCH  58  82
ATOM     82  C   UNL A   1      43.788  34.268  29.796  1.00  0.00     0.023 A 
ATOM     83  C   UNL A   1      44.340  33.919  28.545  1.00  0.00     0.012 A 
ATOM     84  C   UNL A   1      44.041  35.567  30.293  1.00  0.00     0.148 A 
ATOM     85  C   UNL A   1      45.016  34.865  27.765  1.00  0.00     0.002 A 
ATOM     86  C   UNL A   1      44.704  36.506  29.510  1.00  0.00     0.091 A 
ATOM     87  F   UNL A   1      43.564  35.909  31.497  1.00  0.00    -0.205 F 
ATOM     88  C   UNL A   1      45.173  36.166  28.235  1.00  0.00     0.022 A 
BRANCH  86  89
ATOM     89  S   UNL A   1      44.918  38.208  30.049  1.00  0.00     0.127 S 
ATOM     90  O   UNL A   1      45.928  38.075  31.099  1.00  0.00    -0.237 OA
ATOM     91  O   UNL A   1      45.390  38.854  28.828  1.00  0.00    -0.237 OA
ATOM     92  O   UNL A   1      43.611  38.638  30.530  1.00  0.00    -0.744 OA
ENDBRANCH  86  89
ENDBRANCH  58  82
BRANCH  70  93
ATOM     93  C   UNL A   1      40.938  30.614  34.143  1.00  0.00     0.023 A 
ATOM     94  C   UNL A   1      41.745  30.488  35.288  1.00  0.00     0.012 A 
ATOM     95  C   UNL A   1      39.853  31.507  34.156  1.00  0.00     0.148 A 
ATOM     96  C   UNL A   1      41.472  31.254  36.429  1.00  0.00     0.002 A 
ATOM     97  C   UNL A   1      39.605  32.287  35.273  1.00  0.00     0.091 A 
ATOM     98  F   UNL A   1      39.101  31.597  33.047  1.00  0.00    -0.205 F 
ATOM     99  C   UNL A   1      40.412  32.163  36.416  1.00  0.00     0.022 A 
BRANCH  97 100
ATOM    100  S   UNL A   1      38.314  33.532  35.277  1.00  0.00     0.127 S 
ATOM    101  O   UNL A   1      37.171  32.788  35.800  1.00  0.00    -0.237 OA
ATOM    102  O   UNL A   1      38.858  34.541  36.189  1.00  0.00    -0.237 OA
ATOM    103  O   UNL A   1      38.184  33.986  33.898  1.00  0.00    -0.744 OA
ENDBRANCH  97 100
ENDBRANCH  70  93
ENDBRANCH  44  45
ENDBRANCH  37  39
ENDBRANCH  36  37
ENDBRANCH  35  36
ENDBRANCH  34  35
ENDBRANCH  33  34
ENDBRANCH  32  33
ENDBRANCH   1  32
TORSDOF 25
ENDMDL
MODEL 2
REMARK VINA RESULT:      -9.9      1.703      4.143
REMARK SMILES COC(=O)c1ccc2c(c1)=N[C@H](c1cn(CCC(=O)OCCOCCOCCOC(=O)c3ccc(-c4c5nc(c(-c6cccc(S(=O)(=O)[O-])c6F)c6ccc([nH]6)c(-c6cccc(S(=O)(=O)[O-])c6F)c6nc(c(-c7cccc(S(=O)(=O)[O-])c7F)c7ccc4[nH]7)C=C6)C=C5)cc3)c3ccccc13)N=2
REMARK SMILES IDX 24 1 23 2 22 3 21 4 20 5 18 6 19 7 17 8 16 9 15 10 13 11
REMARK SMILES IDX 14 12 100 13 95 14 99 15 96 16 98 17 97 18 12 19 5 20 6 21
REMARK SMILES IDX 10 22 7 23 9 24 8 25 11 26 101 27 3 28 4 29 2 30 1 31 25 32
REMARK SMILES IDX 26 33 27 34 28 35 29 36 30 37 31 38 32 39 33 40 94 41 34 42
REMARK SMILES IDX 93 43 35 44 36 45 37 46 87 47 38 48 92 49 86 50 88 51 39 52
REMARK SMILES IDX 91 53 85 54 84 55 40 57 72 58 52 59 71 60 53 61 56 62 70 63
REMARK SMILES IDX 89 64 54 65 55 66 69 68 90 69 57 70 41 71 42 72 50 73 43 74
REMARK SMILES IDX 45 75 51 76 44 77 46 78 47 79 48 80 49 81 73 82 74 83 82 84
REMARK SMILES IDX 75 85 77 86 83 87 76 88 78 89 79 90 80 91 81 92 58 93 59 94
REMARK SMILES IDX 67 95 60 96 62 97 68 98 61 99 63 100 64 101 65 102 66 103
REMARK H PARENT 88 56 56 67
REMARK Flexibility Score: inf
ROOT
ATOM      1  C   UNL A   1      33.741  28.559  24.672  1.00  0.00     0.188 C 
ENDROOT
BRANCH   1   2
ATOM      2  O   UNL A   1      33.907  27.158  24.771  1.00  0.00    -0.376 OA
BRANCH   2   3
ATOM      3  C   UNL A   1      33.728  26.560  26.057  1.00  0.00     0.202 C 
BRANCH   3   4
ATOM      4  C   UNL A   1      33.756  25.032  26.138  1.00  0.00     0.261 C 
BRANCH   4   5
ATOM      5  O   UNL A   1      35.123  24.562  26.254  1.00  0.00    -0.463 OA
BRANCH   5   6
ATOM      6  C   UNL A   1      35.264  23.405  26.931  1.00  0.00     0.307 C 
ATOM      7  O   UNL A   1      34.443  23.042  27.777  1.00  0.00    -0.252 OA
BRANCH   6   8
ATOM      8  C   UNL A   1      36.337  22.430  26.456  1.00  0.00     0.144 C 
BRANCH   8   9
ATOM      9  C   UNL A   1      36.447  21.314  25.436  1.00  0.00     0.134 C 
BRANCH   9  10
ATOM     10  N   UNL A   1      35.343  21.303  24.532  1.00  0.00    -0.346 N 
ATOM     11  C   UNL A   1      33.424  22.023  23.841  1.00  0.00     0.024 A 
ATOM     12  C   UNL A   1      34.744  22.418  24.007  1.00  0.00     0.094 A 
ATOM     13  C   UNL A   1      33.266  20.893  24.706  1.00  0.00     0.007 A 
ATOM     14  C   UNL A   1      34.468  20.258  24.460  1.00  0.00     0.048 A 
ATOM     15  C   UNL A   1      32.208  20.131  25.213  1.00  0.00     0.011 A 
ATOM     16  C   UNL A   1      34.589  18.888  24.272  1.00  0.00     0.027 A 
ATOM     17  C   UNL A   1      32.326  18.739  25.147  1.00  0.00     0.001 A 
ATOM     18  C   UNL A   1      33.451  18.141  24.572  1.00  0.00     0.002 A 
BRANCH  11  19
ATOM     19  C   UNL A   1      32.589  22.316  22.625  1.00  0.00     0.255 C 
ATOM     20  C   UNL A   1      30.930  26.532  22.575  1.00  0.00     0.062 A 
ATOM     21  C   UNL A   1      32.075  26.694  21.682  1.00  0.00     0.018 A 
ATOM     22  C   UNL A   1      30.655  25.362  23.180  1.00  0.00     0.046 A 
ATOM     23  C   UNL A   1      32.931  25.706  21.387  1.00  0.00     0.031 A 
ATOM     24  C   UNL A   1      31.502  24.205  22.843  1.00  0.00     0.087 A 
ATOM     25  C   UNL A   1      32.667  24.382  21.956  1.00  0.00     0.086 A 
ATOM     26  N   UNL A   1      31.331  22.968  23.147  1.00  0.00    -0.252 NA
ATOM     27  N   UNL A   1      33.288  23.277  21.721  1.00  0.00    -0.252 NA
BRANCH  20  28
ATOM     28  C   UNL A   1      29.998  27.668  22.838  1.00  0.00     0.337 C 
ATOM     29  O   UNL A   1      29.332  27.809  23.862  1.00  0.00    -0.246 OA
BRANCH  28  30
ATOM     30  O   UNL A   1      29.969  28.495  21.761  1.00  0.00    -0.465 OA
ATOM     31  C   UNL A   1      30.076  29.887  22.066  1.00  0.00     0.282 C 
ENDBRANCH  28  30
ENDBRANCH  20  28
ENDBRANCH  11  19
ENDBRANCH   9  10
ENDBRANCH   8   9
ENDBRANCH   6   8
ENDBRANCH   5   6
ENDBRANCH   4   5
ENDBRANCH   3   4
ENDBRANCH   2   3
ENDBRANCH   1   2
BRANCH   1  32
ATOM     32  C   UNL A   1      32.815  29.231  25.675  1.00  0.00     0.188 C 
BRANCH  32  33
ATOM     33  O   UNL A   1      33.121  30.449  26.300  1.00  0.00    -0.376 OA
BRANCH  33  34
ATOM     34  C   UNL A   1      32.057  31.175  26.876  1.00  0.00     0.202 C 
BRANCH  34  35
ATOM     35  C   UNL A   1      32.174  32.711  26.965  1.00  0.00     0.261 C 
BRANCH  35  36
ATOM     36  O   UNL A   1      32.143  33.238  28.308  1.00  0.00    -0.460 OA
BRANCH  36  37
ATOM     37  C   UNL A   1      32.824  34.409  28.518  1.00  0.00     0.338 C 
ATOM     38  O   UNL A   1      32.319  35.504  28.701  1.00  0.00    -0.246 OA
BRANCH  37  39
ATOM     39  C   UNL A   1      34.255  34.082  28.837  1.00  0.00     0.060 A 
ATOM     40  C   UNL A   1      35.269  34.206  27.877  1.00  0.00     0.016 A 
ATOM     41  C   UNL A   1      34.492  33.302  29.983  1.00  0.00     0.016 A 
ATOM     42  C   UNL A   1      36.452  33.459  28.014  1.00  0.00     0.010 A 
ATOM     43  C   UNL A   1      35.686  32.570  30.119  1.00  0.00     0.010 A 
ATOM     44  C   UNL A   1      36.665  32.603  29.117  1.00  0.00    -0.014 A 
BRANCH  44  45
ATOM     45  C   UNL A   1      38.034  32.081  29.379  1.00  0.00     0.031 A 
ATOM     46  C   UNL A   1      38.150  30.682  28.936  1.00  0.00     0.074 A 
ATOM     47  C   UNL A   1      39.161  32.655  29.867  1.00  0.00     0.049 A 
ATOM     48  N   UNL A   1      38.181  29.668  29.736  1.00  0.00    -0.248 NA
ATOM     49  C   UNL A   1      38.007  30.352  27.516  1.00  0.00     0.031 C 
ATOM     50  C   UNL A   1      39.299  33.961  30.452  1.00  0.00     0.029 A 
ATOM     51  N   UNL A   1      40.465  32.235  29.930  1.00  0.00    -0.354 N 
ATOM     52  C   UNL A   1      38.362  28.580  28.905  1.00  0.00     0.074 A 
ATOM     53  C   UNL A   1      38.044  29.018  27.566  1.00  0.00     0.031 C 
ATOM     54  C   UNL A   1      40.562  34.428  30.410  1.00  0.00     0.029 A 
ATOM     55  C   UNL A   1      41.384  33.279  30.092  1.00  0.00     0.049 A 
ATOM     56  H   UNL A   1      40.730  31.289  29.867  1.00  0.00     0.167 HD
ATOM     57  C   UNL A   1      39.079  27.507  29.327  1.00  0.00     0.034 A 
ATOM     58  C   UNL A   1      42.715  33.270  30.342  1.00  0.00     0.034 A 
ATOM     59  C   UNL A   1      39.348  27.540  30.736  1.00  0.00     0.049 A 
ATOM     60  C   UNL A   1      43.005  31.975  30.966  1.00  0.00     0.074 A 
ATOM     61  C   UNL A   1      38.643  27.328  31.901  1.00  0.00     0.029 A 
ATOM     62  N   UNL A   1      40.476  28.246  31.060  1.00  0.00    -0.354 N 
ATOM     63  N   UNL A   1      42.620  31.663  32.171  1.00  0.00    -0.248 NA
ATOM     64  C   UNL A   1      43.392  30.867  30.108  1.00  0.00     0.031 C 
ATOM     65  C   UNL A   1      39.306  28.088  32.910  1.00  0.00     0.029 A 
ATOM     66  C   UNL A   1      40.416  28.712  32.344  1.00  0.00     0.049 A 
ATOM     67  H   UNL A   1      41.231  28.399  30.447  1.00  0.00     0.167 HD
ATOM     68  C   UNL A   1      42.281  30.327  32.064  1.00  0.00     0.074 A 
ATOM     69  C   UNL A   1      42.922  29.857  30.841  1.00  0.00     0.031 C 
ATOM     70  C   UNL A   1      41.253  29.805  32.788  1.00  0.00     0.034 A 
BRANCH  57  71
ATOM     71  C   UNL A   1      39.946  26.729  28.388  1.00  0.00     0.023 A 
ATOM     72  C   UNL A   1      39.871  25.327  28.397  1.00  0.00     0.012 A 
ATOM     73  C   UNL A   1      41.006  27.332  27.671  1.00  0.00     0.148 A 
ATOM     74  C   UNL A   1      40.786  24.557  27.672  1.00  0.00     0.002 A 
ATOM     75  C   UNL A   1      41.860  26.572  26.890  1.00  0.00     0.091 A 
ATOM     76  F   UNL A   1      41.257  28.635  27.851  1.00  0.00    -0.205 F 
ATOM     77  C   UNL A   1      41.762  25.179  26.897  1.00  0.00     0.022 A 
BRANCH  75  78
ATOM     78  S   UNL A   1      43.109  27.328  25.847  1.00  0.00     0.127 S 
ATOM     79  O   UNL A   1      43.671  28.332  26.744  1.00  0.00    -0.237 OA
ATOM     80  O   UNL A   1      43.982  26.189  25.561  1.00  0.00    -0.237 OA
ATOM     81  O   UNL A   1      42.387  27.835  24.688  1.00  0.00    -0.744 OA
ENDBRANCH  75  78
ENDBRANCH  57  71
BRANCH  58  82
ATOM     82  C   UNL A   1      43.748  34.165  29.759  1.00  0.00     0.023 A 
ATOM     83  C   UNL A   1      44.399  33.784  28.566  1.00  0.00     0.012 A 
ATOM     84  C   UNL A   1      43.899  35.500  30.198  1.00  0.00     0.148 A 
ATOM     85  C   UNL A   1      45.072  34.725  27.778  1.00  0.00     0.002 A 
ATOM     86  C   UNL A   1      44.559  36.434  29.407  1.00  0.00     0.091 A 
ATOM     87  F   UNL A   1      43.327  35.876  31.350  1.00  0.00    -0.205 F 
ATOM     88  C   UNL A   1      45.127  36.055  28.184  1.00  0.00     0.022 A 
BRANCH  86  89
ATOM     89  S   UNL A   1      44.646  38.171  29.863  1.00  0.00     0.127 S 
ATOM     90  O   UNL A   1      45.604  38.698  28.892  1.00  0.00    -0.237 OA
ATOM     91  O   UNL A   1      43.267  38.605  29.658  1.00  0.00    -0.237 OA
ATOM     92  O   UNL A   1      45.120  38.194  31.241  1.00  0.00    -0.744 OA
ENDBRANCH  86  89
ENDBRANCH  58  82
BRANCH  70  93
ATOM     93  C   UNL A   1      40.891  30.479  34.075  1.00  0.00     0.023 A 
ATOM     94  C   UNL A   1      41.674  30.409  35.241  1.00  0.00     0.012 A 
ATOM     95  C   UNL A   1      39.768  31.323  34.045  1.00  0.00     0.148 A 
ATOM     96  C   UNL A   1      41.338  31.181  36.361  1.00  0.00     0.002 A 
ATOM     97  C   UNL A   1      39.458  32.111  35.141  1.00  0.00     0.091 A 
ATOM     98  F   UNL A   1      39.041  31.361  32.917  1.00  0.00    -0.205 F 
ATOM     99  C   UNL A   1      40.240  32.042  36.305  1.00  0.00     0.022 A 
BRANCH  97 100
ATOM    100  S   UNL A   1      38.114  33.297  35.091  1.00  0.00     0.127 S 
ATOM    101  O   UNL A   1      36.950  32.436  34.889  1.00  0.00    -0.237 OA
ATOM    102  O   UNL A   1      38.196  33.916  36.416  1.00  0.00    -0.237 OA
ATOM    103  O   UNL A   1      38.414  34.205  33.991  1.00  0.00    -0.744 OA
ENDBRANCH  97 100
ENDBRANCH  70  93
ENDBRANCH  44  45
ENDBRANCH  37  39
ENDBRANCH  36  37
ENDBRANCH  35  36
ENDBRANCH  34  35
ENDBRANCH  33  34
ENDBRANCH  32  33
ENDBRANCH   1  32
TORSDOF 25
ENDMDL
MODEL 3
REMARK VINA RESULT:      -9.5      2.883      9.177
REMARK SMILES COC(=O)c1ccc2c(c1)=N[C@H](c1cn(CCC(=O)OCCOCCOCCOC(=O)c3ccc(-c4c5nc(c(-c6cccc(S(=O)(=O)[O-])c6F)c6ccc([nH]6)c(-c6cccc(S(=O)(=O)[O-])c6F)c6nc(c(-c7cccc(S(=O)(=O)[O-])c7F)c7ccc4[nH]7)C=C6)C=C5)cc3)c3ccccc13)N=2
REMARK SMILES IDX 24 1 23 2 22 3 21 4 20 5 18 6 19 7 17 8 16 9 15 10 13 11
REMARK SMILES IDX 14 12 100 13 95 14 99 15 96 16 98 17 97 18 12 19 5 20 6 21
REMARK SMILES IDX 10 22 7 23 9 24 8 25 11 26 101 27 3 28 4 29 2 30 1 31 25 32
REMARK SMILES IDX 26 33 27 34 28 35 29 36 30 37 31 38 32 39 33 40 94 41 34 42
REMARK SMILES IDX 93 43 35 44 36 45 37 46 87 47 38 48 92 49 86 50 88 51 39 52
REMARK SMILES IDX 91 53 85 54 84 55 40 57 72 58 52 59 71 60 53 61 56 62 70 63
REMARK SMILES IDX 89 64 54 65 55 66 69 68 90 69 57 70 41 71 42 72 50 73 43 74
REMARK SMILES IDX 45 75 51 76 44 77 46 78 47 79 48 80 49 81 73 82 74 83 82 84
REMARK SMILES IDX 75 85 77 86 83 87 76 88 78 89 79 90 80 91 81 92 58 93 59 94
REMARK SMILES IDX 67 95 60 96 62 97 68 98 61 99 63 100 64 101 65 102 66 103
REMARK H PARENT 88 56 56 67
REMARK Flexibility Score: inf
ROOT
ATOM      1  C   UNL A   1      42.887  19.187  25.612  1.00  0.00     0.188 C 
ENDROOT
BRANCH   1   2
ATOM      2  O   UNL A   1      42.008  20.293  25.671  1.00  0.00    -0.376 OA
BRANCH   2   3
ATOM      3  C   UNL A   1      41.404  20.592  26.932  1.00  0.00     0.202 C 
BRANCH   3   4
ATOM      4  C   UNL A   1      40.011  21.225  26.918  1.00  0.00     0.261 C 
BRANCH   4   5
ATOM      5  O   UNL A   1      39.531  21.352  25.556  1.00  0.00    -0.463 OA
BRANCH   5   6
ATOM      6  C   UNL A   1      38.554  20.485  25.222  1.00  0.00     0.307 C 
ATOM      7  O   UNL A   1      38.642  19.280  25.463  1.00  0.00    -0.252 OA
BRANCH   6   8
ATOM      8  C   UNL A   1      37.221  21.064  24.754  1.00  0.00     0.144 C 
BRANCH   8   9
ATOM      9  C   UNL A   1      36.734  22.352  24.122  1.00  0.00     0.134 C 
BRANCH   9  10
ATOM     10  N   UNL A   1      35.440  22.728  24.596  1.00  0.00    -0.346 N 
ATOM     11  C   UNL A   1      33.683  22.419  25.819  1.00  0.00     0.024 A 
ATOM     12  C   UNL A   1      35.042  22.691  25.906  1.00  0.00     0.094 A 
ATOM     13  C   UNL A   1      33.503  21.861  24.512  1.00  0.00     0.007 A 
ATOM     14  C   UNL A   1      34.333  22.702  23.797  1.00  0.00     0.048 A 
ATOM     15  C   UNL A   1      32.496  21.182  23.818  1.00  0.00     0.011 A 
ATOM     16  C   UNL A   1      34.000  23.246  22.564  1.00  0.00     0.027 A 
ATOM     17  C   UNL A   1      32.192  21.622  22.527  1.00  0.00     0.001 A 
ATOM     18  C   UNL A   1      32.858  22.716  21.967  1.00  0.00     0.002 A 
BRANCH  11  19
ATOM     19  C   UNL A   1      32.620  23.104  26.631  1.00  0.00     0.255 C 
ATOM     20  C   UNL A   1      31.567  27.227  25.077  1.00  0.00     0.062 A 
ATOM     21  C   UNL A   1      30.468  26.450  24.511  1.00  0.00     0.018 A 
ATOM     22  C   UNL A   1      32.550  26.657  25.798  1.00  0.00     0.046 A 
ATOM     23  C   UNL A   1      30.340  25.125  24.667  1.00  0.00     0.031 A 
ATOM     24  C   UNL A   1      32.438  25.217  26.083  1.00  0.00     0.087 A 
ATOM     25  C   UNL A   1      31.335  24.436  25.492  1.00  0.00     0.086 A 
ATOM     26  N   UNL A   1      33.140  24.498  26.884  1.00  0.00    -0.252 NA
ATOM     27  N   UNL A   1      31.344  23.201  25.861  1.00  0.00    -0.252 NA
BRANCH  20  28
ATOM     28  C   UNL A   1      31.634  28.707  24.889  1.00  0.00     0.337 C 
ATOM     29  O   UNL A   1      31.056  29.331  24.002  1.00  0.00    -0.246 OA
BRANCH  28  30
ATOM     30  O   UNL A   1      32.461  29.249  25.822  1.00  0.00    -0.465 OA
ATOM     31  C   UNL A   1      31.826  29.623  27.046  1.00  0.00     0.282 C 
ENDBRANCH  28  30
ENDBRANCH  20  28
ENDBRANCH  11  19
ENDBRANCH   9  10
ENDBRANCH   8   9
ENDBRANCH   6   8
ENDBRANCH   5   6
ENDBRANCH   4   5
ENDBRANCH   3   4
ENDBRANCH   2   3
ENDBRANCH   1   2
BRANCH   1  32
ATOM     32  C   UNL A   1      44.281  19.426  25.050  1.00  0.00     0.188 C 
BRANCH  32  33
ATOM     33  O   UNL A   1      44.593  20.509  24.216  1.00  0.00    -0.376 OA
BRANCH  33  34
ATOM     34  C   UNL A   1      44.801  21.766  24.822  1.00  0.00     0.202 C 
BRANCH  34  35
ATOM     35  C   UNL A   1      44.150  23.011  24.185  1.00  0.00     0.261 C 
BRANCH  35  36
ATOM     36  O   UNL A   1      44.031  24.144  25.070  1.00  0.00    -0.460 OA
BRANCH  36  37
ATOM     37  C   UNL A   1      45.122  24.970  25.152  1.00  0.00     0.338 C 
ATOM     38  O   UNL A   1      46.177  24.817  24.558  1.00  0.00    -0.246 OA
BRANCH  37  39
ATOM     39  C   UNL A   1      44.702  26.260  25.797  1.00  0.00     0.060 A 
ATOM     40  C   UNL A   1      45.485  26.879  26.781  1.00  0.00     0.016 A 
ATOM     41  C   UNL A   1      43.351  26.628  25.668  1.00  0.00     0.016 A 
ATOM     42  C   UNL A   1      44.884  27.762  27.695  1.00  0.00     0.010 A 
ATOM     43  C   UNL A   1      42.761  27.525  26.579  1.00  0.00     0.010 A 
ATOM     44  C   UNL A   1      43.507  28.071  27.631  1.00  0.00    -0.014 A 
BRANCH  44  45
ATOM     45  C   UNL A   1      42.986  29.229  28.407  1.00  0.00     0.031 A 
ATOM     46  C   UNL A   1      43.704  30.462  28.045  1.00  0.00     0.074 A 
ATOM     47  C   UNL A   1      41.973  29.360  29.299  1.00  0.00     0.049 A 
ATOM     48  N   UNL A   1      44.589  31.034  28.793  1.00  0.00    -0.248 NA
ATOM     49  C   UNL A   1      43.604  30.991  26.683  1.00  0.00     0.031 C 
ATOM     50  C   UNL A   1      41.185  28.314  29.892  1.00  0.00     0.029 A 
ATOM     51  N   UNL A   1      41.371  30.453  29.867  1.00  0.00    -0.354 N 
ATOM     52  C   UNL A   1      44.941  32.175  28.098  1.00  0.00     0.074 A 
ATOM     53  C   UNL A   1      44.477  32.000  26.743  1.00  0.00     0.031 C 
ATOM     54  C   UNL A   1      39.992  28.745  30.348  1.00  0.00     0.029 A 
ATOM     55  C   UNL A   1      40.094  30.189  30.377  1.00  0.00     0.049 A 
ATOM     56  H   UNL A   1      41.798  31.339  29.913  1.00  0.00     0.167 HD
ATOM     57  C   UNL A   1      45.282  33.305  28.767  1.00  0.00     0.034 A 
ATOM     58  C   UNL A   1      39.256  30.943  31.129  1.00  0.00     0.034 A 
ATOM     59  C   UNL A   1      45.489  33.079  30.169  1.00  0.00     0.049 A 
ATOM     60  C   UNL A   1      40.098  31.928  31.816  1.00  0.00     0.074 A 
ATOM     61  C   UNL A   1      46.457  32.507  30.965  1.00  0.00     0.029 A 
ATOM     62  N   UNL A   1      44.339  33.155  30.910  1.00  0.00    -0.354 N 
ATOM     63  N   UNL A   1      40.925  31.614  32.774  1.00  0.00    -0.248 NA
ATOM     64  C   UNL A   1      40.314  33.215  31.178  1.00  0.00     0.031 C 
ATOM     65  C   UNL A   1      45.793  32.080  32.153  1.00  0.00     0.029 A 
ATOM     66  C   UNL A   1      44.449  32.436  32.068  1.00  0.00     0.049 A 
ATOM     67  H   UNL A   1      43.537  33.660  30.642  1.00  0.00     0.167 HD
ATOM     68  C   UNL A   1      42.012  32.436  32.542  1.00  0.00     0.074 A 
ATOM     69  C   UNL A   1      41.522  33.495  31.668  1.00  0.00     0.031 C 
ATOM     70  C   UNL A   1      43.279  32.013  32.805  1.00  0.00     0.034 A 
BRANCH  57  71
ATOM     71  C   UNL A   1      44.924  34.661  28.243  1.00  0.00     0.023 A 
ATOM     72  C   UNL A   1      43.573  34.972  28.026  1.00  0.00     0.012 A 
ATOM     73  C   UNL A   1      45.900  35.548  27.730  1.00  0.00     0.148 A 
ATOM     74  C   UNL A   1      43.206  36.151  27.371  1.00  0.00     0.002 A 
ATOM     75  C   UNL A   1      45.533  36.753  27.155  1.00  0.00     0.091 A 
ATOM     76  F   UNL A   1      47.181  35.158  27.692  1.00  0.00    -0.205 F 
ATOM     77  C   UNL A   1      44.184  37.055  26.961  1.00  0.00     0.022 A 
BRANCH  75  78
ATOM     78  S   UNL A   1      46.754  37.964  26.643  1.00  0.00     0.127 S 
ATOM     79  O   UNL A   1      47.454  37.245  25.583  1.00  0.00    -0.237 OA
ATOM     80  O   UNL A   1      45.904  39.066  26.192  1.00  0.00    -0.237 OA
ATOM     81  O   UNL A   1      47.530  38.258  27.840  1.00  0.00    -0.744 OA
ENDBRANCH  75  78
ENDBRANCH  57  71
BRANCH  58  82
ATOM     82  C   UNL A   1      37.781  31.053  30.999  1.00  0.00     0.023 A 
ATOM     83  C   UNL A   1      36.990  31.152  32.163  1.00  0.00     0.012 A 
ATOM     84  C   UNL A   1      37.171  31.345  29.758  1.00  0.00     0.148 A 
ATOM     85  C   UNL A   1      35.678  31.640  32.107  1.00  0.00     0.002 A 
ATOM     86  C   UNL A   1      35.872  31.839  29.708  1.00  0.00     0.091 A 
ATOM     87  F   UNL A   1      37.888  31.218  28.633  1.00  0.00    -0.205 F 
ATOM     88  C   UNL A   1      35.129  32.010  30.883  1.00  0.00     0.022 A 
BRANCH  86  89
ATOM     89  S   UNL A   1      35.113  32.357  28.161  1.00  0.00     0.127 S 
ATOM     90  O   UNL A   1      34.994  31.091  27.436  1.00  0.00    -0.237 OA
ATOM     91  O   UNL A   1      33.847  32.919  28.620  1.00  0.00    -0.237 OA
ATOM     92  O   UNL A   1      36.046  33.302  27.560  1.00  0.00    -0.744 OA
ENDBRANCH  86  89
ENDBRANCH  58  82
BRANCH  70  93
ATOM     93  C   UNL A   1      43.460  30.953  33.847  1.00  0.00     0.023 A 
ATOM     94  C   UNL A   1      43.590  29.583  33.554  1.00  0.00     0.012 A 
ATOM     95  C   UNL A   1      43.631  31.397  35.169  1.00  0.00     0.148 A 
ATOM     96  C   UNL A   1      43.896  28.673  34.573  1.00  0.00     0.002 A 
ATOM     97  C   UNL A   1      43.966  30.499  36.169  1.00  0.00     0.091 A 
ATOM     98  F   UNL A   1      43.494  32.710  35.413  1.00  0.00    -0.205 F 
ATOM     99  C   UNL A   1      44.098  29.132  35.877  1.00  0.00     0.022 A 
BRANCH  97 100
ATOM    100  S   UNL A   1      44.324  31.048  37.838  1.00  0.00     0.127 S 
ATOM    101  O   UNL A   1      43.096  31.753  38.200  1.00  0.00    -0.237 OA
ATOM    102  O   UNL A   1      44.534  29.782  38.543  1.00  0.00    -0.237 OA
ATOM    103  O   UNL A   1      45.516  31.882  37.745  1.00  0.00    -0.744 OA
ENDBRANCH  97 100
ENDBRANCH  70  93
ENDBRANCH  44  45
ENDBRANCH  37  39
ENDBRANCH  36  37
ENDBRANCH  35  36
ENDBRANCH  34  35
ENDBRANCH  33  34
ENDBRANCH  32  33
ENDBRANCH   1  32
TORSDOF 25
ENDMDL
