MODEL 1
REMARK VINA RESULT:     -11.0      0.000      0.000
REMARK SMILES Cc1c(CC(=O)OCCOCCOCCOC(=O)c2ccc(-c3c4nc(c(-c5cccc(S(=O)(=O)[O-])c5F)c5ccc([nH]5)c(-c5cccc(S(=O)(=O)[O-])c5F)c5nc(c(-c6cccc(S(=O)(=O)[O-])c6F)c6ccc3[nH]6)C=C5)C=C4)cc2)c2ccccc2n1C(=O)c1ccc(Cl)cc1
REMARK SMILES IDX 11 1 10 2 9 3 8 4 7 5 5 6 6 7 4 8 3 9 1 10 2 11 88 12 82 13
REMARK SMILES IDX 87 14 83 15 86 16 84 17 85 18 89 19 90 20 91 21 92 22 97 23
REMARK SMILES IDX 93 24 96 25 94 26 95 27 12 28 13 29 14 30 15 31 16 32 17 33
REMARK SMILES IDX 18 34 19 35 20 36 81 37 21 38 80 39 22 40 23 41 24 42 74 43
REMARK SMILES IDX 25 44 79 45 73 46 75 47 26 48 78 49 72 50 71 51 27 53 59 54
REMARK SMILES IDX 39 55 58 56 40 57 43 58 57 59 76 60 41 61 42 62 56 64 77 65
REMARK SMILES IDX 44 66 28 67 29 68 37 69 30 70 32 71 38 72 31 73 33 74 34 75
REMARK SMILES IDX 35 76 36 77 60 78 61 79 69 80 62 81 64 82 70 83 63 84 65 85
REMARK SMILES IDX 66 86 67 87 68 88 45 89 46 90 54 91 47 92 49 93 55 94 48 95
REMARK SMILES IDX 50 96 51 97 52 98 53 99
REMARK H PARENT 75 52 43 63
REMARK Flexibility Score: inf
ROOT
ATOM      1  C   UNL A   1      31.847  29.780  25.879  1.00  0.00     0.188 C 
ENDROOT
BRANCH   1   2
ATOM      2  O   UNL A   1      32.631  29.592  24.718  1.00  0.00    -0.376 OA
BRANCH   2   3
ATOM      3  C   UNL A   1      32.210  28.587  23.807  1.00  0.00     0.202 C 
BRANCH   3   4
ATOM      4  C   UNL A   1      30.696  28.344  23.714  1.00  0.00     0.261 C 
BRANCH   4   5
ATOM      5  O   UNL A   1      30.306  27.176  24.475  1.00  0.00    -0.463 OA
BRANCH   5   6
ATOM      6  C   UNL A   1      29.287  26.441  23.948  1.00  0.00     0.310 C 
ATOM      7  O   UNL A   1      28.158  26.902  23.803  1.00  0.00    -0.252 OA
BRANCH   6   8
ATOM      8  C   UNL A   1      29.735  25.140  23.297  1.00  0.00     0.160 C 
BRANCH   8   9
ATOM      9  C   UNL A   1      30.983  24.413  23.688  1.00  0.00    -0.008 A 
ATOM     10  C   UNL A   1      32.557  25.461  21.925  1.00  0.00     0.065 C 
ATOM     11  C   UNL A   1      32.216  24.570  23.075  1.00  0.00     0.028 A 
ATOM     12  N   UNL A   1      33.157  23.825  23.779  1.00  0.00    -0.280 N 
ATOM     13  C   UNL A   1      31.252  23.786  24.951  1.00  0.00     0.004 A 
ATOM     14  C   UNL A   1      32.623  23.575  25.049  1.00  0.00     0.056 A 
ATOM     15  C   UNL A   1      30.483  23.489  26.093  1.00  0.00     0.010 A 
ATOM     16  C   UNL A   1      33.202  23.168  26.277  1.00  0.00     0.027 A 
ATOM     17  C   UNL A   1      31.035  22.983  27.272  1.00  0.00     0.001 A 
ATOM     18  C   UNL A   1      32.400  22.850  27.371  1.00  0.00     0.002 A 
BRANCH  12  19
ATOM     19  C   UNL A   1      34.396  23.334  23.296  1.00  0.00     0.262 C 
ATOM     20  O   UNL A   1      34.588  23.226  22.090  1.00  0.00    -0.268 OA
BRANCH  19  21
ATOM     21  C   UNL A   1      35.415  22.783  24.203  1.00  0.00     0.040 A 
ATOM     22  C   UNL A   1      36.435  23.635  24.648  1.00  0.00     0.015 A 
ATOM     23  C   UNL A   1      35.476  21.402  24.408  1.00  0.00     0.015 A 
ATOM     24  C   UNL A   1      37.561  23.088  25.258  1.00  0.00     0.021 A 
ATOM     25  C   UNL A   1      36.611  20.862  25.018  1.00  0.00     0.021 A 
ATOM     26  C   UNL A   1      37.651  21.704  25.427  1.00  0.00     0.041 A 
ATOM     27  Cl  UNL A   1      39.086  21.026  26.094  1.00  0.00    -0.084 Cl
ENDBRANCH  19  21
ENDBRANCH  12  19
ENDBRANCH   8   9
ENDBRANCH   6   8
ENDBRANCH   5   6
ENDBRANCH   4   5
ENDBRANCH   3   4
ENDBRANCH   2   3
ENDBRANCH   1   2
BRANCH   1  28
ATOM     28  C   UNL A   1      31.729  31.191  26.476  1.00  0.00     0.188 C 
BRANCH  28  29
ATOM     29  O   UNL A   1      32.765  31.714  27.276  1.00  0.00    -0.376 OA
BRANCH  29  30
ATOM     30  C   UNL A   1      33.912  30.898  27.445  1.00  0.00     0.202 C 
BRANCH  30  31
ATOM     31  C   UNL A   1      35.203  31.575  27.952  1.00  0.00     0.261 C 
BRANCH  31  32
ATOM     32  O   UNL A   1      34.937  32.708  28.820  1.00  0.00    -0.460 OA
BRANCH  32  33
ATOM     33  C   UNL A   1      35.221  32.506  30.143  1.00  0.00     0.338 C 
ATOM     34  O   UNL A   1      34.403  32.518  31.044  1.00  0.00    -0.246 OA
BRANCH  33  35
ATOM     35  C   UNL A   1      36.569  31.864  30.267  1.00  0.00     0.060 A 
ATOM     36  C   UNL A   1      37.781  32.442  29.884  1.00  0.00     0.016 A 
ATOM     37  C   UNL A   1      36.557  30.515  30.621  1.00  0.00     0.016 A 
ATOM     38  C   UNL A   1      38.930  31.633  29.729  1.00  0.00     0.010 A 
ATOM     39  C   UNL A   1      37.668  29.700  30.390  1.00  0.00     0.010 A 
ATOM     40  C   UNL A   1      38.861  30.242  29.907  1.00  0.00    -0.014 A 
BRANCH  40  41
ATOM     41  C   UNL A   1      40.052  29.375  29.975  1.00  0.00     0.031 A 
ATOM     42  C   UNL A   1      40.528  29.207  31.352  1.00  0.00     0.074 A 
ATOM     43  C   UNL A   1      40.729  28.678  29.035  1.00  0.00     0.049 A 
ATOM     44  N   UNL A   1      41.430  29.968  31.875  1.00  0.00    -0.248 NA
ATOM     45  C   UNL A   1      39.913  28.248  32.267  1.00  0.00     0.031 C 
ATOM     46  C   UNL A   1      40.550  28.687  27.598  1.00  0.00     0.029 A 
ATOM     47  N   UNL A   1      41.725  27.742  29.191  1.00  0.00    -0.354 N 
ATOM     48  C   UNL A   1      41.708  29.391  33.092  1.00  0.00     0.074 A 
ATOM     49  C   UNL A   1      40.606  28.502  33.382  1.00  0.00     0.031 C 
ATOM     50  C   UNL A   1      41.191  27.637  27.029  1.00  0.00     0.029 A 
ATOM     51  C   UNL A   1      41.981  26.978  28.053  1.00  0.00     0.049 A 
ATOM     52  H   UNL A   1      42.216  27.622  30.036  1.00  0.00     0.167 HD
ATOM     53  C   UNL A   1      42.955  29.468  33.624  1.00  0.00     0.034 A 
ATOM     54  C   UNL A   1      42.990  26.101  27.818  1.00  0.00     0.034 A 
ATOM     55  C   UNL A   1      43.836  30.334  32.880  1.00  0.00     0.049 A 
ATOM     56  C   UNL A   1      44.141  26.606  28.595  1.00  0.00     0.074 A 
ATOM     57  C   UNL A   1      43.774  31.640  32.427  1.00  0.00     0.029 A 
ATOM     58  N   UNL A   1      44.826  29.731  32.139  1.00  0.00    -0.354 N 
ATOM     59  N   UNL A   1      44.783  27.700  28.289  1.00  0.00    -0.248 NA
ATOM     60  C   UNL A   1      44.349  26.109  29.943  1.00  0.00     0.031 C 
ATOM     61  C   UNL A   1      44.394  31.623  31.143  1.00  0.00     0.029 A 
ATOM     62  C   UNL A   1      44.842  30.324  30.901  1.00  0.00     0.049 A 
ATOM     63  H   UNL A   1      45.416  29.003  32.441  1.00  0.00     0.167 HD
ATOM     64  C   UNL A   1      45.070  28.274  29.518  1.00  0.00     0.074 A 
ATOM     65  C   UNL A   1      44.894  27.198  30.489  1.00  0.00     0.031 C 
ATOM     66  C   UNL A   1      45.142  29.628  29.666  1.00  0.00     0.034 A 
BRANCH  53  67
ATOM     67  C   UNL A   1      43.462  28.485  34.622  1.00  0.00     0.023 A 
ATOM     68  C   UNL A   1      43.992  28.973  35.828  1.00  0.00     0.012 A 
ATOM     69  C   UNL A   1      43.596  27.107  34.348  1.00  0.00     0.148 A 
ATOM     70  C   UNL A   1      44.595  28.112  36.747  1.00  0.00     0.002 A 
ATOM     71  C   UNL A   1      44.102  26.243  35.305  1.00  0.00     0.091 A 
ATOM     72  F   UNL A   1      43.338  26.650  33.114  1.00  0.00    -0.205 F 
ATOM     73  C   UNL A   1      44.622  26.742  36.501  1.00  0.00     0.022 A 
BRANCH  71  74
ATOM     74  S   UNL A   1      44.053  24.468  35.059  1.00  0.00     0.127 S 
ATOM     75  O   UNL A   1      44.952  24.302  33.923  1.00  0.00    -0.237 OA
ATOM     76  O   UNL A   1      44.560  23.968  36.336  1.00  0.00    -0.237 OA
ATOM     77  O   UNL A   1      42.644  24.166  34.821  1.00  0.00    -0.744 OA
ENDBRANCH  71  74
ENDBRANCH  53  67
BRANCH  54  78
ATOM     78  C   UNL A   1      42.934  24.726  27.243  1.00  0.00     0.023 A 
ATOM     79  C   UNL A   1      41.701  24.030  27.243  1.00  0.00     0.012 A 
ATOM     80  C   UNL A   1      43.992  24.172  26.489  1.00  0.00     0.148 A 
ATOM     81  C   UNL A   1      41.505  22.877  26.472  1.00  0.00     0.002 A 
ATOM     82  C   UNL A   1      43.793  23.021  25.721  1.00  0.00     0.091 A 
ATOM     83  F   UNL A   1      45.171  24.809  26.463  1.00  0.00    -0.205 F 
ATOM     84  C   UNL A   1      42.547  22.379  25.699  1.00  0.00     0.022 A 
BRANCH  82  85
ATOM     85  S   UNL A   1      45.099  22.322  24.696  1.00  0.00     0.127 S 
ATOM     86  O   UNL A   1      46.123  21.972  25.682  1.00  0.00    -0.237 OA
ATOM     87  O   UNL A   1      44.429  21.178  24.084  1.00  0.00    -0.237 OA
ATOM     88  O   UNL A   1      45.491  23.391  23.786  1.00  0.00    -0.744 OA
ENDBRANCH  82  85
ENDBRANCH  54  78
BRANCH  66  89
ATOM     89  C   UNL A   1      45.241  30.487  28.428  1.00  0.00     0.023 A 
ATOM     90  C   UNL A   1      44.106  30.854  27.677  1.00  0.00     0.012 A 
ATOM     91  C   UNL A   1      46.473  31.103  28.142  1.00  0.00     0.148 A 
ATOM     92  C   UNL A   1      44.194  31.819  26.669  1.00  0.00     0.002 A 
ATOM     93  C   UNL A   1      46.549  32.091  27.167  1.00  0.00     0.091 A 
ATOM     94  F   UNL A   1      47.542  30.741  28.866  1.00  0.00    -0.205 F 
ATOM     95  C   UNL A   1      45.411  32.451  26.426  1.00  0.00     0.022 A 
BRANCH  93  96
ATOM     96  S   UNL A   1      48.052  33.029  26.877  1.00  0.00     0.127 S 
ATOM     97  O   UNL A   1      48.988  31.989  26.456  1.00  0.00    -0.237 OA
ATOM     98  O   UNL A   1      47.643  33.950  25.816  1.00  0.00    -0.237 OA
ATOM     99  O   UNL A   1      48.377  33.679  28.142  1.00  0.00    -0.744 OA
ENDBRANCH  93  96
ENDBRANCH  66  89
ENDBRANCH  40  41
ENDBRANCH  33  35
ENDBRANCH  32  33
ENDBRANCH  31  32
ENDBRANCH  30  31
ENDBRANCH  29  30
ENDBRANCH  28  29
ENDBRANCH   1  28
TORSDOF 23
ENDMDL
MODEL 2
REMARK VINA RESULT:     -10.4      3.243      5.505
REMARK SMILES Cc1c(CC(=O)OCCOCCOCCOC(=O)c2ccc(-c3c4nc(c(-c5cccc(S(=O)(=O)[O-])c5F)c5ccc([nH]5)c(-c5cccc(S(=O)(=O)[O-])c5F)c5nc(c(-c6cccc(S(=O)(=O)[O-])c6F)c6ccc3[nH]6)C=C5)C=C4)cc2)c2ccccc2n1C(=O)c1ccc(Cl)cc1
REMARK SMILES IDX 11 1 10 2 9 3 8 4 7 5 5 6 6 7 4 8 3 9 1 10 2 11 88 12 82 13
REMARK SMILES IDX 87 14 83 15 86 16 84 17 85 18 89 19 90 20 91 21 92 22 97 23
REMARK SMILES IDX 93 24 96 25 94 26 95 27 12 28 13 29 14 30 15 31 16 32 17 33
REMARK SMILES IDX 18 34 19 35 20 36 81 37 21 38 80 39 22 40 23 41 24 42 74 43
REMARK SMILES IDX 25 44 79 45 73 46 75 47 26 48 78 49 72 50 71 51 27 53 59 54
REMARK SMILES IDX 39 55 58 56 40 57 43 58 57 59 76 60 41 61 42 62 56 64 77 65
REMARK SMILES IDX 44 66 28 67 29 68 37 69 30 70 32 71 38 72 31 73 33 74 34 75
REMARK SMILES IDX 35 76 36 77 60 78 61 79 69 80 62 81 64 82 70 83 63 84 65 85
REMARK SMILES IDX 66 86 67 87 68 88 45 89 46 90 54 91 47 92 49 93 55 94 48 95
REMARK SMILES IDX 50 96 51 97 52 98 53 99
REMARK H PARENT 75 52 43 63
REMARK Flexibility Score: inf
ROOT
ATOM      1  C   UNL A   1      32.651  28.390  25.416  1.00  0.00     0.188 C 
ENDROOT
BRANCH   1   2
ATOM      2  O   UNL A   1      32.472  28.724  24.054  1.00  0.00    -0.376 OA
BRANCH   2   3
ATOM      3  C   UNL A   1      32.557  27.666  23.111  1.00  0.00     0.202 C 
BRANCH   3   4
ATOM      4  C   UNL A   1      31.276  26.849  22.886  1.00  0.00     0.261 C 
BRANCH   4   5
ATOM      5  O   UNL A   1      31.472  25.460  23.245  1.00  0.00    -0.463 OA
BRANCH   5   6
ATOM      6  C   UNL A   1      31.054  25.108  24.493  1.00  0.00     0.310 C 
ATOM      7  O   UNL A   1      30.273  25.802  25.139  1.00  0.00    -0.252 OA
BRANCH   6   8
ATOM      8  C   UNL A   1      31.392  23.675  24.878  1.00  0.00     0.160 C 
BRANCH   8   9
ATOM      9  C   UNL A   1      32.726  23.049  24.619  1.00  0.00    -0.008 A 
ATOM     10  C   UNL A   1      34.191  25.012  25.447  1.00  0.00     0.065 C 
ATOM     11  C   UNL A   1      33.947  23.651  24.878  1.00  0.00     0.028 A 
ATOM     12  N   UNL A   1      34.957  22.729  24.621  1.00  0.00    -0.280 N 
ATOM     13  C   UNL A   1      33.004  21.648  24.474  1.00  0.00     0.004 A 
ATOM     14  C   UNL A   1      34.372  21.457  24.635  1.00  0.00     0.056 A 
ATOM     15  C   UNL A   1      32.214  20.489  24.350  1.00  0.00     0.010 A 
ATOM     16  C   UNL A   1      34.906  20.150  24.758  1.00  0.00     0.027 A 
ATOM     17  C   UNL A   1      32.749  19.199  24.361  1.00  0.00     0.001 A 
ATOM     18  C   UNL A   1      34.094  19.031  24.592  1.00  0.00     0.002 A 
BRANCH  12  19
ATOM     19  C   UNL A   1      36.314  23.009  24.321  1.00  0.00     0.262 C 
ATOM     20  O   UNL A   1      36.668  23.168  23.158  1.00  0.00    -0.268 OA
BRANCH  19  21
ATOM     21  C   UNL A   1      37.361  22.950  25.353  1.00  0.00     0.040 A 
ATOM     22  C   UNL A   1      37.692  24.131  26.029  1.00  0.00     0.015 A 
ATOM     23  C   UNL A   1      38.144  21.798  25.469  1.00  0.00     0.015 A 
ATOM     24  C   UNL A   1      38.859  24.177  26.789  1.00  0.00     0.021 A 
ATOM     25  C   UNL A   1      39.314  21.854  26.231  1.00  0.00     0.021 A 
ATOM     26  C   UNL A   1      39.671  23.045  26.874  1.00  0.00     0.041 A 
ATOM     27  Cl  UNL A   1      41.159  23.136  27.735  1.00  0.00    -0.084 Cl
ENDBRANCH  19  21
ENDBRANCH  12  19
ENDBRANCH   8   9
ENDBRANCH   6   8
ENDBRANCH   5   6
ENDBRANCH   4   5
ENDBRANCH   3   4
ENDBRANCH   2   3
ENDBRANCH   1   2
BRANCH   1  28
ATOM     28  C   UNL A   1      32.079  29.326  26.492  1.00  0.00     0.188 C 
BRANCH  28  29
ATOM     29  O   UNL A   1      32.597  30.626  26.654  1.00  0.00    -0.376 OA
BRANCH  29  30
ATOM     30  C   UNL A   1      33.947  30.724  27.076  1.00  0.00     0.202 C 
BRANCH  30  31
ATOM     31  C   UNL A   1      34.228  31.448  28.410  1.00  0.00     0.261 C 
BRANCH  31  32
ATOM     32  O   UNL A   1      34.232  32.893  28.273  1.00  0.00    -0.460 OA
BRANCH  32  33
ATOM     33  C   UNL A   1      34.531  33.584  29.415  1.00  0.00     0.338 C 
ATOM     34  O   UNL A   1      33.713  34.021  30.204  1.00  0.00    -0.246 OA
BRANCH  33  35
ATOM     35  C   UNL A   1      35.971  33.360  29.766  1.00  0.00     0.060 A 
ATOM     36  C   UNL A   1      37.048  33.479  28.884  1.00  0.00     0.016 A 
ATOM     37  C   UNL A   1      36.200  32.810  31.026  1.00  0.00     0.016 A 
ATOM     38  C   UNL A   1      38.302  32.922  29.225  1.00  0.00     0.010 A 
ATOM     39  C   UNL A   1      37.412  32.188  31.331  1.00  0.00     0.010 A 
ATOM     40  C   UNL A   1      38.471  32.204  30.421  1.00  0.00    -0.014 A 
BRANCH  40  41
ATOM     41  C   UNL A   1      39.788  31.789  30.936  1.00  0.00     0.031 A 
ATOM     42  C   UNL A   1      40.578  32.934  31.401  1.00  0.00     0.074 A 
ATOM     43  C   UNL A   1      40.362  30.577  31.108  1.00  0.00     0.049 A 
ATOM     44  N   UNL A   1      41.413  33.560  30.642  1.00  0.00    -0.248 NA
ATOM     45  C   UNL A   1      40.371  33.525  32.722  1.00  0.00     0.031 C 
ATOM     46  C   UNL A   1      39.873  29.279  30.693  1.00  0.00     0.029 A 
ATOM     47  N   UNL A   1      41.526  30.247  31.763  1.00  0.00    -0.354 N 
ATOM     48  C   UNL A   1      42.054  34.440  31.483  1.00  0.00     0.074 A 
ATOM     49  C   UNL A   1      41.230  34.548  32.666  1.00  0.00     0.031 C 
ATOM     50  C   UNL A   1      40.560  28.288  31.315  1.00  0.00     0.029 A 
ATOM     51  C   UNL A   1      41.665  28.888  32.040  1.00  0.00     0.049 A 
ATOM     52  H   UNL A   1      42.203  30.915  32.015  1.00  0.00     0.167 HD
ATOM     53  C   UNL A   1      43.351  34.781  31.265  1.00  0.00     0.034 A 
ATOM     54  C   UNL A   1      42.744  28.215  32.516  1.00  0.00     0.034 A 
ATOM     55  C   UNL A   1      43.868  34.278  30.017  1.00  0.00     0.049 A 
ATOM     56  C   UNL A   1      43.921  28.949  32.007  1.00  0.00     0.074 A 
ATOM     57  C   UNL A   1      43.464  34.333  28.695  1.00  0.00     0.029 A 
ATOM     58  N   UNL A   1      44.766  33.238  30.087  1.00  0.00    -0.354 N 
ATOM     59  N   UNL A   1      44.263  28.965  30.748  1.00  0.00    -0.248 NA
ATOM     60  C   UNL A   1      44.510  29.988  32.834  1.00  0.00     0.031 C 
ATOM     61  C   UNL A   1      43.779  33.052  28.151  1.00  0.00     0.029 A 
ATOM     62  C   UNL A   1      44.399  32.304  29.152  1.00  0.00     0.049 A 
ATOM     63  H   UNL A   1      45.535  33.175  30.700  1.00  0.00     0.167 HD
ATOM     64  C   UNL A   1      44.699  30.264  30.537  1.00  0.00     0.074 A 
ATOM     65  C   UNL A   1      44.946  30.803  31.870  1.00  0.00     0.031 C 
ATOM     66  C   UNL A   1      44.546  30.873  29.325  1.00  0.00     0.034 A 
BRANCH  53  67
ATOM     67  C   UNL A   1      44.240  35.282  32.351  1.00  0.00     0.023 A 
ATOM     68  C   UNL A   1      44.935  36.485  32.142  1.00  0.00     0.012 A 
ATOM     69  C   UNL A   1      44.552  34.527  33.502  1.00  0.00     0.148 A 
ATOM     70  C   UNL A   1      45.876  36.940  33.067  1.00  0.00     0.002 A 
ATOM     71  C   UNL A   1      45.410  35.031  34.466  1.00  0.00     0.091 A 
ATOM     72  F   UNL A   1      44.106  33.267  33.607  1.00  0.00    -0.205 F 
ATOM     73  C   UNL A   1      46.091  36.229  34.246  1.00  0.00     0.022 A 
BRANCH  71  74
ATOM     74  S   UNL A   1      45.625  34.191  36.035  1.00  0.00     0.127 S 
ATOM     75  O   UNL A   1      44.248  34.081  36.502  1.00  0.00    -0.237 OA
ATOM     76  O   UNL A   1      46.249  32.933  35.626  1.00  0.00    -0.237 OA
ATOM     77  O   UNL A   1      46.503  35.066  36.806  1.00  0.00    -0.744 OA
ENDBRANCH  71  74
ENDBRANCH  53  67
BRANCH  54  78
ATOM     78  C   UNL A   1      42.822  27.203  33.608  1.00  0.00     0.023 A 
ATOM     79  C   UNL A   1      41.806  27.174  34.594  1.00  0.00     0.012 A 
ATOM     80  C   UNL A   1      43.731  26.122  33.580  1.00  0.00     0.148 A 
ATOM     81  C   UNL A   1      41.655  26.087  35.465  1.00  0.00     0.002 A 
ATOM     82  C   UNL A   1      43.577  25.039  34.452  1.00  0.00     0.091 A 
ATOM     83  F   UNL A   1      44.702  26.115  32.656  1.00  0.00    -0.205 F 
ATOM     84  C   UNL A   1      42.532  25.012  35.385  1.00  0.00     0.022 A 
BRANCH  82  85
ATOM     85  S   UNL A   1      44.677  23.614  34.403  1.00  0.00     0.127 S 
ATOM     86  O   UNL A   1      45.982  24.210  34.693  1.00  0.00    -0.237 OA
ATOM     87  O   UNL A   1      44.140  22.776  35.473  1.00  0.00    -0.237 OA
ATOM     88  O   UNL A   1      44.556  23.077  33.053  1.00  0.00    -0.744 OA
ENDBRANCH  82  85
ENDBRANCH  54  78
BRANCH  66  89
ATOM     89  C   UNL A   1      44.208  30.021  28.126  1.00  0.00     0.023 A 
ATOM     90  C   UNL A   1      45.202  29.468  27.294  1.00  0.00     0.012 A 
ATOM     91  C   UNL A   1      42.875  29.601  27.961  1.00  0.00     0.148 A 
ATOM     92  C   UNL A   1      44.878  28.513  26.325  1.00  0.00     0.002 A 
ATOM     93  C   UNL A   1      42.562  28.622  27.026  1.00  0.00     0.091 A 
ATOM     94  F   UNL A   1      41.942  30.139  28.761  1.00  0.00    -0.205 F 
ATOM     95  C   UNL A   1      43.561  28.077  26.202  1.00  0.00     0.022 A 
BRANCH  93  96
ATOM     96  S   UNL A   1      40.912  27.927  26.890  1.00  0.00     0.127 S 
ATOM     97  O   UNL A   1      41.044  27.044  25.733  1.00  0.00    -0.237 OA
ATOM     98  O   UNL A   1      40.760  27.238  28.171  1.00  0.00    -0.237 OA
ATOM     99  O   UNL A   1      40.008  29.056  26.706  1.00  0.00    -0.744 OA
ENDBRANCH  93  96
ENDBRANCH  66  89
ENDBRANCH  40  41
ENDBRANCH  33  35
ENDBRANCH  32  33
ENDBRANCH  31  32
ENDBRANCH  30  31
ENDBRANCH  29  30
ENDBRANCH  28  29
ENDBRANCH   1  28
TORSDOF 23
ENDMDL
MODEL 3
REMARK VINA RESULT:     -10.3      3.083      9.539
REMARK SMILES Cc1c(CC(=O)OCCOCCOCCOC(=O)c2ccc(-c3c4nc(c(-c5cccc(S(=O)(=O)[O-])c5F)c5ccc([nH]5)c(-c5cccc(S(=O)(=O)[O-])c5F)c5nc(c(-c6cccc(S(=O)(=O)[O-])c6F)c6ccc3[nH]6)C=C5)C=C4)cc2)c2ccccc2n1C(=O)c1ccc(Cl)cc1
REMARK SMILES IDX 11 1 10 2 9 3 8 4 7 5 5 6 6 7 4 8 3 9 1 10 2 11 88 12 82 13
REMARK SMILES IDX 87 14 83 15 86 16 84 17 85 18 89 19 90 20 91 21 92 22 97 23
REMARK SMILES IDX 93 24 96 25 94 26 95 27 12 28 13 29 14 30 15 31 16 32 17 33
REMARK SMILES IDX 18 34 19 35 20 36 81 37 21 38 80 39 22 40 23 41 24 42 74 43
REMARK SMILES IDX 25 44 79 45 73 46 75 47 26 48 78 49 72 50 71 51 27 53 59 54
REMARK SMILES IDX 39 55 58 56 40 57 43 58 57 59 76 60 41 61 42 62 56 64 77 65
REMARK SMILES IDX 44 66 28 67 29 68 37 69 30 70 32 71 38 72 31 73 33 74 34 75
REMARK SMILES IDX 35 76 36 77 60 78 61 79 69 80 62 81 64 82 70 83 63 84 65 85
REMARK SMILES IDX 66 86 67 87 68 88 45 89 46 90 54 91 47 92 49 93 55 94 48 95
REMARK SMILES IDX 50 96 51 97 52 98 53 99
REMARK H PARENT 75 52 43 63
REMARK Flexibility Score: inf
ROOT
ATOM      1  C   UNL A   1      39.451  23.011  26.688  1.00  0.00     0.188 C 
ENDROOT
BRANCH   1   2
ATOM      2  O   UNL A   1      38.240  23.480  26.130  1.00  0.00    -0.376 OA
BRANCH   2   3
ATOM      3  C   UNL A   1      37.294  22.505  25.720  1.00  0.00     0.202 C 
BRANCH   3   4
ATOM      4  C   UNL A   1      37.031  22.403  24.211  1.00  0.00     0.261 C 
BRANCH   4   5
ATOM      5  O   UNL A   1      35.624  22.196  23.938  1.00  0.00    -0.463 OA
BRANCH   5   6
ATOM      6  C   UNL A   1      34.994  23.211  23.282  1.00  0.00     0.310 C 
ATOM      7  O   UNL A   1      34.383  23.030  22.233  1.00  0.00    -0.252 OA
BRANCH   6   8
ATOM      8  C   UNL A   1      34.865  24.489  24.100  1.00  0.00     0.160 C 
BRANCH   8   9
ATOM      9  C   UNL A   1      33.550  25.063  24.522  1.00  0.00    -0.008 A 
ATOM     10  C   UNL A   1      33.186  26.616  22.487  1.00  0.00     0.065 C 
ATOM     11  C   UNL A   1      32.824  25.996  23.798  1.00  0.00     0.028 A 
ATOM     12  N   UNL A   1      31.608  26.204  24.442  1.00  0.00    -0.280 N 
ATOM     13  C   UNL A   1      32.627  24.495  25.464  1.00  0.00     0.004 A 
ATOM     14  C   UNL A   1      31.392  25.109  25.287  1.00  0.00     0.056 A 
ATOM     15  C   UNL A   1      32.674  23.420  26.372  1.00  0.00     0.010 A 
ATOM     16  C   UNL A   1      30.237  24.600  25.931  1.00  0.00     0.027 A 
ATOM     17  C   UNL A   1      31.561  22.983  27.093  1.00  0.00     0.001 A 
ATOM     18  C   UNL A   1      30.336  23.558  26.850  1.00  0.00     0.002 A 
BRANCH  12  19
ATOM     19  C   UNL A   1      30.768  27.341  24.335  1.00  0.00     0.262 C 
ATOM     20  O   UNL A   1      29.743  27.290  23.665  1.00  0.00    -0.268 OA
BRANCH  19  21
ATOM     21  C   UNL A   1      31.170  28.652  24.871  1.00  0.00     0.040 A 
ATOM     22  C   UNL A   1      31.865  28.685  26.087  1.00  0.00     0.015 A 
ATOM     23  C   UNL A   1      30.659  29.815  24.290  1.00  0.00     0.015 A 
ATOM     24  C   UNL A   1      32.001  29.897  26.761  1.00  0.00     0.021 A 
ATOM     25  C   UNL A   1      30.797  31.026  24.974  1.00  0.00     0.021 A 
ATOM     26  C   UNL A   1      31.454  31.058  26.209  1.00  0.00     0.041 A 
ATOM     27  Cl  UNL A   1      31.542  32.533  27.092  1.00  0.00    -0.084 Cl
ENDBRANCH  19  21
ENDBRANCH  12  19
ENDBRANCH   8   9
ENDBRANCH   6   8
ENDBRANCH   5   6
ENDBRANCH   4   5
ENDBRANCH   3   4
ENDBRANCH   2   3
ENDBRANCH   1   2
BRANCH   1  28
ATOM     28  C   UNL A   1      39.842  21.539  26.488  1.00  0.00     0.188 C 
BRANCH  28  29
ATOM     29  O   UNL A   1      40.420  20.805  27.543  1.00  0.00    -0.376 OA
BRANCH  29  30
ATOM     30  C   UNL A   1      41.792  21.046  27.808  1.00  0.00     0.202 C 
BRANCH  30  31
ATOM     31  C   UNL A   1      42.181  22.439  28.348  1.00  0.00     0.261 C 
BRANCH  31  32
ATOM     32  O   UNL A   1      43.442  22.916  27.809  1.00  0.00    -0.460 OA
BRANCH  32  33
ATOM     33  C   UNL A   1      43.333  23.757  26.735  1.00  0.00     0.338 C 
ATOM     34  O   UNL A   1      42.943  23.433  25.629  1.00  0.00    -0.246 OA
BRANCH  33  35
ATOM     35  C   UNL A   1      43.354  25.176  27.215  1.00  0.00     0.060 A 
ATOM     36  C   UNL A   1      44.158  25.673  28.244  1.00  0.00     0.016 A 
ATOM     37  C   UNL A   1      42.350  25.995  26.701  1.00  0.00     0.016 A 
ATOM     38  C   UNL A   1      43.856  26.922  28.833  1.00  0.00     0.010 A 
ATOM     39  C   UNL A   1      41.999  27.189  27.334  1.00  0.00     0.010 A 
ATOM     40  C   UNL A   1      42.726  27.654  28.432  1.00  0.00    -0.014 A 
BRANCH  40  41
ATOM     41  C   UNL A   1      42.477  29.047  28.845  1.00  0.00     0.031 A 
ATOM     42  C   UNL A   1      43.460  29.972  28.271  1.00  0.00     0.074 A 
ATOM     43  C   UNL A   1      41.501  29.620  29.586  1.00  0.00     0.049 A 
ATOM     44  N   UNL A   1      44.544  30.306  28.885  1.00  0.00    -0.248 NA
ATOM     45  C   UNL A   1      43.337  30.471  26.903  1.00  0.00     0.031 C 
ATOM     46  C   UNL A   1      40.440  28.979  30.334  1.00  0.00     0.029 A 
ATOM     47  N   UNL A   1      41.224  30.953  29.784  1.00  0.00    -0.354 N 
ATOM     48  C   UNL A   1      45.096  31.293  28.102  1.00  0.00     0.074 A 
ATOM     49  C   UNL A   1      44.461  31.189  26.807  1.00  0.00     0.031 C 
ATOM     50  C   UNL A   1      39.488  29.880  30.680  1.00  0.00     0.029 A 
ATOM     51  C   UNL A   1      39.967  31.204  30.329  1.00  0.00     0.049 A 
ATOM     52  H   UNL A   1      41.862  31.669  29.560  1.00  0.00     0.167 HD
ATOM     53  C   UNL A   1      45.815  32.299  28.663  1.00  0.00     0.034 A 
ATOM     54  C   UNL A   1      39.451  32.371  30.796  1.00  0.00     0.034 A 
ATOM     55  C   UNL A   1      46.059  32.103  30.071  1.00  0.00     0.049 A 
ATOM     56  C   UNL A   1      40.606  33.128  31.322  1.00  0.00     0.074 A 
ATOM     57  C   UNL A   1      46.584  31.081  30.842  1.00  0.00     0.029 A 
ATOM     58  N   UNL A   1      45.360  32.904  30.944  1.00  0.00    -0.354 N 
ATOM     59  N   UNL A   1      41.258  32.780  32.397  1.00  0.00    -0.248 NA
ATOM     60  C   UNL A   1      41.288  34.064  30.445  1.00  0.00     0.031 C 
ATOM     61  C   UNL A   1      45.799  31.066  32.033  1.00  0.00     0.029 A 
ATOM     62  C   UNL A   1      44.872  32.105  31.946  1.00  0.00     0.049 A 
ATOM     63  H   UNL A   1      45.232  33.878  30.863  1.00  0.00     0.167 HD
ATOM     64  C   UNL A   1      42.582  33.056  32.088  1.00  0.00     0.074 A 
ATOM     65  C   UNL A   1      42.524  33.953  30.939  1.00  0.00     0.031 C 
ATOM     66  C   UNL A   1      43.599  32.310  32.608  1.00  0.00     0.034 A 
BRANCH  53  67
ATOM     67  C   UNL A   1      45.995  33.621  28.001  1.00  0.00     0.023 A 
ATOM     68  C   UNL A   1      44.889  34.484  27.923  1.00  0.00     0.012 A 
ATOM     69  C   UNL A   1      47.166  33.979  27.299  1.00  0.00     0.148 A 
ATOM     70  C   UNL A   1      44.962  35.680  27.207  1.00  0.00     0.002 A 
ATOM     71  C   UNL A   1      47.268  35.212  26.676  1.00  0.00     0.091 A 
ATOM     72  F   UNL A   1      48.143  33.074  27.137  1.00  0.00    -0.205 F 
ATOM     73  C   UNL A   1      46.161  36.061  26.610  1.00  0.00     0.022 A 
BRANCH  71  74
ATOM     74  S   UNL A   1      48.827  35.771  25.992  1.00  0.00     0.127 S 
ATOM     75  O   UNL A   1      49.192  34.650  25.133  1.00  0.00    -0.237 OA
ATOM     76  O   UNL A   1      48.433  36.993  25.292  1.00  0.00    -0.237 OA
ATOM     77  O   UNL A   1      49.680  36.002  27.155  1.00  0.00    -0.744 OA
ENDBRANCH  71  74
ENDBRANCH  53  67
BRANCH  54  78
ATOM     78  C   UNL A   1      38.119  32.988  30.536  1.00  0.00     0.023 A 
ATOM     79  C   UNL A   1      37.538  32.854  29.252  1.00  0.00     0.012 A 
ATOM     80  C   UNL A   1      37.303  33.501  31.568  1.00  0.00     0.148 A 
ATOM     81  C   UNL A   1      36.187  33.147  29.021  1.00  0.00     0.002 A 
ATOM     82  C   UNL A   1      35.956  33.792  31.334  1.00  0.00     0.091 A 
ATOM     83  F   UNL A   1      37.822  33.636  32.797  1.00  0.00    -0.205 F 
ATOM     84  C   UNL A   1      35.392  33.603  30.065  1.00  0.00     0.022 A 
BRANCH  82  85
ATOM     85  S   UNL A   1      34.869  34.386  32.640  1.00  0.00     0.127 S 
ATOM     86  O   UNL A   1      34.897  33.285  33.603  1.00  0.00    -0.237 OA
ATOM     87  O   UNL A   1      35.555  35.598  33.083  1.00  0.00    -0.237 OA
ATOM     88  O   UNL A   1      33.572  34.587  32.004  1.00  0.00    -0.744 OA
ENDBRANCH  82  85
ENDBRANCH  54  78
BRANCH  66  89
ATOM     89  C   UNL A   1      43.305  31.401  33.777  1.00  0.00     0.023 A 
ATOM     90  C   UNL A   1      43.282  31.871  35.106  1.00  0.00     0.012 A 
ATOM     91  C   UNL A   1      42.839  30.101  33.509  1.00  0.00     0.148 A 
ATOM     92  C   UNL A   1      42.799  31.068  36.143  1.00  0.00     0.002 A 
ATOM     93  C   UNL A   1      42.322  29.319  34.536  1.00  0.00     0.091 A 
ATOM     94  F   UNL A   1      42.870  29.669  32.240  1.00  0.00    -0.205 F 
ATOM     95  C   UNL A   1      42.303  29.798  35.856  1.00  0.00     0.022 A 
BRANCH  93  96
ATOM     96  S   UNL A   1      41.559  27.723  34.226  1.00  0.00     0.127 S 
ATOM     97  O   UNL A   1      42.580  27.043  33.431  1.00  0.00    -0.237 OA
ATOM     98  O   UNL A   1      41.386  27.195  35.580  1.00  0.00    -0.237 OA
ATOM     99  O   UNL A   1      40.310  27.998  33.526  1.00  0.00    -0.744 OA
ENDBRANCH  93  96
ENDBRANCH  66  89
ENDBRANCH  40  41
ENDBRANCH  33  35
ENDBRANCH  32  33
ENDBRANCH  31  32
ENDBRANCH  30  31
ENDBRANCH  29  30
ENDBRANCH  28  29
ENDBRANCH   1  28
TORSDOF 23
ENDMDL
