MODEL 1
REMARK VINA RESULT:     -10.9      0.000      0.000
REMARK SMILES O=C(OCCOCCOCCOC(=O)c1ccccc1/C=C1/SC(=S)N(C2CCCC2)C1=O)c1ccc(-c2c3nc(c(-c4cccc(S(=O)(=O)[O-])c4F)c4ccc([nH]4)c(-c4cccc(S(=O)(=O)[O-])c4F)c4nc(c(-c5cccc(S(=O)(=O)[O-])c5F)c5ccc2[nH]5)C=C4)C=C3)cc1
REMARK SMILES IDX 7 1 6 2 5 3 4 4 3 5 2 6 1 7 34 8 35 9 96 10 36 11 95 12
REMARK SMILES IDX 37 13 38 14 39 15 89 16 40 17 94 18 88 19 90 20 41 21 93 22
REMARK SMILES IDX 87 23 86 24 42 26 74 27 54 28 73 29 55 30 58 31 72 32 91 33
REMARK SMILES IDX 56 34 57 35 71 37 92 38 59 39 43 40 44 41 52 42 45 43 47 44
REMARK SMILES IDX 53 45 46 46 48 47 49 48 50 49 51 50 75 51 76 52 84 53 77 54
REMARK SMILES IDX 79 55 85 56 78 57 80 58 81 59 82 60 83 61 60 62 61 63 69 64
REMARK SMILES IDX 62 65 64 66 70 67 63 68 65 69 66 70 67 71 68 72 8 73 9 74
REMARK SMILES IDX 10 75 11 76 12 77 13 78 14 79 15 80 16 81 20 82 17 83 19 84
REMARK SMILES IDX 18 85 21 86 22 87 23 88 32 89 24 90 26 91 33 92 25 93 27 94
REMARK SMILES IDX 28 95 31 96 29 97 30 98
REMARK H PARENT 90 25 58 36
REMARK Flexibility Score: inf
ROOT
ATOM      1  C   UNL A   1      29.721  31.052  23.816  1.00  0.00     0.188 C 
ENDROOT
BRANCH   1   2
ATOM      2  O   UNL A   1      30.575  30.816  24.937  1.00  0.00    -0.376 OA
BRANCH   2   3
ATOM      3  C   UNL A   1      30.701  31.954  25.792  1.00  0.00     0.202 C 
BRANCH   3   4
ATOM      4  C   UNL A   1      31.907  31.853  26.741  1.00  0.00     0.261 C 
BRANCH   4   5
ATOM      5  O   UNL A   1      32.217  33.096  27.397  1.00  0.00    -0.460 OA
BRANCH   5   6
ATOM      6  C   UNL A   1      33.426  33.617  27.727  1.00  0.00     0.338 C 
ATOM      7  O   UNL A   1      33.581  34.830  27.571  1.00  0.00    -0.246 OA
BRANCH   6   8
ATOM      8  C   UNL A   1      34.583  32.835  28.284  1.00  0.00     0.060 A 
ATOM      9  C   UNL A   1      34.533  31.527  28.773  1.00  0.00     0.016 A 
ATOM     10  C   UNL A   1      35.842  33.469  28.274  1.00  0.00     0.016 A 
ATOM     11  C   UNL A   1      35.662  30.885  29.272  1.00  0.00     0.010 A 
ATOM     12  C   UNL A   1      36.988  32.827  28.760  1.00  0.00     0.010 A 
ATOM     13  C   UNL A   1      36.890  31.536  29.286  1.00  0.00    -0.014 A 
BRANCH  13  14
ATOM     14  C   UNL A   1      38.013  30.879  29.978  1.00  0.00     0.031 A 
ATOM     15  C   UNL A   1      38.269  31.227  31.412  1.00  0.00     0.074 A 
ATOM     16  C   UNL A   1      38.706  29.899  29.373  1.00  0.00     0.049 A 
ATOM     17  N   UNL A   1      39.165  30.740  32.226  1.00  0.00    -0.248 NA
ATOM     18  C   UNL A   1      37.375  32.227  32.022  1.00  0.00     0.031 C 
ATOM     19  C   UNL A   1      38.457  29.410  28.018  1.00  0.00     0.029 A 
ATOM     20  N   UNL A   1      39.756  29.139  29.818  1.00  0.00    -0.354 N 
ATOM     21  C   UNL A   1      38.955  31.383  33.437  1.00  0.00     0.074 A 
ATOM     22  C   UNL A   1      37.848  32.294  33.257  1.00  0.00     0.031 C 
ATOM     23  C   UNL A   1      39.353  28.451  27.735  1.00  0.00     0.029 A 
ATOM     24  C   UNL A   1      40.266  28.300  28.857  1.00  0.00     0.049 A 
ATOM     25  H   UNL A   1      40.110  29.189  30.735  1.00  0.00     0.167 HD
ATOM     26  C   UNL A   1      39.626  31.217  34.597  1.00  0.00     0.034 A 
ATOM     27  C   UNL A   1      41.368  27.529  28.863  1.00  0.00     0.034 A 
ATOM     28  C   UNL A   1      40.726  30.309  34.761  1.00  0.00     0.049 A 
ATOM     29  C   UNL A   1      42.171  27.456  30.128  1.00  0.00     0.074 A 
ATOM     30  C   UNL A   1      41.477  30.064  35.894  1.00  0.00     0.029 A 
ATOM     31  N   UNL A   1      41.244  29.513  33.751  1.00  0.00    -0.354 N 
ATOM     32  N   UNL A   1      41.920  28.012  31.288  1.00  0.00    -0.248 NA
ATOM     33  C   UNL A   1      43.384  26.630  30.103  1.00  0.00     0.031 C 
ATOM     34  C   UNL A   1      42.472  29.139  35.561  1.00  0.00     0.029 A 
ATOM     35  C   UNL A   1      42.325  28.793  34.226  1.00  0.00     0.049 A 
ATOM     36  H   UNL A   1      40.895  29.465  32.833  1.00  0.00     0.167 HD
ATOM     37  C   UNL A   1      42.924  27.580  32.141  1.00  0.00     0.074 A 
ATOM     38  C   UNL A   1      43.778  26.699  31.367  1.00  0.00     0.031 C 
ATOM     39  C   UNL A   1      43.130  27.891  33.443  1.00  0.00     0.034 A 
BRANCH  26  40
ATOM     40  C   UNL A   1      39.192  32.051  35.766  1.00  0.00     0.023 A 
ATOM     41  C   UNL A   1      38.254  31.539  36.684  1.00  0.00     0.012 A 
ATOM     42  C   UNL A   1      39.729  33.337  35.961  1.00  0.00     0.148 A 
ATOM     43  C   UNL A   1      37.840  32.308  37.772  1.00  0.00     0.002 A 
ATOM     44  C   UNL A   1      39.336  34.084  37.063  1.00  0.00     0.091 A 
ATOM     45  F   UNL A   1      40.598  33.808  35.055  1.00  0.00    -0.205 F 
ATOM     46  C   UNL A   1      38.386  33.574  37.965  1.00  0.00     0.022 A 
BRANCH  44  47
ATOM     47  S   UNL A   1      40.010  35.708  37.425  1.00  0.00     0.127 S 
ATOM     48  O   UNL A   1      39.658  36.449  36.214  1.00  0.00    -0.237 OA
ATOM     49  O   UNL A   1      39.254  36.091  38.618  1.00  0.00    -0.237 OA
ATOM     50  O   UNL A   1      41.437  35.515  37.638  1.00  0.00    -0.744 OA
ENDBRANCH  44  47
ENDBRANCH  26  40
BRANCH  27  51
ATOM     51  C   UNL A   1      41.786  26.795  27.634  1.00  0.00     0.023 A 
ATOM     52  C   UNL A   1      42.371  27.488  26.558  1.00  0.00     0.012 A 
ATOM     53  C   UNL A   1      41.598  25.401  27.529  1.00  0.00     0.148 A 
ATOM     54  C   UNL A   1      42.736  26.813  25.391  1.00  0.00     0.002 A 
ATOM     55  C   UNL A   1      42.005  24.728  26.384  1.00  0.00     0.091 A 
ATOM     56  F   UNL A   1      41.023  24.758  28.556  1.00  0.00    -0.205 F 
ATOM     57  C   UNL A   1      42.561  25.434  25.307  1.00  0.00     0.022 A 
BRANCH  55  58
ATOM     58  S   UNL A   1      41.925  22.939  26.252  1.00  0.00     0.127 S 
ATOM     59  O   UNL A   1      42.627  22.697  24.997  1.00  0.00    -0.237 OA
ATOM     60  O   UNL A   1      42.642  22.518  27.456  1.00  0.00    -0.237 OA
ATOM     61  O   UNL A   1      40.504  22.619  26.264  1.00  0.00    -0.744 OA
ENDBRANCH  55  58
ENDBRANCH  27  51
BRANCH  39  62
ATOM     62  C   UNL A   1      44.311  27.257  34.119  1.00  0.00     0.023 A 
ATOM     63  C   UNL A   1      45.528  27.960  34.198  1.00  0.00     0.012 A 
ATOM     64  C   UNL A   1      44.190  26.000  34.738  1.00  0.00     0.148 A 
ATOM     65  C   UNL A   1      46.618  27.408  34.865  1.00  0.00     0.002 A 
ATOM     66  C   UNL A   1      45.264  25.476  35.443  1.00  0.00     0.091 A 
ATOM     67  F   UNL A   1      43.027  25.340  34.626  1.00  0.00    -0.205 F 
ATOM     68  C   UNL A   1      46.483  26.174  35.499  1.00  0.00     0.022 A 
BRANCH  66  69
ATOM     69  S   UNL A   1      45.143  23.944  36.370  1.00  0.00     0.127 S 
ATOM     70  O   UNL A   1      46.494  23.404  36.229  1.00  0.00    -0.237 OA
ATOM     71  O   UNL A   1      44.810  24.418  37.713  1.00  0.00    -0.237 OA
ATOM     72  O   UNL A   1      44.088  23.172  35.726  1.00  0.00    -0.744 OA
ENDBRANCH  66  69
ENDBRANCH  39  62
ENDBRANCH  13  14
ENDBRANCH   6   8
ENDBRANCH   5   6
ENDBRANCH   4   5
ENDBRANCH   3   4
ENDBRANCH   2   3
ENDBRANCH   1   2
BRANCH   1  73
ATOM     73  C   UNL A   1      29.508  29.805  22.963  1.00  0.00     0.188 C 
BRANCH  73  74
ATOM     74  O   UNL A   1      28.225  29.225  23.177  1.00  0.00    -0.376 OA
BRANCH  74  75
ATOM     75  C   UNL A   1      28.245  27.796  23.154  1.00  0.00     0.202 C 
BRANCH  75  76
ATOM     76  C   UNL A   1      29.537  27.141  23.680  1.00  0.00     0.261 C 
BRANCH  76  77
ATOM     77  O   UNL A   1      30.584  26.771  22.755  1.00  0.00    -0.460 OA
BRANCH  77  78
ATOM     78  C   UNL A   1      31.725  26.266  23.256  1.00  0.00     0.338 C 
ATOM     79  O   UNL A   1      32.194  25.157  23.016  1.00  0.00    -0.246 OA
BRANCH  78  80
ATOM     80  C   UNL A   1      32.328  27.175  24.242  1.00  0.00     0.067 A 
ATOM     81  C   UNL A   1      32.925  28.353  23.776  1.00  0.00     0.016 A 
ATOM     82  C   UNL A   1      32.435  26.790  25.597  1.00  0.00    -0.010 A 
ATOM     83  C   UNL A   1      33.638  29.157  24.666  1.00  0.00     0.001 A 
ATOM     84  C   UNL A   1      33.198  27.582  26.457  1.00  0.00     0.009 A 
ATOM     85  C   UNL A   1      33.787  28.764  25.996  1.00  0.00     0.001 A 
BRANCH  82  86
ATOM     86  C   UNL A   1      31.727  25.621  26.145  1.00  0.00     0.030 C 
ATOM     87  C   UNL A   1      32.239  24.386  26.188  1.00  0.00     0.081 C 
ATOM     88  S   UNL A   1      31.307  22.957  26.379  1.00  0.00    -0.054 SA
ATOM     89  C   UNL A   1      33.623  24.015  25.816  1.00  0.00     0.266 C 
ATOM     90  C   UNL A   1      32.494  21.996  25.479  1.00  0.00     0.148 C 
ATOM     91  N   UNL A   1      33.628  22.747  25.247  1.00  0.00    -0.290 N 
ATOM     92  O   UNL A   1      34.599  24.725  26.010  1.00  0.00    -0.268 OA
ATOM     93  S   UNL A   1      32.146  20.426  25.030  1.00  0.00    -0.052 S 
BRANCH  91  94
ATOM     94  C   UNL A   1      34.850  22.374  24.534  1.00  0.00     0.092 C 
ATOM     95  C   UNL A   1      35.316  23.376  23.487  1.00  0.00     0.025 C 
ATOM     96  C   UNL A   1      36.095  22.059  25.372  1.00  0.00     0.025 C 
ATOM     97  C   UNL A   1      36.697  22.846  23.135  1.00  0.00     0.002 C 
ATOM     98  C   UNL A   1      37.285  22.381  24.464  1.00  0.00     0.002 C 
ENDBRANCH  91  94
ENDBRANCH  82  86
ENDBRANCH  78  80
ENDBRANCH  77  78
ENDBRANCH  76  77
ENDBRANCH  75  76
ENDBRANCH  74  75
ENDBRANCH  73  74
ENDBRANCH   1  73
TORSDOF 22
ENDMDL
MODEL 2
REMARK VINA RESULT:     -10.9      1.655      2.464
REMARK SMILES O=C(OCCOCCOCCOC(=O)c1ccccc1/C=C1/SC(=S)N(C2CCCC2)C1=O)c1ccc(-c2c3nc(c(-c4cccc(S(=O)(=O)[O-])c4F)c4ccc([nH]4)c(-c4cccc(S(=O)(=O)[O-])c4F)c4nc(c(-c5cccc(S(=O)(=O)[O-])c5F)c5ccc2[nH]5)C=C4)C=C3)cc1
REMARK SMILES IDX 7 1 6 2 5 3 4 4 3 5 2 6 1 7 34 8 35 9 96 10 36 11 95 12
REMARK SMILES IDX 37 13 38 14 39 15 89 16 40 17 94 18 88 19 90 20 41 21 93 22
REMARK SMILES IDX 87 23 86 24 42 26 74 27 54 28 73 29 55 30 58 31 72 32 91 33
REMARK SMILES IDX 56 34 57 35 71 37 92 38 59 39 43 40 44 41 52 42 45 43 47 44
REMARK SMILES IDX 53 45 46 46 48 47 49 48 50 49 51 50 75 51 76 52 84 53 77 54
REMARK SMILES IDX 79 55 85 56 78 57 80 58 81 59 82 60 83 61 60 62 61 63 69 64
REMARK SMILES IDX 62 65 64 66 70 67 63 68 65 69 66 70 67 71 68 72 8 73 9 74
REMARK SMILES IDX 10 75 11 76 12 77 13 78 14 79 15 80 16 81 20 82 17 83 19 84
REMARK SMILES IDX 18 85 21 86 22 87 23 88 32 89 24 90 26 91 33 92 25 93 27 94
REMARK SMILES IDX 28 95 31 96 29 97 30 98
REMARK H PARENT 90 25 58 36
REMARK Flexibility Score: inf
ROOT
ATOM      1  C   UNL A   1      30.856  29.119  24.213  1.00  0.00     0.188 C 
ENDROOT
BRANCH   1   2
ATOM      2  O   UNL A   1      31.036  28.393  25.429  1.00  0.00    -0.376 OA
BRANCH   2   3
ATOM      3  C   UNL A   1      31.794  29.112  26.403  1.00  0.00     0.202 C 
BRANCH   3   4
ATOM      4  C   UNL A   1      32.301  30.467  25.881  1.00  0.00     0.261 C 
BRANCH   4   5
ATOM      5  O   UNL A   1      32.227  31.516  26.862  1.00  0.00    -0.460 OA
BRANCH   5   6
ATOM      6  C   UNL A   1      33.230  32.224  27.442  1.00  0.00     0.338 C 
ATOM      7  O   UNL A   1      33.084  33.445  27.527  1.00  0.00    -0.246 OA
BRANCH   6   8
ATOM      8  C   UNL A   1      34.494  31.634  28.005  1.00  0.00     0.060 A 
ATOM      9  C   UNL A   1      34.691  30.297  28.357  1.00  0.00     0.016 A 
ATOM     10  C   UNL A   1      35.591  32.506  28.152  1.00  0.00     0.016 A 
ATOM     11  C   UNL A   1      35.901  29.844  28.874  1.00  0.00     0.010 A 
ATOM     12  C   UNL A   1      36.818  32.059  28.657  1.00  0.00     0.010 A 
ATOM     13  C   UNL A   1      36.964  30.724  29.044  1.00  0.00    -0.014 A 
BRANCH  13  14
ATOM     14  C   UNL A   1      38.160  30.234  29.751  1.00  0.00     0.031 A 
ATOM     15  C   UNL A   1      38.414  30.716  31.145  1.00  0.00     0.074 A 
ATOM     16  C   UNL A   1      38.932  29.279  29.201  1.00  0.00     0.049 A 
ATOM     17  N   UNL A   1      39.372  30.384  31.966  1.00  0.00    -0.248 NA
ATOM     18  C   UNL A   1      37.442  31.672  31.703  1.00  0.00     0.031 C 
ATOM     19  C   UNL A   1      38.700  28.661  27.897  1.00  0.00     0.029 A 
ATOM     20  N   UNL A   1      40.060  28.660  29.671  1.00  0.00    -0.354 N 
ATOM     21  C   UNL A   1      39.129  31.098  33.130  1.00  0.00     0.074 A 
ATOM     22  C   UNL A   1      37.934  31.882  32.914  1.00  0.00     0.031 C 
ATOM     23  C   UNL A   1      39.678  27.773  27.661  1.00  0.00     0.029 A 
ATOM     24  C   UNL A   1      40.627  27.798  28.763  1.00  0.00     0.049 A 
ATOM     25  H   UNL A   1      40.428  28.816  30.571  1.00  0.00     0.167 HD
ATOM     26  C   UNL A   1      39.839  31.089  34.279  1.00  0.00     0.034 A 
ATOM     27  C   UNL A   1      41.799  27.139  28.795  1.00  0.00     0.034 A 
ATOM     28  C   UNL A   1      41.025  30.305  34.479  1.00  0.00     0.049 A 
ATOM     29  C   UNL A   1      42.633  27.243  30.037  1.00  0.00     0.074 A 
ATOM     30  C   UNL A   1      41.822  30.223  35.604  1.00  0.00     0.029 A 
ATOM     31  N   UNL A   1      41.594  29.484  33.518  1.00  0.00    -0.354 N 
ATOM     32  N   UNL A   1      42.356  27.863  31.158  1.00  0.00    -0.248 NA
ATOM     33  C   UNL A   1      43.920  26.536  30.039  1.00  0.00     0.031 C 
ATOM     34  C   UNL A   1      42.894  29.374  35.313  1.00  0.00     0.029 A 
ATOM     35  C   UNL A   1      42.751  28.910  34.014  1.00  0.00     0.049 A 
ATOM     36  H   UNL A   1      41.230  29.331  32.617  1.00  0.00     0.167 HD
ATOM     37  C   UNL A   1      43.417  27.597  32.011  1.00  0.00     0.074 A 
ATOM     38  C   UNL A   1      44.334  26.742  31.281  1.00  0.00     0.031 C 
ATOM     39  C   UNL A   1      43.621  28.029  33.278  1.00  0.00     0.034 A 
BRANCH  26  40
ATOM     40  C   UNL A   1      39.353  31.969  35.393  1.00  0.00     0.023 A 
ATOM     41  C   UNL A   1      38.402  31.479  36.310  1.00  0.00     0.012 A 
ATOM     42  C   UNL A   1      39.852  33.276  35.537  1.00  0.00     0.148 A 
ATOM     43  C   UNL A   1      37.940  32.290  37.347  1.00  0.00     0.002 A 
ATOM     44  C   UNL A   1      39.412  34.066  36.590  1.00  0.00     0.091 A 
ATOM     45  F   UNL A   1      40.735  33.724  34.632  1.00  0.00    -0.205 F 
ATOM     46  C   UNL A   1      38.450  33.577  37.491  1.00  0.00     0.022 A 
BRANCH  44  47
ATOM     47  S   UNL A   1      40.036  35.722  36.888  1.00  0.00     0.127 S 
ATOM     48  O   UNL A   1      39.653  36.407  35.653  1.00  0.00    -0.237 OA
ATOM     49  O   UNL A   1      39.276  36.124  38.071  1.00  0.00    -0.237 OA
ATOM     50  O   UNL A   1      41.470  35.582  37.097  1.00  0.00    -0.744 OA
ENDBRANCH  44  47
ENDBRANCH  26  40
BRANCH  27  51
ATOM     51  C   UNL A   1      42.257  26.352  27.614  1.00  0.00     0.023 A 
ATOM     52  C   UNL A   1      43.028  26.966  26.609  1.00  0.00     0.012 A 
ATOM     53  C   UNL A   1      41.925  24.988  27.485  1.00  0.00     0.148 A 
ATOM     54  C   UNL A   1      43.434  26.244  25.484  1.00  0.00     0.002 A 
ATOM     55  C   UNL A   1      42.371  24.264  26.386  1.00  0.00     0.091 A 
ATOM     56  F   UNL A   1      41.176  24.422  28.442  1.00  0.00    -0.205 F 
ATOM     57  C   UNL A   1      43.114  24.893  25.377  1.00  0.00     0.022 A 
BRANCH  55  58
ATOM     58  S   UNL A   1      42.103  22.494  26.240  1.00  0.00     0.127 S 
ATOM     59  O   UNL A   1      42.689  21.997  27.480  1.00  0.00    -0.237 OA
ATOM     60  O   UNL A   1      40.643  22.418  26.169  1.00  0.00    -0.237 OA
ATOM     61  O   UNL A   1      42.779  22.106  25.010  1.00  0.00    -0.744 OA
ENDBRANCH  55  58
ENDBRANCH  27  51
BRANCH  39  62
ATOM     62  C   UNL A   1      44.873  27.566  33.964  1.00  0.00     0.023 A 
ATOM     63  C   UNL A   1      46.043  28.344  33.878  1.00  0.00     0.012 A 
ATOM     64  C   UNL A   1      44.866  26.402  34.755  1.00  0.00     0.148 A 
ATOM     65  C   UNL A   1      47.199  27.954  34.549  1.00  0.00     0.002 A 
ATOM     66  C   UNL A   1      46.006  26.046  35.461  1.00  0.00     0.091 A 
ATOM     67  F   UNL A   1      43.745  25.665  34.800  1.00  0.00    -0.205 F 
ATOM     68  C   UNL A   1      47.177  26.815  35.352  1.00  0.00     0.022 A 
BRANCH  66  69
ATOM     69  S   UNL A   1      46.032  24.653  36.592  1.00  0.00     0.127 S 
ATOM     70  O   UNL A   1      45.333  23.628  35.819  1.00  0.00    -0.237 OA
ATOM     71  O   UNL A   1      47.466  24.418  36.765  1.00  0.00    -0.237 OA
ATOM     72  O   UNL A   1      45.348  25.106  37.797  1.00  0.00    -0.744 OA
ENDBRANCH  66  69
ENDBRANCH  39  62
ENDBRANCH  13  14
ENDBRANCH   6   8
ENDBRANCH   5   6
ENDBRANCH   4   5
ENDBRANCH   3   4
ENDBRANCH   2   3
ENDBRANCH   1   2
BRANCH   1  73
ATOM     73  C   UNL A   1      29.956  28.393  23.218  1.00  0.00     0.188 C 
BRANCH  73  74
ATOM     74  O   UNL A   1      30.658  28.021  22.035  1.00  0.00    -0.376 OA
BRANCH  74  75
ATOM     75  C   UNL A   1      31.036  26.643  22.017  1.00  0.00     0.202 C 
BRANCH  75  76
ATOM     76  C   UNL A   1      32.549  26.368  22.123  1.00  0.00     0.261 C 
BRANCH  76  77
ATOM     77  O   UNL A   1      33.041  25.412  23.090  1.00  0.00    -0.460 OA
BRANCH  77  78
ATOM     78  C   UNL A   1      33.124  25.796  24.376  1.00  0.00     0.338 C 
ATOM     79  O   UNL A   1      33.754  26.758  24.806  1.00  0.00    -0.246 OA
BRANCH  78  80
ATOM     80  C   UNL A   1      32.438  24.847  25.266  1.00  0.00     0.067 A 
ATOM     81  C   UNL A   1      31.082  25.059  25.538  1.00  0.00     0.016 A 
ATOM     82  C   UNL A   1      33.170  23.846  25.942  1.00  0.00    -0.010 A 
ATOM     83  C   UNL A   1      30.444  24.270  26.496  1.00  0.00     0.001 A 
ATOM     84  C   UNL A   1      32.525  23.105  26.935  1.00  0.00     0.009 A 
ATOM     85  C   UNL A   1      31.168  23.309  27.202  1.00  0.00     0.001 A 
BRANCH  82  86
ATOM     86  C   UNL A   1      34.565  23.518  25.601  1.00  0.00     0.030 C 
ATOM     87  C   UNL A   1      34.943  22.388  24.993  1.00  0.00     0.081 C 
ATOM     88  S   UNL A   1      36.546  21.774  25.000  1.00  0.00    -0.054 SA
ATOM     89  C   UNL A   1      34.030  21.352  24.457  1.00  0.00     0.266 C 
ATOM     90  C   UNL A   1      35.967  20.105  24.854  1.00  0.00     0.148 C 
ATOM     91  N   UNL A   1      34.609  20.099  24.609  1.00  0.00    -0.290 N 
ATOM     92  O   UNL A   1      32.947  21.592  23.944  1.00  0.00    -0.268 OA
ATOM     93  S   UNL A   1      37.025  18.824  25.028  1.00  0.00    -0.052 S 
BRANCH  91  94
ATOM     94  C   UNL A   1      33.710  18.957  24.435  1.00  0.00     0.092 C 
ATOM     95  C   UNL A   1      34.364  17.704  23.867  1.00  0.00     0.025 C 
ATOM     96  C   UNL A   1      32.920  18.479  25.659  1.00  0.00     0.025 C 
ATOM     97  C   UNL A   1      33.270  16.665  24.055  1.00  0.00     0.002 C 
ATOM     98  C   UNL A   1      32.653  16.992  25.412  1.00  0.00     0.002 C 
ENDBRANCH  91  94
ENDBRANCH  82  86
ENDBRANCH  78  80
ENDBRANCH  77  78
ENDBRANCH  76  77
ENDBRANCH  75  76
ENDBRANCH  74  75
ENDBRANCH  73  74
ENDBRANCH   1  73
TORSDOF 22
ENDMDL
MODEL 3
REMARK VINA RESULT:     -10.7      2.032      7.729
REMARK SMILES O=C(OCCOCCOCCOC(=O)c1ccccc1/C=C1/SC(=S)N(C2CCCC2)C1=O)c1ccc(-c2c3nc(c(-c4cccc(S(=O)(=O)[O-])c4F)c4ccc([nH]4)c(-c4cccc(S(=O)(=O)[O-])c4F)c4nc(c(-c5cccc(S(=O)(=O)[O-])c5F)c5ccc2[nH]5)C=C4)C=C3)cc1
REMARK SMILES IDX 7 1 6 2 5 3 4 4 3 5 2 6 1 7 34 8 35 9 96 10 36 11 95 12
REMARK SMILES IDX 37 13 38 14 39 15 89 16 40 17 94 18 88 19 90 20 41 21 93 22
REMARK SMILES IDX 87 23 86 24 42 26 74 27 54 28 73 29 55 30 58 31 72 32 91 33
REMARK SMILES IDX 56 34 57 35 71 37 92 38 59 39 43 40 44 41 52 42 45 43 47 44
REMARK SMILES IDX 53 45 46 46 48 47 49 48 50 49 51 50 75 51 76 52 84 53 77 54
REMARK SMILES IDX 79 55 85 56 78 57 80 58 81 59 82 60 83 61 60 62 61 63 69 64
REMARK SMILES IDX 62 65 64 66 70 67 63 68 65 69 66 70 67 71 68 72 8 73 9 74
REMARK SMILES IDX 10 75 11 76 12 77 13 78 14 79 15 80 16 81 20 82 17 83 19 84
REMARK SMILES IDX 18 85 21 86 22 87 23 88 32 89 24 90 26 91 33 92 25 93 27 94
REMARK SMILES IDX 28 95 31 96 29 97 30 98
REMARK H PARENT 90 25 58 36
REMARK Flexibility Score: inf
ROOT
ATOM      1  C   UNL A   1      30.983  29.021  24.168  1.00  0.00     0.188 C 
ENDROOT
BRANCH   1   2
ATOM      2  O   UNL A   1      30.991  28.358  25.433  1.00  0.00    -0.376 OA
BRANCH   2   3
ATOM      3  C   UNL A   1      31.818  29.008  26.400  1.00  0.00     0.202 C 
BRANCH   3   4
ATOM      4  C   UNL A   1      32.437  30.313  25.872  1.00  0.00     0.261 C 
BRANCH   4   5
ATOM      5  O   UNL A   1      32.370  31.394  26.818  1.00  0.00    -0.460 OA
BRANCH   5   6
ATOM      6  C   UNL A   1      33.375  32.132  27.356  1.00  0.00     0.338 C 
ATOM      7  O   UNL A   1      33.269  33.359  27.300  1.00  0.00    -0.246 OA
BRANCH   6   8
ATOM      8  C   UNL A   1      34.597  31.570  28.029  1.00  0.00     0.060 A 
ATOM      9  C   UNL A   1      34.743  30.269  28.516  1.00  0.00     0.016 A 
ATOM     10  C   UNL A   1      35.710  32.427  28.141  1.00  0.00     0.016 A 
ATOM     11  C   UNL A   1      35.916  29.840  29.129  1.00  0.00     0.010 A 
ATOM     12  C   UNL A   1      36.902  32.002  28.743  1.00  0.00     0.010 A 
ATOM     13  C   UNL A   1      36.994  30.707  29.262  1.00  0.00    -0.014 A 
BRANCH  13  14
ATOM     14  C   UNL A   1      38.145  30.261  30.066  1.00  0.00     0.031 A 
ATOM     15  C   UNL A   1      39.102  29.280  29.462  1.00  0.00     0.074 A 
ATOM     16  C   UNL A   1      38.397  30.820  31.263  1.00  0.00     0.049 A 
ATOM     17  N   UNL A   1      40.200  28.789  29.965  1.00  0.00    -0.248 NA
ATOM     18  C   UNL A   1      38.801  28.818  28.095  1.00  0.00     0.031 C 
ATOM     19  C   UNL A   1      37.589  31.867  31.886  1.00  0.00     0.029 A 
ATOM     20  N   UNL A   1      39.403  30.590  32.164  1.00  0.00    -0.354 N 
ATOM     21  C   UNL A   1      40.715  27.951  28.988  1.00  0.00     0.074 A 
ATOM     22  C   UNL A   1      39.813  27.996  27.860  1.00  0.00     0.031 C 
ATOM     23  C   UNL A   1      38.119  32.164  33.083  1.00  0.00     0.029 A 
ATOM     24  C   UNL A   1      39.259  31.298  33.333  1.00  0.00     0.049 A 
ATOM     25  H   UNL A   1      40.155  29.979  31.991  1.00  0.00     0.167 HD
ATOM     26  C   UNL A   1      41.848  27.215  29.031  1.00  0.00     0.034 A 
ATOM     27  C   UNL A   1      39.941  31.226  34.490  1.00  0.00     0.034 A 
ATOM     28  C   UNL A   1      42.734  27.178  30.159  1.00  0.00     0.049 A 
ATOM     29  C   UNL A   1      41.125  30.307  34.555  1.00  0.00     0.074 A 
ATOM     30  C   UNL A   1      43.908  26.466  30.308  1.00  0.00     0.029 A 
ATOM     31  N   UNL A   1      42.528  27.871  31.343  1.00  0.00    -0.354 N 
ATOM     32  N   UNL A   1      41.644  29.574  33.600  1.00  0.00    -0.248 NA
ATOM     33  C   UNL A   1      41.838  30.225  35.836  1.00  0.00     0.031 C 
ATOM     34  C   UNL A   1      44.397  26.703  31.596  1.00  0.00     0.029 A 
ATOM     35  C   UNL A   1      43.539  27.582  32.241  1.00  0.00     0.049 A 
ATOM     36  H   UNL A   1      41.774  28.478  31.519  1.00  0.00     0.167 HD
ATOM     37  C   UNL A   1      42.762  28.968  34.152  1.00  0.00     0.074 A 
ATOM     38  C   UNL A   1      42.856  29.435  35.522  1.00  0.00     0.031 C 
ATOM     39  C   UNL A   1      43.628  28.095  33.583  1.00  0.00     0.034 A 
BRANCH  26  40
ATOM     40  C   UNL A   1      42.171  26.383  27.825  1.00  0.00     0.023 A 
ATOM     41  C   UNL A   1      42.907  26.944  26.763  1.00  0.00     0.012 A 
ATOM     42  C   UNL A   1      41.758  25.040  27.756  1.00  0.00     0.148 A 
ATOM     43  C   UNL A   1      43.209  26.180  25.635  1.00  0.00     0.002 A 
ATOM     44  C   UNL A   1      42.090  24.277  26.645  1.00  0.00     0.091 A 
ATOM     45  F   UNL A   1      41.035  24.543  28.770  1.00  0.00    -0.205 F 
ATOM     46  C   UNL A   1      42.809  24.848  25.580  1.00  0.00     0.022 A 
BRANCH  44  47
ATOM     47  S   UNL A   1      41.658  22.541  26.495  1.00  0.00     0.127 S 
ATOM     48  O   UNL A   1      40.197  22.603  26.475  1.00  0.00    -0.237 OA
ATOM     49  O   UNL A   1      42.273  22.185  25.216  1.00  0.00    -0.237 OA
ATOM     50  O   UNL A   1      42.233  21.880  27.657  1.00  0.00    -0.744 OA
ENDBRANCH  44  47
ENDBRANCH  26  40
BRANCH  27  51
ATOM     51  C   UNL A   1      39.508  32.020  35.675  1.00  0.00     0.023 A 
ATOM     52  C   UNL A   1      39.957  33.343  35.845  1.00  0.00     0.012 A 
ATOM     53  C   UNL A   1      38.649  31.459  36.643  1.00  0.00     0.148 A 
ATOM     54  C   UNL A   1      39.582  34.082  36.969  1.00  0.00     0.002 A 
ATOM     55  C   UNL A   1      38.242  32.216  37.735  1.00  0.00     0.091 A 
ATOM     56  F   UNL A   1      38.243  30.192  36.476  1.00  0.00    -0.205 F 
ATOM     57  C   UNL A   1      38.719  33.523  37.908  1.00  0.00     0.022 A 
BRANCH  55  58
ATOM     58  S   UNL A   1      37.037  31.606  38.919  1.00  0.00     0.127 S 
ATOM     59  O   UNL A   1      36.753  30.273  38.401  1.00  0.00    -0.237 OA
ATOM     60  O   UNL A   1      37.801  31.638  40.166  1.00  0.00    -0.237 OA
ATOM     61  O   UNL A   1      35.937  32.561  38.870  1.00  0.00    -0.744 OA
ENDBRANCH  55  58
ENDBRANCH  27  51
BRANCH  39  62
ATOM     62  C   UNL A   1      44.764  27.606  34.435  1.00  0.00     0.023 A 
ATOM     63  C   UNL A   1      45.963  28.341  34.485  1.00  0.00     0.012 A 
ATOM     64  C   UNL A   1      44.611  26.463  35.241  1.00  0.00     0.148 A 
ATOM     65  C   UNL A   1      47.008  27.929  35.308  1.00  0.00     0.002 A 
ATOM     66  C   UNL A   1      45.637  26.086  36.096  1.00  0.00     0.091 A 
ATOM     67  F   UNL A   1      43.467  25.767  35.155  1.00  0.00    -0.205 F 
ATOM     68  C   UNL A   1      46.840  26.811  36.123  1.00  0.00     0.022 A 
BRANCH  66  69
ATOM     69  S   UNL A   1      45.465  24.721  37.249  1.00  0.00     0.127 S 
ATOM     70  O   UNL A   1      44.404  25.207  38.128  1.00  0.00    -0.237 OA
ATOM     71  O   UNL A   1      45.075  23.618  36.371  1.00  0.00    -0.237 OA
ATOM     72  O   UNL A   1      46.773  24.561  37.872  1.00  0.00    -0.744 OA
ENDBRANCH  66  69
ENDBRANCH  39  62
ENDBRANCH  13  14
ENDBRANCH   6   8
ENDBRANCH   5   6
ENDBRANCH   4   5
ENDBRANCH   3   4
ENDBRANCH   2   3
ENDBRANCH   1   2
BRANCH   1  73
ATOM     73  C   UNL A   1      29.822  28.585  23.280  1.00  0.00     0.188 C 
BRANCH  73  74
ATOM     74  O   UNL A   1      30.188  27.520  22.407  1.00  0.00    -0.376 OA
BRANCH  74  75
ATOM     75  C   UNL A   1      31.602  27.344  22.299  1.00  0.00     0.202 C 
BRANCH  75  76
ATOM     76  C   UNL A   1      32.070  25.910  21.978  1.00  0.00     0.261 C 
BRANCH  76  77
ATOM     77  O   UNL A   1      32.954  25.220  22.891  1.00  0.00    -0.460 OA
BRANCH  77  78
ATOM     78  C   UNL A   1      33.063  25.691  24.146  1.00  0.00     0.338 C 
ATOM     79  O   UNL A   1      33.686  26.690  24.494  1.00  0.00    -0.246 OA
BRANCH  78  80
ATOM     80  C   UNL A   1      32.419  24.792  25.116  1.00  0.00     0.067 A 
ATOM     81  C   UNL A   1      31.046  24.940  25.342  1.00  0.00     0.016 A 
ATOM     82  C   UNL A   1      33.197  23.914  25.902  1.00  0.00    -0.010 A 
ATOM     83  C   UNL A   1      30.438  24.210  26.364  1.00  0.00     0.001 A 
ATOM     84  C   UNL A   1      32.579  23.235  26.953  1.00  0.00     0.009 A 
ATOM     85  C   UNL A   1      31.206  23.374  27.175  1.00  0.00     0.001 A 
BRANCH  82  86
ATOM     86  C   UNL A   1      34.618  23.648  25.619  1.00  0.00     0.030 C 
ATOM     87  C   UNL A   1      35.069  22.536  25.026  1.00  0.00     0.081 C 
ATOM     88  S   UNL A   1      36.696  21.992  25.099  1.00  0.00    -0.054 SA
ATOM     89  C   UNL A   1      34.225  21.464  24.451  1.00  0.00     0.266 C 
ATOM     90  C   UNL A   1      36.195  20.300  24.927  1.00  0.00     0.148 C 
ATOM     91  N   UNL A   1      34.850  20.236  24.626  1.00  0.00    -0.290 N 
ATOM     92  O   UNL A   1      33.155  21.659  23.894  1.00  0.00    -0.268 OA
ATOM     93  S   UNL A   1      37.299  19.065  25.143  1.00  0.00    -0.052 S 
BRANCH  91  94
ATOM     94  C   UNL A   1      34.009  19.057  24.412  1.00  0.00     0.092 C 
ATOM     95  C   UNL A   1      34.767  17.748  24.240  1.00  0.00     0.025 C 
ATOM     96  C   UNL A   1      32.924  18.760  25.454  1.00  0.00     0.025 C 
ATOM     97  C   UNL A   1      33.647  16.723  24.306  1.00  0.00     0.002 C 
ATOM     98  C   UNL A   1      32.706  17.246  25.388  1.00  0.00     0.002 C 
ENDBRANCH  91  94
ENDBRANCH  82  86
ENDBRANCH  78  80
ENDBRANCH  77  78
ENDBRANCH  76  77
ENDBRANCH  75  76
ENDBRANCH  74  75
ENDBRANCH  73  74
ENDBRANCH   1  73
TORSDOF 22
ENDMDL
