MODEL 1
REMARK VINA RESULT:      -9.3      0.000      0.000
REMARK SMILES C[N@@H+](CC(=O)OCCOCCOCCOC(=O)c1ccc(-c2c3nc(c(-c4cccc(S(=O)(=O)[O-])c4F)c4ccc([nH]4)c(-c4cccc(S(=O)(=O)[O-])c4F)c4nc(c(-c5cccc(S(=O)(=O)[O-])c5F)c5ccc2[nH]5)C=C4)C=C3)cc1)Cc1noc(-c2ccccc2Cl)n1
REMARK SMILES IDX 10 1 9 2 8 3 7 4 6 5 4 6 5 7 3 8 2 9 1 10 81 12 82 13 83 14
REMARK SMILES IDX 93 15 84 16 85 17 86 18 87 19 91 20 88 21 90 22 92 23 89 24
REMARK SMILES IDX 11 25 12 26 13 27 14 28 15 29 16 30 17 31 18 32 19 33 80 34
REMARK SMILES IDX 20 35 79 36 21 37 22 38 23 39 73 40 24 41 78 42 72 43 74 44
REMARK SMILES IDX 25 45 77 46 71 47 70 48 26 50 58 51 38 52 57 53 39 54 42 55
REMARK SMILES IDX 56 56 75 57 40 58 41 59 55 61 76 62 43 63 27 64 28 65 36 66
REMARK SMILES IDX 29 67 31 68 37 69 30 70 32 71 33 72 34 73 35 74 59 75 60 76
REMARK SMILES IDX 68 77 61 78 63 79 69 80 62 81 64 82 65 83 66 84 67 85 44 86
REMARK SMILES IDX 45 87 53 88 46 89 48 90 54 91 47 92 49 93 50 94 51 95 52 96
REMARK H PARENT 2 11 74 49 42 60
REMARK Flexibility Score: inf
ROOT
ATOM      1  C   UNL A   1      34.478  32.312  28.643  1.00  0.00     0.188 C 
ENDROOT
BRANCH   1   2
ATOM      2  O   UNL A   1      33.635  31.351  28.073  1.00  0.00    -0.376 OA
BRANCH   2   3
ATOM      3  C   UNL A   1      34.164  30.375  27.191  1.00  0.00     0.202 C 
BRANCH   3   4
ATOM      4  C   UNL A   1      33.405  29.186  26.546  1.00  0.00     0.261 C 
BRANCH   4   5
ATOM      5  O   UNL A   1      34.027  27.897  26.464  1.00  0.00    -0.459 OA
BRANCH   5   6
ATOM      6  C   UNL A   1      33.464  26.992  25.631  1.00  0.00     0.361 C 
ATOM      7  O   UNL A   1      34.076  26.032  25.165  1.00  0.00    -0.245 OA
BRANCH   6   8
ATOM      8  C   UNL A   1      31.972  27.184  25.352  1.00  0.00     0.386 C 
BRANCH   8   9
ATOM      9  N   UNL A   1      31.470  27.361  23.983  1.00  0.00    -0.322 N 
ATOM     10  C   UNL A   1      31.185  28.704  23.537  1.00  0.00     0.333 C 
ATOM     11  H   UNL A   1      32.372  27.196  23.535  1.00  0.00     0.348 HD
BRANCH   9  12
ATOM     12  C   UNL A   1      30.756  26.264  23.319  1.00  0.00     0.345 C 
BRANCH  12  13
ATOM     13  C   UNL A   1      31.546  25.038  23.016  1.00  0.00     0.226 A 
ATOM     14  N   UNL A   1      32.894  24.991  21.950  1.00  0.00    -0.056 NA
ATOM     15  N   UNL A   1      31.384  23.509  23.931  1.00  0.00    -0.186 NA
ATOM     16  O   UNL A   1      33.590  23.115  22.285  1.00  0.00    -0.334 OA
ATOM     17  C   UNL A   1      32.404  22.412  23.532  1.00  0.00     0.259 A 
BRANCH  17  18
ATOM     18  C   UNL A   1      32.369  20.982  23.773  1.00  0.00     0.058 A 
ATOM     19  C   UNL A   1      32.090  20.095  22.725  1.00  0.00     0.015 A 
ATOM     20  C   UNL A   1      32.854  20.464  24.990  1.00  0.00     0.053 A 
ATOM     21  C   UNL A   1      32.393  18.735  22.857  1.00  0.00     0.001 A 
ATOM     22  C   UNL A   1      33.149  19.104  25.117  1.00  0.00     0.021 A 
ATOM     23  Cl  UNL A   1      33.132  21.442  26.396  1.00  0.00    -0.083 Cl
ATOM     24  C   UNL A   1      32.944  18.247  24.042  1.00  0.00     0.002 A 
ENDBRANCH  17  18
ENDBRANCH  12  13
ENDBRANCH   9  12
ENDBRANCH   8   9
ENDBRANCH   6   8
ENDBRANCH   5   6
ENDBRANCH   4   5
ENDBRANCH   3   4
ENDBRANCH   2   3
ENDBRANCH   1   2
BRANCH   1  25
ATOM     25  C   UNL A   1      35.990  32.396  28.049  1.00  0.00     0.188 C 
BRANCH  25  26
ATOM     26  O   UNL A   1      37.765  31.384  28.575  1.00  0.00    -0.376 OA
BRANCH  26  27
ATOM     27  C   UNL A   1      38.029  30.289  29.723  1.00  0.00     0.202 C 
BRANCH  27  28
ATOM     28  C   UNL A   1      36.966  29.273  30.344  1.00  0.00     0.261 C 
BRANCH  28  29
ATOM     29  O   UNL A   1      36.585  29.369  31.738  1.00  0.00    -0.460 OA
BRANCH  29  30
ATOM     30  C   UNL A   1      37.453  28.863  32.651  1.00  0.00     0.338 C 
ATOM     31  O   UNL A   1      37.686  27.681  32.848  1.00  0.00    -0.246 OA
BRANCH  30  32
ATOM     32  C   UNL A   1      38.252  29.973  33.255  1.00  0.00     0.060 A 
ATOM     33  C   UNL A   1      37.647  31.236  33.386  1.00  0.00     0.016 A 
ATOM     34  C   UNL A   1      39.579  29.805  33.651  1.00  0.00     0.016 A 
ATOM     35  C   UNL A   1      38.370  32.337  33.859  1.00  0.00     0.010 A 
ATOM     36  C   UNL A   1      40.317  30.918  34.090  1.00  0.00     0.010 A 
ATOM     37  C   UNL A   1      39.732  32.199  34.147  1.00  0.00    -0.014 A 
BRANCH  37  38
ATOM     38  C   UNL A   1      40.600  33.410  34.202  1.00  0.00     0.031 A 
ATOM     39  C   UNL A   1      41.174  33.911  32.899  1.00  0.00     0.074 A 
ATOM     40  C   UNL A   1      40.882  34.063  35.344  1.00  0.00     0.049 A 
ATOM     41  N   UNL A   1      42.034  34.871  32.678  1.00  0.00    -0.248 NA
ATOM     42  C   UNL A   1      40.713  33.226  31.678  1.00  0.00     0.031 C 
ATOM     43  C   UNL A   1      40.363  33.728  36.667  1.00  0.00     0.029 A 
ATOM     44  N   UNL A   1      41.714  35.136  35.570  1.00  0.00    -0.354 N 
ATOM     45  C   UNL A   1      42.253  34.873  31.305  1.00  0.00     0.074 A 
ATOM     46  C   UNL A   1      41.436  33.821  30.743  1.00  0.00     0.031 C 
ATOM     47  C   UNL A   1      40.917  34.554  37.574  1.00  0.00     0.029 A 
ATOM     48  C   UNL A   1      41.858  35.452  36.902  1.00  0.00     0.049 A 
ATOM     49  H   UNL A   1      42.161  35.633  34.848  1.00  0.00     0.167 HD
ATOM     50  C   UNL A   1      43.055  35.679  30.569  1.00  0.00     0.034 A 
ATOM     51  C   UNL A   1      42.681  36.334  37.509  1.00  0.00     0.034 A 
ATOM     52  C   UNL A   1      43.860  36.735  31.118  1.00  0.00     0.049 A 
ATOM     53  C   UNL A   1      43.608  37.187  36.676  1.00  0.00     0.074 A 
ATOM     54  C   UNL A   1      44.682  37.624  30.449  1.00  0.00     0.029 A 
ATOM     55  N   UNL A   1      43.960  37.034  32.466  1.00  0.00    -0.354 N 
ATOM     56  N   UNL A   1      43.745  37.234  35.372  1.00  0.00    -0.248 NA
ATOM     57  C   UNL A   1      44.478  38.131  37.398  1.00  0.00     0.031 C 
ATOM     58  C   UNL A   1      45.312  38.434  31.398  1.00  0.00     0.029 A 
ATOM     59  C   UNL A   1      44.842  38.085  32.653  1.00  0.00     0.049 A 
ATOM     60  H   UNL A   1      43.474  36.570  33.186  1.00  0.00     0.167 HD
ATOM     61  C   UNL A   1      44.680  38.235  35.119  1.00  0.00     0.074 A 
ATOM     62  C   UNL A   1      45.064  38.781  36.402  1.00  0.00     0.031 C 
ATOM     63  C   UNL A   1      45.181  38.659  33.930  1.00  0.00     0.034 A 
BRANCH  50  64
ATOM     64  C   UNL A   1      43.106  35.440  29.082  1.00  0.00     0.023 A 
ATOM     65  C   UNL A   1      42.343  36.244  28.210  1.00  0.00     0.012 A 
ATOM     66  C   UNL A   1      43.943  34.441  28.546  1.00  0.00     0.148 A 
ATOM     67  C   UNL A   1      42.381  36.029  26.832  1.00  0.00     0.002 A 
ATOM     68  C   UNL A   1      44.015  34.268  27.170  1.00  0.00     0.091 A 
ATOM     69  F   UNL A   1      44.644  33.673  29.392  1.00  0.00    -0.205 F 
ATOM     70  C   UNL A   1      43.223  35.051  26.312  1.00  0.00     0.022 A 
BRANCH  68  71
ATOM     71  S   UNL A   1      45.130  33.091  26.397  1.00  0.00     0.127 S 
ATOM     72  O   UNL A   1      46.431  33.563  26.872  1.00  0.00    -0.237 OA
ATOM     73  O   UNL A   1      44.691  31.825  26.983  1.00  0.00    -0.237 OA
ATOM     74  O   UNL A   1      44.911  33.208  24.963  1.00  0.00    -0.744 OA
ENDBRANCH  68  71
ENDBRANCH  50  64
BRANCH  51  75
ATOM     75  C   UNL A   1      42.673  36.471  38.997  1.00  0.00     0.023 A 
ATOM     76  C   UNL A   1      43.601  35.748  39.771  1.00  0.00     0.012 A 
ATOM     77  C   UNL A   1      41.739  37.302  39.648  1.00  0.00     0.148 A 
ATOM     78  C   UNL A   1      43.580  35.823  41.166  1.00  0.00     0.002 A 
ATOM     79  C   UNL A   1      41.760  37.418  41.033  1.00  0.00     0.091 A 
ATOM     80  F   UNL A   1      40.848  37.964  38.897  1.00  0.00    -0.205 F 
ATOM     81  C   UNL A   1      42.667  36.665  41.795  1.00  0.00     0.022 A 
BRANCH  79  82
ATOM     82  S   UNL A   1      40.701  38.562  41.924  1.00  0.00     0.127 S 
ATOM     83  O   UNL A   1      39.418  37.864  41.904  1.00  0.00    -0.237 OA
ATOM     84  O   UNL A   1      41.353  38.614  43.233  1.00  0.00    -0.237 OA
ATOM     85  O   UNL A   1      40.749  39.811  41.177  1.00  0.00    -0.744 OA
ENDBRANCH  79  82
ENDBRANCH  51  75
BRANCH  63  86
ATOM     86  C   UNL A   1      46.157  39.809  33.940  1.00  0.00     0.023 A 
ATOM     87  C   UNL A   1      47.536  39.573  33.767  1.00  0.00     0.012 A 
ATOM     88  C   UNL A   1      45.693  41.136  34.040  1.00  0.00     0.148 A 
ATOM     89  C   UNL A   1      48.438  40.637  33.733  1.00  0.00     0.002 A 
ATOM     90  C   UNL A   1      46.592  42.193  33.951  1.00  0.00     0.091 A 
ATOM     91  F   UNL A   1      44.379  41.342  34.217  1.00  0.00    -0.205 F 
ATOM     92  C   UNL A   1      47.966  41.946  33.812  1.00  0.00     0.022 A 
BRANCH  90  93
ATOM     93  S   UNL A   1      46.065  43.911  33.943  1.00  0.00     0.127 S 
ATOM     94  O   UNL A   1      47.342  44.615  34.052  1.00  0.00    -0.237 OA
ATOM     95  O   UNL A   1      45.415  44.028  32.636  1.00  0.00    -0.237 OA
ATOM     96  O   UNL A   1      45.170  44.066  35.080  1.00  0.00    -0.744 OA
ENDBRANCH  90  93
ENDBRANCH  63  86
ENDBRANCH  37  38
ENDBRANCH  30  32
ENDBRANCH  29  30
ENDBRANCH  28  29
ENDBRANCH  27  28
ENDBRANCH  26  27
ENDBRANCH  25  26
ENDBRANCH   1  25
TORSDOF 24
ENDMDL
MODEL 2
REMARK VINA RESULT:      -9.0      1.074      7.636
REMARK SMILES C[N@@H+](CC(=O)OCCOCCOCCOC(=O)c1ccc(-c2c3nc(c(-c4cccc(S(=O)(=O)[O-])c4F)c4ccc([nH]4)c(-c4cccc(S(=O)(=O)[O-])c4F)c4nc(c(-c5cccc(S(=O)(=O)[O-])c5F)c5ccc2[nH]5)C=C4)C=C3)cc1)Cc1noc(-c2ccccc2Cl)n1
REMARK SMILES IDX 10 1 9 2 8 3 7 4 6 5 4 6 5 7 3 8 2 9 1 10 81 12 82 13 83 14
REMARK SMILES IDX 93 15 84 16 85 17 86 18 87 19 91 20 88 21 90 22 92 23 89 24
REMARK SMILES IDX 11 25 12 26 13 27 14 28 15 29 16 30 17 31 18 32 19 33 80 34
REMARK SMILES IDX 20 35 79 36 21 37 22 38 23 39 73 40 24 41 78 42 72 43 74 44
REMARK SMILES IDX 25 45 77 46 71 47 70 48 26 50 58 51 38 52 57 53 39 54 42 55
REMARK SMILES IDX 56 56 75 57 40 58 41 59 55 61 76 62 43 63 27 64 28 65 36 66
REMARK SMILES IDX 29 67 31 68 37 69 30 70 32 71 33 72 34 73 35 74 59 75 60 76
REMARK SMILES IDX 68 77 61 78 63 79 69 80 62 81 64 82 65 83 66 84 67 85 44 86
REMARK SMILES IDX 45 87 53 88 46 89 48 90 54 91 47 92 49 93 50 94 51 95 52 96
REMARK H PARENT 2 11 74 49 42 60
REMARK Flexibility Score: inf
ROOT
ATOM      1  C   UNL A   1      34.351  32.163  29.007  1.00  0.00     0.188 C 
ENDROOT
BRANCH   1   2
ATOM      2  O   UNL A   1      33.687  31.448  28.002  1.00  0.00    -0.376 OA
BRANCH   2   3
ATOM      3  C   UNL A   1      34.263  30.264  27.474  1.00  0.00     0.202 C 
BRANCH   3   4
ATOM      4  C   UNL A   1      33.614  29.273  26.473  1.00  0.00     0.261 C 
BRANCH   4   5
ATOM      5  O   UNL A   1      33.879  27.869  26.578  1.00  0.00    -0.459 OA
BRANCH   5   6
ATOM      6  C   UNL A   1      33.473  27.085  25.553  1.00  0.00     0.361 C 
ATOM      7  O   UNL A   1      34.042  26.042  25.236  1.00  0.00    -0.245 OA
BRANCH   6   8
ATOM      8  C   UNL A   1      32.195  27.532  24.840  1.00  0.00     0.386 C 
BRANCH   8   9
ATOM      9  N   UNL A   1      32.173  27.763  23.391  1.00  0.00    -0.322 N 
ATOM     10  C   UNL A   1      32.375  29.113  22.919  1.00  0.00     0.333 C 
ATOM     11  H   UNL A   1      33.095  27.360  23.222  1.00  0.00     0.348 HD
BRANCH   9  12
ATOM     12  C   UNL A   1      31.432  26.847  22.516  1.00  0.00     0.345 C 
BRANCH  12  13
ATOM     13  C   UNL A   1      32.064  25.525  22.242  1.00  0.00     0.226 A 
ATOM     14  N   UNL A   1      32.840  25.108  20.766  1.00  0.00    -0.056 NA
ATOM     15  N   UNL A   1      32.356  24.292  23.505  1.00  0.00    -0.186 NA
ATOM     16  O   UNL A   1      33.678  23.327  21.256  1.00  0.00    -0.334 OA
ATOM     17  C   UNL A   1      33.152  23.054  23.019  1.00  0.00     0.259 A 
BRANCH  17  18
ATOM     18  C   UNL A   1      33.273  21.737  23.615  1.00  0.00     0.058 A 
ATOM     19  C   UNL A   1      33.932  21.574  24.840  1.00  0.00     0.015 A 
ATOM     20  C   UNL A   1      32.521  20.662  23.100  1.00  0.00     0.053 A 
ATOM     21  C   UNL A   1      33.755  20.401  25.583  1.00  0.00     0.001 A 
ATOM     22  C   UNL A   1      32.353  19.491  23.844  1.00  0.00     0.021 A 
ATOM     23  Cl  UNL A   1      31.751  20.700  21.547  1.00  0.00    -0.083 Cl
ATOM     24  C   UNL A   1      32.947  19.374  25.096  1.00  0.00     0.002 A 
ENDBRANCH  17  18
ENDBRANCH  12  13
ENDBRANCH   9  12
ENDBRANCH   8   9
ENDBRANCH   6   8
ENDBRANCH   5   6
ENDBRANCH   4   5
ENDBRANCH   3   4
ENDBRANCH   2   3
ENDBRANCH   1   2
BRANCH   1  25
ATOM     25  C   UNL A   1      35.913  32.520  28.732  1.00  0.00     0.188 C 
BRANCH  25  26
ATOM     26  O   UNL A   1      37.691  31.461  29.144  1.00  0.00    -0.376 OA
BRANCH  26  27
ATOM     27  C   UNL A   1      37.901  30.026  29.840  1.00  0.00     0.202 C 
BRANCH  27  28
ATOM     28  C   UNL A   1      36.798  29.154  30.594  1.00  0.00     0.261 C 
BRANCH  28  29
ATOM     29  O   UNL A   1      36.696  29.186  32.038  1.00  0.00    -0.460 OA
BRANCH  29  30
ATOM     30  C   UNL A   1      37.731  28.661  32.743  1.00  0.00     0.338 C 
ATOM     31  O   UNL A   1      38.006  27.476  32.848  1.00  0.00    -0.246 OA
BRANCH  30  32
ATOM     32  C   UNL A   1      38.628  29.761  33.213  1.00  0.00     0.060 A 
ATOM     33  C   UNL A   1      38.066  31.030  33.442  1.00  0.00     0.016 A 
ATOM     34  C   UNL A   1      39.999  29.578  33.393  1.00  0.00     0.016 A 
ATOM     35  C   UNL A   1      38.866  32.122  33.796  1.00  0.00     0.010 A 
ATOM     36  C   UNL A   1      40.810  30.681  33.710  1.00  0.00     0.010 A 
ATOM     37  C   UNL A   1      40.256  31.969  33.863  1.00  0.00    -0.014 A 
BRANCH  37  38
ATOM     38  C   UNL A   1      41.134  33.170  33.781  1.00  0.00     0.031 A 
ATOM     39  C   UNL A   1      41.447  33.888  35.072  1.00  0.00     0.074 A 
ATOM     40  C   UNL A   1      41.651  33.628  32.627  1.00  0.00     0.049 A 
ATOM     41  N   UNL A   1      42.093  35.008  35.271  1.00  0.00    -0.248 NA
ATOM     42  C   UNL A   1      40.956  33.252  36.307  1.00  0.00     0.031 C 
ATOM     43  C   UNL A   1      41.479  33.014  31.314  1.00  0.00     0.029 A 
ATOM     44  N   UNL A   1      42.409  34.750  32.378  1.00  0.00    -0.354 N 
ATOM     45  C   UNL A   1      42.044  35.233  36.642  1.00  0.00     0.074 A 
ATOM     46  C   UNL A   1      41.307  34.135  37.227  1.00  0.00     0.031 C 
ATOM     47  C   UNL A   1      42.079  33.787  30.390  1.00  0.00     0.029 A 
ATOM     48  C   UNL A   1      42.646  34.969  31.040  1.00  0.00     0.049 A 
ATOM     49  H   UNL A   1      42.749  35.340  33.088  1.00  0.00     0.167 HD
ATOM     50  C   UNL A   1      42.567  36.256  37.359  1.00  0.00     0.034 A 
ATOM     51  C   UNL A   1      43.220  36.019  30.412  1.00  0.00     0.034 A 
ATOM     52  C   UNL A   1      43.312  37.344  36.787  1.00  0.00     0.049 A 
ATOM     53  C   UNL A   1      43.751  37.177  31.225  1.00  0.00     0.074 A 
ATOM     54  C   UNL A   1      43.909  38.411  37.436  1.00  0.00     0.029 A 
ATOM     55  N   UNL A   1      43.549  37.515  35.434  1.00  0.00    -0.354 N 
ATOM     56  N   UNL A   1      43.768  37.338  32.526  1.00  0.00    -0.248 NA
ATOM     57  C   UNL A   1      44.366  38.288  30.481  1.00  0.00     0.031 C 
ATOM     58  C   UNL A   1      44.469  39.250  36.469  1.00  0.00     0.029 A 
ATOM     59  C   UNL A   1      44.268  38.679  35.223  1.00  0.00     0.049 A 
ATOM     60  H   UNL A   1      43.250  36.899  34.725  1.00  0.00     0.167 HD
ATOM     61  C   UNL A   1      44.430  38.542  32.757  1.00  0.00     0.074 A 
ATOM     62  C   UNL A   1      44.813  39.061  31.462  1.00  0.00     0.031 C 
ATOM     63  C   UNL A   1      44.691  39.164  33.934  1.00  0.00     0.034 A 
BRANCH  50  64
ATOM     64  C   UNL A   1      42.344  36.249  38.849  1.00  0.00     0.023 A 
ATOM     65  C   UNL A   1      43.374  35.832  39.717  1.00  0.00     0.012 A 
ATOM     66  C   UNL A   1      41.121  36.692  39.391  1.00  0.00     0.148 A 
ATOM     67  C   UNL A   1      43.176  35.818  41.098  1.00  0.00     0.002 A 
ATOM     68  C   UNL A   1      40.950  36.725  40.769  1.00  0.00     0.091 A 
ATOM     69  F   UNL A   1      40.146  37.063  38.549  1.00  0.00    -0.205 F 
ATOM     70  C   UNL A   1      41.970  36.274  41.623  1.00  0.00     0.022 A 
BRANCH  68  71
ATOM     71  S   UNL A   1      39.465  37.371  41.547  1.00  0.00     0.127 S 
ATOM     72  O   UNL A   1      39.986  37.843  42.830  1.00  0.00    -0.237 OA
ATOM     73  O   UNL A   1      39.074  38.434  40.621  1.00  0.00    -0.237 OA
ATOM     74  O   UNL A   1      38.532  36.257  41.626  1.00  0.00    -0.744 OA
ENDBRANCH  68  71
ENDBRANCH  50  64
BRANCH  51  75
ATOM     75  C   UNL A   1      43.333  36.035  28.923  1.00  0.00     0.023 A 
ATOM     76  C   UNL A   1      42.335  36.661  28.152  1.00  0.00     0.012 A 
ATOM     77  C   UNL A   1      44.419  35.420  28.267  1.00  0.00     0.148 A 
ATOM     78  C   UNL A   1      42.396  36.647  26.756  1.00  0.00     0.002 A 
ATOM     79  C   UNL A   1      44.504  35.459  26.881  1.00  0.00     0.091 A 
ATOM     80  F   UNL A   1      45.348  34.809  29.016  1.00  0.00    -0.205 F 
ATOM     81  C   UNL A   1      43.484  36.055  26.122  1.00  0.00     0.022 A 
BRANCH  79  82
ATOM     82  S   UNL A   1      45.924  34.826  25.981  1.00  0.00     0.127 S 
ATOM     83  O   UNL A   1      45.348  34.548  24.667  1.00  0.00    -0.237 OA
ATOM     84  O   UNL A   1      46.838  35.967  26.024  1.00  0.00    -0.237 OA
ATOM     85  O   UNL A   1      46.378  33.660  26.726  1.00  0.00    -0.744 OA
ENDBRANCH  79  82
ENDBRANCH  51  75
BRANCH  63  86
ATOM     86  C   UNL A   1      45.479  40.451  33.899  1.00  0.00     0.023 A 
ATOM     87  C   UNL A   1      46.886  40.421  33.823  1.00  0.00     0.012 A 
ATOM     88  C   UNL A   1      44.813  41.693  33.860  1.00  0.00     0.148 A 
ATOM     89  C   UNL A   1      47.617  41.607  33.748  1.00  0.00     0.002 A 
ATOM     90  C   UNL A   1      45.546  42.867  33.731  1.00  0.00     0.091 A 
ATOM     91  F   UNL A   1      43.475  41.703  33.947  1.00  0.00    -0.205 F 
ATOM     92  C   UNL A   1      46.948  42.828  33.689  1.00  0.00     0.022 A 
BRANCH  90  93
ATOM     93  S   UNL A   1      44.767  44.476  33.547  1.00  0.00     0.127 S 
ATOM     94  O   UNL A   1      43.570  44.323  34.373  1.00  0.00    -0.237 OA
ATOM     95  O   UNL A   1      45.779  45.375  34.103  1.00  0.00    -0.237 OA
ATOM     96  O   UNL A   1      44.522  44.647  32.122  1.00  0.00    -0.744 OA
ENDBRANCH  90  93
ENDBRANCH  63  86
ENDBRANCH  37  38
ENDBRANCH  30  32
ENDBRANCH  29  30
ENDBRANCH  28  29
ENDBRANCH  27  28
ENDBRANCH  26  27
ENDBRANCH  25  26
ENDBRANCH   1  25
TORSDOF 24
ENDMDL
MODEL 3
REMARK VINA RESULT:      -8.9      9.065     14.091
REMARK SMILES C[N@@H+](CC(=O)OCCOCCOCCOC(=O)c1ccc(-c2c3nc(c(-c4cccc(S(=O)(=O)[O-])c4F)c4ccc([nH]4)c(-c4cccc(S(=O)(=O)[O-])c4F)c4nc(c(-c5cccc(S(=O)(=O)[O-])c5F)c5ccc2[nH]5)C=C4)C=C3)cc1)Cc1noc(-c2ccccc2Cl)n1
REMARK SMILES IDX 10 1 9 2 8 3 7 4 6 5 4 6 5 7 3 8 2 9 1 10 81 12 82 13 83 14
REMARK SMILES IDX 93 15 84 16 85 17 86 18 87 19 91 20 88 21 90 22 92 23 89 24
REMARK SMILES IDX 11 25 12 26 13 27 14 28 15 29 16 30 17 31 18 32 19 33 80 34
REMARK SMILES IDX 20 35 79 36 21 37 22 38 23 39 73 40 24 41 78 42 72 43 74 44
REMARK SMILES IDX 25 45 77 46 71 47 70 48 26 50 58 51 38 52 57 53 39 54 42 55
REMARK SMILES IDX 56 56 75 57 40 58 41 59 55 61 76 62 43 63 27 64 28 65 36 66
REMARK SMILES IDX 29 67 31 68 37 69 30 70 32 71 33 72 34 73 35 74 59 75 60 76
REMARK SMILES IDX 68 77 61 78 63 79 69 80 62 81 64 82 65 83 66 84 67 85 44 86
REMARK SMILES IDX 45 87 53 88 46 89 48 90 54 91 47 92 49 93 50 94 51 95 52 96
REMARK H PARENT 2 11 74 49 42 60
REMARK Flexibility Score: inf
ROOT
ATOM      1  C   UNL A   1      36.830  30.068  31.829  1.00  0.00     0.188 C 
ENDROOT
BRANCH   1   2
ATOM      2  O   UNL A   1      37.438  30.814  30.813  1.00  0.00    -0.376 OA
BRANCH   2   3
ATOM      3  C   UNL A   1      37.289  32.224  30.779  1.00  0.00     0.202 C 
BRANCH   3   4
ATOM      4  C   UNL A   1      36.150  33.060  31.419  1.00  0.00     0.261 C 
BRANCH   4   5
ATOM      5  O   UNL A   1      36.397  34.410  31.833  1.00  0.00    -0.459 OA
BRANCH   5   6
ATOM      6  C   UNL A   1      35.801  34.825  32.975  1.00  0.00     0.361 C 
ATOM      7  O   UNL A   1      36.398  34.940  34.044  1.00  0.00    -0.245 OA
BRANCH   6   8
ATOM      8  C   UNL A   1      34.330  35.225  32.848  1.00  0.00     0.386 C 
BRANCH   8   9
ATOM      9  N   UNL A   1      33.912  36.314  31.957  1.00  0.00    -0.322 N 
ATOM     10  C   UNL A   1      34.002  37.667  32.455  1.00  0.00     0.333 C 
ATOM     11  H   UNL A   1      34.743  36.271  31.366  1.00  0.00     0.348 HD
BRANCH   9  12
ATOM     12  C   UNL A   1      32.940  36.052  30.889  1.00  0.00     0.345 C 
BRANCH  12  13
ATOM     13  C   UNL A   1      33.441  35.317  29.694  1.00  0.00     0.226 A 
ATOM     14  N   UNL A   1      34.185  36.064  28.336  1.00  0.00    -0.056 NA
ATOM     15  N   UNL A   1      33.599  33.536  29.626  1.00  0.00    -0.186 NA
ATOM     16  O   UNL A   1      34.839  34.443  27.308  1.00  0.00    -0.334 OA
ATOM     17  C   UNL A   1      34.273  33.001  28.337  1.00  0.00     0.259 A 
BRANCH  17  18
ATOM     18  C   UNL A   1      34.258  31.666  27.768  1.00  0.00     0.058 A 
ATOM     19  C   UNL A   1      35.364  30.821  27.920  1.00  0.00     0.015 A 
ATOM     20  C   UNL A   1      33.051  31.125  27.282  1.00  0.00     0.053 A 
ATOM     21  C   UNL A   1      35.234  29.447  27.693  1.00  0.00     0.001 A 
ATOM     22  C   UNL A   1      32.930  29.753  27.051  1.00  0.00     0.021 A 
ATOM     23  Cl  UNL A   1      31.646  32.085  26.946  1.00  0.00    -0.083 Cl
ATOM     24  C   UNL A   1      34.013  28.912  27.283  1.00  0.00     0.002 A 
ENDBRANCH  17  18
ENDBRANCH  12  13
ENDBRANCH   9  12
ENDBRANCH   8   9
ENDBRANCH   6   8
ENDBRANCH   5   6
ENDBRANCH   4   5
ENDBRANCH   3   4
ENDBRANCH   2   3
ENDBRANCH   1   2
BRANCH   1  25
ATOM     25  C   UNL A   1      37.822  29.240  32.816  1.00  0.00     0.188 C 
BRANCH  25  26
ATOM     26  O   UNL A   1      39.044  29.856  34.422  1.00  0.00    -0.376 OA
BRANCH  26  27
ATOM     27  C   UNL A   1      40.613  29.614  34.678  1.00  0.00     0.202 C 
BRANCH  27  28
ATOM     28  C   UNL A   1      41.276  28.827  35.898  1.00  0.00     0.261 C 
BRANCH  28  29
ATOM     29  O   UNL A   1      41.525  27.404  35.807  1.00  0.00    -0.460 OA
BRANCH  29  30
ATOM     30  C   UNL A   1      42.493  26.894  36.612  1.00  0.00     0.338 C 
ATOM     31  O   UNL A   1      42.346  26.497  37.757  1.00  0.00    -0.246 OA
BRANCH  30  32
ATOM     32  C   UNL A   1      43.747  26.689  35.822  1.00  0.00     0.060 A 
ATOM     33  C   UNL A   1      44.387  27.818  35.281  1.00  0.00     0.016 A 
ATOM     34  C   UNL A   1      44.274  25.421  35.578  1.00  0.00     0.016 A 
ATOM     35  C   UNL A   1      45.511  27.686  34.459  1.00  0.00     0.010 A 
ATOM     36  C   UNL A   1      45.379  25.284  34.722  1.00  0.00     0.010 A 
ATOM     37  C   UNL A   1      45.972  26.410  34.116  1.00  0.00    -0.014 A 
BRANCH  37  38
ATOM     38  C   UNL A   1      46.842  26.238  32.919  1.00  0.00     0.031 A 
ATOM     39  C   UNL A   1      48.326  26.445  33.104  1.00  0.00     0.074 A 
ATOM     40  C   UNL A   1      46.368  25.909  31.704  1.00  0.00     0.049 A 
ATOM     41  N   UNL A   1      49.287  26.460  32.217  1.00  0.00    -0.248 NA
ATOM     42  C   UNL A   1      48.784  26.671  34.487  1.00  0.00     0.031 C 
ATOM     43  C   UNL A   1      44.971  25.629  31.382  1.00  0.00     0.029 A 
ATOM     44  N   UNL A   1      47.022  25.787  30.499  1.00  0.00    -0.354 N 
ATOM     45  C   UNL A   1      50.450  26.743  32.925  1.00  0.00     0.074 A 
ATOM     46  C   UNL A   1      50.077  26.892  34.314  1.00  0.00     0.031 C 
ATOM     47  C   UNL A   1      44.865  25.407  30.059  1.00  0.00     0.029 A 
ATOM     48  C   UNL A   1      46.179  25.563  29.433  1.00  0.00     0.049 A 
ATOM     49  H   UNL A   1      48.000  25.851  30.407  1.00  0.00     0.167 HD
ATOM     50  C   UNL A   1      51.720  26.865  32.468  1.00  0.00     0.034 A 
ATOM     51  C   UNL A   1      46.434  25.528  28.107  1.00  0.00     0.034 A 
ATOM     52  C   UNL A   1      52.100  26.705  31.091  1.00  0.00     0.049 A 
ATOM     53  C   UNL A   1      47.848  25.719  27.612  1.00  0.00     0.074 A 
ATOM     54  C   UNL A   1      53.366  26.779  30.537  1.00  0.00     0.029 A 
ATOM     55  N   UNL A   1      51.221  26.458  30.051  1.00  0.00    -0.354 N 
ATOM     56  N   UNL A   1      48.949  25.906  28.299  1.00  0.00    -0.248 NA
ATOM     57  C   UNL A   1      48.059  25.667  26.156  1.00  0.00     0.031 C 
ATOM     58  C   UNL A   1      53.245  26.620  29.153  1.00  0.00     0.029 A 
ATOM     59  C   UNL A   1      51.912  26.392  28.853  1.00  0.00     0.049 A 
ATOM     60  H   UNL A   1      50.247  26.345  30.148  1.00  0.00     0.167 HD
ATOM     61  C   UNL A   1      49.983  25.951  27.366  1.00  0.00     0.074 A 
ATOM     62  C   UNL A   1      49.379  25.756  26.066  1.00  0.00     0.031 C 
ATOM     63  C   UNL A   1      51.311  26.145  27.567  1.00  0.00     0.034 A 
BRANCH  50  64
ATOM     64  C   UNL A   1      52.793  27.195  33.473  1.00  0.00     0.023 A 
ATOM     65  C   UNL A   1      53.494  26.160  34.125  1.00  0.00     0.012 A 
ATOM     66  C   UNL A   1      53.132  28.536  33.743  1.00  0.00     0.148 A 
ATOM     67  C   UNL A   1      54.487  26.455  35.059  1.00  0.00     0.002 A 
ATOM     68  C   UNL A   1      54.157  28.821  34.635  1.00  0.00     0.091 A 
ATOM     69  F   UNL A   1      52.439  29.506  33.129  1.00  0.00    -0.205 F 
ATOM     70  C   UNL A   1      54.825  27.783  35.305  1.00  0.00     0.022 A 
BRANCH  68  71
ATOM     71  S   UNL A   1      54.724  30.494  34.959  1.00  0.00     0.127 S 
ATOM     72  O   UNL A   1      53.478  31.158  35.343  1.00  0.00    -0.237 OA
ATOM     73  O   UNL A   1      55.668  30.289  36.056  1.00  0.00    -0.237 OA
ATOM     74  O   UNL A   1      55.323  30.965  33.718  1.00  0.00    -0.744 OA
ENDBRANCH  68  71
ENDBRANCH  50  64
BRANCH  51  75
ATOM     75  C   UNL A   1      45.324  25.297  27.134  1.00  0.00     0.023 A 
ATOM     76  C   UNL A   1      44.552  26.385  26.683  1.00  0.00     0.012 A 
ATOM     77  C   UNL A   1      45.022  24.003  26.666  1.00  0.00     0.148 A 
ATOM     78  C   UNL A   1      43.479  26.186  25.810  1.00  0.00     0.002 A 
ATOM     79  C   UNL A   1      43.991  23.818  25.753  1.00  0.00     0.091 A 
ATOM     80  F   UNL A   1      45.753  22.976  27.123  1.00  0.00    -0.205 F 
ATOM     81  C   UNL A   1      43.206  24.905  25.338  1.00  0.00     0.022 A 
BRANCH  79  82
ATOM     82  S   UNL A   1      43.637  22.226  25.001  1.00  0.00     0.127 S 
ATOM     83  O   UNL A   1      42.214  22.065  25.291  1.00  0.00    -0.237 OA
ATOM     84  O   UNL A   1      43.954  22.483  23.595  1.00  0.00    -0.237 OA
ATOM     85  O   UNL A   1      44.523  21.273  25.654  1.00  0.00    -0.744 OA
ENDBRANCH  79  82
ENDBRANCH  51  75
BRANCH  63  86
ATOM     86  C   UNL A   1      52.226  26.098  26.368  1.00  0.00     0.023 A 
ATOM     87  C   UNL A   1      52.770  24.872  25.938  1.00  0.00     0.012 A 
ATOM     88  C   UNL A   1      52.480  27.265  25.620  1.00  0.00     0.148 A 
ATOM     89  C   UNL A   1      53.583  24.816  24.805  1.00  0.00     0.002 A 
ATOM     90  C   UNL A   1      53.247  27.192  24.463  1.00  0.00     0.091 A 
ATOM     91  F   UNL A   1      51.966  28.426  26.052  1.00  0.00    -0.205 F 
ATOM     92  C   UNL A   1      53.811  25.972  24.061  1.00  0.00     0.022 A 
BRANCH  90  93
ATOM     93  S   UNL A   1      53.510  28.608  23.388  1.00  0.00     0.127 S 
ATOM     94  O   UNL A   1      52.180  28.794  22.809  1.00  0.00    -0.237 OA
ATOM     95  O   UNL A   1      53.911  29.647  24.338  1.00  0.00    -0.237 OA
ATOM     96  O   UNL A   1      54.549  28.215  22.447  1.00  0.00    -0.744 OA
ENDBRANCH  90  93
ENDBRANCH  63  86
ENDBRANCH  37  38
ENDBRANCH  30  32
ENDBRANCH  29  30
ENDBRANCH  28  29
ENDBRANCH  27  28
ENDBRANCH  26  27
ENDBRANCH  25  26
ENDBRANCH   1  25
TORSDOF 24
ENDMDL
