MODEL 1
REMARK VINA RESULT:     -10.8      0.000      0.000
REMARK SMILES Cc1ccc(C)c(N2C(=O)S[C@H](CC(=O)Nc3ccc(C(=O)OCCOCCOCCOC(=O)c4ccc(-c5c6nc(c(-c7cccc(S(=O)(=O)[O-])c7F)c7ccc([nH]7)c(-c7cccc(S(=O)(=O)[O-])c7F)c7nc(c(-c8cccc(S(=O)(=O)[O-])c8F)c8ccc5[nH]8)C=C7)C=C6)cc4)c(O)c3)C2=O)c1
REMARK SMILES IDX 27 1 26 2 25 3 24 4 23 5 21 6 22 7 20 8 17 9 18 10 100 11
REMARK SMILES IDX 19 12 98 13 16 14 14 15 15 16 13 18 12 19 8 20 9 21 101 22
REMARK SMILES IDX 10 23 11 24 102 25 7 26 1 27 2 28 3 29 103 30 4 31 5 32 6 33
REMARK SMILES IDX 99 34 28 36 29 37 30 38 31 39 32 40 33 41 34 42 35 43 36 44
REMARK SMILES IDX 97 45 37 46 96 47 38 48 39 49 40 50 90 51 41 52 95 53 89 54
REMARK SMILES IDX 91 55 42 56 94 57 88 58 87 59 43 61 75 62 55 63 74 64 56 65
REMARK SMILES IDX 59 66 73 67 92 68 57 69 58 70 72 72 93 73 60 74 44 75 45 76
REMARK SMILES IDX 53 77 46 78 48 79 54 80 47 81 49 82 50 83 51 84 52 85 76 86
REMARK SMILES IDX 77 87 85 88 78 89 80 90 86 91 79 92 81 93 82 94 83 95 84 96
REMARK SMILES IDX 61 97 62 98 70 99 63 100 65 101 71 102 64 103 66 104 67 105
REMARK SMILES IDX 68 106 69 107
REMARK H PARENT 16 17 99 35 91 60 59 71
REMARK Flexibility Score: inf
ROOT
ATOM      1  C   UNL A   1      33.281  36.082  29.864  1.00  0.00     0.188 C 
ENDROOT
BRANCH   1   2
ATOM      2  O   UNL A   1      32.866  34.994  29.034  1.00  0.00    -0.376 OA
BRANCH   2   3
ATOM      3  C   UNL A   1      33.843  34.537  28.090  1.00  0.00     0.202 C 
BRANCH   3   4
ATOM      4  C   UNL A   1      34.358  33.102  28.313  1.00  0.00     0.261 C 
BRANCH   4   5
ATOM      5  O   UNL A   1      33.428  32.070  27.916  1.00  0.00    -0.460 OA
BRANCH   5   6
ATOM      6  C   UNL A   1      34.016  30.908  27.527  1.00  0.00     0.341 C 
ATOM      7  O   UNL A   1      34.957  30.357  28.073  1.00  0.00    -0.246 OA
BRANCH   6   8
ATOM      8  C   UNL A   1      33.270  30.249  26.428  1.00  0.00     0.101 A 
ATOM      9  C   UNL A   1      32.018  28.706  24.434  1.00  0.00     0.044 A 
ATOM     10  C   UNL A   1      33.397  28.678  24.596  1.00  0.00     0.027 A 
ATOM     11  C   UNL A   1      31.289  29.666  25.116  1.00  0.00     0.073 A 
ATOM     12  C   UNL A   1      34.019  29.403  25.614  1.00  0.00     0.022 A 
ATOM     13  C   UNL A   1      31.929  30.453  26.090  1.00  0.00     0.132 A 
BRANCH   9  14
ATOM     14  N   UNL A   1      31.401  27.812  23.546  1.00  0.00    -0.326 N 
ATOM     15  C   UNL A   1      31.680  26.463  23.454  1.00  0.00     0.226 C 
ATOM     16  O   UNL A   1      31.555  25.855  22.392  1.00  0.00    -0.275 OA
ATOM     17  H   UNL A   1      30.714  28.175  22.941  1.00  0.00     0.169 HD
BRANCH  15  18
ATOM     18  C   UNL A   1      31.911  25.718  24.768  1.00  0.00     0.125 C 
BRANCH  18  19
ATOM     19  C   UNL A   1      31.301  24.327  24.887  1.00  0.00     0.156 C 
ATOM     20  N   UNL A   1      33.044  22.803  24.265  1.00  0.00    -0.240 N 
ATOM     21  C   UNL A   1      32.471  23.020  23.034  1.00  0.00     0.293 C 
ATOM     22  C   UNL A   1      32.372  23.341  25.353  1.00  0.00     0.248 C 
ATOM     23  O   UNL A   1      32.936  22.824  21.933  1.00  0.00    -0.261 OA
ATOM     24  S   UNL A   1      30.834  23.609  23.288  1.00  0.00    -0.050 SA
ATOM     25  O   UNL A   1      32.561  23.077  26.536  1.00  0.00    -0.273 OA
BRANCH  20  26
ATOM     26  C   UNL A   1      33.963  21.737  24.387  1.00  0.00     0.056 A 
ATOM     27  C   UNL A   1      33.937  17.925  24.704  1.00  0.00     0.044 C 
ATOM     28  C   UNL A   1      34.386  19.355  24.660  1.00  0.00    -0.049 A 
ATOM     29  C   UNL A   1      35.728  19.640  24.934  1.00  0.00     0.004 A 
ATOM     30  C   UNL A   1      33.500  20.411  24.388  1.00  0.00     0.030 A 
ATOM     31  C   UNL A   1      36.189  20.953  24.927  1.00  0.00     0.006 A 
ATOM     32  C   UNL A   1      35.319  22.017  24.659  1.00  0.00    -0.027 A 
ATOM     33  C   UNL A   1      35.897  23.405  24.712  1.00  0.00     0.046 C 
ENDBRANCH  20  26
ENDBRANCH  18  19
ENDBRANCH  15  18
ENDBRANCH   9  14
BRANCH  13  34
ATOM     34  O   UNL A   1      31.150  31.438  26.606  1.00  0.00    -0.507 OA
ATOM     35  H   UNL A   1      30.599  31.944  26.040  1.00  0.00     0.293 HD
ENDBRANCH  13  34
ENDBRANCH   6   8
ENDBRANCH   5   6
ENDBRANCH   4   5
ENDBRANCH   3   4
ENDBRANCH   2   3
ENDBRANCH   1   2
BRANCH   1  36
ATOM     36  C   UNL A   1      33.001  35.861  31.362  1.00  0.00     0.188 C 
BRANCH  36  37
ATOM     37  O   UNL A   1      33.311  34.531  31.730  1.00  0.00    -0.376 OA
BRANCH  37  38
ATOM     38  C   UNL A   1      34.431  34.342  32.569  1.00  0.00     0.202 C 
BRANCH  38  39
ATOM     39  C   UNL A   1      35.816  34.315  31.907  1.00  0.00     0.261 C 
BRANCH  39  40
ATOM     40  O   UNL A   1      36.178  33.293  30.940  1.00  0.00    -0.460 OA
BRANCH  40  41
ATOM     41  C   UNL A   1      36.391  31.965  31.098  1.00  0.00     0.338 C 
ATOM     42  O   UNL A   1      35.623  31.259  31.740  1.00  0.00    -0.246 OA
BRANCH  41  43
ATOM     43  C   UNL A   1      37.685  31.448  30.661  1.00  0.00     0.060 A 
ATOM     44  C   UNL A   1      37.663  30.127  30.244  1.00  0.00     0.016 A 
ATOM     45  C   UNL A   1      38.892  32.141  30.841  1.00  0.00     0.016 A 
ATOM     46  C   UNL A   1      38.859  29.448  30.242  1.00  0.00     0.010 A 
ATOM     47  C   UNL A   1      40.101  31.437  30.782  1.00  0.00     0.010 A 
ATOM     48  C   UNL A   1      40.070  30.063  30.557  1.00  0.00    -0.014 A 
BRANCH  48  49
ATOM     49  C   UNL A   1      41.225  29.163  30.474  1.00  0.00     0.031 A 
ATOM     50  C   UNL A   1      41.806  28.821  31.798  1.00  0.00     0.074 A 
ATOM     51  C   UNL A   1      41.812  28.745  29.333  1.00  0.00     0.049 A 
ATOM     52  N   UNL A   1      42.996  29.098  32.245  1.00  0.00    -0.248 NA
ATOM     53  C   UNL A   1      40.886  28.268  32.801  1.00  0.00     0.031 C 
ATOM     54  C   UNL A   1      41.296  28.891  27.975  1.00  0.00     0.029 A 
ATOM     55  N   UNL A   1      42.953  27.997  29.162  1.00  0.00    -0.354 N 
ATOM     56  C   UNL A   1      43.042  28.492  33.497  1.00  0.00     0.074 A 
ATOM     57  C   UNL A   1      41.681  28.183  33.864  1.00  0.00     0.031 C 
ATOM     58  C   UNL A   1      41.971  28.055  27.158  1.00  0.00     0.029 A 
ATOM     59  C   UNL A   1      43.003  27.371  27.920  1.00  0.00     0.049 A 
ATOM     60  H   UNL A   1      43.659  27.914  29.844  1.00  0.00     0.167 HD
ATOM     61  C   UNL A   1      44.186  28.030  34.061  1.00  0.00     0.034 A 
ATOM     62  C   UNL A   1      43.729  26.277  27.578  1.00  0.00     0.034 A 
ATOM     63  C   UNL A   1      45.384  28.595  33.533  1.00  0.00     0.049 A 
ATOM     64  C   UNL A   1      44.849  26.132  28.530  1.00  0.00     0.074 A 
ATOM     65  C   UNL A   1      45.921  29.861  33.433  1.00  0.00     0.029 A 
ATOM     66  N   UNL A   1      46.169  27.788  32.752  1.00  0.00    -0.354 N 
ATOM     67  N   UNL A   1      45.911  26.887  28.544  1.00  0.00    -0.248 NA
ATOM     68  C   UNL A   1      44.644  25.312  29.713  1.00  0.00     0.031 C 
ATOM     69  C   UNL A   1      46.743  29.834  32.272  1.00  0.00     0.029 A 
ATOM     70  C   UNL A   1      46.667  28.551  31.731  1.00  0.00     0.049 A 
ATOM     71  H   UNL A   1      46.343  26.830  32.898  1.00  0.00     0.167 HD
ATOM     72  C   UNL A   1      46.263  26.959  29.884  1.00  0.00     0.074 A 
ATOM     73  C   UNL A   1      45.525  25.884  30.533  1.00  0.00     0.031 C 
ATOM     74  C   UNL A   1      46.890  28.060  30.390  1.00  0.00     0.034 A 
BRANCH  61  75
ATOM     75  C   UNL A   1      44.156  26.777  34.882  1.00  0.00     0.023 A 
ATOM     76  C   UNL A   1      43.787  25.553  34.307  1.00  0.00     0.012 A 
ATOM     77  C   UNL A   1      44.335  26.814  36.283  1.00  0.00     0.148 A 
ATOM     78  C   UNL A   1      43.683  24.399  35.095  1.00  0.00     0.002 A 
ATOM     79  C   UNL A   1      44.374  25.652  37.030  1.00  0.00     0.091 A 
ATOM     80  F   UNL A   1      44.370  27.995  36.919  1.00  0.00    -0.205 F 
ATOM     81  C   UNL A   1      44.024  24.437  36.447  1.00  0.00     0.022 A 
BRANCH  79  82
ATOM     82  S   UNL A   1      45.020  25.704  38.702  1.00  0.00     0.127 S 
ATOM     83  O   UNL A   1      44.009  26.493  39.393  1.00  0.00    -0.237 OA
ATOM     84  O   UNL A   1      45.062  24.286  39.062  1.00  0.00    -0.237 OA
ATOM     85  O   UNL A   1      46.340  26.312  38.556  1.00  0.00    -0.744 OA
ENDBRANCH  79  82
ENDBRANCH  61  75
BRANCH  62  86
ATOM     86  C   UNL A   1      43.362  25.181  26.644  1.00  0.00     0.023 A 
ATOM     87  C   UNL A   1      44.084  24.998  25.447  1.00  0.00     0.012 A 
ATOM     88  C   UNL A   1      42.476  24.154  27.040  1.00  0.00     0.148 A 
ATOM     89  C   UNL A   1      43.938  23.830  24.685  1.00  0.00     0.002 A 
ATOM     90  C   UNL A   1      42.309  23.013  26.264  1.00  0.00     0.091 A 
ATOM     91  F   UNL A   1      41.872  24.236  28.231  1.00  0.00    -0.205 F 
ATOM     92  C   UNL A   1      43.048  22.838  25.091  1.00  0.00     0.022 A 
BRANCH  90  93
ATOM     93  S   UNL A   1      41.163  21.717  26.751  1.00  0.00     0.127 S 
ATOM     94  O   UNL A   1      39.971  22.482  27.120  1.00  0.00    -0.237 OA
ATOM     95  O   UNL A   1      41.038  20.943  25.520  1.00  0.00    -0.237 OA
ATOM     96  O   UNL A   1      41.797  21.036  27.874  1.00  0.00    -0.744 OA
ENDBRANCH  90  93
ENDBRANCH  62  86
BRANCH  74  97
ATOM     97  C   UNL A   1      47.604  28.985  29.444  1.00  0.00     0.023 A 
ATOM     98  C   UNL A   1      48.967  28.844  29.125  1.00  0.00     0.012 A 
ATOM     99  C   UNL A   1      46.831  29.930  28.742  1.00  0.00     0.148 A 
ATOM    100  C   UNL A   1      49.554  29.643  28.139  1.00  0.00     0.002 A 
ATOM    101  C   UNL A   1      47.407  30.692  27.735  1.00  0.00     0.091 A 
ATOM    102  F   UNL A   1      45.534  30.054  29.066  1.00  0.00    -0.205 F 
ATOM    103  C   UNL A   1      48.771  30.556  27.435  1.00  0.00     0.022 A 
BRANCH 101 104
ATOM    104  S   UNL A   1      46.431  31.811  26.725  1.00  0.00     0.127 S 
ATOM    105  O   UNL A   1      47.460  32.674  26.146  1.00  0.00    -0.237 OA
ATOM    106  O   UNL A   1      45.790  30.903  25.774  1.00  0.00    -0.237 OA
ATOM    107  O   UNL A   1      45.505  32.472  27.636  1.00  0.00    -0.744 OA
ENDBRANCH 101 104
ENDBRANCH  74  97
ENDBRANCH  48  49
ENDBRANCH  41  43
ENDBRANCH  40  41
ENDBRANCH  39  40
ENDBRANCH  38  39
ENDBRANCH  37  38
ENDBRANCH  36  37
ENDBRANCH   1  36
TORSDOF 25
ENDMDL
MODEL 2
REMARK VINA RESULT:     -10.6      1.803      2.347
REMARK SMILES Cc1ccc(C)c(N2C(=O)S[C@H](CC(=O)Nc3ccc(C(=O)OCCOCCOCCOC(=O)c4ccc(-c5c6nc(c(-c7cccc(S(=O)(=O)[O-])c7F)c7ccc([nH]7)c(-c7cccc(S(=O)(=O)[O-])c7F)c7nc(c(-c8cccc(S(=O)(=O)[O-])c8F)c8ccc5[nH]8)C=C7)C=C6)cc4)c(O)c3)C2=O)c1
REMARK SMILES IDX 27 1 26 2 25 3 24 4 23 5 21 6 22 7 20 8 17 9 18 10 100 11
REMARK SMILES IDX 19 12 98 13 16 14 14 15 15 16 13 18 12 19 8 20 9 21 101 22
REMARK SMILES IDX 10 23 11 24 102 25 7 26 1 27 2 28 3 29 103 30 4 31 5 32 6 33
REMARK SMILES IDX 99 34 28 36 29 37 30 38 31 39 32 40 33 41 34 42 35 43 36 44
REMARK SMILES IDX 97 45 37 46 96 47 38 48 39 49 40 50 90 51 41 52 95 53 89 54
REMARK SMILES IDX 91 55 42 56 94 57 88 58 87 59 43 61 75 62 55 63 74 64 56 65
REMARK SMILES IDX 59 66 73 67 92 68 57 69 58 70 72 72 93 73 60 74 44 75 45 76
REMARK SMILES IDX 53 77 46 78 48 79 54 80 47 81 49 82 50 83 51 84 52 85 76 86
REMARK SMILES IDX 77 87 85 88 78 89 80 90 86 91 79 92 81 93 82 94 83 95 84 96
REMARK SMILES IDX 61 97 62 98 70 99 63 100 65 101 71 102 64 103 66 104 67 105
REMARK SMILES IDX 68 106 69 107
REMARK H PARENT 16 17 99 35 91 60 59 71
REMARK Flexibility Score: inf
ROOT
ATOM      1  C   UNL A   1      34.249  34.579  29.915  1.00  0.00     0.188 C 
ENDROOT
BRANCH   1   2
ATOM      2  O   UNL A   1      33.045  34.724  29.159  1.00  0.00    -0.376 OA
BRANCH   2   3
ATOM      3  C   UNL A   1      32.929  33.861  28.020  1.00  0.00     0.202 C 
BRANCH   3   4
ATOM      4  C   UNL A   1      34.068  32.838  27.848  1.00  0.00     0.261 C 
BRANCH   4   5
ATOM      5  O   UNL A   1      33.686  31.472  28.125  1.00  0.00    -0.460 OA
BRANCH   5   6
ATOM      6  C   UNL A   1      34.428  30.540  27.471  1.00  0.00     0.341 C 
ATOM      7  O   UNL A   1      35.645  30.455  27.473  1.00  0.00    -0.246 OA
BRANCH   6   8
ATOM      8  C   UNL A   1      33.584  29.483  26.864  1.00  0.00     0.101 A 
ATOM      9  C   UNL A   1      32.083  27.274  25.974  1.00  0.00     0.044 A 
ATOM     10  C   UNL A   1      33.428  27.140  26.295  1.00  0.00     0.027 A 
ATOM     11  C   UNL A   1      31.546  28.547  25.885  1.00  0.00     0.073 A 
ATOM     12  C   UNL A   1      34.165  28.221  26.783  1.00  0.00     0.022 A 
ATOM     13  C   UNL A   1      32.313  29.649  26.305  1.00  0.00     0.132 A 
BRANCH   9  14
ATOM     14  N   UNL A   1      31.316  26.134  25.689  1.00  0.00    -0.326 N 
ATOM     15  C   UNL A   1      31.644  25.167  24.759  1.00  0.00     0.226 C 
ATOM     16  O   UNL A   1      30.775  24.527  24.169  1.00  0.00    -0.275 OA
ATOM     17  H   UNL A   1      30.478  26.014  26.191  1.00  0.00     0.169 HD
BRANCH  15  18
ATOM     18  C   UNL A   1      33.114  24.762  24.680  1.00  0.00     0.125 C 
BRANCH  18  19
ATOM     19  C   UNL A   1      33.586  23.688  25.654  1.00  0.00     0.156 C 
ATOM     20  N   UNL A   1      32.582  21.647  24.899  1.00  0.00    -0.240 N 
ATOM     21  C   UNL A   1      31.603  22.087  25.758  1.00  0.00     0.293 C 
ATOM     22  C   UNL A   1      33.768  22.368  24.906  1.00  0.00     0.248 C 
ATOM     23  O   UNL A   1      30.439  21.759  25.815  1.00  0.00    -0.261 OA
ATOM     24  S   UNL A   1      32.330  23.229  26.879  1.00  0.00    -0.050 SA
ATOM     25  O   UNL A   1      34.838  22.026  24.414  1.00  0.00    -0.273 OA
BRANCH  20  26
ATOM     26  C   UNL A   1      32.503  20.315  24.433  1.00  0.00     0.056 A 
ATOM     27  C   UNL A   1      33.265  16.775  25.666  1.00  0.00     0.044 C 
ATOM     28  C   UNL A   1      32.895  17.940  24.798  1.00  0.00    -0.049 A 
ATOM     29  C   UNL A   1      32.646  17.707  23.441  1.00  0.00     0.004 A 
ATOM     30  C   UNL A   1      32.825  19.253  25.293  1.00  0.00     0.030 A 
ATOM     31  C   UNL A   1      32.321  18.758  22.589  1.00  0.00     0.006 A 
ATOM     32  C   UNL A   1      32.248  20.072  23.067  1.00  0.00    -0.027 A 
ATOM     33  C   UNL A   1      31.928  21.149  22.067  1.00  0.00     0.046 C 
ENDBRANCH  20  26
ENDBRANCH  18  19
ENDBRANCH  15  18
ENDBRANCH   9  14
BRANCH  13  34
ATOM     34  O   UNL A   1      31.734  30.853  26.060  1.00  0.00    -0.507 OA
ATOM     35  H   UNL A   1      32.229  31.641  26.170  1.00  0.00     0.293 HD
ENDBRANCH  13  34
ENDBRANCH   6   8
ENDBRANCH   5   6
ENDBRANCH   4   5
ENDBRANCH   3   4
ENDBRANCH   2   3
ENDBRANCH   1   2
BRANCH   1  36
ATOM     36  C   UNL A   1      34.022  34.505  31.436  1.00  0.00     0.188 C 
BRANCH  36  37
ATOM     37  O   UNL A   1      33.925  33.158  31.855  1.00  0.00    -0.376 OA
BRANCH  37  38
ATOM     38  C   UNL A   1      34.992  32.300  31.510  1.00  0.00     0.202 C 
BRANCH  38  39
ATOM     39  C   UNL A   1      36.382  32.636  32.069  1.00  0.00     0.261 C 
BRANCH  39  40
ATOM     40  O   UNL A   1      37.456  33.102  31.209  1.00  0.00    -0.460 OA
BRANCH  40  41
ATOM     41  C   UNL A   1      37.818  32.717  29.962  1.00  0.00     0.338 C 
ATOM     42  O   UNL A   1      37.081  32.877  28.996  1.00  0.00    -0.246 OA
BRANCH  41  43
ATOM     43  C   UNL A   1      39.025  31.902  29.848  1.00  0.00     0.060 A 
ATOM     44  C   UNL A   1      38.788  30.549  29.666  1.00  0.00     0.016 A 
ATOM     45  C   UNL A   1      40.313  32.393  30.109  1.00  0.00     0.016 A 
ATOM     46  C   UNL A   1      39.807  29.684  29.984  1.00  0.00     0.010 A 
ATOM     47  C   UNL A   1      41.349  31.489  30.378  1.00  0.00     0.010 A 
ATOM     48  C   UNL A   1      41.066  30.125  30.390  1.00  0.00    -0.014 A 
BRANCH  48  49
ATOM     49  C   UNL A   1      42.012  29.038  30.660  1.00  0.00     0.031 A 
ATOM     50  C   UNL A   1      42.438  28.963  32.082  1.00  0.00     0.074 A 
ATOM     51  C   UNL A   1      42.559  28.226  29.732  1.00  0.00     0.049 A 
ATOM     52  N   UNL A   1      43.634  29.123  32.568  1.00  0.00    -0.248 NA
ATOM     53  C   UNL A   1      41.371  28.882  33.089  1.00  0.00     0.031 C 
ATOM     54  C   UNL A   1      42.157  28.095  28.334  1.00  0.00     0.029 A 
ATOM     55  N   UNL A   1      43.527  27.262  29.877  1.00  0.00    -0.354 N 
ATOM     56  C   UNL A   1      43.487  28.880  33.930  1.00  0.00     0.074 A 
ATOM     57  C   UNL A   1      42.074  28.940  34.217  1.00  0.00     0.031 C 
ATOM     58  C   UNL A   1      42.687  26.959  27.831  1.00  0.00     0.029 A 
ATOM     59  C   UNL A   1      43.513  26.326  28.847  1.00  0.00     0.049 A 
ATOM     60  H   UNL A   1      44.163  27.235  30.629  1.00  0.00     0.167 HD
ATOM     61  C   UNL A   1      44.479  28.382  34.711  1.00  0.00     0.034 A 
ATOM     62  C   UNL A   1      44.013  25.065  28.872  1.00  0.00     0.034 A 
ATOM     63  C   UNL A   1      45.794  28.551  34.187  1.00  0.00     0.049 A 
ATOM     64  C   UNL A   1      45.027  24.976  29.943  1.00  0.00     0.074 A 
ATOM     65  C   UNL A   1      46.587  29.621  33.827  1.00  0.00     0.029 A 
ATOM     66  N   UNL A   1      46.435  27.432  33.723  1.00  0.00    -0.354 N 
ATOM     67  N   UNL A   1      46.219  25.496  29.878  1.00  0.00    -0.248 NA
ATOM     68  C   UNL A   1      44.593  24.557  31.266  1.00  0.00     0.031 C 
ATOM     69  C   UNL A   1      47.446  29.130  32.804  1.00  0.00     0.029 A 
ATOM     70  C   UNL A   1      47.134  27.786  32.601  1.00  0.00     0.049 A 
ATOM     71  H   UNL A   1      46.398  26.534  34.124  1.00  0.00     0.167 HD
ATOM     72  C   UNL A   1      46.507  25.859  31.185  1.00  0.00     0.074 A 
ATOM     73  C   UNL A   1      45.529  25.155  32.003  1.00  0.00     0.031 C 
ATOM     74  C   UNL A   1      47.321  26.919  31.460  1.00  0.00     0.034 A 
BRANCH  61  75
ATOM     75  C   UNL A   1      44.146  27.425  35.814  1.00  0.00     0.023 A 
ATOM     76  C   UNL A   1      43.251  26.368  35.599  1.00  0.00     0.012 A 
ATOM     77  C   UNL A   1      44.587  27.649  37.137  1.00  0.00     0.148 A 
ATOM     78  C   UNL A   1      42.880  25.522  36.653  1.00  0.00     0.002 A 
ATOM     79  C   UNL A   1      44.337  26.732  38.140  1.00  0.00     0.091 A 
ATOM     80  F   UNL A   1      45.174  28.813  37.456  1.00  0.00    -0.205 F 
ATOM     81  C   UNL A   1      43.461  25.673  37.913  1.00  0.00     0.022 A 
BRANCH  79  82
ATOM     82  S   UNL A   1      45.260  26.832  39.673  1.00  0.00     0.127 S 
ATOM     83  O   UNL A   1      46.612  26.514  39.234  1.00  0.00    -0.237 OA
ATOM     84  O   UNL A   1      45.044  28.223  40.075  1.00  0.00    -0.237 OA
ATOM     85  O   UNL A   1      44.609  25.860  40.547  1.00  0.00    -0.744 OA
ENDBRANCH  79  82
ENDBRANCH  61  75
BRANCH  62  86
ATOM     86  C   UNL A   1      43.476  23.846  28.212  1.00  0.00     0.023 A 
ATOM     87  C   UNL A   1      42.149  23.437  28.449  1.00  0.00     0.012 A 
ATOM     88  C   UNL A   1      44.174  23.228  27.150  1.00  0.00     0.148 A 
ATOM     89  C   UNL A   1      41.538  22.460  27.650  1.00  0.00     0.002 A 
ATOM     90  C   UNL A   1      43.577  22.236  26.381  1.00  0.00     0.091 A 
ATOM     91  F   UNL A   1      45.389  23.680  26.816  1.00  0.00    -0.205 F 
ATOM     92  C   UNL A   1      42.252  21.856  26.617  1.00  0.00     0.022 A 
BRANCH  90  93
ATOM     93  S   UNL A   1      44.471  21.429  25.047  1.00  0.00     0.127 S 
ATOM     94  O   UNL A   1      43.768  20.150  24.936  1.00  0.00    -0.237 OA
ATOM     95  O   UNL A   1      44.252  22.348  23.935  1.00  0.00    -0.237 OA
ATOM     96  O   UNL A   1      45.846  21.307  25.516  1.00  0.00    -0.744 OA
ENDBRANCH  90  93
ENDBRANCH  62  86
BRANCH  74  97
ATOM     97  C   UNL A   1      48.260  27.406  30.391  1.00  0.00     0.023 A 
ATOM     98  C   UNL A   1      49.589  26.954  30.282  1.00  0.00     0.012 A 
ATOM     99  C   UNL A   1      47.732  28.229  29.379  1.00  0.00     0.148 A 
ATOM    100  C   UNL A   1      50.382  27.331  29.195  1.00  0.00     0.002 A 
ATOM    101  C   UNL A   1      48.509  28.567  28.279  1.00  0.00     0.091 A 
ATOM    102  F   UNL A   1      46.465  28.655  29.505  1.00  0.00    -0.205 F 
ATOM    103  C   UNL A   1      49.838  28.126  28.187  1.00  0.00     0.022 A 
BRANCH 101 104
ATOM    104  S   UNL A   1      47.836  29.503  26.902  1.00  0.00     0.127 S 
ATOM    105  O   UNL A   1      46.438  29.666  27.299  1.00  0.00    -0.237 OA
ATOM    106  O   UNL A   1      48.628  30.733  26.937  1.00  0.00    -0.237 OA
ATOM    107  O   UNL A   1      48.056  28.686  25.715  1.00  0.00    -0.744 OA
ENDBRANCH 101 104
ENDBRANCH  74  97
ENDBRANCH  48  49
ENDBRANCH  41  43
ENDBRANCH  40  41
ENDBRANCH  39  40
ENDBRANCH  38  39
ENDBRANCH  37  38
ENDBRANCH  36  37
ENDBRANCH   1  36
TORSDOF 25
ENDMDL
MODEL 3
REMARK VINA RESULT:     -10.5      2.399      6.399
REMARK SMILES Cc1ccc(C)c(N2C(=O)S[C@H](CC(=O)Nc3ccc(C(=O)OCCOCCOCCOC(=O)c4ccc(-c5c6nc(c(-c7cccc(S(=O)(=O)[O-])c7F)c7ccc([nH]7)c(-c7cccc(S(=O)(=O)[O-])c7F)c7nc(c(-c8cccc(S(=O)(=O)[O-])c8F)c8ccc5[nH]8)C=C7)C=C6)cc4)c(O)c3)C2=O)c1
REMARK SMILES IDX 27 1 26 2 25 3 24 4 23 5 21 6 22 7 20 8 17 9 18 10 100 11
REMARK SMILES IDX 19 12 98 13 16 14 14 15 15 16 13 18 12 19 8 20 9 21 101 22
REMARK SMILES IDX 10 23 11 24 102 25 7 26 1 27 2 28 3 29 103 30 4 31 5 32 6 33
REMARK SMILES IDX 99 34 28 36 29 37 30 38 31 39 32 40 33 41 34 42 35 43 36 44
REMARK SMILES IDX 97 45 37 46 96 47 38 48 39 49 40 50 90 51 41 52 95 53 89 54
REMARK SMILES IDX 91 55 42 56 94 57 88 58 87 59 43 61 75 62 55 63 74 64 56 65
REMARK SMILES IDX 59 66 73 67 92 68 57 69 58 70 72 72 93 73 60 74 44 75 45 76
REMARK SMILES IDX 53 77 46 78 48 79 54 80 47 81 49 82 50 83 51 84 52 85 76 86
REMARK SMILES IDX 77 87 85 88 78 89 80 90 86 91 79 92 81 93 82 94 83 95 84 96
REMARK SMILES IDX 61 97 62 98 70 99 63 100 65 101 71 102 64 103 66 104 67 105
REMARK SMILES IDX 68 106 69 107
REMARK H PARENT 16 17 99 35 91 60 59 71
REMARK Flexibility Score: inf
ROOT
ATOM      1  C   UNL A   1      34.223  34.576  29.951  1.00  0.00     0.188 C 
ENDROOT
BRANCH   1   2
ATOM      2  O   UNL A   1      33.055  34.290  29.179  1.00  0.00    -0.376 OA
BRANCH   2   3
ATOM      3  C   UNL A   1      33.298  33.667  27.910  1.00  0.00     0.202 C 
BRANCH   3   4
ATOM      4  C   UNL A   1      33.906  32.253  27.974  1.00  0.00     0.261 C 
BRANCH   4   5
ATOM      5  O   UNL A   1      33.038  31.209  27.477  1.00  0.00    -0.460 OA
BRANCH   5   6
ATOM      6  C   UNL A   1      33.684  30.068  27.122  1.00  0.00     0.341 C 
ATOM      7  O   UNL A   1      34.464  29.434  27.814  1.00  0.00    -0.246 OA
BRANCH   6   8
ATOM      8  C   UNL A   1      33.205  29.541  25.821  1.00  0.00     0.101 A 
ATOM      9  C   UNL A   1      32.415  28.233  23.457  1.00  0.00     0.044 A 
ATOM     10  C   UNL A   1      33.705  28.091  23.954  1.00  0.00     0.027 A 
ATOM     11  C   UNL A   1      31.591  29.197  24.014  1.00  0.00     0.073 A 
ATOM     12  C   UNL A   1      34.088  28.698  25.151  1.00  0.00     0.022 A 
ATOM     13  C   UNL A   1      32.007  29.867  25.179  1.00  0.00     0.132 A 
BRANCH   9  14
ATOM     14  N   UNL A   1      31.994  27.449  22.372  1.00  0.00    -0.326 N 
ATOM     15  C   UNL A   1      31.855  26.075  22.391  1.00  0.00     0.226 C 
ATOM     16  O   UNL A   1      32.015  25.402  21.374  1.00  0.00    -0.275 OA
ATOM     17  H   UNL A   1      31.782  27.914  21.531  1.00  0.00     0.169 HD
BRANCH  15  18
ATOM     18  C   UNL A   1      31.260  25.463  23.657  1.00  0.00     0.125 C 
BRANCH  18  19
ATOM     19  C   UNL A   1      32.243  25.000  24.726  1.00  0.00     0.156 C 
ATOM     20  N   UNL A   1      32.190  22.605  24.659  1.00  0.00    -0.240 N 
ATOM     21  C   UNL A   1      31.197  22.836  25.581  1.00  0.00     0.293 C 
ATOM     22  C   UNL A   1      32.927  23.713  24.265  1.00  0.00     0.248 C 
ATOM     23  O   UNL A   1      30.309  22.097  25.944  1.00  0.00    -0.261 OA
ATOM     24  S   UNL A   1      31.435  24.444  26.252  1.00  0.00    -0.050 SA
ATOM     25  O   UNL A   1      33.990  23.709  23.653  1.00  0.00    -0.273 OA
BRANCH  20  26
ATOM     26  C   UNL A   1      32.670  21.283  24.522  1.00  0.00     0.056 A 
ATOM     27  C   UNL A   1      32.199  18.265  22.219  1.00  0.00     0.044 C 
ATOM     28  C   UNL A   1      32.623  19.146  23.356  1.00  0.00    -0.049 A 
ATOM     29  C   UNL A   1      33.361  18.578  24.399  1.00  0.00     0.004 A 
ATOM     30  C   UNL A   1      32.274  20.506  23.421  1.00  0.00     0.030 A 
ATOM     31  C   UNL A   1      33.759  19.349  25.488  1.00  0.00     0.006 A 
ATOM     32  C   UNL A   1      33.419  20.704  25.569  1.00  0.00    -0.027 A 
ATOM     33  C   UNL A   1      33.858  21.450  26.799  1.00  0.00     0.046 C 
ENDBRANCH  20  26
ENDBRANCH  18  19
ENDBRANCH  15  18
ENDBRANCH   9  14
BRANCH  13  34
ATOM     34  O   UNL A   1      31.178  30.871  25.565  1.00  0.00    -0.507 OA
ATOM     35  H   UNL A   1      31.137  31.663  25.065  1.00  0.00     0.293 HD
ENDBRANCH  13  34
ENDBRANCH   6   8
ENDBRANCH   5   6
ENDBRANCH   4   5
ENDBRANCH   3   4
ENDBRANCH   2   3
ENDBRANCH   1   2
BRANCH   1  36
ATOM     36  C   UNL A   1      33.959  34.662  31.466  1.00  0.00     0.188 C 
BRANCH  36  37
ATOM     37  O   UNL A   1      34.505  33.537  32.126  1.00  0.00    -0.376 OA
BRANCH  37  38
ATOM     38  C   UNL A   1      35.731  33.036  31.635  1.00  0.00     0.202 C 
BRANCH  38  39
ATOM     39  C   UNL A   1      36.034  31.549  31.869  1.00  0.00     0.261 C 
BRANCH  39  40
ATOM     40  O   UNL A   1      36.433  31.050  33.174  1.00  0.00    -0.460 OA
BRANCH  40  41
ATOM     41  C   UNL A   1      37.478  31.388  33.965  1.00  0.00     0.338 C 
ATOM     42  O   UNL A   1      37.325  32.015  35.007  1.00  0.00    -0.246 OA
BRANCH  41  43
ATOM     43  C   UNL A   1      38.816  31.170  33.420  1.00  0.00     0.060 A 
ATOM     44  C   UNL A   1      38.848  30.391  32.275  1.00  0.00     0.016 A 
ATOM     45  C   UNL A   1      39.991  31.529  34.097  1.00  0.00     0.016 A 
ATOM     46  C   UNL A   1      40.041  29.785  31.960  1.00  0.00     0.010 A 
ATOM     47  C   UNL A   1      41.205  30.937  33.723  1.00  0.00     0.010 A 
ATOM     48  C   UNL A   1      41.207  29.999  32.694  1.00  0.00    -0.014 A 
BRANCH  48  49
ATOM     49  C   UNL A   1      42.371  29.272  32.176  1.00  0.00     0.031 A 
ATOM     50  C   UNL A   1      43.031  29.952  31.031  1.00  0.00     0.074 A 
ATOM     51  C   UNL A   1      42.780  28.054  32.586  1.00  0.00     0.049 A 
ATOM     52  N   UNL A   1      43.154  29.521  29.809  1.00  0.00    -0.248 NA
ATOM     53  C   UNL A   1      43.437  31.349  31.235  1.00  0.00     0.031 C 
ATOM     54  C   UNL A   1      42.319  27.323  33.763  1.00  0.00     0.029 A 
ATOM     55  N   UNL A   1      43.783  27.257  32.088  1.00  0.00    -0.354 N 
ATOM     56  C   UNL A   1      43.909  30.503  29.174  1.00  0.00     0.074 A 
ATOM     57  C   UNL A   1      43.877  31.671  30.021  1.00  0.00     0.031 C 
ATOM     58  C   UNL A   1      43.193  26.329  34.031  1.00  0.00     0.029 A 
ATOM     59  C   UNL A   1      44.229  26.316  33.011  1.00  0.00     0.049 A 
ATOM     60  H   UNL A   1      44.147  27.342  31.176  1.00  0.00     0.167 HD
ATOM     61  C   UNL A   1      44.738  30.249  28.131  1.00  0.00     0.034 A 
ATOM     62  C   UNL A   1      45.426  25.677  33.022  1.00  0.00     0.034 A 
ATOM     63  C   UNL A   1      44.460  29.041  27.426  1.00  0.00     0.049 A 
ATOM     64  C   UNL A   1      45.998  25.712  31.660  1.00  0.00     0.074 A 
ATOM     65  C   UNL A   1      43.389  28.528  26.725  1.00  0.00     0.029 A 
ATOM     66  N   UNL A   1      45.341  28.003  27.584  1.00  0.00    -0.354 N 
ATOM     67  N   UNL A   1      45.573  24.993  30.661  1.00  0.00    -0.248 NA
ATOM     68  C   UNL A   1      46.879  26.815  31.314  1.00  0.00     0.031 C 
ATOM     69  C   UNL A   1      43.487  27.115  26.863  1.00  0.00     0.029 A 
ATOM     70  C   UNL A   1      44.616  26.844  27.634  1.00  0.00     0.049 A 
ATOM     71  H   UNL A   1      46.320  28.079  27.650  1.00  0.00     0.167 HD
ATOM     72  C   UNL A   1      45.778  25.798  29.549  1.00  0.00     0.074 A 
ATOM     73  C   UNL A   1      46.684  26.846  29.996  1.00  0.00     0.031 C 
ATOM     74  C   UNL A   1      44.969  25.707  28.454  1.00  0.00     0.034 A 
BRANCH  61  75
ATOM     75  C   UNL A   1      46.031  30.996  28.011  1.00  0.00     0.023 A 
ATOM     76  C   UNL A   1      46.339  31.711  26.845  1.00  0.00     0.012 A 
ATOM     77  C   UNL A   1      47.043  30.873  28.989  1.00  0.00     0.148 A 
ATOM     78  C   UNL A   1      47.582  32.343  26.705  1.00  0.00     0.002 A 
ATOM     79  C   UNL A   1      48.206  31.615  28.912  1.00  0.00     0.091 A 
ATOM     80  F   UNL A   1      46.924  29.953  29.958  1.00  0.00    -0.205 F 
ATOM     81  C   UNL A   1      48.497  32.338  27.757  1.00  0.00     0.022 A 
BRANCH  79  82
ATOM     82  S   UNL A   1      49.255  31.757  30.359  1.00  0.00     0.127 S 
ATOM     83  O   UNL A   1      49.780  30.404  30.487  1.00  0.00    -0.237 OA
ATOM     84  O   UNL A   1      50.227  32.768  29.940  1.00  0.00    -0.237 OA
ATOM     85  O   UNL A   1      48.351  32.212  31.413  1.00  0.00    -0.744 OA
ENDBRANCH  79  82
ENDBRANCH  61  75
BRANCH  62  86
ATOM     86  C   UNL A   1      46.245  25.272  34.195  1.00  0.00     0.023 A 
ATOM     87  C   UNL A   1      46.724  26.245  35.095  1.00  0.00     0.012 A 
ATOM     88  C   UNL A   1      46.342  23.916  34.580  1.00  0.00     0.148 A 
ATOM     89  C   UNL A   1      47.266  25.880  36.336  1.00  0.00     0.002 A 
ATOM     90  C   UNL A   1      46.911  23.556  35.797  1.00  0.00     0.091 A 
ATOM     91  F   UNL A   1      45.784  22.976  33.809  1.00  0.00    -0.205 F 
ATOM     92  C   UNL A   1      47.362  24.535  36.686  1.00  0.00     0.022 A 
BRANCH  90  93
ATOM     93  S   UNL A   1      47.061  21.831  36.278  1.00  0.00     0.127 S 
ATOM     94  O   UNL A   1      47.955  21.300  35.248  1.00  0.00    -0.237 OA
ATOM     95  O   UNL A   1      47.652  21.936  37.608  1.00  0.00    -0.237 OA
ATOM     96  O   UNL A   1      45.708  21.290  36.221  1.00  0.00    -0.744 OA
ENDBRANCH  90  93
ENDBRANCH  62  86
BRANCH  74  97
ATOM     97  C   UNL A   1      44.159  24.456  28.254  1.00  0.00     0.023 A 
ATOM     98  C   UNL A   1      43.015  24.160  29.018  1.00  0.00     0.012 A 
ATOM     99  C   UNL A   1      44.482  23.633  27.158  1.00  0.00     0.148 A 
ATOM    100  C   UNL A   1      42.218  23.054  28.707  1.00  0.00     0.002 A 
ATOM    101  C   UNL A   1      43.665  22.561  26.826  1.00  0.00     0.091 A 
ATOM    102  F   UNL A   1      45.581  23.929  26.446  1.00  0.00    -0.205 F 
ATOM    103  C   UNL A   1      42.535  22.264  27.604  1.00  0.00     0.022 A 
BRANCH 101 104
ATOM    104  S   UNL A   1      43.963  21.567  25.361  1.00  0.00     0.127 S 
ATOM    105  O   UNL A   1      42.958  20.513  25.499  1.00  0.00    -0.237 OA
ATOM    106  O   UNL A   1      43.706  22.516  24.277  1.00  0.00    -0.237 OA
ATOM    107  O   UNL A   1      45.348  21.123  25.450  1.00  0.00    -0.744 OA
ENDBRANCH 101 104
ENDBRANCH  74  97
ENDBRANCH  48  49
ENDBRANCH  41  43
ENDBRANCH  40  41
ENDBRANCH  39  40
ENDBRANCH  38  39
ENDBRANCH  37  38
ENDBRANCH  36  37
ENDBRANCH   1  36
TORSDOF 25
ENDMDL
