MODEL 1
REMARK VINA RESULT:     -10.3      0.000      0.000
REMARK SMILES [NH3+][C@@H](CCC1=c2ccccc2=[NH+]C1)C(=O)OCCOCCOCCOC(=O)c1ccc(-c2c3nc(c(-c4cccc(S(=O)(=O)[O-])c4F)c4ccc([nH]4)c(-c4cccc(S(=O)(=O)[O-])c4F)c4nc(c(-c5cccc(S(=O)(=O)[O-])c5F)c5ccc2[nH]5)C=C4)C=C3)cc1
REMARK SMILES IDX 20 1 19 2 18 3 17 4 16 5 14 6 15 7 2 8 1 9 3 13 4 14 5 15
REMARK SMILES IDX 6 16 13 17 7 18 11 19 12 20 8 21 10 22 9 24 21 25 22 26
REMARK SMILES IDX 23 27 24 28 25 29 26 30 27 31 28 32 29 33 90 34 30 35 89 36
REMARK SMILES IDX 31 37 32 38 33 39 83 40 34 41 88 42 82 43 84 44 35 45 87 46
REMARK SMILES IDX 81 47 80 48 36 50 68 51 48 52 67 53 49 54 52 55 66 56 85 57
REMARK SMILES IDX 50 58 51 59 65 61 86 62 53 63 37 64 38 65 46 66 39 67 41 68
REMARK SMILES IDX 47 69 40 70 42 71 43 72 44 73 45 74 69 75 70 76 78 77 71 78
REMARK SMILES IDX 73 79 79 80 72 81 74 82 75 83 76 84 77 85 54 86 55 87 63 88
REMARK SMILES IDX 56 89 58 90 64 91 57 92 59 93 60 94 61 95 62 96
REMARK H PARENT 1 10 1 11 1 12 12 23 84 49 52 60
REMARK Flexibility Score: inf
ROOT
ATOM      1  C   UNL A   1      32.344  27.976  27.170  1.00  0.00     0.188 C 
ENDROOT
BRANCH   1   2
ATOM      2  O   UNL A   1      31.269  27.054  27.042  1.00  0.00    -0.376 OA
BRANCH   2   3
ATOM      3  C   UNL A   1      30.973  26.573  25.732  1.00  0.00     0.202 C 
BRANCH   3   4
ATOM      4  C   UNL A   1      30.277  25.213  25.598  1.00  0.00     0.261 C 
BRANCH   4   5
ATOM      5  O   UNL A   1      30.412  24.390  26.777  1.00  0.00    -0.459 OA
BRANCH   5   6
ATOM      6  C   UNL A   1      31.035  23.192  26.597  1.00  0.00     0.364 C 
ATOM      7  O   UNL A   1      30.533  22.237  26.012  1.00  0.00    -0.245 OA
BRANCH   6   8
ATOM      8  C   UNL A   1      32.420  23.091  27.266  1.00  0.00     0.292 C 
BRANCH   8   9
ATOM      9  N   UNL A   1      32.704  21.816  27.943  1.00  0.00    -0.346 N 
ATOM     10  H   UNL A   1      33.488  21.939  28.584  1.00  0.00     0.345 HD
ATOM     11  H   UNL A   1      32.942  21.108  27.248  1.00  0.00     0.345 HD
ATOM     12  H   UNL A   1      31.882  21.517  28.465  1.00  0.00     0.345 HD
ENDBRANCH   8   9
BRANCH   8  13
ATOM     13  C   UNL A   1      33.534  23.491  26.291  1.00  0.00     0.082 C 
BRANCH  13  14
ATOM     14  C   UNL A   1      33.554  22.772  24.932  1.00  0.00     0.045 C 
BRANCH  14  15
ATOM     15  C   UNL A   1      34.245  21.447  24.901  1.00  0.00     0.008 C 
ATOM     16  C   UNL A   1      33.753  20.268  24.528  1.00  0.00     0.051 A 
ATOM     17  C   UNL A   1      35.672  21.303  25.347  1.00  0.00     0.381 C 
ATOM     18  C   UNL A   1      32.495  19.790  24.047  1.00  0.00     0.015 A 
ATOM     19  C   UNL A   1      34.900  19.363  24.711  1.00  0.00     0.206 A 
ATOM     20  N   UNL A   1      35.998  19.865  25.184  1.00  0.00    -0.237 N 
ATOM     21  C   UNL A   1      32.375  18.489  23.731  1.00  0.00     0.001 A 
ATOM     22  C   UNL A   1      34.696  17.950  24.323  1.00  0.00     0.079 A 
ATOM     23  H   UNL A   1      36.844  19.403  25.387  1.00  0.00     0.446 HD
ATOM     24  C   UNL A   1      33.493  17.570  23.860  1.00  0.00     0.007 A 
ENDBRANCH  14  15
ENDBRANCH  13  14
ENDBRANCH   8  13
ENDBRANCH   6   8
ENDBRANCH   5   6
ENDBRANCH   4   5
ENDBRANCH   3   4
ENDBRANCH   2   3
ENDBRANCH   1   2
BRANCH   1  25
ATOM     25  C   UNL A   1      32.296  29.252  26.312  1.00  0.00     0.188 C 
BRANCH  25  26
ATOM     26  O   UNL A   1      32.072  30.460  27.003  1.00  0.00    -0.376 OA
BRANCH  26  27
ATOM     27  C   UNL A   1      33.061  31.477  26.993  1.00  0.00     0.202 C 
BRANCH  27  28
ATOM     28  C   UNL A   1      33.304  32.533  28.096  1.00  0.00     0.261 C 
BRANCH  28  29
ATOM     29  O   UNL A   1      32.990  33.894  27.812  1.00  0.00    -0.460 OA
BRANCH  29  30
ATOM     30  C   UNL A   1      33.314  34.803  28.772  1.00  0.00     0.338 C 
ATOM     31  O   UNL A   1      32.701  35.808  29.062  1.00  0.00    -0.246 OA
BRANCH  30  32
ATOM     32  C   UNL A   1      34.400  34.201  29.583  1.00  0.00     0.060 A 
ATOM     33  C   UNL A   1      34.115  33.587  30.803  1.00  0.00     0.016 A 
ATOM     34  C   UNL A   1      35.728  34.348  29.153  1.00  0.00     0.016 A 
ATOM     35  C   UNL A   1      35.161  33.092  31.581  1.00  0.00     0.010 A 
ATOM     36  C   UNL A   1      36.776  33.864  29.942  1.00  0.00     0.010 A 
ATOM     37  C   UNL A   1      36.496  33.208  31.147  1.00  0.00    -0.014 A 
BRANCH  37  38
ATOM     38  C   UNL A   1      37.536  32.409  31.837  1.00  0.00     0.031 A 
ATOM     39  C   UNL A   1      38.243  31.255  31.200  1.00  0.00     0.074 A 
ATOM     40  C   UNL A   1      37.854  32.788  33.091  1.00  0.00     0.049 A 
ATOM     41  N   UNL A   1      39.316  30.633  31.619  1.00  0.00    -0.248 NA
ATOM     42  C   UNL A   1      37.682  30.717  29.953  1.00  0.00     0.031 C 
ATOM     43  C   UNL A   1      37.173  33.851  33.836  1.00  0.00     0.029 A 
ATOM     44  N   UNL A   1      38.831  32.351  33.945  1.00  0.00    -0.354 N 
ATOM     45  C   UNL A   1      39.564  29.630  30.693  1.00  0.00     0.074 A 
ATOM     46  C   UNL A   1      38.514  29.712  29.697  1.00  0.00     0.031 C 
ATOM     47  C   UNL A   1      37.783  34.013  35.018  1.00  0.00     0.029 A 
ATOM     48  C   UNL A   1      38.891  33.070  35.114  1.00  0.00     0.049 A 
ATOM     49  H   UNL A   1      39.430  31.597  33.741  1.00  0.00     0.167 HD
ATOM     50  C   UNL A   1      40.586  28.741  30.674  1.00  0.00     0.034 A 
ATOM     51  C   UNL A   1      39.764  33.010  36.136  1.00  0.00     0.034 A 
ATOM     52  C   UNL A   1      41.633  28.685  31.664  1.00  0.00     0.049 A 
ATOM     53  C   UNL A   1      40.917  32.055  36.064  1.00  0.00     0.074 A 
ATOM     54  C   UNL A   1      42.763  27.885  31.672  1.00  0.00     0.029 A 
ATOM     55  N   UNL A   1      41.671  29.440  32.826  1.00  0.00    -0.354 N 
ATOM     56  N   UNL A   1      41.242  31.239  35.092  1.00  0.00    -0.248 NA
ATOM     57  C   UNL A   1      41.840  32.034  37.206  1.00  0.00     0.031 C 
ATOM     58  C   UNL A   1      43.473  28.139  32.849  1.00  0.00     0.029 A 
ATOM     59  C   UNL A   1      42.795  29.112  33.566  1.00  0.00     0.049 A 
ATOM     60  H   UNL A   1      40.999  30.111  33.087  1.00  0.00     0.167 HD
ATOM     61  C   UNL A   1      42.420  30.622  35.492  1.00  0.00     0.074 A 
ATOM     62  C   UNL A   1      42.757  31.166  36.793  1.00  0.00     0.031 C 
ATOM     63  C   UNL A   1      43.146  29.685  34.840  1.00  0.00     0.034 A 
BRANCH  50  64
ATOM     64  C   UNL A   1      40.687  27.784  29.517  1.00  0.00     0.023 A 
ATOM     65  C   UNL A   1      39.821  26.674  29.473  1.00  0.00     0.012 A 
ATOM     66  C   UNL A   1      41.520  28.059  28.414  1.00  0.00     0.148 A 
ATOM     67  C   UNL A   1      39.785  25.847  28.352  1.00  0.00     0.002 A 
ATOM     68  C   UNL A   1      41.460  27.244  27.289  1.00  0.00     0.091 A 
ATOM     69  F   UNL A   1      42.337  29.119  28.481  1.00  0.00    -0.205 F 
ATOM     70  C   UNL A   1      40.595  26.136  27.257  1.00  0.00     0.022 A 
BRANCH  68  71
ATOM     71  S   UNL A   1      42.417  27.562  25.801  1.00  0.00     0.127 S 
ATOM     72  O   UNL A   1      42.030  28.937  25.489  1.00  0.00    -0.237 OA
ATOM     73  O   UNL A   1      43.790  27.409  26.279  1.00  0.00    -0.237 OA
ATOM     74  O   UNL A   1      41.994  26.565  24.826  1.00  0.00    -0.744 OA
ENDBRANCH  68  71
ENDBRANCH  50  64
BRANCH  51  75
ATOM     75  C   UNL A   1      39.624  33.979  37.253  1.00  0.00     0.023 A 
ATOM     76  C   UNL A   1      39.959  35.329  37.035  1.00  0.00     0.012 A 
ATOM     77  C   UNL A   1      39.061  33.593  38.485  1.00  0.00     0.148 A 
ATOM     78  C   UNL A   1      39.742  36.281  38.030  1.00  0.00     0.002 A 
ATOM     79  C   UNL A   1      38.813  34.552  39.457  1.00  0.00     0.091 A 
ATOM     80  F   UNL A   1      38.743  32.302  38.656  1.00  0.00    -0.205 F 
ATOM     81  C   UNL A   1      39.161  35.895  39.235  1.00  0.00     0.022 A 
BRANCH  79  82
ATOM     82  S   UNL A   1      37.977  34.174  41.001  1.00  0.00     0.127 S 
ATOM     83  O   UNL A   1      38.978  33.363  41.690  1.00  0.00    -0.237 OA
ATOM     84  O   UNL A   1      37.772  35.508  41.562  1.00  0.00    -0.237 OA
ATOM     85  O   UNL A   1      36.755  33.475  40.630  1.00  0.00    -0.744 OA
ENDBRANCH  79  82
ENDBRANCH  51  75
BRANCH  63  86
ATOM     86  C   UNL A   1      44.394  29.167  35.501  1.00  0.00     0.023 A 
ATOM     87  C   UNL A   1      45.622  29.809  35.256  1.00  0.00     0.012 A 
ATOM     88  C   UNL A   1      44.321  28.142  36.466  1.00  0.00     0.148 A 
ATOM     89  C   UNL A   1      46.765  29.438  35.964  1.00  0.00     0.002 A 
ATOM     90  C   UNL A   1      45.457  27.801  37.191  1.00  0.00     0.091 A 
ATOM     91  F   UNL A   1      43.141  27.543  36.672  1.00  0.00    -0.205 F 
ATOM     92  C   UNL A   1      46.679  28.446  36.939  1.00  0.00     0.022 A 
BRANCH  90  93
ATOM     93  S   UNL A   1      45.434  26.592  38.519  1.00  0.00     0.127 S 
ATOM     94  O   UNL A   1      45.737  25.354  37.800  1.00  0.00    -0.237 OA
ATOM     95  O   UNL A   1      46.509  27.070  39.389  1.00  0.00    -0.237 OA
ATOM     96  O   UNL A   1      44.101  26.654  39.103  1.00  0.00    -0.744 OA
ENDBRANCH  90  93
ENDBRANCH  63  86
ENDBRANCH  37  38
ENDBRANCH  30  32
ENDBRANCH  29  30
ENDBRANCH  28  29
ENDBRANCH  27  28
ENDBRANCH  26  27
ENDBRANCH  25  26
ENDBRANCH   1  25
TORSDOF 24
ENDMDL
MODEL 2
REMARK VINA RESULT:      -9.4      2.661      3.077
REMARK SMILES [NH3+][C@@H](CCC1=c2ccccc2=[NH+]C1)C(=O)OCCOCCOCCOC(=O)c1ccc(-c2c3nc(c(-c4cccc(S(=O)(=O)[O-])c4F)c4ccc([nH]4)c(-c4cccc(S(=O)(=O)[O-])c4F)c4nc(c(-c5cccc(S(=O)(=O)[O-])c5F)c5ccc2[nH]5)C=C4)C=C3)cc1
REMARK SMILES IDX 20 1 19 2 18 3 17 4 16 5 14 6 15 7 2 8 1 9 3 13 4 14 5 15
REMARK SMILES IDX 6 16 13 17 7 18 11 19 12 20 8 21 10 22 9 24 21 25 22 26
REMARK SMILES IDX 23 27 24 28 25 29 26 30 27 31 28 32 29 33 90 34 30 35 89 36
REMARK SMILES IDX 31 37 32 38 33 39 83 40 34 41 88 42 82 43 84 44 35 45 87 46
REMARK SMILES IDX 81 47 80 48 36 50 68 51 48 52 67 53 49 54 52 55 66 56 85 57
REMARK SMILES IDX 50 58 51 59 65 61 86 62 53 63 37 64 38 65 46 66 39 67 41 68
REMARK SMILES IDX 47 69 40 70 42 71 43 72 44 73 45 74 69 75 70 76 78 77 71 78
REMARK SMILES IDX 73 79 79 80 72 81 74 82 75 83 76 84 77 85 54 86 55 87 63 88
REMARK SMILES IDX 56 89 58 90 64 91 57 92 59 93 60 94 61 95 62 96
REMARK H PARENT 1 10 1 11 1 12 12 23 84 49 52 60
REMARK Flexibility Score: inf
ROOT
ATOM      1  C   UNL A   1      32.940  28.430  27.152  1.00  0.00     0.188 C 
ENDROOT
BRANCH   1   2
ATOM      2  O   UNL A   1      32.152  28.464  25.970  1.00  0.00    -0.376 OA
BRANCH   2   3
ATOM      3  C   UNL A   1      32.797  28.117  24.745  1.00  0.00     0.202 C 
BRANCH   3   4
ATOM      4  C   UNL A   1      31.936  27.991  23.482  1.00  0.00     0.261 C 
BRANCH   4   5
ATOM      5  O   UNL A   1      31.223  26.737  23.407  1.00  0.00    -0.459 OA
BRANCH   5   6
ATOM      6  C   UNL A   1      31.919  25.687  22.887  1.00  0.00     0.364 C 
ATOM      7  O   UNL A   1      32.698  25.780  21.942  1.00  0.00    -0.245 OA
BRANCH   6   8
ATOM      8  C   UNL A   1      31.592  24.327  23.533  1.00  0.00     0.292 C 
BRANCH   8   9
ATOM      9  N   UNL A   1      30.323  23.715  23.112  1.00  0.00    -0.346 N 
ATOM     10  H   UNL A   1      29.896  24.287  22.382  1.00  0.00     0.345 HD
ATOM     11  H   UNL A   1      29.692  23.658  23.911  1.00  0.00     0.345 HD
ATOM     12  H   UNL A   1      30.499  22.779  22.750  1.00  0.00     0.345 HD
ENDBRANCH   8   9
BRANCH   8  13
ATOM     13  C   UNL A   1      32.773  23.358  23.405  1.00  0.00     0.082 C 
BRANCH  13  14
ATOM     14  C   UNL A   1      32.442  21.915  22.991  1.00  0.00     0.045 C 
BRANCH  14  15
ATOM     15  C   UNL A   1      32.633  20.870  24.043  1.00  0.00     0.008 C 
ATOM     16  C   UNL A   1      32.736  19.552  23.888  1.00  0.00     0.051 A 
ATOM     17  C   UNL A   1      32.707  21.236  25.498  1.00  0.00     0.381 C 
ATOM     18  C   UNL A   1      32.716  18.648  22.782  1.00  0.00     0.015 A 
ATOM     19  C   UNL A   1      32.912  19.074  25.269  1.00  0.00     0.206 A 
ATOM     20  N   UNL A   1      32.886  19.953  26.223  1.00  0.00    -0.237 N 
ATOM     21  C   UNL A   1      32.889  17.336  23.016  1.00  0.00     0.001 A 
ATOM     22  C   UNL A   1      33.116  17.620  25.445  1.00  0.00     0.079 A 
ATOM     23  H   UNL A   1      32.965  19.806  27.193  1.00  0.00     0.446 HD
ATOM     24  C   UNL A   1      33.104  16.826  24.360  1.00  0.00     0.007 A 
ENDBRANCH  14  15
ENDBRANCH  13  14
ENDBRANCH   8  13
ENDBRANCH   6   8
ENDBRANCH   5   6
ENDBRANCH   4   5
ENDBRANCH   3   4
ENDBRANCH   2   3
ENDBRANCH   1   2
BRANCH   1  25
ATOM     25  C   UNL A   1      34.294  29.162  27.130  1.00  0.00     0.188 C 
BRANCH  25  26
ATOM     26  O   UNL A   1      34.244  30.559  26.949  1.00  0.00    -0.376 OA
BRANCH  26  27
ATOM     27  C   UNL A   1      33.131  31.298  27.427  1.00  0.00     0.202 C 
BRANCH  27  28
ATOM     28  C   UNL A   1      32.868  32.806  27.212  1.00  0.00     0.261 C 
BRANCH  28  29
ATOM     29  O   UNL A   1      32.305  33.555  28.285  1.00  0.00    -0.460 OA
BRANCH  29  30
ATOM     30  C   UNL A   1      33.015  34.639  28.705  1.00  0.00     0.338 C 
ATOM     31  O   UNL A   1      32.629  35.787  28.760  1.00  0.00    -0.246 OA
BRANCH  30  32
ATOM     32  C   UNL A   1      34.250  34.122  29.339  1.00  0.00     0.060 A 
ATOM     33  C   UNL A   1      34.178  33.315  30.476  1.00  0.00     0.016 A 
ATOM     34  C   UNL A   1      35.495  34.538  28.840  1.00  0.00     0.016 A 
ATOM     35  C   UNL A   1      35.356  32.899  31.097  1.00  0.00     0.010 A 
ATOM     36  C   UNL A   1      36.674  34.132  29.473  1.00  0.00     0.010 A 
ATOM     37  C   UNL A   1      36.611  33.287  30.589  1.00  0.00    -0.014 A 
BRANCH  37  38
ATOM     38  C   UNL A   1      37.820  32.586  31.080  1.00  0.00     0.031 A 
ATOM     39  C   UNL A   1      38.547  31.548  30.285  1.00  0.00     0.074 A 
ATOM     40  C   UNL A   1      38.274  32.947  32.296  1.00  0.00     0.049 A 
ATOM     41  N   UNL A   1      39.730  31.037  30.513  1.00  0.00    -0.248 NA
ATOM     42  C   UNL A   1      37.872  31.000  29.100  1.00  0.00     0.031 C 
ATOM     43  C   UNL A   1      37.599  33.893  33.189  1.00  0.00     0.029 A 
ATOM     44  N   UNL A   1      39.406  32.591  32.978  1.00  0.00    -0.354 N 
ATOM     45  C   UNL A   1      39.947  30.107  29.506  1.00  0.00     0.074 A 
ATOM     46  C   UNL A   1      38.761  30.109  28.672  1.00  0.00     0.031 C 
ATOM     47  C   UNL A   1      38.353  34.076  34.281  1.00  0.00     0.029 A 
ATOM     48  C   UNL A   1      39.558  33.263  34.167  1.00  0.00     0.049 A 
ATOM     49  H   UNL A   1      40.047  31.919  32.650  1.00  0.00     0.167 HD
ATOM     50  C   UNL A   1      41.046  29.343  29.293  1.00  0.00     0.034 A 
ATOM     51  C   UNL A   1      40.572  33.261  35.051  1.00  0.00     0.034 A 
ATOM     52  C   UNL A   1      42.225  29.368  30.122  1.00  0.00     0.049 A 
ATOM     53  C   UNL A   1      41.798  32.449  34.764  1.00  0.00     0.074 A 
ATOM     54  C   UNL A   1      43.424  28.703  29.926  1.00  0.00     0.029 A 
ATOM     55  N   UNL A   1      42.351  30.073  31.308  1.00  0.00    -0.354 N 
ATOM     56  N   UNL A   1      42.064  31.716  33.711  1.00  0.00    -0.248 NA
ATOM     57  C   UNL A   1      42.875  32.487  35.762  1.00  0.00     0.031 C 
ATOM     58  C   UNL A   1      44.266  28.988  31.004  1.00  0.00     0.029 A 
ATOM     59  C   UNL A   1      43.599  29.846  31.863  1.00  0.00     0.049 A 
ATOM     60  H   UNL A   1      41.656  30.651  31.698  1.00  0.00     0.167 HD
ATOM     61  C   UNL A   1      43.348  31.223  33.907  1.00  0.00     0.074 A 
ATOM     62  C   UNL A   1      43.810  31.748  35.176  1.00  0.00     0.031 C 
ATOM     63  C   UNL A   1      44.068  30.403  33.106  1.00  0.00     0.034 A 
BRANCH  50  64
ATOM     64  C   UNL A   1      41.080  28.452  28.080  1.00  0.00     0.023 A 
ATOM     65  C   UNL A   1      41.550  28.980  26.861  1.00  0.00     0.012 A 
ATOM     66  C   UNL A   1      40.796  27.076  28.178  1.00  0.00     0.148 A 
ATOM     67  C   UNL A   1      41.731  28.152  25.754  1.00  0.00     0.002 A 
ATOM     68  C   UNL A   1      41.003  26.252  27.077  1.00  0.00     0.091 A 
ATOM     69  F   UNL A   1      40.348  26.599  29.348  1.00  0.00    -0.205 F 
ATOM     70  C   UNL A   1      41.468  26.789  25.864  1.00  0.00     0.022 A 
BRANCH  68  71
ATOM     71  S   UNL A   1      40.753  24.473  27.128  1.00  0.00     0.127 S 
ATOM     72  O   UNL A   1      39.317  24.370  26.872  1.00  0.00    -0.237 OA
ATOM     73  O   UNL A   1      41.602  24.011  26.031  1.00  0.00    -0.237 OA
ATOM     74  O   UNL A   1      41.178  24.042  28.453  1.00  0.00    -0.744 OA
ENDBRANCH  68  71
ENDBRANCH  50  64
BRANCH  51  75
ATOM     75  C   UNL A   1      40.493  34.161  36.231  1.00  0.00     0.023 A 
ATOM     76  C   UNL A   1      40.892  35.504  36.095  1.00  0.00     0.012 A 
ATOM     77  C   UNL A   1      39.925  33.724  37.442  1.00  0.00     0.148 A 
ATOM     78  C   UNL A   1      40.734  36.398  37.153  1.00  0.00     0.002 A 
ATOM     79  C   UNL A   1      39.735  34.628  38.478  1.00  0.00     0.091 A 
ATOM     80  F   UNL A   1      39.544  32.441  37.534  1.00  0.00    -0.205 F 
ATOM     81  C   UNL A   1      40.147  35.964  38.339  1.00  0.00     0.022 A 
BRANCH  79  82
ATOM     82  S   UNL A   1      38.897  34.191  40.005  1.00  0.00     0.127 S 
ATOM     83  O   UNL A   1      39.919  33.403  40.690  1.00  0.00    -0.237 OA
ATOM     84  O   UNL A   1      38.639  35.507  40.589  1.00  0.00    -0.237 OA
ATOM     85  O   UNL A   1      37.705  33.456  39.609  1.00  0.00    -0.744 OA
ENDBRANCH  79  82
ENDBRANCH  51  75
BRANCH  63  86
ATOM     86  C   UNL A   1      45.447  30.005  33.556  1.00  0.00     0.023 A 
ATOM     87  C   UNL A   1      45.617  28.817  34.292  1.00  0.00     0.012 A 
ATOM     88  C   UNL A   1      46.577  30.728  33.127  1.00  0.00     0.148 A 
ATOM     89  C   UNL A   1      46.896  28.354  34.598  1.00  0.00     0.002 A 
ATOM     90  C   UNL A   1      47.849  30.242  33.406  1.00  0.00     0.091 A 
ATOM     91  F   UNL A   1      46.386  31.859  32.434  1.00  0.00    -0.205 F 
ATOM     92  C   UNL A   1      48.010  29.058  34.144  1.00  0.00     0.022 A 
BRANCH  90  93
ATOM     93  S   UNL A   1      49.345  31.033  32.802  1.00  0.00     0.127 S 
ATOM     94  O   UNL A   1      50.373  30.392  33.622  1.00  0.00    -0.237 OA
ATOM     95  O   UNL A   1      49.354  30.637  31.393  1.00  0.00    -0.237 OA
ATOM     96  O   UNL A   1      49.173  32.461  33.035  1.00  0.00    -0.744 OA
ENDBRANCH  90  93
ENDBRANCH  63  86
ENDBRANCH  37  38
ENDBRANCH  30  32
ENDBRANCH  29  30
ENDBRANCH  28  29
ENDBRANCH  27  28
ENDBRANCH  26  27
ENDBRANCH  25  26
ENDBRANCH   1  25
TORSDOF 24
ENDMDL
MODEL 3
REMARK VINA RESULT:      -9.3      5.663     11.014
REMARK SMILES [NH3+][C@@H](CCC1=c2ccccc2=[NH+]C1)C(=O)OCCOCCOCCOC(=O)c1ccc(-c2c3nc(c(-c4cccc(S(=O)(=O)[O-])c4F)c4ccc([nH]4)c(-c4cccc(S(=O)(=O)[O-])c4F)c4nc(c(-c5cccc(S(=O)(=O)[O-])c5F)c5ccc2[nH]5)C=C4)C=C3)cc1
REMARK SMILES IDX 20 1 19 2 18 3 17 4 16 5 14 6 15 7 2 8 1 9 3 13 4 14 5 15
REMARK SMILES IDX 6 16 13 17 7 18 11 19 12 20 8 21 10 22 9 24 21 25 22 26
REMARK SMILES IDX 23 27 24 28 25 29 26 30 27 31 28 32 29 33 90 34 30 35 89 36
REMARK SMILES IDX 31 37 32 38 33 39 83 40 34 41 88 42 82 43 84 44 35 45 87 46
REMARK SMILES IDX 81 47 80 48 36 50 68 51 48 52 67 53 49 54 52 55 66 56 85 57
REMARK SMILES IDX 50 58 51 59 65 61 86 62 53 63 37 64 38 65 46 66 39 67 41 68
REMARK SMILES IDX 47 69 40 70 42 71 43 72 44 73 45 74 69 75 70 76 78 77 71 78
REMARK SMILES IDX 73 79 79 80 72 81 74 82 75 83 76 84 77 85 54 86 55 87 63 88
REMARK SMILES IDX 56 89 58 90 64 91 57 92 59 93 60 94 61 95 62 96
REMARK H PARENT 1 10 1 11 1 12 12 23 84 49 52 60
REMARK Flexibility Score: inf
ROOT
ATOM      1  C   UNL A   1      42.845  21.911  26.262  1.00  0.00     0.188 C 
ENDROOT
BRANCH   1   2
ATOM      2  O   UNL A   1      42.633  22.188  27.640  1.00  0.00    -0.376 OA
BRANCH   2   3
ATOM      3  C   UNL A   1      42.445  23.553  28.010  1.00  0.00     0.202 C 
BRANCH   3   4
ATOM      4  C   UNL A   1      41.020  24.118  28.005  1.00  0.00     0.261 C 
BRANCH   4   5
ATOM      5  O   UNL A   1      40.960  25.500  27.589  1.00  0.00    -0.459 OA
BRANCH   5   6
ATOM      6  C   UNL A   1      40.249  26.334  28.398  1.00  0.00     0.364 C 
ATOM      7  O   UNL A   1      39.272  25.986  29.055  1.00  0.00    -0.245 OA
BRANCH   6   8
ATOM      8  C   UNL A   1      40.722  27.801  28.370  1.00  0.00     0.292 C 
BRANCH   8   9
ATOM      9  N   UNL A   1      40.471  28.522  27.113  1.00  0.00    -0.346 N 
ATOM     10  H   UNL A   1      41.359  28.828  26.714  1.00  0.00     0.345 HD
ATOM     11  H   UNL A   1      39.884  29.335  27.300  1.00  0.00     0.345 HD
ATOM     12  H   UNL A   1      39.998  27.905  26.454  1.00  0.00     0.345 HD
ENDBRANCH   8   9
BRANCH   8  13
ATOM     13  C   UNL A   1      40.207  28.569  29.593  1.00  0.00     0.082 C 
BRANCH  13  14
ATOM     14  C   UNL A   1      40.095  30.096  29.452  1.00  0.00     0.045 C 
BRANCH  14  15
ATOM     15  C   UNL A   1      39.631  30.835  30.666  1.00  0.00     0.008 C 
ATOM     16  C   UNL A   1      39.302  32.120  30.775  1.00  0.00     0.051 A 
ATOM     17  C   UNL A   1      39.506  30.146  31.995  1.00  0.00     0.381 C 
ATOM     18  C   UNL A   1      39.248  33.240  29.890  1.00  0.00     0.015 A 
ATOM     19  C   UNL A   1      38.928  32.242  32.194  1.00  0.00     0.206 A 
ATOM     20  N   UNL A   1      39.036  31.188  32.942  1.00  0.00    -0.237 N 
ATOM     21  C   UNL A   1      38.820  34.422  30.367  1.00  0.00     0.001 A 
ATOM     22  C   UNL A   1      38.449  33.569  32.639  1.00  0.00     0.079 A 
ATOM     23  H   UNL A   1      38.852  31.100  33.905  1.00  0.00     0.446 HD
ATOM     24  C   UNL A   1      38.405  34.577  31.752  1.00  0.00     0.007 A 
ENDBRANCH  14  15
ENDBRANCH  13  14
ENDBRANCH   8  13
ENDBRANCH   6   8
ENDBRANCH   5   6
ENDBRANCH   4   5
ENDBRANCH   3   4
ENDBRANCH   2   3
ENDBRANCH   1   2
BRANCH   1  25
ATOM     25  C   UNL A   1      42.981  23.108  25.305  1.00  0.00     0.188 C 
BRANCH  25  26
ATOM     26  O   UNL A   1      43.745  22.891  24.140  1.00  0.00    -0.376 OA
BRANCH  26  27
ATOM     27  C   UNL A   1      44.981  22.200  24.220  1.00  0.00     0.202 C 
BRANCH  27  28
ATOM     28  C   UNL A   1      46.333  22.785  24.688  1.00  0.00     0.261 C 
BRANCH  28  29
ATOM     29  O   UNL A   1      46.321  23.803  25.686  1.00  0.00    -0.460 OA
BRANCH  29  30
ATOM     30  C   UNL A   1      46.691  25.050  25.284  1.00  0.00     0.338 C 
ATOM     31  O   UNL A   1      47.249  25.348  24.250  1.00  0.00    -0.246 OA
BRANCH  30  32
ATOM     32  C   UNL A   1      46.045  26.008  26.213  1.00  0.00     0.060 A 
ATOM     33  C   UNL A   1      44.671  26.246  26.141  1.00  0.00     0.016 A 
ATOM     34  C   UNL A   1      46.849  26.746  27.095  1.00  0.00     0.016 A 
ATOM     35  C   UNL A   1      44.098  27.204  26.976  1.00  0.00     0.010 A 
ATOM     36  C   UNL A   1      46.274  27.717  27.921  1.00  0.00     0.010 A 
ATOM     37  C   UNL A   1      44.890  27.931  27.886  1.00  0.00    -0.014 A 
BRANCH  37  38
ATOM     38  C   UNL A   1      44.214  28.703  28.954  1.00  0.00     0.031 A 
ATOM     39  C   UNL A   1      43.868  28.127  30.290  1.00  0.00     0.074 A 
ATOM     40  C   UNL A   1      43.937  29.993  28.682  1.00  0.00     0.049 A 
ATOM     41  N   UNL A   1      43.486  28.761  31.370  1.00  0.00    -0.248 NA
ATOM     42  C   UNL A   1      43.941  26.667  30.443  1.00  0.00     0.031 C 
ATOM     43  C   UNL A   1      44.161  30.637  27.384  1.00  0.00     0.029 A 
ATOM     44  N   UNL A   1      43.436  30.994  29.471  1.00  0.00    -0.354 N 
ATOM     45  C   UNL A   1      43.271  27.784  32.333  1.00  0.00     0.074 A 
ATOM     46  C   UNL A   1      43.547  26.509  31.703  1.00  0.00     0.031 C 
ATOM     47  C   UNL A   1      43.842  31.934  27.480  1.00  0.00     0.029 A 
ATOM     48  C   UNL A   1      43.392  32.213  28.839  1.00  0.00     0.049 A 
ATOM     49  H   UNL A   1      43.138  30.854  30.399  1.00  0.00     0.167 HD
ATOM     50  C   UNL A   1      42.899  27.950  33.625  1.00  0.00     0.034 A 
ATOM     51  C   UNL A   1      43.065  33.432  29.307  1.00  0.00     0.034 A 
ATOM     52  C   UNL A   1      42.647  29.228  34.241  1.00  0.00     0.049 A 
ATOM     53  C   UNL A   1      42.710  33.594  30.753  1.00  0.00     0.074 A 
ATOM     54  C   UNL A   1      42.363  29.498  35.569  1.00  0.00     0.029 A 
ATOM     55  N   UNL A   1      42.628  30.443  33.575  1.00  0.00    -0.354 N 
ATOM     56  N   UNL A   1      42.691  32.685  31.696  1.00  0.00    -0.248 NA
ATOM     57  C   UNL A   1      42.365  34.947  31.210  1.00  0.00     0.031 C 
ATOM     58  C   UNL A   1      42.150  30.873  35.702  1.00  0.00     0.029 A 
ATOM     59  C   UNL A   1      42.319  31.463  34.460  1.00  0.00     0.049 A 
ATOM     60  H   UNL A   1      42.807  30.564  32.614  1.00  0.00     0.167 HD
ATOM     61  C   UNL A   1      42.355  33.357  32.864  1.00  0.00     0.074 A 
ATOM     62  C   UNL A   1      42.188  34.753  32.511  1.00  0.00     0.031 C 
ATOM     63  C   UNL A   1      42.194  32.855  34.111  1.00  0.00     0.034 A 
BRANCH  50  64
ATOM     64  C   UNL A   1      42.800  26.734  34.507  1.00  0.00     0.023 A 
ATOM     65  C   UNL A   1      41.526  26.224  34.823  1.00  0.00     0.012 A 
ATOM     66  C   UNL A   1      43.950  26.017  34.892  1.00  0.00     0.148 A 
ATOM     67  C   UNL A   1      41.396  25.021  35.516  1.00  0.00     0.002 A 
ATOM     68  C   UNL A   1      43.813  24.805  35.561  1.00  0.00     0.091 A 
ATOM     69  F   UNL A   1      45.152  26.525  34.582  1.00  0.00    -0.205 F 
ATOM     70  C   UNL A   1      42.537  24.308  35.875  1.00  0.00     0.022 A 
BRANCH  68  71
ATOM     71  S   UNL A   1      45.214  23.777  36.017  1.00  0.00     0.127 S 
ATOM     72  O   UNL A   1      45.230  23.928  37.472  1.00  0.00    -0.237 OA
ATOM     73  O   UNL A   1      44.795  22.458  35.546  1.00  0.00    -0.237 OA
ATOM     74  O   UNL A   1      46.368  24.335  35.325  1.00  0.00    -0.744 OA
ENDBRANCH  68  71
ENDBRANCH  50  64
BRANCH  51  75
ATOM     75  C   UNL A   1      43.183  34.601  28.398  1.00  0.00     0.023 A 
ATOM     76  C   UNL A   1      42.014  35.174  27.864  1.00  0.00     0.012 A 
ATOM     77  C   UNL A   1      44.429  35.209  28.152  1.00  0.00     0.148 A 
ATOM     78  C   UNL A   1      42.083  36.332  27.091  1.00  0.00     0.002 A 
ATOM     79  C   UNL A   1      44.488  36.383  27.414  1.00  0.00     0.091 A 
ATOM     80  F   UNL A   1      45.523  34.645  28.686  1.00  0.00    -0.205 F 
ATOM     81  C   UNL A   1      43.317  36.941  26.876  1.00  0.00     0.022 A 
BRANCH  79  82
ATOM     82  S   UNL A   1      46.013  37.298  27.166  1.00  0.00     0.127 S 
ATOM     83  O   UNL A   1      45.510  38.621  26.806  1.00  0.00    -0.237 OA
ATOM     84  O   UNL A   1      46.630  37.212  28.489  1.00  0.00    -0.237 OA
ATOM     85  O   UNL A   1      46.731  36.595  26.113  1.00  0.00    -0.744 OA
ENDBRANCH  79  82
ENDBRANCH  51  75
BRANCH  63  86
ATOM     86  C   UNL A   1      41.817  33.804  35.215  1.00  0.00     0.023 A 
ATOM     87  C   UNL A   1      40.459  33.981  35.539  1.00  0.00     0.012 A 
ATOM     88  C   UNL A   1      42.810  34.403  36.015  1.00  0.00     0.148 A 
ATOM     89  C   UNL A   1      40.092  34.744  36.647  1.00  0.00     0.002 A 
ATOM     90  C   UNL A   1      42.438  35.134  37.138  1.00  0.00     0.091 A 
ATOM     91  F   UNL A   1      44.095  34.225  35.678  1.00  0.00    -0.205 F 
ATOM     92  C   UNL A   1      41.080  35.308  37.453  1.00  0.00     0.022 A 
BRANCH  90  93
ATOM     93  S   UNL A   1      43.633  35.835  38.280  1.00  0.00     0.127 S 
ATOM     94  O   UNL A   1      42.798  36.125  39.446  1.00  0.00    -0.237 OA
ATOM     95  O   UNL A   1      44.572  34.728  38.462  1.00  0.00    -0.237 OA
ATOM     96  O   UNL A   1      44.192  37.006  37.616  1.00  0.00    -0.744 OA
ENDBRANCH  90  93
ENDBRANCH  63  86
ENDBRANCH  37  38
ENDBRANCH  30  32
ENDBRANCH  29  30
ENDBRANCH  28  29
ENDBRANCH  27  28
ENDBRANCH  26  27
ENDBRANCH  25  26
ENDBRANCH   1  25
TORSDOF 24
ENDMDL
