MODEL 1
REMARK VINA RESULT:     -10.6      0.000      0.000
REMARK SMILES Cc1nsc(NC(=O)[C@]2([NH3+])CCC[C@@H](C)C2)c1C(=O)OCCOCCOCCOC(=O)c1ccc(-c2c3nc(c(-c4cccc(S(=O)(=O)[O-])c4F)c4ccc([nH]4)c(-c4cccc(S(=O)(=O)[O-])c4F)c4nc(c(-c5cccc(S(=O)(=O)[O-])c5F)c5ccc2[nH]5)C=C4)C=C3)cc1
REMARK SMILES IDX 24 1 23 2 22 3 21 4 20 5 18 6 19 7 17 8 1 9 2 10 3 11 4 12
REMARK SMILES IDX 5 13 6 14 7 15 8 17 9 18 11 19 16 20 12 21 14 22 13 23 15 24
REMARK SMILES IDX 10 25 25 29 26 30 27 31 28 32 29 33 30 34 31 35 32 36 33 37
REMARK SMILES IDX 94 38 34 39 93 40 35 41 36 42 37 43 87 44 38 45 92 46 86 47
REMARK SMILES IDX 88 48 39 49 91 50 85 51 84 52 40 54 72 55 52 56 71 57 53 58
REMARK SMILES IDX 56 59 70 60 89 61 54 62 55 63 69 65 90 66 57 67 41 68 42 69
REMARK SMILES IDX 50 70 43 71 45 72 51 73 44 74 46 75 47 76 48 77 49 78 73 79
REMARK SMILES IDX 74 80 82 81 75 82 77 83 83 84 76 85 78 86 79 87 80 88 81 89
REMARK SMILES IDX 58 90 59 91 67 92 60 93 62 94 68 95 61 96 63 97 64 98 65 99
REMARK SMILES IDX 66 100
REMARK H PARENT 6 16 10 26 10 27 10 28 88 53 56 64
REMARK Flexibility Score: inf
ROOT
ATOM      1  C   UNL A   1      39.714  21.323  26.264  1.00  0.00     0.188 C 
ENDROOT
BRANCH   1   2
ATOM      2  O   UNL A   1      39.413  22.635  26.715  1.00  0.00    -0.376 OA
BRANCH   2   3
ATOM      3  C   UNL A   1      38.423  23.401  26.040  1.00  0.00     0.202 C 
BRANCH   3   4
ATOM      4  C   UNL A   1      36.974  22.874  25.995  1.00  0.00     0.261 C 
BRANCH   4   5
ATOM      5  O   UNL A   1      36.075  23.629  25.153  1.00  0.00    -0.460 OA
BRANCH   5   6
ATOM      6  C   UNL A   1      35.797  23.089  23.925  1.00  0.00     0.343 C 
ATOM      7  O   UNL A   1      36.624  22.872  23.072  1.00  0.00    -0.246 OA
BRANCH   6   8
ATOM      8  C   UNL A   1      34.421  22.586  23.812  1.00  0.00     0.117 A 
ATOM      9  C   UNL A   1      34.630  20.153  24.779  1.00  0.00     0.069 C 
ATOM     10  C   UNL A   1      33.886  21.300  24.182  1.00  0.00     0.068 A 
ATOM     11  N   UNL A   1      32.583  21.130  23.942  1.00  0.00    -0.195 NA
ATOM     12  S   UNL A   1      32.002  22.461  23.159  1.00  0.00    -0.017 S 
ATOM     13  C   UNL A   1      33.436  23.333  23.157  1.00  0.00     0.131 A 
BRANCH  13  14
ATOM     14  N   UNL A   1      33.652  24.532  22.526  1.00  0.00    -0.310 N 
ATOM     15  C   UNL A   1      33.552  25.851  22.713  1.00  0.00     0.286 C 
ATOM     16  H   UNL A   1      34.001  24.360  21.622  1.00  0.00     0.171 HD
ATOM     17  O   UNL A   1      33.790  26.458  21.641  1.00  0.00    -0.267 OA
BRANCH  15  18
ATOM     18  C   UNL A   1      33.334  26.769  23.962  1.00  0.00     0.174 C 
ATOM     19  C   UNL A   1      33.961  26.539  25.334  1.00  0.00     0.079 C 
ATOM     20  C   UNL A   1      31.792  26.847  24.173  1.00  0.00     0.082 C 
ATOM     21  C   UNL A   1      33.601  27.661  26.332  1.00  0.00     0.007 C 
ATOM     22  C   UNL A   1      31.299  27.896  25.185  1.00  0.00    -0.008 C 
ATOM     23  C   UNL A   1      32.093  27.853  26.499  1.00  0.00     0.004 C 
ATOM     24  C   UNL A   1      31.232  29.302  24.580  1.00  0.00     0.008 C 
BRANCH  18  25
ATOM     25  N   UNL A   1      33.862  28.088  23.491  1.00  0.00    -0.345 N 
ATOM     26  H   UNL A   1      33.733  28.165  22.482  1.00  0.00     0.345 HD
ATOM     27  H   UNL A   1      34.855  28.156  23.713  1.00  0.00     0.345 HD
ATOM     28  H   UNL A   1      33.357  28.842  23.957  1.00  0.00     0.345 HD
ENDBRANCH  18  25
ENDBRANCH  15  18
ENDBRANCH  13  14
ENDBRANCH   6   8
ENDBRANCH   5   6
ENDBRANCH   4   5
ENDBRANCH   3   4
ENDBRANCH   2   3
ENDBRANCH   1   2
BRANCH   1  29
ATOM     29  C   UNL A   1      40.954  20.578  26.806  1.00  0.00     0.188 C 
BRANCH  29  30
ATOM     30  O   UNL A   1      42.077  20.566  25.938  1.00  0.00    -0.376 OA
BRANCH  30  31
ATOM     31  C   UNL A   1      42.604  21.830  25.544  1.00  0.00     0.202 C 
BRANCH  31  32
ATOM     32  C   UNL A   1      44.051  22.132  25.937  1.00  0.00     0.261 C 
BRANCH  32  33
ATOM     33  O   UNL A   1      44.223  23.394  26.555  1.00  0.00    -0.460 OA
BRANCH  33  34
ATOM     34  C   UNL A   1      43.543  24.412  25.995  1.00  0.00     0.338 C 
ATOM     35  O   UNL A   1      43.702  24.874  24.878  1.00  0.00    -0.246 OA
BRANCH  34  36
ATOM     36  C   UNL A   1      42.569  24.904  26.976  1.00  0.00     0.060 A 
ATOM     37  C   UNL A   1      41.550  25.713  26.473  1.00  0.00     0.016 A 
ATOM     38  C   UNL A   1      42.920  24.879  28.334  1.00  0.00     0.016 A 
ATOM     39  C   UNL A   1      41.122  26.748  27.265  1.00  0.00     0.010 A 
ATOM     40  C   UNL A   1      42.516  25.929  29.113  1.00  0.00     0.010 A 
ATOM     41  C   UNL A   1      41.730  26.908  28.513  1.00  0.00    -0.014 A 
BRANCH  41  42
ATOM     42  C   UNL A   1      41.634  28.211  29.122  1.00  0.00     0.031 A 
ATOM     43  C   UNL A   1      42.622  29.183  28.634  1.00  0.00     0.074 A 
ATOM     44  C   UNL A   1      40.651  28.486  30.001  1.00  0.00     0.049 A 
ATOM     45  N   UNL A   1      43.577  29.740  29.298  1.00  0.00    -0.248 NA
ATOM     46  C   UNL A   1      42.635  29.451  27.191  1.00  0.00     0.031 C 
ATOM     47  C   UNL A   1      39.451  27.686  30.280  1.00  0.00     0.029 A 
ATOM     48  N   UNL A   1      40.437  29.628  30.705  1.00  0.00    -0.354 N 
ATOM     49  C   UNL A   1      44.176  30.608  28.393  1.00  0.00     0.074 A 
ATOM     50  C   UNL A   1      43.702  30.238  27.085  1.00  0.00     0.031 C 
ATOM     51  C   UNL A   1      38.526  28.481  30.862  1.00  0.00     0.029 A 
ATOM     52  C   UNL A   1      39.115  29.787  31.097  1.00  0.00     0.049 A 
ATOM     53  H   UNL A   1      41.147  30.276  30.915  1.00  0.00     0.167 HD
ATOM     54  C   UNL A   1      44.807  31.738  28.804  1.00  0.00     0.034 A 
ATOM     55  C   UNL A   1      38.531  30.955  31.457  1.00  0.00     0.034 A 
ATOM     56  C   UNL A   1      45.116  31.704  30.208  1.00  0.00     0.049 A 
ATOM     57  C   UNL A   1      39.612  31.913  31.794  1.00  0.00     0.074 A 
ATOM     58  C   UNL A   1      45.858  30.879  31.028  1.00  0.00     0.029 A 
ATOM     59  N   UNL A   1      44.327  32.462  31.040  1.00  0.00    -0.354 N 
ATOM     60  N   UNL A   1      40.405  31.791  32.824  1.00  0.00    -0.248 NA
ATOM     61  C   UNL A   1      40.080  32.812  30.751  1.00  0.00     0.031 C 
ATOM     62  C   UNL A   1      45.173  30.876  32.275  1.00  0.00     0.029 A 
ATOM     63  C   UNL A   1      44.059  31.711  32.152  1.00  0.00     0.049 A 
ATOM     64  H   UNL A   1      44.012  33.378  30.866  1.00  0.00     0.167 HD
ATOM     65  C   UNL A   1      41.637  32.252  32.376  1.00  0.00     0.074 A 
ATOM     66  C   UNL A   1      41.345  32.977  31.144  1.00  0.00     0.031 C 
ATOM     67  C   UNL A   1      42.807  31.756  32.880  1.00  0.00     0.034 A 
BRANCH  54  68
ATOM     68  C   UNL A   1      44.825  33.023  28.019  1.00  0.00     0.023 A 
ATOM     69  C   UNL A   1      45.981  33.295  27.257  1.00  0.00     0.012 A 
ATOM     70  C   UNL A   1      43.905  34.082  28.193  1.00  0.00     0.148 A 
ATOM     71  C   UNL A   1      46.227  34.568  26.735  1.00  0.00     0.002 A 
ATOM     72  C   UNL A   1      44.109  35.316  27.592  1.00  0.00     0.091 A 
ATOM     73  F   UNL A   1      42.891  33.965  29.059  1.00  0.00    -0.205 F 
ATOM     74  C   UNL A   1      45.286  35.577  26.890  1.00  0.00     0.022 A 
BRANCH  72  75
ATOM     75  S   UNL A   1      42.871  36.611  27.714  1.00  0.00     0.127 S 
ATOM     76  O   UNL A   1      43.314  37.331  28.903  1.00  0.00    -0.237 OA
ATOM     77  O   UNL A   1      43.049  37.328  26.451  1.00  0.00    -0.237 OA
ATOM     78  O   UNL A   1      41.599  35.904  27.818  1.00  0.00    -0.744 OA
ENDBRANCH  72  75
ENDBRANCH  54  68
BRANCH  55  79
ATOM     79  C   UNL A   1      37.129  31.378  31.236  1.00  0.00     0.023 A 
ATOM     80  C   UNL A   1      36.351  31.801  32.329  1.00  0.00     0.012 A 
ATOM     81  C   UNL A   1      36.620  31.593  29.933  1.00  0.00     0.148 A 
ATOM     82  C   UNL A   1      35.114  32.428  32.133  1.00  0.00     0.002 A 
ATOM     83  C   UNL A   1      35.379  32.192  29.744  1.00  0.00     0.091 A 
ATOM     84  F   UNL A   1      37.389  31.296  28.878  1.00  0.00    -0.205 F 
ATOM     85  C   UNL A   1      34.628  32.622  30.842  1.00  0.00     0.022 A 
BRANCH  83  86
ATOM     86  S   UNL A   1      34.692  32.457  28.102  1.00  0.00     0.127 S 
ATOM     87  O   UNL A   1      33.377  33.023  28.409  1.00  0.00    -0.237 OA
ATOM     88  O   UNL A   1      35.645  33.400  27.523  1.00  0.00    -0.237 OA
ATOM     89  O   UNL A   1      34.639  31.140  27.480  1.00  0.00    -0.744 OA
ENDBRANCH  83  86
ENDBRANCH  55  79
BRANCH  67  90
ATOM     90  C   UNL A   1      42.755  30.912  34.128  1.00  0.00     0.023 A 
ATOM     91  C   UNL A   1      42.740  31.494  35.412  1.00  0.00     0.012 A 
ATOM     92  C   UNL A   1      42.475  29.539  33.999  1.00  0.00     0.148 A 
ATOM     93  C   UNL A   1      42.463  30.724  36.544  1.00  0.00     0.002 A 
ATOM     94  C   UNL A   1      42.151  28.786  35.122  1.00  0.00     0.091 A 
ATOM     95  F   UNL A   1      42.485  29.002  32.769  1.00  0.00    -0.205 F 
ATOM     96  C   UNL A   1      42.151  29.374  36.397  1.00  0.00     0.022 A 
BRANCH  94  97
ATOM     97  S   UNL A   1      41.591  27.085  34.987  1.00  0.00     0.127 S 
ATOM     98  O   UNL A   1      42.790  26.406  34.502  1.00  0.00    -0.237 OA
ATOM     99  O   UNL A   1      41.223  26.765  36.367  1.00  0.00    -0.237 OA
ATOM    100  O   UNL A   1      40.464  27.107  34.063  1.00  0.00    -0.744 OA
ENDBRANCH  94  97
ENDBRANCH  67  90
ENDBRANCH  41  42
ENDBRANCH  34  36
ENDBRANCH  33  34
ENDBRANCH  32  33
ENDBRANCH  31  32
ENDBRANCH  30  31
ENDBRANCH  29  30
ENDBRANCH   1  29
TORSDOF 23
ENDMDL
MODEL 2
REMARK VINA RESULT:     -10.4      5.702     12.580
REMARK SMILES Cc1nsc(NC(=O)[C@]2([NH3+])CCC[C@@H](C)C2)c1C(=O)OCCOCCOCCOC(=O)c1ccc(-c2c3nc(c(-c4cccc(S(=O)(=O)[O-])c4F)c4ccc([nH]4)c(-c4cccc(S(=O)(=O)[O-])c4F)c4nc(c(-c5cccc(S(=O)(=O)[O-])c5F)c5ccc2[nH]5)C=C4)C=C3)cc1
REMARK SMILES IDX 24 1 23 2 22 3 21 4 20 5 18 6 19 7 17 8 1 9 2 10 3 11 4 12
REMARK SMILES IDX 5 13 6 14 7 15 8 17 9 18 11 19 16 20 12 21 14 22 13 23 15 24
REMARK SMILES IDX 10 25 25 29 26 30 27 31 28 32 29 33 30 34 31 35 32 36 33 37
REMARK SMILES IDX 94 38 34 39 93 40 35 41 36 42 37 43 87 44 38 45 92 46 86 47
REMARK SMILES IDX 88 48 39 49 91 50 85 51 84 52 40 54 72 55 52 56 71 57 53 58
REMARK SMILES IDX 56 59 70 60 89 61 54 62 55 63 69 65 90 66 57 67 41 68 42 69
REMARK SMILES IDX 50 70 43 71 45 72 51 73 44 74 46 75 47 76 48 77 49 78 73 79
REMARK SMILES IDX 74 80 82 81 75 82 77 83 83 84 76 85 78 86 79 87 80 88 81 89
REMARK SMILES IDX 58 90 59 91 67 92 60 93 62 94 68 95 61 96 63 97 64 98 65 99
REMARK SMILES IDX 66 100
REMARK H PARENT 6 16 10 26 10 27 10 28 88 53 56 64
REMARK Flexibility Score: inf
ROOT
ATOM      1  C   UNL A   1      35.732  33.630  34.747  1.00  0.00     0.188 C 
ENDROOT
BRANCH   1   2
ATOM      2  O   UNL A   1      36.172  33.707  36.094  1.00  0.00    -0.376 OA
BRANCH   2   3
ATOM      3  C   UNL A   1      37.411  33.116  36.464  1.00  0.00     0.202 C 
BRANCH   3   4
ATOM      4  C   UNL A   1      37.491  32.308  37.776  1.00  0.00     0.261 C 
BRANCH   4   5
ATOM      5  O   UNL A   1      37.029  33.006  38.953  1.00  0.00    -0.460 OA
BRANCH   5   6
ATOM      6  C   UNL A   1      36.088  32.360  39.711  1.00  0.00     0.343 C 
ATOM      7  O   UNL A   1      35.341  31.509  39.291  1.00  0.00    -0.246 OA
BRANCH   6   8
ATOM      8  C   UNL A   1      36.211  32.639  41.148  1.00  0.00     0.117 A 
ATOM      9  C   UNL A   1      38.236  31.118  41.843  1.00  0.00     0.069 C 
ATOM     10  C   UNL A   1      37.149  32.104  42.104  1.00  0.00     0.068 A 
ATOM     11  N   UNL A   1      37.001  32.541  43.357  1.00  0.00    -0.195 NA
ATOM     12  S   UNL A   1      35.665  33.504  43.438  1.00  0.00    -0.017 S 
ATOM     13  C   UNL A   1      35.263  33.425  41.810  1.00  0.00     0.131 A 
BRANCH  13  14
ATOM     14  N   UNL A   1      34.135  33.946  41.230  1.00  0.00    -0.310 N 
ATOM     15  C   UNL A   1      32.840  34.179  41.471  1.00  0.00     0.286 C 
ATOM     16  H   UNL A   1      34.354  34.256  40.323  1.00  0.00     0.171 HD
ATOM     17  O   UNL A   1      32.273  34.581  40.428  1.00  0.00    -0.267 OA
BRANCH  15  18
ATOM     18  C   UNL A   1      31.946  34.178  42.757  1.00  0.00     0.174 C 
ATOM     19  C   UNL A   1      32.187  33.309  43.988  1.00  0.00     0.079 C 
ATOM     20  C   UNL A   1      30.496  33.882  42.269  1.00  0.00     0.082 C 
ATOM     21  C   UNL A   1      31.165  33.594  45.109  1.00  0.00     0.007 C 
ATOM     22  C   UNL A   1      29.379  34.080  43.309  1.00  0.00    -0.008 C 
ATOM     23  C   UNL A   1      29.715  33.422  44.654  1.00  0.00     0.004 C 
ATOM     24  C   UNL A   1      28.972  35.550  43.454  1.00  0.00     0.008 C 
BRANCH  18  25
ATOM     25  N   UNL A   1      32.058  35.593  43.230  1.00  0.00    -0.345 N 
ATOM     26  H   UNL A   1      31.940  35.623  44.243  1.00  0.00     0.345 HD
ATOM     27  H   UNL A   1      31.333  36.158  42.787  1.00  0.00     0.345 HD
ATOM     28  H   UNL A   1      32.976  35.963  42.983  1.00  0.00     0.345 HD
ENDBRANCH  18  25
ENDBRANCH  15  18
ENDBRANCH  13  14
ENDBRANCH   6   8
ENDBRANCH   5   6
ENDBRANCH   4   5
ENDBRANCH   3   4
ENDBRANCH   2   3
ENDBRANCH   1   2
BRANCH   1  29
ATOM     29  C   UNL A   1      35.640  34.909  33.884  1.00  0.00     0.188 C 
BRANCH  29  30
ATOM     30  O   UNL A   1      34.444  35.657  34.041  1.00  0.00    -0.376 OA
BRANCH  30  31
ATOM     31  C   UNL A   1      34.156  36.633  33.044  1.00  0.00     0.202 C 
BRANCH  31  32
ATOM     32  C   UNL A   1      32.876  36.436  32.229  1.00  0.00     0.261 C 
BRANCH  32  33
ATOM     33  O   UNL A   1      32.908  35.302  31.382  1.00  0.00    -0.460 OA
BRANCH  33  34
ATOM     34  C   UNL A   1      33.476  35.496  30.176  1.00  0.00     0.338 C 
ATOM     35  O   UNL A   1      33.482  36.526  29.526  1.00  0.00    -0.246 OA
BRANCH  34  36
ATOM     36  C   UNL A   1      34.081  34.229  29.749  1.00  0.00     0.060 A 
ATOM     37  C   UNL A   1      34.333  33.301  30.759  1.00  0.00     0.016 A 
ATOM     38  C   UNL A   1      34.711  34.180  28.497  1.00  0.00     0.016 A 
ATOM     39  C   UNL A   1      35.467  32.538  30.641  1.00  0.00     0.010 A 
ATOM     40  C   UNL A   1      35.858  33.441  28.391  1.00  0.00     0.010 A 
ATOM     41  C   UNL A   1      36.275  32.741  29.519  1.00  0.00    -0.014 A 
BRANCH  41  42
ATOM     42  C   UNL A   1      37.648  32.311  29.619  1.00  0.00     0.031 A 
ATOM     43  C   UNL A   1      37.867  30.898  29.282  1.00  0.00     0.074 A 
ATOM     44  C   UNL A   1      38.621  33.192  29.921  1.00  0.00     0.049 A 
ATOM     45  N   UNL A   1      38.272  29.954  30.062  1.00  0.00    -0.248 NA
ATOM     46  C   UNL A   1      37.439  30.457  27.949  1.00  0.00     0.031 C 
ATOM     47  C   UNL A   1      38.526  34.658  29.941  1.00  0.00     0.029 A 
ATOM     48  N   UNL A   1      39.947  32.961  30.107  1.00  0.00    -0.354 N 
ATOM     49  C   UNL A   1      38.361  28.834  29.244  1.00  0.00     0.074 A 
ATOM     50  C   UNL A   1      37.649  29.146  28.033  1.00  0.00     0.031 C 
ATOM     51  C   UNL A   1      39.772  35.174  29.850  1.00  0.00     0.029 A 
ATOM     52  C   UNL A   1      40.731  34.084  29.888  1.00  0.00     0.049 A 
ATOM     53  H   UNL A   1      40.313  32.086  30.368  1.00  0.00     0.167 HD
ATOM     54  C   UNL A   1      39.240  27.833  29.505  1.00  0.00     0.034 A 
ATOM     55  C   UNL A   1      42.060  34.084  29.623  1.00  0.00     0.034 A 
ATOM     56  C   UNL A   1      39.725  27.878  30.857  1.00  0.00     0.049 A 
ATOM     57  C   UNL A   1      42.601  32.769  30.046  1.00  0.00     0.074 A 
ATOM     58  C   UNL A   1      39.145  27.822  32.108  1.00  0.00     0.029 A 
ATOM     59  N   UNL A   1      41.002  28.349  31.048  1.00  0.00    -0.354 N 
ATOM     60  N   UNL A   1      42.672  32.370  31.287  1.00  0.00    -0.248 NA
ATOM     61  C   UNL A   1      42.703  31.717  29.046  1.00  0.00     0.031 C 
ATOM     62  C   UNL A   1      39.947  28.663  32.930  1.00  0.00     0.029 A 
ATOM     63  C   UNL A   1      40.981  29.173  32.140  1.00  0.00     0.049 A 
ATOM     64  H   UNL A   1      41.789  28.131  30.498  1.00  0.00     0.167 HD
ATOM     65  C   UNL A   1      42.402  31.007  31.235  1.00  0.00     0.074 A 
ATOM     66  C   UNL A   1      42.553  30.645  29.829  1.00  0.00     0.031 C 
ATOM     67  C   UNL A   1      41.796  30.363  32.276  1.00  0.00     0.034 A 
BRANCH  54  68
ATOM     68  C   UNL A   1      39.936  27.027  28.440  1.00  0.00     0.023 A 
ATOM     69  C   UNL A   1      39.817  25.623  28.514  1.00  0.00     0.012 A 
ATOM     70  C   UNL A   1      40.899  27.544  27.544  1.00  0.00     0.148 A 
ATOM     71  C   UNL A   1      40.647  24.780  27.770  1.00  0.00     0.002 A 
ATOM     72  C   UNL A   1      41.653  26.704  26.736  1.00  0.00     0.091 A 
ATOM     73  F   UNL A   1      41.209  28.846  27.558  1.00  0.00    -0.205 F 
ATOM     74  C   UNL A   1      41.557  25.319  26.869  1.00  0.00     0.022 A 
BRANCH  72  75
ATOM     75  S   UNL A   1      42.781  27.378  25.512  1.00  0.00     0.127 S 
ATOM     76  O   UNL A   1      43.046  26.209  24.681  1.00  0.00    -0.237 OA
ATOM     77  O   UNL A   1      41.965  28.416  24.881  1.00  0.00    -0.237 OA
ATOM     78  O   UNL A   1      43.904  27.897  26.284  1.00  0.00    -0.744 OA
ENDBRANCH  72  75
ENDBRANCH  54  68
BRANCH  55  79
ATOM     79  C   UNL A   1      42.817  35.019  28.761  1.00  0.00     0.023 A 
ATOM     80  C   UNL A   1      42.699  34.925  27.362  1.00  0.00     0.012 A 
ATOM     81  C   UNL A   1      43.473  36.152  29.299  1.00  0.00     0.148 A 
ATOM     82  C   UNL A   1      43.205  35.929  26.527  1.00  0.00     0.002 A 
ATOM     83  C   UNL A   1      43.996  37.135  28.465  1.00  0.00     0.091 A 
ATOM     84  F   UNL A   1      43.502  36.316  30.628  1.00  0.00    -0.205 F 
ATOM     85  C   UNL A   1      43.854  37.032  27.077  1.00  0.00     0.022 A 
BRANCH  83  86
ATOM     86  S   UNL A   1      44.856  38.574  29.115  1.00  0.00     0.127 S 
ATOM     87  O   UNL A   1      43.777  39.559  29.208  1.00  0.00    -0.237 OA
ATOM     88  O   UNL A   1      45.347  38.081  30.399  1.00  0.00    -0.237 OA
ATOM     89  O   UNL A   1      45.875  38.904  28.126  1.00  0.00    -0.744 OA
ENDBRANCH  83  86
ENDBRANCH  55  79
BRANCH  67  90
ATOM     90  C   UNL A   1      41.679  31.078  33.598  1.00  0.00     0.023 A 
ATOM     91  C   UNL A   1      40.547  31.854  33.918  1.00  0.00     0.012 A 
ATOM     92  C   UNL A   1      42.604  30.770  34.612  1.00  0.00     0.148 A 
ATOM     93  C   UNL A   1      40.344  32.321  35.219  1.00  0.00     0.002 A 
ATOM     94  C   UNL A   1      42.374  31.195  35.916  1.00  0.00     0.091 A 
ATOM     95  F   UNL A   1      43.672  30.024  34.293  1.00  0.00    -0.205 F 
ATOM     96  C   UNL A   1      41.247  31.977  36.222  1.00  0.00     0.022 A 
BRANCH  94  97
ATOM     97  S   UNL A   1      43.412  30.660  37.280  1.00  0.00     0.127 S 
ATOM     98  O   UNL A   1      44.687  31.299  36.963  1.00  0.00    -0.237 OA
ATOM     99  O   UNL A   1      42.719  31.219  38.442  1.00  0.00    -0.237 OA
ATOM    100  O   UNL A   1      43.412  29.203  37.235  1.00  0.00    -0.744 OA
ENDBRANCH  94  97
ENDBRANCH  67  90
ENDBRANCH  41  42
ENDBRANCH  34  36
ENDBRANCH  33  34
ENDBRANCH  32  33
ENDBRANCH  31  32
ENDBRANCH  30  31
ENDBRANCH  29  30
ENDBRANCH   1  29
TORSDOF 23
ENDMDL
MODEL 3
REMARK VINA RESULT:     -10.2      4.582     12.719
REMARK SMILES Cc1nsc(NC(=O)[C@]2([NH3+])CCC[C@@H](C)C2)c1C(=O)OCCOCCOCCOC(=O)c1ccc(-c2c3nc(c(-c4cccc(S(=O)(=O)[O-])c4F)c4ccc([nH]4)c(-c4cccc(S(=O)(=O)[O-])c4F)c4nc(c(-c5cccc(S(=O)(=O)[O-])c5F)c5ccc2[nH]5)C=C4)C=C3)cc1
REMARK SMILES IDX 24 1 23 2 22 3 21 4 20 5 18 6 19 7 17 8 1 9 2 10 3 11 4 12
REMARK SMILES IDX 5 13 6 14 7 15 8 17 9 18 11 19 16 20 12 21 14 22 13 23 15 24
REMARK SMILES IDX 10 25 25 29 26 30 27 31 28 32 29 33 30 34 31 35 32 36 33 37
REMARK SMILES IDX 94 38 34 39 93 40 35 41 36 42 37 43 87 44 38 45 92 46 86 47
REMARK SMILES IDX 88 48 39 49 91 50 85 51 84 52 40 54 72 55 52 56 71 57 53 58
REMARK SMILES IDX 56 59 70 60 89 61 54 62 55 63 69 65 90 66 57 67 41 68 42 69
REMARK SMILES IDX 50 70 43 71 45 72 51 73 44 74 46 75 47 76 48 77 49 78 73 79
REMARK SMILES IDX 74 80 82 81 75 82 77 83 83 84 76 85 78 86 79 87 80 88 81 89
REMARK SMILES IDX 58 90 59 91 67 92 60 93 62 94 68 95 61 96 63 97 64 98 65 99
REMARK SMILES IDX 66 100
REMARK H PARENT 6 16 10 26 10 27 10 28 88 53 56 64
REMARK Flexibility Score: inf
ROOT
ATOM      1  C   UNL A   1      36.729  33.932  34.207  1.00  0.00     0.188 C 
ENDROOT
BRANCH   1   2
ATOM      2  O   UNL A   1      37.806  34.318  35.047  1.00  0.00    -0.376 OA
BRANCH   2   3
ATOM      3  C   UNL A   1      38.775  35.242  34.567  1.00  0.00     0.202 C 
BRANCH   3   4
ATOM      4  C   UNL A   1      39.908  35.694  35.512  1.00  0.00     0.261 C 
BRANCH   4   5
ATOM      5  O   UNL A   1      40.738  36.762  35.005  1.00  0.00    -0.460 OA
BRANCH   5   6
ATOM      6  C   UNL A   1      42.030  36.429  34.691  1.00  0.00     0.343 C 
ATOM      7  O   UNL A   1      42.347  35.736  33.754  1.00  0.00    -0.246 OA
BRANCH   6   8
ATOM      8  C   UNL A   1      43.025  37.173  35.474  1.00  0.00     0.117 A 
ATOM      9  C   UNL A   1      42.606  36.283  37.909  1.00  0.00     0.069 C 
ATOM     10  C   UNL A   1      43.296  37.124  36.889  1.00  0.00     0.068 A 
ATOM     11  N   UNL A   1      44.264  37.939  37.316  1.00  0.00    -0.195 NA
ATOM     12  S   UNL A   1      44.784  38.865  36.054  1.00  0.00    -0.017 S 
ATOM     13  C   UNL A   1      43.789  38.186  34.886  1.00  0.00     0.131 A 
BRANCH  13  14
ATOM     14  N   UNL A   1      43.655  38.617  33.590  1.00  0.00    -0.310 N 
ATOM     15  C   UNL A   1      43.371  39.705  32.868  1.00  0.00     0.286 C 
ATOM     16  H   UNL A   1      43.829  37.863  32.982  1.00  0.00     0.171 HD
ATOM     17  O   UNL A   1      43.267  39.403  31.655  1.00  0.00    -0.267 OA
BRANCH  15  18
ATOM     18  C   UNL A   1      43.268  41.235  33.184  1.00  0.00     0.174 C 
ATOM     19  C   UNL A   1      42.350  41.850  34.236  1.00  0.00     0.079 C 
ATOM     20  C   UNL A   1      42.937  41.930  31.829  1.00  0.00     0.082 C 
ATOM     21  C   UNL A   1      42.536  43.379  34.346  1.00  0.00     0.007 C 
ATOM     22  C   UNL A   1      43.036  43.466  31.814  1.00  0.00    -0.008 C 
ATOM     23  C   UNL A   1      42.326  44.104  33.016  1.00  0.00     0.004 C 
ATOM     24  C   UNL A   1      44.478  43.955  31.651  1.00  0.00     0.008 C 
BRANCH  18  25
ATOM     25  N   UNL A   1      44.661  41.571  33.614  1.00  0.00    -0.345 N 
ATOM     26  H   UNL A   1      45.325  40.987  33.104  1.00  0.00     0.345 HD
ATOM     27  H   UNL A   1      44.758  41.401  34.615  1.00  0.00     0.345 HD
ATOM     28  H   UNL A   1      44.850  42.554  33.416  1.00  0.00     0.345 HD
ENDBRANCH  18  25
ENDBRANCH  15  18
ENDBRANCH  13  14
ENDBRANCH   6   8
ENDBRANCH   5   6
ENDBRANCH   4   5
ENDBRANCH   3   4
ENDBRANCH   2   3
ENDBRANCH   1   2
BRANCH   1  29
ATOM     29  C   UNL A   1      36.034  34.976  33.304  1.00  0.00     0.188 C 
BRANCH  29  30
ATOM     30  O   UNL A   1      34.672  35.229  33.613  1.00  0.00    -0.376 OA
BRANCH  30  31
ATOM     31  C   UNL A   1      34.145  36.495  33.225  1.00  0.00     0.202 C 
BRANCH  31  32
ATOM     32  C   UNL A   1      33.028  36.491  32.180  1.00  0.00     0.261 C 
BRANCH  32  33
ATOM     33  O   UNL A   1      33.013  35.333  31.365  1.00  0.00    -0.460 OA
BRANCH  33  34
ATOM     34  C   UNL A   1      33.471  35.502  30.110  1.00  0.00     0.338 C 
ATOM     35  O   UNL A   1      33.400  36.513  29.434  1.00  0.00    -0.246 OA
BRANCH  34  36
ATOM     36  C   UNL A   1      34.064  34.235  29.667  1.00  0.00     0.060 A 
ATOM     37  C   UNL A   1      34.278  33.280  30.661  1.00  0.00     0.016 A 
ATOM     38  C   UNL A   1      34.721  34.203  28.428  1.00  0.00     0.016 A 
ATOM     39  C   UNL A   1      35.400  32.500  30.550  1.00  0.00     0.010 A 
ATOM     40  C   UNL A   1      35.857  33.447  28.331  1.00  0.00     0.010 A 
ATOM     41  C   UNL A   1      36.237  32.713  29.451  1.00  0.00    -0.014 A 
BRANCH  41  42
ATOM     42  C   UNL A   1      37.599  32.257  29.571  1.00  0.00     0.031 A 
ATOM     43  C   UNL A   1      37.801  30.847  29.213  1.00  0.00     0.074 A 
ATOM     44  C   UNL A   1      38.581  33.115  29.909  1.00  0.00     0.049 A 
ATOM     45  N   UNL A   1      38.172  29.881  29.983  1.00  0.00    -0.248 NA
ATOM     46  C   UNL A   1      37.392  30.438  27.863  1.00  0.00     0.031 C 
ATOM     47  C   UNL A   1      38.512  34.582  29.954  1.00  0.00     0.029 A 
ATOM     48  N   UNL A   1      39.899  32.857  30.118  1.00  0.00    -0.354 N 
ATOM     49  C   UNL A   1      38.258  28.776  29.146  1.00  0.00     0.074 A 
ATOM     50  C   UNL A   1      37.577  29.122  27.927  1.00  0.00     0.031 C 
ATOM     51  C   UNL A   1      39.768  35.076  29.899  1.00  0.00     0.029 A 
ATOM     52  C   UNL A   1      40.707  33.969  29.936  1.00  0.00     0.049 A 
ATOM     53  H   UNL A   1      40.243  31.970  30.371  1.00  0.00     0.167 HD
ATOM     54  C   UNL A   1      39.114  27.754  29.407  1.00  0.00     0.034 A 
ATOM     55  C   UNL A   1      42.041  33.950  29.699  1.00  0.00     0.034 A 
ATOM     56  C   UNL A   1      39.572  27.766  30.770  1.00  0.00     0.049 A 
ATOM     57  C   UNL A   1      42.550  32.618  30.108  1.00  0.00     0.074 A 
ATOM     58  C   UNL A   1      38.964  27.698  32.007  1.00  0.00     0.029 A 
ATOM     59  N   UNL A   1      40.852  28.210  30.995  1.00  0.00    -0.354 N 
ATOM     60  N   UNL A   1      42.588  32.195  31.343  1.00  0.00    -0.248 NA
ATOM     61  C   UNL A   1      42.654  31.582  29.091  1.00  0.00     0.031 C 
ATOM     62  C   UNL A   1      39.764  28.509  32.860  1.00  0.00     0.029 A 
ATOM     63  C   UNL A   1      40.822  29.014  32.101  1.00  0.00     0.049 A 
ATOM     64  H   UNL A   1      41.646  27.988  30.458  1.00  0.00     0.167 HD
ATOM     65  C   UNL A   1      42.295  30.839  31.260  1.00  0.00     0.074 A 
ATOM     66  C   UNL A   1      42.469  30.499  29.851  1.00  0.00     0.031 C 
ATOM     67  C   UNL A   1      41.656  30.186  32.276  1.00  0.00     0.034 A 
BRANCH  54  68
ATOM     68  C   UNL A   1      39.817  26.955  28.341  1.00  0.00     0.023 A 
ATOM     69  C   UNL A   1      39.638  25.556  28.363  1.00  0.00     0.012 A 
ATOM     70  C   UNL A   1      40.835  27.460  27.501  1.00  0.00     0.148 A 
ATOM     71  C   UNL A   1      40.461  24.703  27.621  1.00  0.00     0.002 A 
ATOM     72  C   UNL A   1      41.586  26.616  26.694  1.00  0.00     0.091 A 
ATOM     73  F   UNL A   1      41.198  28.746  27.572  1.00  0.00    -0.205 F 
ATOM     74  C   UNL A   1      41.427  25.233  26.775  1.00  0.00     0.022 A 
BRANCH  72  75
ATOM     75  S   UNL A   1      42.787  27.282  25.537  1.00  0.00     0.127 S 
ATOM     76  O   UNL A   1      43.094  26.111  24.725  1.00  0.00    -0.237 OA
ATOM     77  O   UNL A   1      42.015  28.323  24.858  1.00  0.00    -0.237 OA
ATOM     78  O   UNL A   1      43.865  27.797  26.373  1.00  0.00    -0.744 OA
ENDBRANCH  72  75
ENDBRANCH  54  68
BRANCH  55  79
ATOM     79  C   UNL A   1      42.832  34.887  28.869  1.00  0.00     0.023 A 
ATOM     80  C   UNL A   1      42.263  35.437  27.706  1.00  0.00     0.012 A 
ATOM     81  C   UNL A   1      44.056  35.427  29.331  1.00  0.00     0.148 A 
ATOM     82  C   UNL A   1      42.883  36.496  27.033  1.00  0.00     0.002 A 
ATOM     83  C   UNL A   1      44.681  36.462  28.645  1.00  0.00     0.091 A 
ATOM     84  F   UNL A   1      44.561  34.992  30.493  1.00  0.00    -0.205 F 
ATOM     85  C   UNL A   1      44.091  37.008  27.500  1.00  0.00     0.022 A 
BRANCH  83  86
ATOM     86  S   UNL A   1      46.249  37.155  29.191  1.00  0.00     0.127 S 
ATOM     87  O   UNL A   1      47.123  35.981  29.180  1.00  0.00    -0.237 OA
ATOM     88  O   UNL A   1      46.528  38.136  28.146  1.00  0.00    -0.237 OA
ATOM     89  O   UNL A   1      45.999  37.694  30.522  1.00  0.00    -0.744 OA
ENDBRANCH  83  86
ENDBRANCH  55  79
BRANCH  67  90
ATOM     90  C   UNL A   1      41.524  30.880  33.609  1.00  0.00     0.023 A 
ATOM     91  C   UNL A   1      40.344  31.558  33.972  1.00  0.00     0.012 A 
ATOM     92  C   UNL A   1      42.503  30.640  34.590  1.00  0.00     0.148 A 
ATOM     93  C   UNL A   1      40.145  31.997  35.283  1.00  0.00     0.002 A 
ATOM     94  C   UNL A   1      42.281  31.034  35.905  1.00  0.00     0.091 A 
ATOM     95  F   UNL A   1      43.617  29.985  34.230  1.00  0.00    -0.205 F 
ATOM     96  C   UNL A   1      41.106  31.720  36.253  1.00  0.00     0.022 A 
BRANCH  94  97
ATOM     97  S   UNL A   1      43.403  30.574  37.230  1.00  0.00     0.127 S 
ATOM     98  O   UNL A   1      42.757  31.170  38.397  1.00  0.00    -0.237 OA
ATOM     99  O   UNL A   1      43.359  29.112  37.186  1.00  0.00    -0.237 OA
ATOM    100  O   UNL A   1      44.697  31.139  36.871  1.00  0.00    -0.744 OA
ENDBRANCH  94  97
ENDBRANCH  67  90
ENDBRANCH  41  42
ENDBRANCH  34  36
ENDBRANCH  33  34
ENDBRANCH  32  33
ENDBRANCH  31  32
ENDBRANCH  30  31
ENDBRANCH  29  30
ENDBRANCH   1  29
TORSDOF 23
ENDMDL
