MODEL 1
REMARK VINA RESULT:     -10.1      0.000      0.000
REMARK SMILES Cc1cccc(CS[C@@H]2CC[C@]([NH3+])(C(=O)OCCOCCOCCOC(=O)c3ccc(-c4c5nc(c(-c6cccc(S(=O)(=O)[O-])c6F)c6ccc([nH]6)c(-c6cccc(S(=O)(=O)[O-])c6F)c6nc(c(-c7cccc(S(=O)(=O)[O-])c7F)c7ccc4[nH]7)C=C6)C=C5)cc3)C2)c1
REMARK SMILES IDX 20 1 19 2 18 3 17 4 16 5 14 6 15 7 12 8 9 9 10 10 91 11
REMARK SMILES IDX 11 12 8 13 7 14 6 15 1 16 2 17 3 18 92 19 4 20 5 21 13 22
REMARK SMILES IDX 21 26 22 27 23 28 24 29 25 30 26 31 27 32 28 33 29 34 90 35
REMARK SMILES IDX 30 36 89 37 31 38 32 39 33 40 83 41 34 42 88 43 82 44 84 45
REMARK SMILES IDX 35 46 87 47 81 48 80 49 36 51 68 52 48 53 67 54 49 55 52 56
REMARK SMILES IDX 66 57 85 58 50 59 51 60 65 62 86 63 53 64 37 65 38 66 46 67
REMARK SMILES IDX 39 68 41 69 47 70 40 71 42 72 43 73 44 74 45 75 69 76 70 77
REMARK SMILES IDX 78 78 71 79 73 80 79 81 72 82 74 83 75 84 76 85 77 86 54 87
REMARK SMILES IDX 55 88 63 89 56 90 58 91 64 92 57 93 59 94 60 95 61 96 62 97
REMARK H PARENT 13 23 13 24 13 25 84 50 52 61
REMARK Flexibility Score: inf
ROOT
ATOM      1  C   UNL A   1      38.863  23.360  26.531  1.00  0.00     0.188 C 
ENDROOT
BRANCH   1   2
ATOM      2  O   UNL A   1      37.729  24.223  26.469  1.00  0.00    -0.376 OA
BRANCH   2   3
ATOM      3  C   UNL A   1      36.885  23.789  25.361  1.00  0.00     0.202 C 
BRANCH   3   4
ATOM      4  C   UNL A   1      35.427  24.478  25.438  1.00  0.00     0.261 C 
BRANCH   4   5
ATOM      5  O   UNL A   1      34.533  25.359  24.322  1.00  0.00    -0.459 OA
BRANCH   5   6
ATOM      6  C   UNL A   1      33.919  25.275  23.054  1.00  0.00     0.368 C 
ATOM      7  O   UNL A   1      34.106  25.967  22.067  1.00  0.00    -0.245 OA
BRANCH   6   8
ATOM      8  C   UNL A   1      32.827  24.249  22.872  1.00  0.00     0.193 C 
ATOM      9  C   UNL A   1      31.776  22.333  23.996  1.00  0.00     0.054 C 
ATOM     10  C   UNL A   1      32.495  21.861  22.726  1.00  0.00     0.022 C 
ATOM     11  C   UNL A   1      32.278  23.749  24.260  1.00  0.00     0.095 C 
ATOM     12  C   UNL A   1      33.479  22.965  22.362  1.00  0.00     0.082 C 
BRANCH   9  13
ATOM     13  S   UNL A   1      31.725  21.168  25.427  1.00  0.00    -0.154 SA
BRANCH  13  14
ATOM     14  C   UNL A   1      33.324  20.255  25.387  1.00  0.00     0.105 C 
BRANCH  14  15
ATOM     15  C   UNL A   1      33.284  18.835  24.867  1.00  0.00    -0.038 A 
ATOM     16  C   UNL A   1      32.341  15.323  26.085  1.00  0.00     0.044 C 
ATOM     17  C   UNL A   1      32.848  16.465  25.260  1.00  0.00    -0.051 A 
ATOM     18  C   UNL A   1      33.286  16.172  23.968  1.00  0.00     0.003 A 
ATOM     19  C   UNL A   1      32.883  17.790  25.719  1.00  0.00     0.008 A 
ATOM     20  C   UNL A   1      33.606  17.198  23.094  1.00  0.00     0.001 A 
ATOM     21  C   UNL A   1      33.545  18.521  23.525  1.00  0.00     0.004 A 
ENDBRANCH  14  15
ENDBRANCH  13  14
ENDBRANCH   9  13
BRANCH   8  22
ATOM     22  N   UNL A   1      31.750  24.813  22.042  1.00  0.00    -0.343 N 
ATOM     23  H   UNL A   1      31.629  24.241  21.206  1.00  0.00     0.345 HD
ATOM     24  H   UNL A   1      31.993  25.766  21.771  1.00  0.00     0.345 HD
ATOM     25  H   UNL A   1      30.880  24.823  22.575  1.00  0.00     0.345 HD
ENDBRANCH   8  22
ENDBRANCH   6   8
ENDBRANCH   5   6
ENDBRANCH   4   5
ENDBRANCH   3   4
ENDBRANCH   2   3
ENDBRANCH   1   2
BRANCH   1  26
ATOM     26  C   UNL A   1      38.670  22.005  25.871  1.00  0.00     0.188 C 
BRANCH  26  27
ATOM     27  O   UNL A   1      39.771  21.104  25.846  1.00  0.00    -0.376 OA
BRANCH  27  28
ATOM     28  C   UNL A   1      40.835  21.367  26.756  1.00  0.00     0.202 C 
BRANCH  28  29
ATOM     29  C   UNL A   1      42.216  21.774  26.177  1.00  0.00     0.261 C 
BRANCH  29  30
ATOM     30  O   UNL A   1      42.308  23.165  25.817  1.00  0.00    -0.460 OA
BRANCH  30  31
ATOM     31  C   UNL A   1      43.200  23.482  24.837  1.00  0.00     0.338 C 
ATOM     32  O   UNL A   1      43.741  22.678  24.066  1.00  0.00    -0.246 OA
BRANCH  31  33
ATOM     33  C   UNL A   1      43.626  24.869  25.118  1.00  0.00     0.060 A 
ATOM     34  C   UNL A   1      44.926  25.299  24.966  1.00  0.00     0.016 A 
ATOM     35  C   UNL A   1      42.829  25.693  25.851  1.00  0.00     0.016 A 
ATOM     36  C   UNL A   1      45.459  26.290  25.846  1.00  0.00     0.010 A 
ATOM     37  C   UNL A   1      43.454  26.560  26.782  1.00  0.00     0.010 A 
ATOM     38  C   UNL A   1      44.836  26.697  27.026  1.00  0.00    -0.014 A 
BRANCH  38  39
ATOM     39  C   UNL A   1      45.757  27.104  28.398  1.00  0.00     0.031 A 
ATOM     40  C   UNL A   1      47.097  26.398  29.260  1.00  0.00     0.074 A 
ATOM     41  C   UNL A   1      45.390  28.279  28.986  1.00  0.00     0.049 A 
ATOM     42  N   UNL A   1      47.332  26.569  30.554  1.00  0.00    -0.248 NA
ATOM     43  C   UNL A   1      48.168  25.465  28.815  1.00  0.00     0.031 C 
ATOM     44  C   UNL A   1      46.042  28.956  30.105  1.00  0.00     0.029 A 
ATOM     45  N   UNL A   1      44.218  29.030  28.853  1.00  0.00    -0.354 N 
ATOM     46  C   UNL A   1      48.525  25.910  30.934  1.00  0.00     0.074 A 
ATOM     47  C   UNL A   1      48.946  25.172  29.833  1.00  0.00     0.031 C 
ATOM     48  C   UNL A   1      45.111  29.665  30.763  1.00  0.00     0.029 A 
ATOM     49  C   UNL A   1      43.833  29.373  30.145  1.00  0.00     0.049 A 
ATOM     50  H   UNL A   1      43.759  29.268  28.015  1.00  0.00     0.167 HD
ATOM     51  C   UNL A   1      49.186  26.019  32.115  1.00  0.00     0.034 A 
ATOM     52  C   UNL A   1      42.689  28.931  30.750  1.00  0.00     0.034 A 
ATOM     53  C   UNL A   1      48.420  26.859  32.999  1.00  0.00     0.049 A 
ATOM     54  C   UNL A   1      42.939  28.373  32.143  1.00  0.00     0.074 A 
ATOM     55  C   UNL A   1      48.453  28.188  33.367  1.00  0.00     0.029 A 
ATOM     56  N   UNL A   1      47.173  26.386  33.355  1.00  0.00    -0.354 N 
ATOM     57  N   UNL A   1      44.113  28.289  32.714  1.00  0.00    -0.248 NA
ATOM     58  C   UNL A   1      41.882  27.827  32.992  1.00  0.00     0.031 C 
ATOM     59  C   UNL A   1      47.184  28.505  33.943  1.00  0.00     0.029 A 
ATOM     60  C   UNL A   1      46.412  27.356  33.957  1.00  0.00     0.049 A 
ATOM     61  H   UNL A   1      46.867  25.464  33.198  1.00  0.00     0.167 HD
ATOM     62  C   UNL A   1      44.015  27.512  33.838  1.00  0.00     0.074 A 
ATOM     63  C   UNL A   1      42.587  27.358  34.035  1.00  0.00     0.031 C 
ATOM     64  C   UNL A   1      45.104  26.950  34.447  1.00  0.00     0.034 A 
BRANCH  51  65
ATOM     65  C   UNL A   1      50.629  25.496  32.342  1.00  0.00     0.023 A 
ATOM     66  C   UNL A   1      51.682  26.394  32.089  1.00  0.00     0.012 A 
ATOM     67  C   UNL A   1      51.039  24.187  32.756  1.00  0.00     0.148 A 
ATOM     68  C   UNL A   1      53.034  26.005  32.133  1.00  0.00     0.002 A 
ATOM     69  C   UNL A   1      52.381  23.770  32.696  1.00  0.00     0.091 A 
ATOM     70  F   UNL A   1      50.154  23.362  33.336  1.00  0.00    -0.205 F 
ATOM     71  C   UNL A   1      53.384  24.686  32.387  1.00  0.00     0.022 A 
BRANCH  69  72
ATOM     72  S   UNL A   1      52.886  22.039  32.878  1.00  0.00     0.127 S 
ATOM     73  O   UNL A   1      51.941  21.342  32.000  1.00  0.00    -0.237 OA
ATOM     74  O   UNL A   1      54.264  22.047  32.394  1.00  0.00    -0.237 OA
ATOM     75  O   UNL A   1      52.707  21.727  34.292  1.00  0.00    -0.744 OA
ENDBRANCH  69  72
ENDBRANCH  51  65
BRANCH  52  76
ATOM     76  C   UNL A   1      41.548  28.545  29.837  1.00  0.00     0.023 A 
ATOM     77  C   UNL A   1      41.457  27.178  29.467  1.00  0.00     0.012 A 
ATOM     78  C   UNL A   1      40.435  29.371  29.561  1.00  0.00     0.148 A 
ATOM     79  C   UNL A   1      40.285  26.632  28.931  1.00  0.00     0.002 A 
ATOM     80  C   UNL A   1      39.255  28.812  29.041  1.00  0.00     0.091 A 
ATOM     81  F   UNL A   1      40.493  30.668  29.887  1.00  0.00    -0.205 F 
ATOM     82  C   UNL A   1      39.180  27.447  28.729  1.00  0.00     0.022 A 
BRANCH  80  83
ATOM     83  S   UNL A   1      37.705  29.746  29.017  1.00  0.00     0.127 S 
ATOM     84  O   UNL A   1      38.111  31.029  28.440  1.00  0.00    -0.237 OA
ATOM     85  O   UNL A   1      36.830  28.963  28.158  1.00  0.00    -0.237 OA
ATOM     86  O   UNL A   1      37.367  29.792  30.436  1.00  0.00    -0.744 OA
ENDBRANCH  80  83
ENDBRANCH  52  76
BRANCH  64  87
ATOM     87  C   UNL A   1      45.046  25.820  35.470  1.00  0.00     0.023 A 
ATOM     88  C   UNL A   1      44.985  24.468  35.081  1.00  0.00     0.012 A 
ATOM     89  C   UNL A   1      45.243  26.074  36.858  1.00  0.00     0.148 A 
ATOM     90  C   UNL A   1      45.029  23.425  36.011  1.00  0.00     0.002 A 
ATOM     91  C   UNL A   1      45.386  25.028  37.769  1.00  0.00     0.091 A 
ATOM     92  F   UNL A   1      45.305  27.341  37.294  1.00  0.00    -0.205 F 
ATOM     93  C   UNL A   1      45.247  23.702  37.352  1.00  0.00     0.022 A 
BRANCH  91  94
ATOM     94  S   UNL A   1      45.866  25.304  39.484  1.00  0.00     0.127 S 
ATOM     95  O   UNL A   1      44.647  25.886  40.044  1.00  0.00    -0.237 OA
ATOM     96  O   UNL A   1      46.159  23.947  39.949  1.00  0.00    -0.237 OA
ATOM     97  O   UNL A   1      47.022  26.187  39.436  1.00  0.00    -0.744 OA
ENDBRANCH  91  94
ENDBRANCH  64  87
ENDBRANCH  38  39
ENDBRANCH  31  33
ENDBRANCH  30  31
ENDBRANCH  29  30
ENDBRANCH  28  29
ENDBRANCH  27  28
ENDBRANCH  26  27
ENDBRANCH   1  26
TORSDOF 24
ENDMDL
MODEL 2
REMARK VINA RESULT:      -9.8      2.805      4.578
REMARK SMILES Cc1cccc(CS[C@@H]2CC[C@]([NH3+])(C(=O)OCCOCCOCCOC(=O)c3ccc(-c4c5nc(c(-c6cccc(S(=O)(=O)[O-])c6F)c6ccc([nH]6)c(-c6cccc(S(=O)(=O)[O-])c6F)c6nc(c(-c7cccc(S(=O)(=O)[O-])c7F)c7ccc4[nH]7)C=C6)C=C5)cc3)C2)c1
REMARK SMILES IDX 20 1 19 2 18 3 17 4 16 5 14 6 15 7 12 8 9 9 10 10 91 11
REMARK SMILES IDX 11 12 8 13 7 14 6 15 1 16 2 17 3 18 92 19 4 20 5 21 13 22
REMARK SMILES IDX 21 26 22 27 23 28 24 29 25 30 26 31 27 32 28 33 29 34 90 35
REMARK SMILES IDX 30 36 89 37 31 38 32 39 33 40 83 41 34 42 88 43 82 44 84 45
REMARK SMILES IDX 35 46 87 47 81 48 80 49 36 51 68 52 48 53 67 54 49 55 52 56
REMARK SMILES IDX 66 57 85 58 50 59 51 60 65 62 86 63 53 64 37 65 38 66 46 67
REMARK SMILES IDX 39 68 41 69 47 70 40 71 42 72 43 73 44 74 45 75 69 76 70 77
REMARK SMILES IDX 78 78 71 79 73 80 79 81 72 82 74 83 75 84 76 85 77 86 54 87
REMARK SMILES IDX 55 88 63 89 56 90 58 91 64 92 57 93 59 94 60 95 61 96 62 97
REMARK H PARENT 13 23 13 24 13 25 84 50 52 61
REMARK Flexibility Score: inf
ROOT
ATOM      1  C   UNL A   1      39.219  23.411  26.634  1.00  0.00     0.188 C 
ENDROOT
BRANCH   1   2
ATOM      2  O   UNL A   1      37.888  23.887  26.447  1.00  0.00    -0.376 OA
BRANCH   2   3
ATOM      3  C   UNL A   1      37.146  22.884  25.690  1.00  0.00     0.202 C 
BRANCH   3   4
ATOM      4  C   UNL A   1      35.564  23.203  25.699  1.00  0.00     0.261 C 
BRANCH   4   5
ATOM      5  O   UNL A   1      34.325  22.807  24.636  1.00  0.00    -0.459 OA
BRANCH   5   6
ATOM      6  C   UNL A   1      32.972  22.408  24.583  1.00  0.00     0.368 C 
ATOM      7  O   UNL A   1      32.399  21.562  25.248  1.00  0.00    -0.245 OA
BRANCH   6   8
ATOM      8  C   UNL A   1      32.099  23.040  23.526  1.00  0.00     0.193 C 
ATOM      9  C   UNL A   1      31.536  25.218  22.538  1.00  0.00     0.054 C 
ATOM     10  C   UNL A   1      30.316  24.650  23.274  1.00  0.00     0.022 C 
ATOM     11  C   UNL A   1      32.728  24.380  22.992  1.00  0.00     0.095 C 
ATOM     12  C   UNL A   1      30.852  23.584  24.220  1.00  0.00     0.082 C 
BRANCH   9  13
ATOM     13  S   UNL A   1      31.743  27.052  22.525  1.00  0.00    -0.154 SA
BRANCH  13  14
ATOM     14  C   UNL A   1      30.766  27.677  23.955  1.00  0.00     0.105 C 
BRANCH  14  15
ATOM     15  C   UNL A   1      29.610  28.600  23.640  1.00  0.00    -0.038 A 
ATOM     16  C   UNL A   1      28.910  32.351  23.255  1.00  0.00     0.044 C 
ATOM     17  C   UNL A   1      28.745  30.867  23.362  1.00  0.00    -0.051 A 
ATOM     18  C   UNL A   1      27.467  30.351  23.149  1.00  0.00     0.003 A 
ATOM     19  C   UNL A   1      29.806  29.993  23.643  1.00  0.00     0.008 A 
ATOM     20  C   UNL A   1      27.275  28.981  23.063  1.00  0.00     0.001 A 
ATOM     21  C   UNL A   1      28.353  28.118  23.246  1.00  0.00     0.004 A 
ENDBRANCH  14  15
ENDBRANCH  13  14
ENDBRANCH   9  13
BRANCH   8  22
ATOM     22  N   UNL A   1      31.874  22.081  22.431  1.00  0.00    -0.343 N 
ATOM     23  H   UNL A   1      31.997  21.130  22.781  1.00  0.00     0.345 HD
ATOM     24  H   UNL A   1      32.544  22.257  21.682  1.00  0.00     0.345 HD
ATOM     25  H   UNL A   1      30.925  22.191  22.072  1.00  0.00     0.345 HD
ENDBRANCH   8  22
ENDBRANCH   6   8
ENDBRANCH   5   6
ENDBRANCH   4   5
ENDBRANCH   3   4
ENDBRANCH   2   3
ENDBRANCH   1   2
BRANCH   1  26
ATOM     26  C   UNL A   1      39.472  22.004  26.118  1.00  0.00     0.188 C 
BRANCH  26  27
ATOM     27  O   UNL A   1      40.561  21.271  26.666  1.00  0.00    -0.376 OA
BRANCH  27  28
ATOM     28  C   UNL A   1      41.256  21.874  27.754  1.00  0.00     0.202 C 
BRANCH  28  29
ATOM     29  C   UNL A   1      42.696  22.400  27.506  1.00  0.00     0.261 C 
BRANCH  29  30
ATOM     30  O   UNL A   1      42.759  23.510  26.592  1.00  0.00    -0.460 OA
BRANCH  30  31
ATOM     31  C   UNL A   1      43.319  23.264  25.375  1.00  0.00     0.338 C 
ATOM     32  O   UNL A   1      43.215  22.210  24.733  1.00  0.00    -0.246 OA
BRANCH  31  33
ATOM     33  C   UNL A   1      44.315  24.337  25.169  1.00  0.00     0.060 A 
ATOM     34  C   UNL A   1      45.674  24.106  25.151  1.00  0.00     0.016 A 
ATOM     35  C   UNL A   1      43.956  25.641  25.317  1.00  0.00     0.016 A 
ATOM     36  C   UNL A   1      46.573  25.091  25.659  1.00  0.00     0.010 A 
ATOM     37  C   UNL A   1      44.881  26.515  25.941  1.00  0.00     0.010 A 
ATOM     38  C   UNL A   1      46.171  26.196  26.410  1.00  0.00    -0.014 A 
BRANCH  38  39
ATOM     39  C   UNL A   1      47.145  26.786  27.675  1.00  0.00     0.031 A 
ATOM     40  C   UNL A   1      48.571  26.241  28.516  1.00  0.00     0.074 A 
ATOM     41  C   UNL A   1      46.746  27.995  28.167  1.00  0.00     0.049 A 
ATOM     42  N   UNL A   1      48.870  26.554  29.769  1.00  0.00    -0.248 NA
ATOM     43  C   UNL A   1      49.666  25.324  28.098  1.00  0.00     0.031 C 
ATOM     44  C   UNL A   1      47.422  28.815  29.171  1.00  0.00     0.029 A 
ATOM     45  N   UNL A   1      45.528  28.668  28.035  1.00  0.00    -0.354 N 
ATOM     46  C   UNL A   1      50.119  25.999  30.137  1.00  0.00     0.074 A 
ATOM     47  C   UNL A   1      50.516  25.175  29.090  1.00  0.00     0.031 C 
ATOM     48  C   UNL A   1      46.491  29.538  29.813  1.00  0.00     0.029 A 
ATOM     49  C   UNL A   1      45.199  29.120  29.308  1.00  0.00     0.049 A 
ATOM     50  H   UNL A   1      45.008  28.796  27.208  1.00  0.00     0.167 HD
ATOM     51  C   UNL A   1      50.839  26.261  31.257  1.00  0.00     0.034 A 
ATOM     52  C   UNL A   1      44.118  28.684  30.025  1.00  0.00     0.034 A 
ATOM     53  C   UNL A   1      50.078  27.146  32.101  1.00  0.00     0.049 A 
ATOM     54  C   UNL A   1      44.479  28.284  31.447  1.00  0.00     0.074 A 
ATOM     55  C   UNL A   1      50.056  28.506  32.334  1.00  0.00     0.029 A 
ATOM     56  N   UNL A   1      48.882  26.649  32.580  1.00  0.00    -0.354 N 
ATOM     57  N   UNL A   1      45.687  28.318  31.948  1.00  0.00    -0.248 NA
ATOM     58  C   UNL A   1      43.505  27.773  32.410  1.00  0.00     0.031 C 
ATOM     59  C   UNL A   1      48.806  28.815  32.954  1.00  0.00     0.029 A 
ATOM     60  C   UNL A   1      48.103  27.635  33.130  1.00  0.00     0.049 A 
ATOM     61  H   UNL A   1      48.621  25.701  32.533  1.00  0.00     0.167 HD
ATOM     62  C   UNL A   1      45.699  27.655  33.147  1.00  0.00     0.074 A 
ATOM     63  C   UNL A   1      44.295  27.450  33.447  1.00  0.00     0.031 C 
ATOM     64  C   UNL A   1      46.851  27.215  33.738  1.00  0.00     0.034 A 
BRANCH  51  65
ATOM     65  C   UNL A   1      52.319  25.838  31.443  1.00  0.00     0.023 A 
ATOM     66  C   UNL A   1      53.265  26.425  30.584  1.00  0.00     0.012 A 
ATOM     67  C   UNL A   1      52.857  24.890  32.373  1.00  0.00     0.148 A 
ATOM     68  C   UNL A   1      54.617  26.033  30.565  1.00  0.00     0.002 A 
ATOM     69  C   UNL A   1      54.180  24.421  32.283  1.00  0.00     0.091 A 
ATOM     70  F   UNL A   1      52.135  24.519  33.442  1.00  0.00    -0.205 F 
ATOM     71  C   UNL A   1      55.065  24.999  31.376  1.00  0.00     0.022 A 
BRANCH  69  72
ATOM     72  S   UNL A   1      54.785  22.987  33.211  1.00  0.00     0.127 S 
ATOM     73  O   UNL A   1      54.126  21.869  32.529  1.00  0.00    -0.237 OA
ATOM     74  O   UNL A   1      56.229  23.049  33.006  1.00  0.00    -0.237 OA
ATOM     75  O   UNL A   1      54.324  23.186  34.581  1.00  0.00    -0.744 OA
ENDBRANCH  69  72
ENDBRANCH  51  65
BRANCH  52  76
ATOM     76  C   UNL A   1      42.951  28.150  29.228  1.00  0.00     0.023 A 
ATOM     77  C   UNL A   1      42.866  26.741  29.079  1.00  0.00     0.012 A 
ATOM     78  C   UNL A   1      41.817  28.912  28.868  1.00  0.00     0.148 A 
ATOM     79  C   UNL A   1      41.684  26.107  28.681  1.00  0.00     0.002 A 
ATOM     80  C   UNL A   1      40.626  28.268  28.488  1.00  0.00     0.091 A 
ATOM     81  F   UNL A   1      41.867  30.245  28.985  1.00  0.00    -0.205 F 
ATOM     82  C   UNL A   1      40.560  26.871  28.396  1.00  0.00     0.022 A 
BRANCH  80  83
ATOM     83  S   UNL A   1      39.063  29.173  28.378  1.00  0.00     0.127 S 
ATOM     84  O   UNL A   1      39.040  29.609  26.980  1.00  0.00    -0.237 OA
ATOM     85  O   UNL A   1      38.051  28.178  28.702  1.00  0.00    -0.237 OA
ATOM     86  O   UNL A   1      39.271  30.241  29.350  1.00  0.00    -0.744 OA
ENDBRANCH  80  83
ENDBRANCH  52  76
BRANCH  64  87
ATOM     87  C   UNL A   1      46.916  26.193  34.870  1.00  0.00     0.023 A 
ATOM     88  C   UNL A   1      47.137  26.578  36.207  1.00  0.00     0.012 A 
ATOM     89  C   UNL A   1      46.568  24.830  34.650  1.00  0.00     0.148 A 
ATOM     90  C   UNL A   1      47.103  25.658  37.259  1.00  0.00     0.002 A 
ATOM     91  C   UNL A   1      46.436  23.938  35.715  1.00  0.00     0.091 A 
ATOM     92  F   UNL A   1      46.349  24.398  33.399  1.00  0.00    -0.205 F 
ATOM     93  C   UNL A   1      46.735  24.343  37.017  1.00  0.00     0.022 A 
BRANCH  91  94
ATOM     94  S   UNL A   1      45.775  22.275  35.503  1.00  0.00     0.127 S 
ATOM     95  O   UNL A   1      46.832  21.632  34.724  1.00  0.00    -0.237 OA
ATOM     96  O   UNL A   1      45.666  21.803  36.884  1.00  0.00    -0.237 OA
ATOM     97  O   UNL A   1      44.500  22.440  34.820  1.00  0.00    -0.744 OA
ENDBRANCH  91  94
ENDBRANCH  64  87
ENDBRANCH  38  39
ENDBRANCH  31  33
ENDBRANCH  30  31
ENDBRANCH  29  30
ENDBRANCH  28  29
ENDBRANCH  27  28
ENDBRANCH  26  27
ENDBRANCH   1  26
TORSDOF 24
ENDMDL
MODEL 3
REMARK VINA RESULT:      -9.5      2.508      4.530
REMARK SMILES Cc1cccc(CS[C@@H]2CC[C@]([NH3+])(C(=O)OCCOCCOCCOC(=O)c3ccc(-c4c5nc(c(-c6cccc(S(=O)(=O)[O-])c6F)c6ccc([nH]6)c(-c6cccc(S(=O)(=O)[O-])c6F)c6nc(c(-c7cccc(S(=O)(=O)[O-])c7F)c7ccc4[nH]7)C=C6)C=C5)cc3)C2)c1
REMARK SMILES IDX 20 1 19 2 18 3 17 4 16 5 14 6 15 7 12 8 9 9 10 10 91 11
REMARK SMILES IDX 11 12 8 13 7 14 6 15 1 16 2 17 3 18 92 19 4 20 5 21 13 22
REMARK SMILES IDX 21 26 22 27 23 28 24 29 25 30 26 31 27 32 28 33 29 34 90 35
REMARK SMILES IDX 30 36 89 37 31 38 32 39 33 40 83 41 34 42 88 43 82 44 84 45
REMARK SMILES IDX 35 46 87 47 81 48 80 49 36 51 68 52 48 53 67 54 49 55 52 56
REMARK SMILES IDX 66 57 85 58 50 59 51 60 65 62 86 63 53 64 37 65 38 66 46 67
REMARK SMILES IDX 39 68 41 69 47 70 40 71 42 72 43 73 44 74 45 75 69 76 70 77
REMARK SMILES IDX 78 78 71 79 73 80 79 81 72 82 74 83 75 84 76 85 77 86 54 87
REMARK SMILES IDX 55 88 63 89 56 90 58 91 64 92 57 93 59 94 60 95 61 96 62 97
REMARK H PARENT 13 23 13 24 13 25 84 50 52 61
REMARK Flexibility Score: inf
ROOT
ATOM      1  C   UNL A   1      39.201  22.958  26.858  1.00  0.00     0.188 C 
ENDROOT
BRANCH   1   2
ATOM      2  O   UNL A   1      38.158  23.685  26.210  1.00  0.00    -0.376 OA
BRANCH   2   3
ATOM      3  C   UNL A   1      37.460  22.775  25.308  1.00  0.00     0.202 C 
BRANCH   3   4
ATOM      4  C   UNL A   1      35.924  22.573  25.762  1.00  0.00     0.261 C 
BRANCH   4   5
ATOM      5  O   UNL A   1      34.562  23.543  25.602  1.00  0.00    -0.459 OA
BRANCH   5   6
ATOM      6  C   UNL A   1      33.153  23.500  25.523  1.00  0.00     0.368 C 
ATOM      7  O   UNL A   1      32.430  22.545  25.295  1.00  0.00    -0.245 OA
BRANCH   6   8
ATOM      8  C   UNL A   1      32.405  24.803  25.665  1.00  0.00     0.193 C 
ATOM      9  C   UNL A   1      31.070  26.411  24.374  1.00  0.00     0.054 C 
ATOM     10  C   UNL A   1      32.386  27.064  24.815  1.00  0.00     0.022 C 
ATOM     11  C   UNL A   1      31.246  24.914  24.607  1.00  0.00     0.095 C 
ATOM     12  C   UNL A   1      33.324  25.920  25.176  1.00  0.00     0.082 C 
BRANCH   9  13
ATOM     13  S   UNL A   1      30.360  26.941  22.754  1.00  0.00    -0.154 SA
BRANCH  13  14
ATOM     14  C   UNL A   1      31.056  28.615  22.426  1.00  0.00     0.105 C 
BRANCH  14  15
ATOM     15  C   UNL A   1      30.120  29.789  22.606  1.00  0.00    -0.038 A 
ATOM     16  C   UNL A   1      27.945  32.122  20.477  1.00  0.00     0.044 C 
ATOM     17  C   UNL A   1      28.672  31.493  21.624  1.00  0.00    -0.051 A 
ATOM     18  C   UNL A   1      28.449  32.031  22.892  1.00  0.00     0.003 A 
ATOM     19  C   UNL A   1      29.536  30.397  21.480  1.00  0.00     0.008 A 
ATOM     20  C   UNL A   1      28.952  31.395  24.015  1.00  0.00     0.001 A 
ATOM     21  C   UNL A   1      29.730  30.248  23.873  1.00  0.00     0.004 A 
ENDBRANCH  14  15
ENDBRANCH  13  14
ENDBRANCH   9  13
BRANCH   8  22
ATOM     22  N   UNL A   1      31.890  24.931  27.039  1.00  0.00    -0.343 N 
ATOM     23  H   UNL A   1      30.952  24.535  27.089  1.00  0.00     0.345 HD
ATOM     24  H   UNL A   1      31.858  25.917  27.299  1.00  0.00     0.345 HD
ATOM     25  H   UNL A   1      32.505  24.430  27.681  1.00  0.00     0.345 HD
ENDBRANCH   8  22
ENDBRANCH   6   8
ENDBRANCH   5   6
ENDBRANCH   4   5
ENDBRANCH   3   4
ENDBRANCH   2   3
ENDBRANCH   1   2
BRANCH   1  26
ATOM     26  C   UNL A   1      39.556  21.632  26.204  1.00  0.00     0.188 C 
BRANCH  26  27
ATOM     27  O   UNL A   1      40.899  21.173  26.299  1.00  0.00    -0.376 OA
BRANCH  27  28
ATOM     28  C   UNL A   1      41.690  21.719  27.350  1.00  0.00     0.202 C 
BRANCH  28  29
ATOM     29  C   UNL A   1      42.731  22.815  26.995  1.00  0.00     0.261 C 
BRANCH  29  30
ATOM     30  O   UNL A   1      42.326  23.672  25.913  1.00  0.00    -0.460 OA
BRANCH  30  31
ATOM     31  C   UNL A   1      43.234  23.865  24.917  1.00  0.00     0.338 C 
ATOM     32  O   UNL A   1      43.654  22.993  24.145  1.00  0.00    -0.246 OA
BRANCH  31  33
ATOM     33  C   UNL A   1      43.841  25.188  25.179  1.00  0.00     0.060 A 
ATOM     34  C   UNL A   1      45.196  25.420  25.099  1.00  0.00     0.016 A 
ATOM     35  C   UNL A   1      43.130  26.148  25.830  1.00  0.00     0.016 A 
ATOM     36  C   UNL A   1      45.813  26.361  25.978  1.00  0.00     0.010 A 
ATOM     37  C   UNL A   1      43.817  26.955  26.772  1.00  0.00     0.010 A 
ATOM     38  C   UNL A   1      45.187  26.903  27.100  1.00  0.00    -0.014 A 
BRANCH  38  39
ATOM     39  C   UNL A   1      46.073  27.231  28.516  1.00  0.00     0.031 A 
ATOM     40  C   UNL A   1      47.398  26.482  29.365  1.00  0.00     0.074 A 
ATOM     41  C   UNL A   1      45.684  28.366  29.166  1.00  0.00     0.049 A 
ATOM     42  N   UNL A   1      47.602  26.576  30.671  1.00  0.00    -0.248 NA
ATOM     43  C   UNL A   1      48.486  25.585  28.889  1.00  0.00     0.031 C 
ATOM     44  C   UNL A   1      46.305  28.977  30.339  1.00  0.00     0.029 A 
ATOM     45  N   UNL A   1      44.510  29.116  29.051  1.00  0.00    -0.354 N 
ATOM     46  C   UNL A   1      48.791  25.902  31.039  1.00  0.00     0.074 A 
ATOM     47  C   UNL A   1      49.243  25.235  29.906  1.00  0.00     0.031 C 
ATOM     48  C   UNL A   1      45.353  29.640  31.016  1.00  0.00     0.029 A 
ATOM     49  C   UNL A   1      44.092  29.378  30.352  1.00  0.00     0.049 A 
ATOM     50  H   UNL A   1      44.068  29.402  28.218  1.00  0.00     0.167 HD
ATOM     51  C   UNL A   1      49.424  25.943  32.239  1.00  0.00     0.034 A 
ATOM     52  C   UNL A   1      42.938  28.893  30.902  1.00  0.00     0.034 A 
ATOM     53  C   UNL A   1      48.631  26.723  33.154  1.00  0.00     0.049 A 
ATOM     54  C   UNL A   1      43.160  28.253  32.264  1.00  0.00     0.074 A 
ATOM     55  C   UNL A   1      48.646  28.028  33.603  1.00  0.00     0.029 A 
ATOM     56  N   UNL A   1      47.380  26.222  33.452  1.00  0.00    -0.354 N 
ATOM     57  N   UNL A   1      44.321  28.142  32.856  1.00  0.00    -0.248 NA
ATOM     58  C   UNL A   1      42.088  27.649  33.053  1.00  0.00     0.031 C 
ATOM     59  C   UNL A   1      47.361  28.302  34.167  1.00  0.00     0.029 A 
ATOM     60  C   UNL A   1      46.598  27.149  34.094  1.00  0.00     0.049 A 
ATOM     61  H   UNL A   1      47.085  25.309  33.232  1.00  0.00     0.167 HD
ATOM     62  C   UNL A   1      44.204  27.297  33.928  1.00  0.00     0.074 A 
ATOM     63  C   UNL A   1      42.772  27.123  34.082  1.00  0.00     0.031 C 
ATOM     64  C   UNL A   1      45.282  26.706  34.527  1.00  0.00     0.034 A 
BRANCH  51  65
ATOM     65  C   UNL A   1      50.865  25.417  32.468  1.00  0.00     0.023 A 
ATOM     66  C   UNL A   1      51.920  26.317  32.233  1.00  0.00     0.012 A 
ATOM     67  C   UNL A   1      51.272  24.101  32.866  1.00  0.00     0.148 A 
ATOM     68  C   UNL A   1      53.271  25.927  32.281  1.00  0.00     0.002 A 
ATOM     69  C   UNL A   1      52.614  23.685  32.809  1.00  0.00     0.091 A 
ATOM     70  F   UNL A   1      50.383  23.269  33.430  1.00  0.00    -0.205 F 
ATOM     71  C   UNL A   1      53.619  24.604  32.519  1.00  0.00     0.022 A 
BRANCH  69  72
ATOM     72  S   UNL A   1      53.117  21.951  32.971  1.00  0.00     0.127 S 
ATOM     73  O   UNL A   1      52.909  21.696  34.400  1.00  0.00    -0.237 OA
ATOM     74  O   UNL A   1      52.181  21.255  32.093  1.00  0.00    -0.237 OA
ATOM     75  O   UNL A   1      54.519  21.912  32.571  1.00  0.00    -0.744 OA
ENDBRANCH  69  72
ENDBRANCH  51  65
BRANCH  52  76
ATOM     76  C   UNL A   1      41.821  28.556  29.941  1.00  0.00     0.023 A 
ATOM     77  C   UNL A   1      41.795  27.234  29.426  1.00  0.00     0.012 A 
ATOM     78  C   UNL A   1      40.673  29.356  29.743  1.00  0.00     0.148 A 
ATOM     79  C   UNL A   1      40.653  26.696  28.822  1.00  0.00     0.002 A 
ATOM     80  C   UNL A   1      39.523  28.803  29.153  1.00  0.00     0.091 A 
ATOM     81  F   UNL A   1      40.669  30.612  30.206  1.00  0.00    -0.205 F 
ATOM     82  C   UNL A   1      39.513  27.477  28.697  1.00  0.00     0.022 A 
BRANCH  80  83
ATOM     83  S   UNL A   1      37.932  29.664  29.213  1.00  0.00     0.127 S 
ATOM     84  O   UNL A   1      38.299  31.043  28.883  1.00  0.00    -0.237 OA
ATOM     85  O   UNL A   1      37.132  29.006  28.191  1.00  0.00    -0.237 OA
ATOM     86  O   UNL A   1      37.534  29.451  30.600  1.00  0.00    -0.744 OA
ENDBRANCH  80  83
ENDBRANCH  52  76
BRANCH  64  87
ATOM     87  C   UNL A   1      45.209  25.516  35.479  1.00  0.00     0.023 A 
ATOM     88  C   UNL A   1      45.036  24.199  35.009  1.00  0.00     0.012 A 
ATOM     89  C   UNL A   1      45.504  25.663  36.864  1.00  0.00     0.148 A 
ATOM     90  C   UNL A   1      45.064  23.095  35.867  1.00  0.00     0.002 A 
ATOM     91  C   UNL A   1      45.631  24.551  37.697  1.00  0.00     0.091 A 
ATOM     92  F   UNL A   1      45.676  26.890  37.375  1.00  0.00    -0.205 F 
ATOM     93  C   UNL A   1      45.380  23.267  37.206  1.00  0.00     0.022 A 
BRANCH  91  94
ATOM     94  S   UNL A   1      46.228  24.679  39.392  1.00  0.00     0.127 S 
ATOM     95  O   UNL A   1      46.275  23.276  39.799  1.00  0.00    -0.237 OA
ATOM     96  O   UNL A   1      47.539  25.305  39.216  1.00  0.00    -0.237 OA
ATOM     97  O   UNL A   1      45.256  25.507  40.093  1.00  0.00    -0.744 OA
ENDBRANCH  91  94
ENDBRANCH  64  87
ENDBRANCH  38  39
ENDBRANCH  31  33
ENDBRANCH  30  31
ENDBRANCH  29  30
ENDBRANCH  28  29
ENDBRANCH  27  28
ENDBRANCH  26  27
ENDBRANCH   1  26
TORSDOF 24
ENDMDL
