MODEL 1
REMARK VINA RESULT:     -10.7      0.000      0.000
REMARK SMILES Cc1nc(NC(=O)[C@H]2[C@@H]3CC[C@@H](C3)[C@@H]2C(=O)OCCOCCOCCOC(=O)c2ccc(-c3c4nc(c(-c5cccc(S(=O)(=O)[O-])c5F)c5ccc([nH]5)c(-c5cccc(S(=O)(=O)[O-])c5F)c5nc(c(-c6cccc(S(=O)(=O)[O-])c6F)c6ccc3[nH]6)C=C5)C=C4)cc2)sc1-c1ccccc1
REMARK SMILES IDX 21 1 20 2 19 3 18 4 17 5 15 6 16 7 14 8 8 9 9 10 10 11 13 12
REMARK SMILES IDX 12 13 11 14 6 15 5 16 7 18 4 19 1 20 2 21 3 22 93 23 92 24
REMARK SMILES IDX 94 25 95 26 99 27 96 28 98 29 97 30 22 31 23 32 24 33 25 34
REMARK SMILES IDX 26 35 27 36 28 37 29 38 30 39 91 40 31 41 90 42 32 43 33 44
REMARK SMILES IDX 34 45 84 46 35 47 89 48 83 49 85 50 36 51 88 52 82 53 81 54
REMARK SMILES IDX 37 56 69 57 49 58 68 59 50 60 53 61 67 62 86 63 51 64 52 65
REMARK SMILES IDX 66 67 87 68 54 69 38 70 39 71 47 72 40 73 42 74 48 75 41 76
REMARK SMILES IDX 43 77 44 78 45 79 46 80 70 81 71 82 79 83 72 84 74 85 80 86
REMARK SMILES IDX 73 87 75 88 76 89 77 90 78 91 55 92 56 93 64 94 57 95 59 96
REMARK SMILES IDX 65 97 58 98 60 99 61 100 62 101 63 102
REMARK H PARENT 5 17 85 55 53 66
REMARK Flexibility Score: inf
ROOT
ATOM      1  C   UNL A   1      32.899  28.521  27.222  1.00  0.00     0.188 C 
ENDROOT
BRANCH   1   2
ATOM      2  O   UNL A   1      32.386  27.216  27.006  1.00  0.00    -0.376 OA
BRANCH   2   3
ATOM      3  C   UNL A   1      31.067  27.111  26.485  1.00  0.00     0.202 C 
BRANCH   3   4
ATOM      4  C   UNL A   1      30.571  25.700  26.143  1.00  0.00     0.261 C 
BRANCH   4   5
ATOM      5  O   UNL A   1      30.994  24.689  27.070  1.00  0.00    -0.463 OA
BRANCH   5   6
ATOM      6  C   UNL A   1      31.143  23.429  26.552  1.00  0.00     0.310 C 
ATOM      7  O   UNL A   1      30.348  22.513  26.691  1.00  0.00    -0.252 OA
BRANCH   6   8
ATOM      8  C   UNL A   1      32.430  23.366  25.736  1.00  0.00     0.115 C 
ATOM      9  C   UNL A   1      32.747  21.995  25.114  1.00  0.00     0.096 C 
ATOM     10  C   UNL A   1      34.027  21.575  25.882  1.00  0.00     0.003 C 
ATOM     11  C   UNL A   1      33.707  21.398  27.388  1.00  0.00     0.005 C 
ATOM     12  C   UNL A   1      34.809  22.883  25.893  1.00  0.00     0.009 C 
ATOM     13  C   UNL A   1      33.688  23.656  26.599  1.00  0.00     0.004 C 
ATOM     14  C   UNL A   1      33.627  22.844  27.905  1.00  0.00     0.005 C 
BRANCH   9  15
ATOM     15  C   UNL A   1      32.959  21.790  23.588  1.00  0.00     0.230 C 
ATOM     16  N   UNL A   1      33.118  22.691  22.585  1.00  0.00    -0.302 N 
ATOM     17  H   UNL A   1      33.291  22.283  21.706  1.00  0.00     0.172 HD
ATOM     18  O   UNL A   1      33.038  20.609  23.201  1.00  0.00    -0.274 OA
BRANCH  16  19
ATOM     19  C   UNL A   1      33.082  24.052  22.569  1.00  0.00     0.190 A 
ATOM     20  C   UNL A   1      34.005  27.022  24.228  1.00  0.00     0.068 C 
ATOM     21  C   UNL A   1      33.314  26.116  23.271  1.00  0.00     0.058 A 
ATOM     22  N   UNL A   1      33.918  24.890  23.097  1.00  0.00    -0.225 NA
ATOM     23  C   UNL A   1      32.100  26.281  22.606  1.00  0.00     0.059 A 
ATOM     24  S   UNL A   1      31.732  24.778  21.812  1.00  0.00    -0.096 S 
BRANCH  23  25
ATOM     25  C   UNL A   1      31.163  27.427  22.646  1.00  0.00    -0.006 A 
ATOM     26  C   UNL A   1      29.816  27.277  22.990  1.00  0.00     0.009 A 
ATOM     27  C   UNL A   1      31.646  28.738  22.519  1.00  0.00     0.009 A 
ATOM     28  C   UNL A   1      29.038  28.375  23.379  1.00  0.00     0.001 A 
ATOM     29  C   UNL A   1      30.874  29.842  22.895  1.00  0.00     0.001 A 
ATOM     30  C   UNL A   1      29.580  29.655  23.365  1.00  0.00     0.000 A 
ENDBRANCH  23  25
ENDBRANCH  16  19
ENDBRANCH   9  15
ENDBRANCH   6   8
ENDBRANCH   5   6
ENDBRANCH   4   5
ENDBRANCH   3   4
ENDBRANCH   2   3
ENDBRANCH   1   2
BRANCH   1  31
ATOM     31  C   UNL A   1      31.903  29.672  27.194  1.00  0.00     0.188 C 
BRANCH  31  32
ATOM     32  O   UNL A   1      32.063  30.635  26.156  1.00  0.00    -0.376 OA
BRANCH  32  33
ATOM     33  C   UNL A   1      31.140  31.731  26.255  1.00  0.00     0.202 C 
BRANCH  33  34
ATOM     34  C   UNL A   1      31.706  33.019  26.898  1.00  0.00     0.261 C 
BRANCH  34  35
ATOM     35  O   UNL A   1      33.143  33.160  26.793  1.00  0.00    -0.460 OA
BRANCH  35  36
ATOM     36  C   UNL A   1      33.767  33.635  27.885  1.00  0.00     0.338 C 
ATOM     37  O   UNL A   1      33.331  34.500  28.642  1.00  0.00    -0.246 OA
BRANCH  36  38
ATOM     38  C   UNL A   1      34.961  32.848  28.222  1.00  0.00     0.060 A 
ATOM     39  C   UNL A   1      34.798  31.473  28.454  1.00  0.00     0.016 A 
ATOM     40  C   UNL A   1      36.196  33.457  28.422  1.00  0.00     0.016 A 
ATOM     41  C   UNL A   1      35.850  30.710  28.946  1.00  0.00     0.010 A 
ATOM     42  C   UNL A   1      37.250  32.692  28.928  1.00  0.00     0.010 A 
ATOM     43  C   UNL A   1      37.069  31.328  29.232  1.00  0.00    -0.014 A 
BRANCH  43  44
ATOM     44  C   UNL A   1      38.107  30.590  29.990  1.00  0.00     0.031 A 
ATOM     45  C   UNL A   1      38.325  30.932  31.437  1.00  0.00     0.074 A 
ATOM     46  C   UNL A   1      38.839  29.632  29.398  1.00  0.00     0.049 A 
ATOM     47  N   UNL A   1      39.276  30.549  32.246  1.00  0.00    -0.248 NA
ATOM     48  C   UNL A   1      37.338  31.835  32.053  1.00  0.00     0.031 C 
ATOM     49  C   UNL A   1      38.673  29.172  28.020  1.00  0.00     0.029 A 
ATOM     50  N   UNL A   1      39.893  28.895  29.878  1.00  0.00    -0.354 N 
ATOM     51  C   UNL A   1      39.046  31.218  33.442  1.00  0.00     0.074 A 
ATOM     52  C   UNL A   1      37.851  32.014  33.261  1.00  0.00     0.031 C 
ATOM     53  C   UNL A   1      39.621  28.261  27.749  1.00  0.00     0.029 A 
ATOM     54  C   UNL A   1      40.489  28.116  28.915  1.00  0.00     0.049 A 
ATOM     55  H   UNL A   1      40.192  28.923  30.815  1.00  0.00     0.167 HD
ATOM     56  C   UNL A   1      39.772  31.176  34.584  1.00  0.00     0.034 A 
ATOM     57  C   UNL A   1      41.634  27.407  28.954  1.00  0.00     0.034 A 
ATOM     58  C   UNL A   1      40.931  30.344  34.763  1.00  0.00     0.049 A 
ATOM     59  C   UNL A   1      42.427  27.375  30.233  1.00  0.00     0.074 A 
ATOM     60  C   UNL A   1      41.717  30.192  35.891  1.00  0.00     0.029 A 
ATOM     61  N   UNL A   1      41.474  29.524  33.784  1.00  0.00    -0.354 N 
ATOM     62  N   UNL A   1      42.176  27.970  31.374  1.00  0.00    -0.248 NA
ATOM     63  C   UNL A   1      43.647  26.557  30.237  1.00  0.00     0.031 C 
ATOM     64  C   UNL A   1      42.750  29.299  35.586  1.00  0.00     0.029 A 
ATOM     65  C   UNL A   1      42.589  28.870  34.277  1.00  0.00     0.049 A 
ATOM     66  H   UNL A   1      41.116  29.422  32.873  1.00  0.00     0.167 HD
ATOM     67  C   UNL A   1      43.190  27.579  32.241  1.00  0.00     0.074 A 
ATOM     68  C   UNL A   1      44.047  26.679  31.497  1.00  0.00     0.031 C 
ATOM     69  C   UNL A   1      43.403  27.943  33.531  1.00  0.00     0.034 A 
BRANCH  56  70
ATOM     70  C   UNL A   1      39.340  32.067  35.719  1.00  0.00     0.023 A 
ATOM     71  C   UNL A   1      38.463  31.580  36.710  1.00  0.00     0.012 A 
ATOM     72  C   UNL A   1      39.825  33.386  35.815  1.00  0.00     0.148 A 
ATOM     73  C   UNL A   1      38.047  32.405  37.755  1.00  0.00     0.002 A 
ATOM     74  C   UNL A   1      39.440  34.188  36.883  1.00  0.00     0.091 A 
ATOM     75  F   UNL A   1      40.635  33.842  34.848  1.00  0.00    -0.205 F 
ATOM     76  C   UNL A   1      38.542  33.704  37.847  1.00  0.00     0.022 A 
BRANCH  74  77
ATOM     77  S   UNL A   1      40.083  35.848  37.122  1.00  0.00     0.127 S 
ATOM     78  O   UNL A   1      41.520  35.596  37.223  1.00  0.00    -0.237 OA
ATOM     79  O   UNL A   1      39.669  36.521  35.891  1.00  0.00    -0.237 OA
ATOM     80  O   UNL A   1      39.447  36.352  38.330  1.00  0.00    -0.744 OA
ENDBRANCH  74  77
ENDBRANCH  56  70
BRANCH  57  81
ATOM     81  C   UNL A   1      42.089  26.681  27.735  1.00  0.00     0.023 A 
ATOM     82  C   UNL A   1      42.878  27.345  26.779  1.00  0.00     0.012 A 
ATOM     83  C   UNL A   1      41.790  25.314  27.554  1.00  0.00     0.148 A 
ATOM     84  C   UNL A   1      43.350  26.666  25.654  1.00  0.00     0.002 A 
ATOM     85  C   UNL A   1      42.311  24.630  26.462  1.00  0.00     0.091 A 
ATOM     86  F   UNL A   1      41.018  24.706  28.466  1.00  0.00    -0.205 F 
ATOM     87  C   UNL A   1      43.080  25.307  25.504  1.00  0.00     0.022 A 
BRANCH  85  88
ATOM     88  S   UNL A   1      42.123  22.855  26.259  1.00  0.00     0.127 S 
ATOM     89  O   UNL A   1      40.670  22.706  26.270  1.00  0.00    -0.237 OA
ATOM     90  O   UNL A   1      42.756  22.631  24.960  1.00  0.00    -0.237 OA
ATOM     91  O   UNL A   1      42.827  22.253  27.384  1.00  0.00    -0.744 OA
ENDBRANCH  85  88
ENDBRANCH  57  81
BRANCH  69  92
ATOM     92  C   UNL A   1      44.592  27.343  34.233  1.00  0.00     0.023 A 
ATOM     93  C   UNL A   1      45.824  28.026  34.236  1.00  0.00     0.012 A 
ATOM     94  C   UNL A   1      44.468  26.137  34.951  1.00  0.00     0.148 A 
ATOM     95  C   UNL A   1      46.923  27.501  34.914  1.00  0.00     0.002 A 
ATOM     96  C   UNL A   1      45.553  25.645  35.665  1.00  0.00     0.091 A 
ATOM     97  F   UNL A   1      43.292  25.492  34.921  1.00  0.00    -0.205 F 
ATOM     98  C   UNL A   1      46.785  26.319  35.637  1.00  0.00     0.022 A 
BRANCH  96  99
ATOM     99  S   UNL A   1      45.434  24.184  36.702  1.00  0.00     0.127 S 
ATOM    100  O   UNL A   1      46.840  23.906  36.992  1.00  0.00    -0.237 OA
ATOM    101  O   UNL A   1      44.661  24.672  37.845  1.00  0.00    -0.237 OA
ATOM    102  O   UNL A   1      44.749  23.180  35.899  1.00  0.00    -0.744 OA
ENDBRANCH  96  99
ENDBRANCH  69  92
ENDBRANCH  43  44
ENDBRANCH  36  38
ENDBRANCH  35  36
ENDBRANCH  34  35
ENDBRANCH  33  34
ENDBRANCH  32  33
ENDBRANCH  31  32
ENDBRANCH   1  31
TORSDOF 23
ENDMDL
MODEL 2
REMARK VINA RESULT:     -10.5      2.862      5.168
REMARK SMILES Cc1nc(NC(=O)[C@H]2[C@@H]3CC[C@@H](C3)[C@@H]2C(=O)OCCOCCOCCOC(=O)c2ccc(-c3c4nc(c(-c5cccc(S(=O)(=O)[O-])c5F)c5ccc([nH]5)c(-c5cccc(S(=O)(=O)[O-])c5F)c5nc(c(-c6cccc(S(=O)(=O)[O-])c6F)c6ccc3[nH]6)C=C5)C=C4)cc2)sc1-c1ccccc1
REMARK SMILES IDX 21 1 20 2 19 3 18 4 17 5 15 6 16 7 14 8 8 9 9 10 10 11 13 12
REMARK SMILES IDX 12 13 11 14 6 15 5 16 7 18 4 19 1 20 2 21 3 22 93 23 92 24
REMARK SMILES IDX 94 25 95 26 99 27 96 28 98 29 97 30 22 31 23 32 24 33 25 34
REMARK SMILES IDX 26 35 27 36 28 37 29 38 30 39 91 40 31 41 90 42 32 43 33 44
REMARK SMILES IDX 34 45 84 46 35 47 89 48 83 49 85 50 36 51 88 52 82 53 81 54
REMARK SMILES IDX 37 56 69 57 49 58 68 59 50 60 53 61 67 62 86 63 51 64 52 65
REMARK SMILES IDX 66 67 87 68 54 69 38 70 39 71 47 72 40 73 42 74 48 75 41 76
REMARK SMILES IDX 43 77 44 78 45 79 46 80 70 81 71 82 79 83 72 84 74 85 80 86
REMARK SMILES IDX 73 87 75 88 76 89 77 90 78 91 55 92 56 93 64 94 57 95 59 96
REMARK SMILES IDX 65 97 58 98 60 99 61 100 62 101 63 102
REMARK H PARENT 5 17 85 55 53 66
REMARK Flexibility Score: inf
ROOT
ATOM      1  C   UNL A   1      35.685  31.795  28.555  1.00  0.00     0.188 C 
ENDROOT
BRANCH   1   2
ATOM      2  O   UNL A   1      35.752  30.894  27.461  1.00  0.00    -0.376 OA
BRANCH   2   3
ATOM      3  C   UNL A   1      35.105  29.636  27.611  1.00  0.00     0.202 C 
BRANCH   3   4
ATOM      4  C   UNL A   1      33.605  29.590  27.289  1.00  0.00     0.261 C 
BRANCH   4   5
ATOM      5  O   UNL A   1      33.309  29.373  25.902  1.00  0.00    -0.463 OA
BRANCH   5   6
ATOM      6  C   UNL A   1      33.167  28.064  25.521  1.00  0.00     0.310 C 
ATOM      7  O   UNL A   1      33.940  27.162  25.803  1.00  0.00    -0.252 OA
BRANCH   6   8
ATOM      8  C   UNL A   1      31.870  27.903  24.735  1.00  0.00     0.115 C 
ATOM      9  C   UNL A   1      31.645  26.512  24.117  1.00  0.00     0.096 C 
ATOM     10  C   UNL A   1      31.723  26.812  22.597  1.00  0.00     0.003 C 
ATOM     11  C   UNL A   1      33.140  27.317  22.229  1.00  0.00     0.005 C 
ATOM     12  C   UNL A   1      30.911  28.099  22.507  1.00  0.00     0.009 C 
ATOM     13  C   UNL A   1      31.810  28.846  23.502  1.00  0.00     0.004 C 
ATOM     14  C   UNL A   1      33.135  28.775  22.722  1.00  0.00     0.005 C 
BRANCH   9  15
ATOM     15  C   UNL A   1      30.388  25.649  24.419  1.00  0.00     0.230 C 
ATOM     16  N   UNL A   1      30.273  24.383  24.895  1.00  0.00    -0.302 N 
ATOM     17  H   UNL A   1      29.344  24.095  25.045  1.00  0.00     0.172 HD
ATOM     18  O   UNL A   1      29.288  26.204  24.238  1.00  0.00    -0.274 OA
BRANCH  16  19
ATOM     19  C   UNL A   1      31.204  23.439  25.202  1.00  0.00     0.190 A 
ATOM     20  C   UNL A   1      33.384  22.169  27.665  1.00  0.00     0.068 C 
ATOM     21  C   UNL A   1      32.765  22.389  26.330  1.00  0.00     0.058 A 
ATOM     22  N   UNL A   1      31.504  22.942  26.361  1.00  0.00    -0.225 NA
ATOM     23  C   UNL A   1      33.307  22.215  25.058  1.00  0.00     0.059 A 
ATOM     24  S   UNL A   1      32.165  22.856  23.913  1.00  0.00    -0.096 S 
BRANCH  23  25
ATOM     25  C   UNL A   1      34.653  21.733  24.675  1.00  0.00    -0.006 A 
ATOM     26  C   UNL A   1      35.642  22.593  24.185  1.00  0.00     0.009 A 
ATOM     27  C   UNL A   1      35.042  20.418  24.970  1.00  0.00     0.009 A 
ATOM     28  C   UNL A   1      36.991  22.218  24.175  1.00  0.00     0.001 A 
ATOM     29  C   UNL A   1      36.386  20.031  24.952  1.00  0.00     0.001 A 
ATOM     30  C   UNL A   1      37.367  20.947  24.593  1.00  0.00     0.000 A 
ENDBRANCH  23  25
ENDBRANCH  16  19
ENDBRANCH   9  15
ENDBRANCH   6   8
ENDBRANCH   5   6
ENDBRANCH   4   5
ENDBRANCH   3   4
ENDBRANCH   2   3
ENDBRANCH   1   2
BRANCH   1  31
ATOM     31  C   UNL A   1      34.653  32.911  28.474  1.00  0.00     0.188 C 
BRANCH  31  32
ATOM     32  O   UNL A   1      35.029  34.175  29.013  1.00  0.00    -0.376 OA
BRANCH  32  33
ATOM     33  C   UNL A   1      34.318  35.275  28.424  1.00  0.00     0.202 C 
BRANCH  33  34
ATOM     34  C   UNL A   1      33.043  35.720  29.176  1.00  0.00     0.261 C 
BRANCH  34  35
ATOM     35  O   UNL A   1      32.769  34.974  30.387  1.00  0.00    -0.460 OA
BRANCH  35  36
ATOM     36  C   UNL A   1      32.985  35.630  31.540  1.00  0.00     0.338 C 
ATOM     37  O   UNL A   1      32.300  36.551  31.982  1.00  0.00    -0.246 OA
BRANCH  36  38
ATOM     38  C   UNL A   1      34.021  34.983  32.356  1.00  0.00     0.060 A 
ATOM     39  C   UNL A   1      35.334  35.468  32.256  1.00  0.00     0.016 A 
ATOM     40  C   UNL A   1      33.742  33.851  33.116  1.00  0.00     0.016 A 
ATOM     41  C   UNL A   1      36.386  34.793  32.863  1.00  0.00     0.010 A 
ATOM     42  C   UNL A   1      34.801  33.165  33.716  1.00  0.00     0.010 A 
ATOM     43  C   UNL A   1      36.129  33.608  33.556  1.00  0.00    -0.014 A 
BRANCH  43  44
ATOM     44  C   UNL A   1      37.257  32.748  33.984  1.00  0.00     0.031 A 
ATOM     45  C   UNL A   1      37.994  33.095  35.247  1.00  0.00     0.074 A 
ATOM     46  C   UNL A   1      37.616  31.674  33.260  1.00  0.00     0.049 A 
ATOM     47  N   UNL A   1      39.104  32.600  35.724  1.00  0.00    -0.248 NA
ATOM     48  C   UNL A   1      37.399  34.153  36.083  1.00  0.00     0.031 C 
ATOM     49  C   UNL A   1      36.936  31.205  32.054  1.00  0.00     0.029 A 
ATOM     50  N   UNL A   1      38.664  30.804  33.420  1.00  0.00    -0.354 N 
ATOM     51  C   UNL A   1      39.380  33.330  36.873  1.00  0.00     0.074 A 
ATOM     52  C   UNL A   1      38.309  34.289  37.036  1.00  0.00     0.031 C 
ATOM     53  C   UNL A   1      37.610  30.155  31.557  1.00  0.00     0.029 A 
ATOM     54  C   UNL A   1      38.794  29.917  32.378  1.00  0.00     0.049 A 
ATOM     55  H   UNL A   1      39.264  30.815  34.202  1.00  0.00     0.167 HD
ATOM     56  C   UNL A   1      40.437  33.214  37.712  1.00  0.00     0.034 A 
ATOM     57  C   UNL A   1      39.783  29.048  32.092  1.00  0.00     0.034 A 
ATOM     58  C   UNL A   1      41.470  32.225  37.562  1.00  0.00     0.049 A 
ATOM     59  C   UNL A   1      40.950  28.937  33.036  1.00  0.00     0.074 A 
ATOM     60  C   UNL A   1      42.564  31.992  38.376  1.00  0.00     0.029 A 
ATOM     61  N   UNL A   1      41.539  31.306  36.525  1.00  0.00    -0.354 N 
ATOM     62  N   UNL A   1      41.178  29.595  34.146  1.00  0.00    -0.248 NA
ATOM     63  C   UNL A   1      41.982  27.947  32.700  1.00  0.00     0.031 C 
ATOM     64  C   UNL A   1      43.308  30.947  37.817  1.00  0.00     0.029 A 
ATOM     65  C   UNL A   1      42.660  30.509  36.672  1.00  0.00     0.049 A 
ATOM     66  H   UNL A   1      40.884  31.232  35.794  1.00  0.00     0.167 HD
ATOM     67  C   UNL A   1      42.366  29.084  34.658  1.00  0.00     0.074 A 
ATOM     68  C   UNL A   1      42.797  28.045  33.744  1.00  0.00     0.031 C 
ATOM     69  C   UNL A   1      43.047  29.450  35.773  1.00  0.00     0.034 A 
BRANCH  56  70
ATOM     70  C   UNL A   1      40.533  34.192  38.853  1.00  0.00     0.023 A 
ATOM     71  C   UNL A   1      41.327  35.351  38.731  1.00  0.00     0.012 A 
ATOM     72  C   UNL A   1      39.813  33.973  40.044  1.00  0.00     0.148 A 
ATOM     73  C   UNL A   1      41.433  36.253  39.790  1.00  0.00     0.002 A 
ATOM     74  C   UNL A   1      39.889  34.898  41.078  1.00  0.00     0.091 A 
ATOM     75  F   UNL A   1      39.085  32.852  40.154  1.00  0.00    -0.205 F 
ATOM     76  C   UNL A   1      40.708  36.032  40.958  1.00  0.00     0.022 A 
BRANCH  74  77
ATOM     77  S   UNL A   1      38.933  34.734  42.590  1.00  0.00     0.127 S 
ATOM     78  O   UNL A   1      38.879  33.281  42.749  1.00  0.00    -0.237 OA
ATOM     79  O   UNL A   1      39.778  35.421  43.567  1.00  0.00    -0.237 OA
ATOM     80  O   UNL A   1      37.658  35.386  42.330  1.00  0.00    -0.744 OA
ENDBRANCH  74  77
ENDBRANCH  56  70
BRANCH  57  81
ATOM     81  C   UNL A   1      39.701  28.227  30.852  1.00  0.00     0.023 A 
ATOM     82  C   UNL A   1      38.940  27.044  30.846  1.00  0.00     0.012 A 
ATOM     83  C   UNL A   1      40.327  28.650  29.661  1.00  0.00     0.148 A 
ATOM     84  C   UNL A   1      38.816  26.287  29.679  1.00  0.00     0.002 A 
ATOM     85  C   UNL A   1      40.152  27.923  28.490  1.00  0.00     0.091 A 
ATOM     86  F   UNL A   1      41.065  29.769  29.695  1.00  0.00    -0.205 F 
ATOM     87  C   UNL A   1      39.408  26.734  28.499  1.00  0.00     0.022 A 
BRANCH  85  88
ATOM     88  S   UNL A   1      40.768  28.493  26.901  1.00  0.00     0.127 S 
ATOM     89  O   UNL A   1      39.732  29.444  26.505  1.00  0.00    -0.237 OA
ATOM     90  O   UNL A   1      42.048  29.095  27.271  1.00  0.00    -0.237 OA
ATOM     91  O   UNL A   1      40.880  27.301  26.071  1.00  0.00    -0.744 OA
ENDBRANCH  85  88
ENDBRANCH  57  81
BRANCH  69  92
ATOM     92  C   UNL A   1      44.315  28.700  36.088  1.00  0.00     0.023 A 
ATOM     93  C   UNL A   1      45.554  29.200  35.641  1.00  0.00     0.012 A 
ATOM     94  C   UNL A   1      44.283  27.541  36.887  1.00  0.00     0.148 A 
ATOM     95  C   UNL A   1      46.740  28.538  35.957  1.00  0.00     0.002 A 
ATOM     96  C   UNL A   1      45.472  26.914  37.240  1.00  0.00     0.091 A 
ATOM     97  F   UNL A   1      43.092  27.071  37.287  1.00  0.00    -0.205 F 
ATOM     98  C   UNL A   1      46.700  27.403  36.765  1.00  0.00     0.022 A 
BRANCH  96  99
ATOM     99  S   UNL A   1      45.519  25.508  38.356  1.00  0.00     0.127 S 
ATOM    100  O   UNL A   1      45.046  24.425  37.493  1.00  0.00    -0.237 OA
ATOM    101  O   UNL A   1      46.938  25.433  38.707  1.00  0.00    -0.237 OA
ATOM    102  O   UNL A   1      44.643  25.853  39.468  1.00  0.00    -0.744 OA
ENDBRANCH  96  99
ENDBRANCH  69  92
ENDBRANCH  43  44
ENDBRANCH  36  38
ENDBRANCH  35  36
ENDBRANCH  34  35
ENDBRANCH  33  34
ENDBRANCH  32  33
ENDBRANCH  31  32
ENDBRANCH   1  31
TORSDOF 23
ENDMDL
MODEL 3
REMARK VINA RESULT:     -10.1      2.185      2.872
REMARK SMILES Cc1nc(NC(=O)[C@H]2[C@@H]3CC[C@@H](C3)[C@@H]2C(=O)OCCOCCOCCOC(=O)c2ccc(-c3c4nc(c(-c5cccc(S(=O)(=O)[O-])c5F)c5ccc([nH]5)c(-c5cccc(S(=O)(=O)[O-])c5F)c5nc(c(-c6cccc(S(=O)(=O)[O-])c6F)c6ccc3[nH]6)C=C5)C=C4)cc2)sc1-c1ccccc1
REMARK SMILES IDX 21 1 20 2 19 3 18 4 17 5 15 6 16 7 14 8 8 9 9 10 10 11 13 12
REMARK SMILES IDX 12 13 11 14 6 15 5 16 7 18 4 19 1 20 2 21 3 22 93 23 92 24
REMARK SMILES IDX 94 25 95 26 99 27 96 28 98 29 97 30 22 31 23 32 24 33 25 34
REMARK SMILES IDX 26 35 27 36 28 37 29 38 30 39 91 40 31 41 90 42 32 43 33 44
REMARK SMILES IDX 34 45 84 46 35 47 89 48 83 49 85 50 36 51 88 52 82 53 81 54
REMARK SMILES IDX 37 56 69 57 49 58 68 59 50 60 53 61 67 62 86 63 51 64 52 65
REMARK SMILES IDX 66 67 87 68 54 69 38 70 39 71 47 72 40 73 42 74 48 75 41 76
REMARK SMILES IDX 43 77 44 78 45 79 46 80 70 81 71 82 79 83 72 84 74 85 80 86
REMARK SMILES IDX 73 87 75 88 76 89 77 90 78 91 55 92 56 93 64 94 57 95 59 96
REMARK SMILES IDX 65 97 58 98 60 99 61 100 62 101 63 102
REMARK H PARENT 5 17 85 55 53 66
REMARK Flexibility Score: inf
ROOT
ATOM      1  C   UNL A   1      33.333  29.266  27.412  1.00  0.00     0.188 C 
ENDROOT
BRANCH   1   2
ATOM      2  O   UNL A   1      34.048  28.223  26.769  1.00  0.00    -0.376 OA
BRANCH   2   3
ATOM      3  C   UNL A   1      33.360  27.478  25.771  1.00  0.00     0.202 C 
BRANCH   3   4
ATOM      4  C   UNL A   1      33.264  25.961  25.987  1.00  0.00     0.261 C 
BRANCH   4   5
ATOM      5  O   UNL A   1      34.518  25.332  26.292  1.00  0.00    -0.463 OA
BRANCH   5   6
ATOM      6  C   UNL A   1      34.490  23.966  26.394  1.00  0.00     0.310 C 
ATOM      7  O   UNL A   1      34.290  23.342  27.425  1.00  0.00    -0.252 OA
BRANCH   6   8
ATOM      8  C   UNL A   1      34.698  23.350  25.015  1.00  0.00     0.115 C 
ATOM      9  C   UNL A   1      34.625  21.814  24.963  1.00  0.00     0.096 C 
ATOM     10  C   UNL A   1      36.082  21.428  24.597  1.00  0.00     0.003 C 
ATOM     11  C   UNL A   1      37.045  21.862  25.731  1.00  0.00     0.005 C 
ATOM     12  C   UNL A   1      36.400  22.460  23.521  1.00  0.00     0.009 C 
ATOM     13  C   UNL A   1      36.112  23.651  24.445  1.00  0.00     0.004 C 
ATOM     14  C   UNL A   1      37.179  23.380  25.520  1.00  0.00     0.005 C 
BRANCH   9  15
ATOM     15  C   UNL A   1      33.632  21.048  24.045  1.00  0.00     0.230 C 
ATOM     16  N   UNL A   1      32.773  21.498  23.096  1.00  0.00    -0.302 N 
ATOM     17  H   UNL A   1      32.293  20.783  22.620  1.00  0.00     0.172 HD
ATOM     18  O   UNL A   1      33.635  19.808  24.152  1.00  0.00    -0.274 OA
BRANCH  16  19
ATOM     19  C   UNL A   1      32.452  22.755  22.681  1.00  0.00     0.190 A 
ATOM     20  C   UNL A   1      33.651  25.980  21.914  1.00  0.00     0.068 C 
ATOM     21  C   UNL A   1      32.691  24.886  22.222  1.00  0.00     0.058 A 
ATOM     22  N   UNL A   1      33.189  23.613  22.049  1.00  0.00    -0.225 NA
ATOM     23  C   UNL A   1      31.404  24.954  22.755  1.00  0.00     0.059 A 
ATOM     24  S   UNL A   1      30.892  23.326  23.090  1.00  0.00    -0.096 S 
BRANCH  23  25
ATOM     25  C   UNL A   1      30.616  26.147  23.139  1.00  0.00    -0.006 A 
ATOM     26  C   UNL A   1      30.972  27.438  22.735  1.00  0.00     0.009 A 
ATOM     27  C   UNL A   1      29.374  25.997  23.773  1.00  0.00     0.009 A 
ATOM     28  C   UNL A   1      30.053  28.493  22.783  1.00  0.00     0.001 A 
ATOM     29  C   UNL A   1      28.453  27.049  23.835  1.00  0.00     0.001 A 
ATOM     30  C   UNL A   1      28.780  28.289  23.301  1.00  0.00     0.000 A 
ENDBRANCH  23  25
ENDBRANCH  16  19
ENDBRANCH   9  15
ENDBRANCH   6   8
ENDBRANCH   5   6
ENDBRANCH   4   5
ENDBRANCH   3   4
ENDBRANCH   2   3
ENDBRANCH   1   2
BRANCH   1  31
ATOM     31  C   UNL A   1      32.093  29.795  26.706  1.00  0.00     0.188 C 
BRANCH  31  32
ATOM     32  O   UNL A   1      31.478  30.951  27.268  1.00  0.00    -0.376 OA
BRANCH  32  33
ATOM     33  C   UNL A   1      31.436  32.066  26.363  1.00  0.00     0.202 C 
BRANCH  33  34
ATOM     34  C   UNL A   1      31.776  33.440  26.987  1.00  0.00     0.261 C 
BRANCH  34  35
ATOM     35  O   UNL A   1      33.112  33.534  27.538  1.00  0.00    -0.460 OA
BRANCH  35  36
ATOM     36  C   UNL A   1      33.276  34.430  28.526  1.00  0.00     0.338 C 
ATOM     37  O   UNL A   1      32.540  35.387  28.757  1.00  0.00    -0.246 OA
BRANCH  36  38
ATOM     38  C   UNL A   1      34.330  34.027  29.466  1.00  0.00     0.060 A 
ATOM     39  C   UNL A   1      35.666  34.171  29.057  1.00  0.00     0.016 A 
ATOM     40  C   UNL A   1      34.024  33.412  30.676  1.00  0.00     0.016 A 
ATOM     41  C   UNL A   1      36.700  33.648  29.824  1.00  0.00     0.010 A 
ATOM     42  C   UNL A   1      35.064  32.875  31.440  1.00  0.00     0.010 A 
ATOM     43  C   UNL A   1      36.399  32.954  30.997  1.00  0.00    -0.014 A 
BRANCH  43  44
ATOM     44  C   UNL A   1      37.458  32.176  31.683  1.00  0.00     0.031 A 
ATOM     45  C   UNL A   1      37.912  32.618  33.046  1.00  0.00     0.074 A 
ATOM     46  C   UNL A   1      38.002  31.094  31.102  1.00  0.00     0.049 A 
ATOM     47  N   UNL A   1      38.926  32.205  33.757  1.00  0.00    -0.248 NA
ATOM     48  C   UNL A   1      37.115  33.675  33.691  1.00  0.00     0.031 C 
ATOM     49  C   UNL A   1      37.598  30.536  29.812  1.00  0.00     0.029 A 
ATOM     50  N   UNL A   1      39.037  30.291  31.510  1.00  0.00    -0.354 N 
ATOM     51  C   UNL A   1      38.934  32.998  34.898  1.00  0.00     0.074 A 
ATOM     52  C   UNL A   1      37.809  33.902  34.796  1.00  0.00     0.031 C 
ATOM     53  C   UNL A   1      38.405  29.505  29.513  1.00  0.00     0.029 A 
ATOM     54  C   UNL A   1      39.411  29.369  30.563  1.00  0.00     0.049 A 
ATOM     55  H   UNL A   1      39.468  30.368  32.393  1.00  0.00     0.167 HD
ATOM     56  C   UNL A   1      39.808  32.977  35.933  1.00  0.00     0.034 A 
ATOM     57  C   UNL A   1      40.476  28.545  30.523  1.00  0.00     0.034 A 
ATOM     58  C   UNL A   1      40.894  32.041  36.042  1.00  0.00     0.049 A 
ATOM     59  C   UNL A   1      41.436  28.539  31.682  1.00  0.00     0.074 A 
ATOM     60  C   UNL A   1      41.814  31.904  37.065  1.00  0.00     0.029 A 
ATOM     61  N   UNL A   1      41.210  31.084  35.089  1.00  0.00    -0.354 N 
ATOM     62  N   UNL A   1      41.408  29.256  32.779  1.00  0.00    -0.248 NA
ATOM     63  C   UNL A   1      42.559  27.594  31.608  1.00  0.00     0.031 C 
ATOM     64  C   UNL A   1      42.702  30.879  36.719  1.00  0.00     0.029 A 
ATOM     65  C   UNL A   1      42.315  30.357  35.494  1.00  0.00     0.049 A 
ATOM     66  H   UNL A   1      40.718  30.942  34.248  1.00  0.00     0.167 HD
ATOM     67  C   UNL A   1      42.493  28.833  33.540  1.00  0.00     0.074 A 
ATOM     68  C   UNL A   1      43.144  27.782  32.785  1.00  0.00     0.031 C 
ATOM     69  C   UNL A   1      42.921  29.284  34.746  1.00  0.00     0.034 A 
BRANCH  56  70
ATOM     70  C   UNL A   1      39.630  34.007  37.017  1.00  0.00     0.023 A 
ATOM     71  C   UNL A   1      39.986  35.351  36.786  1.00  0.00     0.012 A 
ATOM     72  C   UNL A   1      39.085  33.643  38.264  1.00  0.00     0.148 A 
ATOM     73  C   UNL A   1      39.839  36.307  37.791  1.00  0.00     0.002 A 
ATOM     74  C   UNL A   1      38.900  34.610  39.246  1.00  0.00     0.091 A 
ATOM     75  F   UNL A   1      38.778  32.355  38.478  1.00  0.00    -0.205 F 
ATOM     76  C   UNL A   1      39.288  35.939  39.017  1.00  0.00     0.022 A 
BRANCH  74  77
ATOM     77  S   UNL A   1      38.130  34.242  40.827  1.00  0.00     0.127 S 
ATOM     78  O   UNL A   1      36.972  33.451  40.415  1.00  0.00    -0.237 OA
ATOM     79  O   UNL A   1      39.176  33.480  41.511  1.00  0.00    -0.237 OA
ATOM     80  O   UNL A   1      37.828  35.531  41.433  1.00  0.00    -0.744 OA
ENDBRANCH  74  77
ENDBRANCH  56  70
BRANCH  57  81
ATOM     81  C   UNL A   1      40.680  27.668  29.335  1.00  0.00     0.023 A 
ATOM     82  C   UNL A   1      39.915  26.497  29.191  1.00  0.00     0.012 A 
ATOM     83  C   UNL A   1      41.590  28.026  28.319  1.00  0.00     0.148 A 
ATOM     84  C   UNL A   1      40.061  25.689  28.062  1.00  0.00     0.002 A 
ATOM     85  C   UNL A   1      41.690  27.248  27.172  1.00  0.00     0.091 A 
ATOM     86  F   UNL A   1      42.325  29.135  28.487  1.00  0.00    -0.205 F 
ATOM     87  C   UNL A   1      40.936  26.071  27.047  1.00  0.00     0.022 A 
BRANCH  85  88
ATOM     88  S   UNL A   1      42.691  27.735  25.762  1.00  0.00     0.127 S 
ATOM     89  O   UNL A   1      42.296  26.746  24.762  1.00  0.00    -0.237 OA
ATOM     90  O   UNL A   1      42.214  29.093  25.506  1.00  0.00    -0.237 OA
ATOM     91  O   UNL A   1      44.074  27.657  26.215  1.00  0.00    -0.744 OA
ENDBRANCH  85  88
ENDBRANCH  57  81
BRANCH  69  92
ATOM     92  C   UNL A   1      44.134  28.620  35.343  1.00  0.00     0.023 A 
ATOM     93  C   UNL A   1      45.423  29.064  34.987  1.00  0.00     0.012 A 
ATOM     94  C   UNL A   1      43.994  27.606  36.311  1.00  0.00     0.148 A 
ATOM     95  C   UNL A   1      46.554  28.485  35.560  1.00  0.00     0.002 A 
ATOM     96  C   UNL A   1      45.124  27.068  36.914  1.00  0.00     0.091 A 
ATOM     97  F   UNL A   1      42.759  27.184  36.621  1.00  0.00    -0.205 F 
ATOM     98  C   UNL A   1      46.405  27.496  36.530  1.00  0.00     0.022 A 
BRANCH  96  99
ATOM     99  S   UNL A   1      45.018  25.862  38.241  1.00  0.00     0.127 S 
ATOM    100  O   UNL A   1      44.127  26.534  39.185  1.00  0.00    -0.237 OA
ATOM    101  O   UNL A   1      44.431  24.703  37.566  1.00  0.00    -0.237 OA
ATOM    102  O   UNL A   1      46.385  25.659  38.703  1.00  0.00    -0.744 OA
ENDBRANCH  96  99
ENDBRANCH  69  92
ENDBRANCH  43  44
ENDBRANCH  36  38
ENDBRANCH  35  36
ENDBRANCH  34  35
ENDBRANCH  33  34
ENDBRANCH  32  33
ENDBRANCH  31  32
ENDBRANCH   1  31
TORSDOF 23
ENDMDL
