MODEL 1
REMARK VINA RESULT:      -9.2      0.000      0.000
REMARK SMILES CCN(CCC(=O)OCCOCCOCCOC(=O)c1ccc(-c2c3nc(c(-c4cccc(S(=O)(=O)[O-])c4F)c4ccc([nH]4)c(-c4cccc(S(=O)(=O)[O-])c4F)c4nc(c(-c5cccc(S(=O)(=O)[O-])c5F)c5ccc2[nH]5)C=C4)C=C3)cc1)C(=O)c1cc(Cl)ccc1F
REMARK SMILES IDX 12 1 11 2 10 3 9 4 8 5 6 6 7 7 5 8 4 9 3 10 2 11 1 12 83 13
REMARK SMILES IDX 84 14 85 15 86 16 91 17 87 18 90 19 92 20 88 21 89 22 13 23
REMARK SMILES IDX 14 24 15 25 16 26 17 27 18 28 19 29 20 30 21 31 82 32 22 33
REMARK SMILES IDX 81 34 23 35 24 36 25 37 75 38 26 39 80 40 74 41 76 42 27 43
REMARK SMILES IDX 79 44 73 45 72 46 28 48 60 49 40 50 59 51 41 52 44 53 58 54
REMARK SMILES IDX 77 55 42 56 43 57 57 59 78 60 45 61 29 62 30 63 38 64 31 65
REMARK SMILES IDX 33 66 39 67 32 68 34 69 35 70 36 71 37 72 61 73 62 74 70 75
REMARK SMILES IDX 63 76 65 77 71 78 64 79 66 80 67 81 68 82 69 83 46 84 47 85
REMARK SMILES IDX 55 86 48 87 50 88 56 89 49 90 51 91 52 92 53 93 54 94
REMARK H PARENT 76 47 44 58
REMARK Flexibility Score: inf
ROOT
ATOM      1  C   UNL A   1      33.124  34.718  28.648  1.00  0.00     0.188 C 
ENDROOT
BRANCH   1   2
ATOM      2  O   UNL A   1      32.226  34.013  27.622  1.00  0.00    -0.376 OA
BRANCH   2   3
ATOM      3  C   UNL A   1      31.691  32.414  26.569  1.00  0.00     0.202 C 
BRANCH   3   4
ATOM      4  C   UNL A   1      31.939  30.747  26.770  1.00  0.00     0.261 C 
BRANCH   4   5
ATOM      5  O   UNL A   1      31.399  29.798  25.829  1.00  0.00    -0.463 OA
BRANCH   5   6
ATOM      6  C   UNL A   1      31.887  28.528  25.872  1.00  0.00     0.307 C 
ATOM      7  O   UNL A   1      32.856  28.188  26.539  1.00  0.00    -0.252 OA
BRANCH   6   8
ATOM      8  C   UNL A   1      31.087  27.560  25.015  1.00  0.00     0.144 C 
BRANCH   8   9
ATOM      9  C   UNL A   1      30.607  26.241  25.639  1.00  0.00     0.131 C 
BRANCH   9  10
ATOM     10  N   UNL A   1      31.397  25.070  25.279  1.00  0.00    -0.338 N 
BRANCH  10  11
ATOM     11  C   UNL A   1      31.587  24.818  23.847  1.00  0.00     0.116 C 
ATOM     12  C   UNL A   1      30.310  24.368  23.140  1.00  0.00     0.027 C 
ENDBRANCH  10  11
BRANCH  10  13
ATOM     13  C   UNL A   1      31.898  24.112  26.162  1.00  0.00     0.256 C 
ATOM     14  O   UNL A   1      31.497  24.073  27.330  1.00  0.00    -0.269 OA
BRANCH  13  15
ATOM     15  C   UNL A   1      32.942  23.102  25.832  1.00  0.00     0.077 A 
ATOM     16  C   UNL A   1      32.207  21.483  25.474  1.00  0.00     0.037 A 
ATOM     17  C   UNL A   1      34.771  23.270  25.768  1.00  0.00     0.136 A 
ATOM     18  C   UNL A   1      33.268  20.091  25.055  1.00  0.00     0.042 A 
ATOM     19  C   UNL A   1      35.818  21.842  25.376  1.00  0.00     0.041 A 
ATOM     20  F   UNL A   1      35.424  24.432  25.871  1.00  0.00    -0.206 F 
ATOM     21  Cl  UNL A   1      32.553  18.593  24.608  1.00  0.00    -0.084 Cl
ATOM     22  C   UNL A   1      35.047  20.263  24.990  1.00  0.00     0.023 A 
ENDBRANCH  13  15
ENDBRANCH  10  13
ENDBRANCH   9  10
ENDBRANCH   8   9
ENDBRANCH   6   8
ENDBRANCH   5   6
ENDBRANCH   4   5
ENDBRANCH   3   4
ENDBRANCH   2   3
ENDBRANCH   1   2
BRANCH   1  23
ATOM     23  C   UNL A   1      34.580  34.957  28.167  1.00  0.00     0.188 C 
BRANCH  23  24
ATOM     24  O   UNL A   1      35.631  34.247  28.815  1.00  0.00    -0.376 OA
BRANCH  24  25
ATOM     25  C   UNL A   1      35.733  32.850  28.567  1.00  0.00     0.202 C 
BRANCH  25  26
ATOM     26  C   UNL A   1      36.463  32.009  29.619  1.00  0.00     0.261 C 
BRANCH  26  27
ATOM     27  O   UNL A   1      37.835  32.400  29.794  1.00  0.00    -0.460 OA
BRANCH  27  28
ATOM     28  C   UNL A   1      38.041  33.373  30.712  1.00  0.00     0.338 C 
ATOM     29  O   UNL A   1      37.393  33.579  31.731  1.00  0.00    -0.246 OA
BRANCH  28  30
ATOM     30  C   UNL A   1      39.320  34.048  30.427  1.00  0.00     0.060 A 
ATOM     31  C   UNL A   1      39.517  34.581  29.143  1.00  0.00     0.016 A 
ATOM     32  C   UNL A   1      40.333  34.094  31.385  1.00  0.00     0.016 A 
ATOM     33  C   UNL A   1      40.756  35.097  28.785  1.00  0.00     0.010 A 
ATOM     34  C   UNL A   1      41.586  34.580  31.017  1.00  0.00     0.010 A 
ATOM     35  C   UNL A   1      41.811  35.020  29.699  1.00  0.00    -0.014 A 
BRANCH  35  36
ATOM     36  C   UNL A   1      43.194  35.087  29.187  1.00  0.00     0.031 A 
ATOM     37  C   UNL A   1      43.744  36.449  28.864  1.00  0.00     0.074 A 
ATOM     38  C   UNL A   1      43.931  33.978  29.023  1.00  0.00     0.049 A 
ATOM     39  N   UNL A   1      44.893  36.780  28.341  1.00  0.00    -0.248 NA
ATOM     40  C   UNL A   1      42.871  37.598  29.169  1.00  0.00     0.031 C 
ATOM     41  C   UNL A   1      43.500  32.619  29.347  1.00  0.00     0.029 A 
ATOM     42  N   UNL A   1      45.194  33.823  28.516  1.00  0.00    -0.354 N 
ATOM     43  C   UNL A   1      44.861  38.164  28.210  1.00  0.00     0.074 A 
ATOM     44  C   UNL A   1      43.582  38.613  28.706  1.00  0.00     0.031 C 
ATOM     45  C   UNL A   1      44.475  31.761  29.000  1.00  0.00     0.029 A 
ATOM     46  C   UNL A   1      45.578  32.510  28.400  1.00  0.00     0.049 A 
ATOM     47  H   UNL A   1      45.769  34.580  28.260  1.00  0.00     0.167 HD
ATOM     48  C   UNL A   1      45.818  38.986  27.722  1.00  0.00     0.034 A 
ATOM     49  C   UNL A   1      46.685  31.983  27.845  1.00  0.00     0.034 A 
ATOM     50  C   UNL A   1      47.088  38.520  27.243  1.00  0.00     0.049 A 
ATOM     51  C   UNL A   1      47.721  32.917  27.273  1.00  0.00     0.074 A 
ATOM     52  C   UNL A   1      48.153  39.258  26.763  1.00  0.00     0.029 A 
ATOM     53  N   UNL A   1      47.456  37.184  27.165  1.00  0.00    -0.354 N 
ATOM     54  N   UNL A   1      47.722  34.230  27.237  1.00  0.00    -0.248 NA
ATOM     55  C   UNL A   1      48.922  32.300  26.693  1.00  0.00     0.031 C 
ATOM     56  C   UNL A   1      49.149  38.365  26.354  1.00  0.00     0.029 A 
ATOM     57  C   UNL A   1      48.724  37.073  26.627  1.00  0.00     0.049 A 
ATOM     58  H   UNL A   1      46.895  36.426  27.450  1.00  0.00     0.167 HD
ATOM     59  C   UNL A   1      48.940  34.596  26.675  1.00  0.00     0.074 A 
ATOM     60  C   UNL A   1      49.654  33.366  26.398  1.00  0.00     0.031 C 
ATOM     61  C   UNL A   1      49.427  35.834  26.406  1.00  0.00     0.034 A 
BRANCH  48  62
ATOM     62  C   UNL A   1      45.512  40.460  27.671  1.00  0.00     0.023 A 
ATOM     63  C   UNL A   1      45.582  41.242  28.843  1.00  0.00     0.012 A 
ATOM     64  C   UNL A   1      45.168  41.077  26.452  1.00  0.00     0.148 A 
ATOM     65  C   UNL A   1      45.274  42.602  28.809  1.00  0.00     0.002 A 
ATOM     66  C   UNL A   1      44.913  42.441  26.417  1.00  0.00     0.091 A 
ATOM     67  F   UNL A   1      45.076  40.312  25.354  1.00  0.00    -0.205 F 
ATOM     68  C   UNL A   1      44.950  43.203  27.596  1.00  0.00     0.022 A 
BRANCH  66  69
ATOM     69  S   UNL A   1      44.565  43.321  24.891  1.00  0.00     0.127 S 
ATOM     70  O   UNL A   1      43.207  42.870  24.592  1.00  0.00    -0.237 OA
ATOM     71  O   UNL A   1      44.664  44.718  25.314  1.00  0.00    -0.237 OA
ATOM     72  O   UNL A   1      45.586  42.900  23.942  1.00  0.00    -0.744 OA
ENDBRANCH  66  69
ENDBRANCH  48  62
BRANCH  49  73
ATOM     73  C   UNL A   1      46.888  30.507  27.832  1.00  0.00     0.023 A 
ATOM     74  C   UNL A   1      47.476  29.879  28.946  1.00  0.00     0.012 A 
ATOM     75  C   UNL A   1      46.483  29.721  26.734  1.00  0.00     0.148 A 
ATOM     76  C   UNL A   1      47.687  28.499  28.955  1.00  0.00     0.002 A 
ATOM     77  C   UNL A   1      46.646  28.342  26.773  1.00  0.00     0.091 A 
ATOM     78  F   UNL A   1      45.935  30.341  25.679  1.00  0.00    -0.205 F 
ATOM     79  C   UNL A   1      47.265  27.730  27.875  1.00  0.00     0.022 A 
BRANCH  77  80
ATOM     80  S   UNL A   1      46.023  27.259  25.482  1.00  0.00     0.127 S 
ATOM     81  O   UNL A   1      47.056  27.389  24.458  1.00  0.00    -0.237 OA
ATOM     82  O   UNL A   1      45.990  25.966  26.166  1.00  0.00    -0.237 OA
ATOM     83  O   UNL A   1      44.712  27.785  25.125  1.00  0.00    -0.744 OA
ENDBRANCH  77  80
ENDBRANCH  49  73
BRANCH  61  84
ATOM     84  C   UNL A   1      50.817  35.925  25.834  1.00  0.00     0.023 A 
ATOM     85  C   UNL A   1      51.008  36.026  24.442  1.00  0.00     0.012 A 
ATOM     86  C   UNL A   1      51.933  35.982  26.693  1.00  0.00     0.148 A 
ATOM     87  C   UNL A   1      52.293  36.139  23.912  1.00  0.00     0.002 A 
ATOM     88  C   UNL A   1      53.204  36.155  26.161  1.00  0.00     0.091 A 
ATOM     89  F   UNL A   1      51.730  35.870  28.014  1.00  0.00    -0.205 F 
ATOM     90  C   UNL A   1      53.388  36.217  24.770  1.00  0.00     0.022 A 
BRANCH  88  91
ATOM     91  S   UNL A   1      54.657  36.372  27.193  1.00  0.00     0.127 S 
ATOM     92  O   UNL A   1      55.709  36.544  26.193  1.00  0.00    -0.237 OA
ATOM     93  O   UNL A   1      54.324  37.583  27.943  1.00  0.00    -0.237 OA
ATOM     94  O   UNL A   1      54.758  35.168  28.006  1.00  0.00    -0.744 OA
ENDBRANCH  88  91
ENDBRANCH  61  84
ENDBRANCH  35  36
ENDBRANCH  28  30
ENDBRANCH  27  28
ENDBRANCH  26  27
ENDBRANCH  25  26
ENDBRANCH  24  25
ENDBRANCH  23  24
ENDBRANCH   1  23
TORSDOF 25
ENDMDL
MODEL 2
REMARK VINA RESULT:      -8.8      8.287     11.271
REMARK SMILES CCN(CCC(=O)OCCOCCOCCOC(=O)c1ccc(-c2c3nc(c(-c4cccc(S(=O)(=O)[O-])c4F)c4ccc([nH]4)c(-c4cccc(S(=O)(=O)[O-])c4F)c4nc(c(-c5cccc(S(=O)(=O)[O-])c5F)c5ccc2[nH]5)C=C4)C=C3)cc1)C(=O)c1cc(Cl)ccc1F
REMARK SMILES IDX 12 1 11 2 10 3 9 4 8 5 6 6 7 7 5 8 4 9 3 10 2 11 1 12 83 13
REMARK SMILES IDX 84 14 85 15 86 16 91 17 87 18 90 19 92 20 88 21 89 22 13 23
REMARK SMILES IDX 14 24 15 25 16 26 17 27 18 28 19 29 20 30 21 31 82 32 22 33
REMARK SMILES IDX 81 34 23 35 24 36 25 37 75 38 26 39 80 40 74 41 76 42 27 43
REMARK SMILES IDX 79 44 73 45 72 46 28 48 60 49 40 50 59 51 41 52 44 53 58 54
REMARK SMILES IDX 77 55 42 56 43 57 57 59 78 60 45 61 29 62 30 63 38 64 31 65
REMARK SMILES IDX 33 66 39 67 32 68 34 69 35 70 36 71 37 72 61 73 62 74 70 75
REMARK SMILES IDX 63 76 65 77 71 78 64 79 66 80 67 81 68 82 69 83 46 84 47 85
REMARK SMILES IDX 55 86 48 87 50 88 56 89 49 90 51 91 52 92 53 93 54 94
REMARK H PARENT 76 47 44 58
REMARK Flexibility Score: inf
ROOT
ATOM      1  C   UNL A   1      33.718  32.344  27.645  1.00  0.00     0.188 C 
ENDROOT
BRANCH   1   2
ATOM      2  O   UNL A   1      33.950  30.832  27.771  1.00  0.00    -0.376 OA
BRANCH   2   3
ATOM      3  C   UNL A   1      34.225  29.029  26.977  1.00  0.00     0.202 C 
BRANCH   3   4
ATOM      4  C   UNL A   1      33.316  27.596  26.994  1.00  0.00     0.261 C 
BRANCH   4   5
ATOM      5  O   UNL A   1      32.443  27.258  25.898  1.00  0.00    -0.463 OA
BRANCH   5   6
ATOM      6  C   UNL A   1      31.875  26.022  25.909  1.00  0.00     0.307 C 
ATOM      7  O   UNL A   1      31.301  25.540  26.878  1.00  0.00    -0.252 OA
BRANCH   6   8
ATOM      8  C   UNL A   1      32.008  25.300  24.578  1.00  0.00     0.144 C 
BRANCH   8   9
ATOM      9  C   UNL A   1      33.129  24.262  24.407  1.00  0.00     0.131 C 
BRANCH   9  10
ATOM     10  N   UNL A   1      33.006  23.083  25.255  1.00  0.00    -0.338 N 
BRANCH  10  11
ATOM     11  C   UNL A   1      34.044  22.894  26.274  1.00  0.00     0.116 C 
ATOM     12  C   UNL A   1      35.341  23.636  25.958  1.00  0.00     0.027 C 
ENDBRANCH  10  11
BRANCH  10  13
ATOM     13  C   UNL A   1      32.060  22.067  25.120  1.00  0.00     0.256 C 
ATOM     14  O   UNL A   1      30.957  22.166  25.669  1.00  0.00    -0.269 OA
BRANCH  13  15
ATOM     15  C   UNL A   1      32.264  20.795  24.370  1.00  0.00     0.077 A 
ATOM     16  C   UNL A   1      32.854  19.472  25.460  1.00  0.00     0.037 A 
ATOM     17  C   UNL A   1      32.032  20.425  22.585  1.00  0.00     0.136 A 
ATOM     18  C   UNL A   1      33.185  17.837  24.786  1.00  0.00     0.042 A 
ATOM     19  C   UNL A   1      32.405  18.777  21.926  1.00  0.00     0.041 A 
ATOM     20  F   UNL A   1      31.472  21.265  21.709  1.00  0.00    -0.206 F 
ATOM     21  Cl  UNL A   1      33.634  16.563  25.850  1.00  0.00    -0.084 Cl
ATOM     22  C   UNL A   1      32.952  17.482  23.049  1.00  0.00     0.023 A 
ENDBRANCH  13  15
ENDBRANCH  10  13
ENDBRANCH   9  10
ENDBRANCH   8   9
ENDBRANCH   6   8
ENDBRANCH   5   6
ENDBRANCH   4   5
ENDBRANCH   3   4
ENDBRANCH   2   3
ENDBRANCH   1   2
BRANCH   1  23
ATOM     23  C   UNL A   1      34.121  33.160  28.902  1.00  0.00     0.188 C 
BRANCH  23  24
ATOM     24  O   UNL A   1      35.477  33.576  29.032  1.00  0.00    -0.376 OA
BRANCH  24  25
ATOM     25  C   UNL A   1      36.286  32.893  29.981  1.00  0.00     0.202 C 
BRANCH  25  26
ATOM     26  C   UNL A   1      36.786  31.498  29.591  1.00  0.00     0.261 C 
BRANCH  26  27
ATOM     27  O   UNL A   1      37.807  31.002  30.472  1.00  0.00    -0.460 OA
BRANCH  27  28
ATOM     28  C   UNL A   1      37.504  29.847  31.107  1.00  0.00     0.338 C 
ATOM     29  O   UNL A   1      36.512  29.147  30.940  1.00  0.00    -0.246 OA
BRANCH  28  30
ATOM     30  C   UNL A   1      38.663  29.412  31.906  1.00  0.00     0.060 A 
ATOM     31  C   UNL A   1      39.617  30.376  32.273  1.00  0.00     0.016 A 
ATOM     32  C   UNL A   1      38.845  28.067  32.229  1.00  0.00     0.016 A 
ATOM     33  C   UNL A   1      40.794  29.990  32.899  1.00  0.00     0.010 A 
ATOM     34  C   UNL A   1      40.041  27.674  32.827  1.00  0.00     0.010 A 
ATOM     35  C   UNL A   1      41.038  28.628  33.101  1.00  0.00    -0.014 A 
BRANCH  35  36
ATOM     36  C   UNL A   1      42.433  28.181  33.285  1.00  0.00     0.031 A 
ATOM     37  C   UNL A   1      43.209  27.817  32.049  1.00  0.00     0.074 A 
ATOM     38  C   UNL A   1      42.986  28.108  34.505  1.00  0.00     0.049 A 
ATOM     39  N   UNL A   1      44.416  27.334  31.937  1.00  0.00    -0.248 NA
ATOM     40  C   UNL A   1      42.523  28.021  30.760  1.00  0.00     0.031 C 
ATOM     41  C   UNL A   1      42.328  28.479  35.757  1.00  0.00     0.029 A 
ATOM     42  N   UNL A   1      44.226  27.671  34.889  1.00  0.00    -0.354 N 
ATOM     43  C   UNL A   1      44.615  27.132  30.576  1.00  0.00     0.074 A 
ATOM     44  C   UNL A   1      43.407  27.542  29.900  1.00  0.00     0.031 C 
ATOM     45  C   UNL A   1      43.163  28.223  36.778  1.00  0.00     0.029 A 
ATOM     46  C   UNL A   1      44.396  27.641  36.251  1.00  0.00     0.049 A 
ATOM     47  H   UNL A   1      44.926  27.406  34.250  1.00  0.00     0.167 HD
ATOM     48  C   UNL A   1      45.711  26.651  29.946  1.00  0.00     0.034 A 
ATOM     49  C   UNL A   1      45.424  27.166  36.979  1.00  0.00     0.034 A 
ATOM     50  C   UNL A   1      46.907  26.258  30.637  1.00  0.00     0.049 A 
ATOM     51  C   UNL A   1      46.620  26.599  36.257  1.00  0.00     0.074 A 
ATOM     52  C   UNL A   1      48.096  25.794  30.107  1.00  0.00     0.029 A 
ATOM     53  N   UNL A   1      47.056  26.265  32.016  1.00  0.00    -0.354 N 
ATOM     54  N   UNL A   1      46.836  26.498  34.966  1.00  0.00    -0.248 NA
ATOM     55  C   UNL A   1      47.727  26.111  37.090  1.00  0.00     0.031 C 
ATOM     56  C   UNL A   1      48.949  25.479  31.169  1.00  0.00     0.029 A 
ATOM     57  C   UNL A   1      48.310  25.795  32.359  1.00  0.00     0.049 A 
ATOM     58  H   UNL A   1      46.369  26.560  32.657  1.00  0.00     0.167 HD
ATOM     59  C   UNL A   1      48.118  25.978  34.832  1.00  0.00     0.074 A 
ATOM     60  C   UNL A   1      48.633  25.798  36.175  1.00  0.00     0.031 C 
ATOM     61  C   UNL A   1      48.810  25.671  33.706  1.00  0.00     0.034 A 
BRANCH  48  62
ATOM     62  C   UNL A   1      45.651  26.512  28.447  1.00  0.00     0.023 A 
ATOM     63  C   UNL A   1      45.829  27.640  27.620  1.00  0.00     0.012 A 
ATOM     64  C   UNL A   1      45.432  25.252  27.856  1.00  0.00     0.148 A 
ATOM     65  C   UNL A   1      45.747  27.524  26.232  1.00  0.00     0.002 A 
ATOM     66  C   UNL A   1      45.404  25.135  26.472  1.00  0.00     0.091 A 
ATOM     67  F   UNL A   1      45.235  24.196  28.658  1.00  0.00    -0.205 F 
ATOM     68  C   UNL A   1      45.545  26.272  25.659  1.00  0.00     0.022 A 
BRANCH  66  69
ATOM     69  S   UNL A   1      45.229  23.555  25.638  1.00  0.00     0.127 S 
ATOM     70  O   UNL A   1      43.871  23.169  26.016  1.00  0.00    -0.237 OA
ATOM     71  O   UNL A   1      45.387  23.932  24.233  1.00  0.00    -0.237 OA
ATOM     72  O   UNL A   1      46.289  22.705  26.162  1.00  0.00    -0.744 OA
ENDBRANCH  66  69
ENDBRANCH  48  62
BRANCH  49  73
ATOM     73  C   UNL A   1      45.385  27.238  38.467  1.00  0.00     0.023 A 
ATOM     74  C   UNL A   1      44.851  26.161  39.199  1.00  0.00     0.012 A 
ATOM     75  C   UNL A   1      45.892  28.356  39.160  1.00  0.00     0.148 A 
ATOM     76  C   UNL A   1      44.793  26.206  40.592  1.00  0.00     0.002 A 
ATOM     77  C   UNL A   1      45.881  28.371  40.549  1.00  0.00     0.091 A 
ATOM     78  F   UNL A   1      46.386  29.375  38.444  1.00  0.00    -0.205 F 
ATOM     79  C   UNL A   1      45.315  27.306  41.268  1.00  0.00     0.022 A 
BRANCH  77  80
ATOM     80  S   UNL A   1      46.641  29.687  41.506  1.00  0.00     0.127 S 
ATOM     81  O   UNL A   1      46.187  29.374  42.859  1.00  0.00    -0.237 OA
ATOM     82  O   UNL A   1      48.064  29.452  41.263  1.00  0.00    -0.237 OA
ATOM     83  O   UNL A   1      46.132  30.930  40.943  1.00  0.00    -0.744 OA
ENDBRANCH  77  80
ENDBRANCH  49  73
BRANCH  61  84
ATOM     84  C   UNL A   1      50.218  25.163  33.871  1.00  0.00     0.023 A 
ATOM     85  C   UNL A   1      51.289  26.069  33.999  1.00  0.00     0.012 A 
ATOM     86  C   UNL A   1      50.464  23.779  33.970  1.00  0.00     0.148 A 
ATOM     87  C   UNL A   1      52.591  25.602  34.181  1.00  0.00     0.002 A 
ATOM     88  C   UNL A   1      51.754  23.324  34.210  1.00  0.00     0.091 A 
ATOM     89  F   UNL A   1      49.432  22.934  33.831  1.00  0.00    -0.205 F 
ATOM     90  C   UNL A   1      52.821  24.233  34.300  1.00  0.00     0.022 A 
BRANCH  88  91
ATOM     91  S   UNL A   1      52.126  21.589  34.483  1.00  0.00     0.127 S 
ATOM     92  O   UNL A   1      53.568  21.628  34.722  1.00  0.00    -0.237 OA
ATOM     93  O   UNL A   1      51.320  21.283  35.665  1.00  0.00    -0.237 OA
ATOM     94  O   UNL A   1      51.713  20.893  33.273  1.00  0.00    -0.744 OA
ENDBRANCH  88  91
ENDBRANCH  61  84
ENDBRANCH  35  36
ENDBRANCH  28  30
ENDBRANCH  27  28
ENDBRANCH  26  27
ENDBRANCH  25  26
ENDBRANCH  24  25
ENDBRANCH  23  24
ENDBRANCH   1  23
TORSDOF 25
ENDMDL
MODEL 3
REMARK VINA RESULT:      -8.7      3.507      8.895
REMARK SMILES CCN(CCC(=O)OCCOCCOCCOC(=O)c1ccc(-c2c3nc(c(-c4cccc(S(=O)(=O)[O-])c4F)c4ccc([nH]4)c(-c4cccc(S(=O)(=O)[O-])c4F)c4nc(c(-c5cccc(S(=O)(=O)[O-])c5F)c5ccc2[nH]5)C=C4)C=C3)cc1)C(=O)c1cc(Cl)ccc1F
REMARK SMILES IDX 12 1 11 2 10 3 9 4 8 5 6 6 7 7 5 8 4 9 3 10 2 11 1 12 83 13
REMARK SMILES IDX 84 14 85 15 86 16 91 17 87 18 90 19 92 20 88 21 89 22 13 23
REMARK SMILES IDX 14 24 15 25 16 26 17 27 18 28 19 29 20 30 21 31 82 32 22 33
REMARK SMILES IDX 81 34 23 35 24 36 25 37 75 38 26 39 80 40 74 41 76 42 27 43
REMARK SMILES IDX 79 44 73 45 72 46 28 48 60 49 40 50 59 51 41 52 44 53 58 54
REMARK SMILES IDX 77 55 42 56 43 57 57 59 78 60 45 61 29 62 30 63 38 64 31 65
REMARK SMILES IDX 33 66 39 67 32 68 34 69 35 70 36 71 37 72 61 73 62 74 70 75
REMARK SMILES IDX 63 76 65 77 71 78 64 79 66 80 67 81 68 82 69 83 46 84 47 85
REMARK SMILES IDX 55 86 48 87 50 88 56 89 49 90 51 91 52 92 53 93 54 94
REMARK H PARENT 76 47 44 58
REMARK Flexibility Score: inf
ROOT
ATOM      1  C   UNL A   1      39.255  24.062  27.616  1.00  0.00     0.188 C 
ENDROOT
BRANCH   1   2
ATOM      2  O   UNL A   1      38.636  23.645  26.274  1.00  0.00    -0.376 OA
BRANCH   2   3
ATOM      3  C   UNL A   1      37.133  23.611  24.973  1.00  0.00     0.202 C 
BRANCH   3   4
ATOM      4  C   UNL A   1      35.464  23.344  25.125  1.00  0.00     0.261 C 
BRANCH   4   5
ATOM      5  O   UNL A   1      34.791  22.368  24.305  1.00  0.00    -0.463 OA
BRANCH   5   6
ATOM      6  C   UNL A   1      34.676  21.106  24.800  1.00  0.00     0.307 C 
ATOM      7  O   UNL A   1      35.626  20.365  25.016  1.00  0.00    -0.252 OA
BRANCH   6   8
ATOM      8  C   UNL A   1      33.235  20.712  25.079  1.00  0.00     0.144 C 
BRANCH   8   9
ATOM      9  C   UNL A   1      32.108  21.443  24.332  1.00  0.00     0.131 C 
BRANCH   9  10
ATOM     10  N   UNL A   1      31.663  22.683  24.957  1.00  0.00    -0.338 N 
BRANCH  10  11
ATOM     11  C   UNL A   1      31.467  22.654  26.410  1.00  0.00     0.116 C 
ATOM     12  C   UNL A   1      29.996  22.623  26.818  1.00  0.00     0.027 C 
ENDBRANCH  10  11
BRANCH  10  13
ATOM     13  C   UNL A   1      31.307  23.858  24.294  1.00  0.00     0.256 C 
ATOM     14  O   UNL A   1      30.361  23.860  23.498  1.00  0.00    -0.269 OA
BRANCH  13  15
ATOM     15  C   UNL A   1      32.005  25.167  24.429  1.00  0.00     0.077 A 
ATOM     16  C   UNL A   1      31.369  26.113  25.839  1.00  0.00     0.037 A 
ATOM     17  C   UNL A   1      33.331  25.912  23.397  1.00  0.00     0.136 A 
ATOM     18  C   UNL A   1      32.049  27.738  26.207  1.00  0.00     0.042 A 
ATOM     19  C   UNL A   1      33.974  27.565  23.771  1.00  0.00     0.041 A 
ATOM     20  F   UNL A   1      33.980  25.265  22.424  1.00  0.00    -0.206 F 
ATOM     21  Cl  UNL A   1      31.517  28.574  27.612  1.00  0.00    -0.084 Cl
ATOM     22  C   UNL A   1      33.343  28.455  25.202  1.00  0.00     0.023 A 
ENDBRANCH  13  15
ENDBRANCH  10  13
ENDBRANCH   9  10
ENDBRANCH   8   9
ENDBRANCH   6   8
ENDBRANCH   5   6
ENDBRANCH   4   5
ENDBRANCH   3   4
ENDBRANCH   2   3
ENDBRANCH   1   2
BRANCH   1  23
ATOM     23  C   UNL A   1      40.569  24.877  27.490  1.00  0.00     0.188 C 
BRANCH  23  24
ATOM     24  O   UNL A   1      40.788  25.953  28.397  1.00  0.00    -0.376 OA
BRANCH  24  25
ATOM     25  C   UNL A   1      39.645  26.640  28.891  1.00  0.00     0.202 C 
BRANCH  25  26
ATOM     26  C   UNL A   1      39.739  27.214  30.309  1.00  0.00     0.261 C 
BRANCH  26  27
ATOM     27  O   UNL A   1      38.491  27.161  31.019  1.00  0.00    -0.460 OA
BRANCH  27  28
ATOM     28  C   UNL A   1      38.256  28.209  31.842  1.00  0.00     0.338 C 
ATOM     29  O   UNL A   1      37.554  28.219  32.846  1.00  0.00    -0.246 OA
BRANCH  28  30
ATOM     30  C   UNL A   1      39.153  29.322  31.482  1.00  0.00     0.060 A 
ATOM     31  C   UNL A   1      38.943  29.974  30.255  1.00  0.00     0.016 A 
ATOM     32  C   UNL A   1      40.223  29.673  32.305  1.00  0.00     0.016 A 
ATOM     33  C   UNL A   1      39.847  30.929  29.810  1.00  0.00     0.010 A 
ATOM     34  C   UNL A   1      41.149  30.606  31.843  1.00  0.00     0.010 A 
ATOM     35  C   UNL A   1      40.993  31.183  30.569  1.00  0.00    -0.014 A 
BRANCH  35  36
ATOM     36  C   UNL A   1      42.163  31.784  29.901  1.00  0.00     0.031 A 
ATOM     37  C   UNL A   1      43.234  30.847  29.412  1.00  0.00     0.074 A 
ATOM     38  C   UNL A   1      42.264  33.111  29.732  1.00  0.00     0.049 A 
ATOM     39  N   UNL A   1      44.385  31.116  28.859  1.00  0.00    -0.248 NA
ATOM     40  C   UNL A   1      42.969  29.406  29.576  1.00  0.00     0.031 C 
ATOM     41  C   UNL A   1      41.261  34.095  30.134  1.00  0.00     0.029 A 
ATOM     42  N   UNL A   1      43.280  33.859  29.197  1.00  0.00    -0.354 N 
ATOM     43  C   UNL A   1      45.000  29.885  28.655  1.00  0.00     0.074 A 
ATOM     44  C   UNL A   1      44.098  28.869  29.142  1.00  0.00     0.031 C 
ATOM     45  C   UNL A   1      41.726  35.325  29.860  1.00  0.00     0.029 A 
ATOM     46  C   UNL A   1      43.069  35.212  29.295  1.00  0.00     0.049 A 
ATOM     47  H   UNL A   1      44.080  33.465  28.782  1.00  0.00     0.167 HD
ATOM     48  C   UNL A   1      46.208  29.628  28.105  1.00  0.00     0.034 A 
ATOM     49  C   UNL A   1      43.889  36.235  28.988  1.00  0.00     0.034 A 
ATOM     50  C   UNL A   1      47.086  30.653  27.616  1.00  0.00     0.049 A 
ATOM     51  C   UNL A   1      45.247  35.923  28.411  1.00  0.00     0.074 A 
ATOM     52  C   UNL A   1      48.316  30.516  27.002  1.00  0.00     0.029 A 
ATOM     53  N   UNL A   1      46.830  32.014  27.706  1.00  0.00    -0.354 N 
ATOM     54  N   UNL A   1      45.782  34.756  28.136  1.00  0.00    -0.248 NA
ATOM     55  C   UNL A   1      46.102  37.070  28.073  1.00  0.00     0.031 C 
ATOM     56  C   UNL A   1      48.825  31.795  26.761  1.00  0.00     0.029 A 
ATOM     57  C   UNL A   1      47.888  32.730  27.177  1.00  0.00     0.049 A 
ATOM     58  H   UNL A   1      46.016  32.412  28.091  1.00  0.00     0.167 HD
ATOM     59  C   UNL A   1      47.014  35.028  27.552  1.00  0.00     0.074 A 
ATOM     60  C   UNL A   1      47.138  36.471  27.501  1.00  0.00     0.031 C 
ATOM     61  C   UNL A   1      47.961  34.168  27.100  1.00  0.00     0.034 A 
BRANCH  48  62
ATOM     62  C   UNL A   1      46.646  28.189  28.023  1.00  0.00     0.023 A 
ATOM     63  C   UNL A   1      47.372  27.605  29.082  1.00  0.00     0.012 A 
ATOM     64  C   UNL A   1      46.322  27.406  26.897  1.00  0.00     0.148 A 
ATOM     65  C   UNL A   1      47.804  26.281  29.003  1.00  0.00     0.002 A 
ATOM     66  C   UNL A   1      46.712  26.074  26.848  1.00  0.00     0.091 A 
ATOM     67  F   UNL A   1      45.659  27.986  25.887  1.00  0.00    -0.205 F 
ATOM     68  C   UNL A   1      47.467  25.514  27.892  1.00  0.00     0.022 A 
BRANCH  66  69
ATOM     69  S   UNL A   1      46.257  24.983  25.497  1.00  0.00     0.127 S 
ATOM     70  O   UNL A   1      46.993  25.572  24.379  1.00  0.00    -0.237 OA
ATOM     71  O   UNL A   1      46.776  23.694  25.957  1.00  0.00    -0.237 OA
ATOM     72  O   UNL A   1      44.807  25.052  25.394  1.00  0.00    -0.744 OA
ENDBRANCH  66  69
ENDBRANCH  48  62
BRANCH  49  73
ATOM     73  C   UNL A   1      43.440  37.642  29.185  1.00  0.00     0.023 A 
ATOM     74  C   UNL A   1      42.692  38.278  28.177  1.00  0.00     0.012 A 
ATOM     75  C   UNL A   1      43.732  38.344  30.371  1.00  0.00     0.148 A 
ATOM     76  C   UNL A   1      42.267  39.599  28.331  1.00  0.00     0.002 A 
ATOM     77  C   UNL A   1      43.260  39.640  30.542  1.00  0.00     0.091 A 
ATOM     78  F   UNL A   1      44.455  37.724  31.314  1.00  0.00    -0.205 F 
ATOM     79  C   UNL A   1      42.543  40.276  29.516  1.00  0.00     0.022 A 
BRANCH  77  80
ATOM     80  S   UNL A   1      43.460  40.546  32.080  1.00  0.00     0.127 S 
ATOM     81  O   UNL A   1      42.840  39.641  33.044  1.00  0.00    -0.237 OA
ATOM     82  O   UNL A   1      44.916  40.650  32.179  1.00  0.00    -0.237 OA
ATOM     83  O   UNL A   1      42.778  41.817  31.881  1.00  0.00    -0.744 OA
ENDBRANCH  77  80
ENDBRANCH  49  73
BRANCH  61  84
ATOM     84  C   UNL A   1      49.190  34.760  26.461  1.00  0.00     0.023 A 
ATOM     85  C   UNL A   1      49.131  35.272  25.150  1.00  0.00     0.012 A 
ATOM     86  C   UNL A   1      50.388  34.869  27.196  1.00  0.00     0.148 A 
ATOM     87  C   UNL A   1      50.259  35.847  24.565  1.00  0.00     0.002 A 
ATOM     88  C   UNL A   1      51.489  35.496  26.628  1.00  0.00     0.091 A 
ATOM     89  F   UNL A   1      50.425  34.361  28.436  1.00  0.00    -0.205 F 
ATOM     90  C   UNL A   1      51.432  35.970  25.308  1.00  0.00     0.022 A 
BRANCH  88  91
ATOM     91  S   UNL A   1      53.003  35.793  27.545  1.00  0.00     0.127 S 
ATOM     92  O   UNL A   1      53.805  36.526  26.566  1.00  0.00    -0.237 OA
ATOM     93  O   UNL A   1      52.529  36.600  28.670  1.00  0.00    -0.237 OA
ATOM     94  O   UNL A   1      53.515  34.482  27.916  1.00  0.00    -0.744 OA
ENDBRANCH  88  91
ENDBRANCH  61  84
ENDBRANCH  35  36
ENDBRANCH  28  30
ENDBRANCH  27  28
ENDBRANCH  26  27
ENDBRANCH  25  26
ENDBRANCH  24  25
ENDBRANCH  23  24
ENDBRANCH   1  23
TORSDOF 25
ENDMDL
