MODEL 1
REMARK VINA RESULT:      -5.2      0.000      0.000
REMARK SMILES CCCCCCCNC(=O)Oc1cccc(-c2ccc([C@@H](C)C(=O)OCCOCCOCCOC(=O)c3ccc(-c4c5nc(c(-c6cccc(S(=O)(=O)[O-])c6F)c6ccc([nH]6)c(-c6cccc(S(=O)(=O)[O-])c6F)c6nc(c(-c7cccc(S(=O)(=O)[O-])c7F)c7ccc4[nH]7)C=C6)C=C5)cc3)cc2F)c1
REMARK SMILES IDX 26 1 25 2 23 3 24 4 21 5 22 6 20 7 17 8 18 9 101 10 19 11
REMARK SMILES IDX 100 12 102 13 16 14 12 15 13 16 103 17 14 18 15 19 11 20
REMARK SMILES IDX 9 21 8 22 10 24 7 25 6 26 5 27 4 28 3 29 2 30 1 31 27 32
REMARK SMILES IDX 28 33 29 34 30 35 31 36 32 37 33 38 34 39 35 40 36 41 37 42
REMARK SMILES IDX 38 43 99 44 39 45 98 46 40 47 41 48 42 49 92 50 43 51 97 52
REMARK SMILES IDX 91 53 93 54 44 55 96 56 90 57 89 58 45 60 77 61 57 62 76 63
REMARK SMILES IDX 58 64 61 65 75 66 94 67 59 68 60 69 74 71 95 72 62 73 46 74
REMARK SMILES IDX 47 75 55 76 48 77 50 78 56 79 49 80 51 81 52 82 53 83 54 84
REMARK SMILES IDX 78 85 79 86 87 87 80 88 82 89 88 90 81 91 83 92 84 93 85 94
REMARK SMILES IDX 86 95 63 96 64 97 72 98 65 99 67 100 73 101 66 102 68 103
REMARK SMILES IDX 69 104 70 105 71 106
REMARK H PARENT 8 23 93 59 61 70
REMARK Flexibility Score: inf
ROOT
ATOM      1  C   UNL A   1      41.394  33.589  42.295  1.00  0.00     0.261 C 
ENDROOT
BRANCH   1   2
ATOM      2  O   UNL A   1      39.965  33.671  42.088  1.00  0.00    -0.463 OA
BRANCH   2   3
ATOM      3  C   UNL A   1      39.528  34.705  41.325  1.00  0.00     0.313 C 
ATOM      4  O   UNL A   1      39.919  35.861  41.476  1.00  0.00    -0.252 OA
BRANCH   3   5
ATOM      5  C   UNL A   1      38.520  34.361  40.223  1.00  0.00     0.126 C 
ATOM      6  C   UNL A   1      37.354  33.603  40.862  1.00  0.00     0.025 C 
BRANCH   5   7
ATOM      7  C   UNL A   1      38.945  33.655  38.935  1.00  0.00    -0.031 A 
ATOM      8  C   UNL A   1      39.612  32.321  36.481  1.00  0.00     0.018 A 
ATOM      9  C   UNL A   1      40.574  32.556  37.482  1.00  0.00     0.012 A 
ATOM     10  C   UNL A   1      38.312  32.767  36.741  1.00  0.00     0.131 A 
ATOM     11  C   UNL A   1      40.248  33.203  38.691  1.00  0.00     0.005 A 
ATOM     12  C   UNL A   1      37.978  33.410  37.940  1.00  0.00     0.044 A 
ATOM     13  F   UNL A   1      37.335  32.566  35.842  1.00  0.00    -0.206 F 
BRANCH   8  14
ATOM     14  C   UNL A   1      39.954  31.596  35.240  1.00  0.00    -0.012 A 
ATOM     15  C   UNL A   1      40.290  31.501  32.831  1.00  0.00     0.133 A 
ATOM     16  C   UNL A   1      40.548  30.134  32.887  1.00  0.00     0.047 A 
ATOM     17  C   UNL A   1      39.984  32.234  33.986  1.00  0.00     0.056 A 
ATOM     18  C   UNL A   1      40.525  29.490  34.119  1.00  0.00     0.004 A 
ATOM     19  C   UNL A   1      40.231  30.214  35.282  1.00  0.00     0.009 A 
BRANCH  15  20
ATOM     20  O   UNL A   1      40.215  32.083  31.555  1.00  0.00    -0.410 OA
BRANCH  20  21
ATOM     21  C   UNL A   1      39.627  33.333  31.462  1.00  0.00     0.412 C 
ATOM     22  N   UNL A   1      38.278  33.283  31.244  1.00  0.00    -0.321 N 
ATOM     23  H   UNL A   1      37.800  34.144  31.262  1.00  0.00     0.167 HD
ATOM     24  O   UNL A   1      40.216  34.412  31.524  1.00  0.00    -0.224 OA
BRANCH  22  25
ATOM     25  C   UNL A   1      37.474  32.103  30.986  1.00  0.00     0.119 C 
BRANCH  25  26
ATOM     26  C   UNL A   1      36.020  32.435  30.648  1.00  0.00     0.021 C 
BRANCH  26  27
ATOM     27  C   UNL A   1      35.039  32.338  31.824  1.00  0.00     0.002 C 
BRANCH  27  28
ATOM     28  C   UNL A   1      35.542  32.910  33.154  1.00  0.00     0.000 C 
BRANCH  28  29
ATOM     29  C   UNL A   1      35.469  34.435  33.285  1.00  0.00    -0.000 C 
BRANCH  29  30
ATOM     30  C   UNL A   1      34.085  35.049  33.057  1.00  0.00    -0.003 C 
ATOM     31  C   UNL A   1      34.030  36.544  33.338  1.00  0.00     0.004 C 
ENDBRANCH  29  30
ENDBRANCH  28  29
ENDBRANCH  27  28
ENDBRANCH  26  27
ENDBRANCH  25  26
ENDBRANCH  22  25
ENDBRANCH  20  21
ENDBRANCH  15  20
ENDBRANCH   8  14
ENDBRANCH   5   7
ENDBRANCH   3   5
ENDBRANCH   2   3
ENDBRANCH   1   2
BRANCH   1  32
ATOM     32  C   UNL A   1      41.839  33.544  43.765  1.00  0.00     0.202 C 
BRANCH  32  33
ATOM     33  O   UNL A   1      41.325  34.527  44.653  1.00  0.00    -0.376 OA
BRANCH  33  34
ATOM     34  C   UNL A   1      42.173  35.581  45.091  1.00  0.00     0.188 C 
BRANCH  34  35
ATOM     35  C   UNL A   1      42.328  36.827  44.208  1.00  0.00     0.188 C 
BRANCH  35  36
ATOM     36  O   UNL A   1      43.575  36.932  43.552  1.00  0.00    -0.376 OA
BRANCH  36  37
ATOM     37  C   UNL A   1      43.622  36.487  42.210  1.00  0.00     0.202 C 
BRANCH  37  38
ATOM     38  C   UNL A   1      43.840  37.591  41.165  1.00  0.00     0.261 C 
BRANCH  38  39
ATOM     39  O   UNL A   1      42.863  37.659  40.110  1.00  0.00    -0.460 OA
BRANCH  39  40
ATOM     40  C   UNL A   1      43.264  38.172  38.927  1.00  0.00     0.338 C 
ATOM     41  O   UNL A   1      43.719  39.293  38.730  1.00  0.00    -0.246 OA
BRANCH  40  42
ATOM     42  C   UNL A   1      43.281  37.081  37.932  1.00  0.00     0.060 A 
ATOM     43  C   UNL A   1      44.514  36.570  37.497  1.00  0.00     0.016 A 
ATOM     44  C   UNL A   1      42.087  36.553  37.434  1.00  0.00     0.016 A 
ATOM     45  C   UNL A   1      44.554  35.550  36.545  1.00  0.00     0.010 A 
ATOM     46  C   UNL A   1      42.131  35.547  36.466  1.00  0.00     0.010 A 
ATOM     47  C   UNL A   1      43.363  35.060  35.994  1.00  0.00    -0.014 A 
BRANCH  47  48
ATOM     48  C   UNL A   1      43.395  34.164  34.809  1.00  0.00     0.031 A 
ATOM     49  C   UNL A   1      43.578  32.687  35.030  1.00  0.00     0.074 A 
ATOM     50  C   UNL A   1      43.295  34.649  33.559  1.00  0.00     0.049 A 
ATOM     51  N   UNL A   1      43.715  31.726  34.154  1.00  0.00    -0.248 NA
ATOM     52  C   UNL A   1      43.620  32.234  36.431  1.00  0.00     0.031 C 
ATOM     53  C   UNL A   1      43.111  36.056  33.208  1.00  0.00     0.029 A 
ATOM     54  N   UNL A   1      43.370  34.006  32.347  1.00  0.00    -0.354 N 
ATOM     55  C   UNL A   1      43.895  30.563  34.893  1.00  0.00     0.074 A 
ATOM     56  C   UNL A   1      43.857  30.939  36.289  1.00  0.00     0.031 C 
ATOM     57  C   UNL A   1      43.124  36.176  31.868  1.00  0.00     0.029 A 
ATOM     58  C   UNL A   1      43.347  34.860  31.269  1.00  0.00     0.049 A 
ATOM     59  H   UNL A   1      43.435  33.028  32.258  1.00  0.00     0.167 HD
ATOM     60  C   UNL A   1      44.068  29.295  34.451  1.00  0.00     0.034 A 
ATOM     61  C   UNL A   1      43.517  34.613  29.954  1.00  0.00     0.034 A 
ATOM     62  C   UNL A   1      44.091  28.919  33.063  1.00  0.00     0.049 A 
ATOM     63  C   UNL A   1      43.737  33.196  29.488  1.00  0.00     0.074 A 
ATOM     64  C   UNL A   1      44.207  27.652  32.519  1.00  0.00     0.029 A 
ATOM     65  N   UNL A   1      44.018  29.805  32.000  1.00  0.00    -0.354 N 
ATOM     66  N   UNL A   1      43.786  32.090  30.192  1.00  0.00    -0.248 NA
ATOM     67  C   UNL A   1      43.893  32.987  28.039  1.00  0.00     0.031 C 
ATOM     68  C   UNL A   1      44.241  27.776  31.127  1.00  0.00     0.029 A 
ATOM     69  C   UNL A   1      44.103  29.116  30.803  1.00  0.00     0.049 A 
ATOM     70  H   UNL A   1      43.919  30.781  32.085  1.00  0.00     0.167 HD
ATOM     71  C   UNL A   1      43.939  31.055  29.273  1.00  0.00     0.074 A 
ATOM     72  C   UNL A   1      43.956  31.664  27.959  1.00  0.00     0.031 C 
ATOM     73  C   UNL A   1      44.066  29.724  29.497  1.00  0.00     0.034 A 
BRANCH  60  74
ATOM     74  C   UNL A   1      44.234  28.212  35.484  1.00  0.00     0.023 A 
ATOM     75  C   UNL A   1      43.111  27.482  35.922  1.00  0.00     0.012 A 
ATOM     76  C   UNL A   1      45.510  27.879  35.977  1.00  0.00     0.148 A 
ATOM     77  C   UNL A   1      43.250  26.459  36.861  1.00  0.00     0.002 A 
ATOM     78  C   UNL A   1      45.648  26.829  36.876  1.00  0.00     0.091 A 
ATOM     79  F   UNL A   1      46.563  28.600  35.564  1.00  0.00    -0.205 F 
ATOM     80  C   UNL A   1      44.519  26.127  37.329  1.00  0.00     0.022 A 
BRANCH  78  81
ATOM     81  S   UNL A   1      47.245  26.269  37.476  1.00  0.00     0.127 S 
ATOM     82  O   UNL A   1      47.946  25.980  36.226  1.00  0.00    -0.237 OA
ATOM     83  O   UNL A   1      47.734  27.449  38.191  1.00  0.00    -0.237 OA
ATOM     84  O   UNL A   1      46.977  25.115  38.322  1.00  0.00    -0.744 OA
ENDBRANCH  78  81
ENDBRANCH  60  74
BRANCH  61  85
ATOM     85  C   UNL A   1      43.470  35.733  28.969  1.00  0.00     0.023 A 
ATOM     86  C   UNL A   1      42.241  36.096  28.385  1.00  0.00     0.012 A 
ATOM     87  C   UNL A   1      44.636  36.436  28.608  1.00  0.00     0.148 A 
ATOM     88  C   UNL A   1      42.178  37.116  27.435  1.00  0.00     0.002 A 
ATOM     89  C   UNL A   1      44.557  37.488  27.703  1.00  0.00     0.091 A 
ATOM     90  F   UNL A   1      45.798  36.063  29.161  1.00  0.00    -0.205 F 
ATOM     91  C   UNL A   1      43.333  37.818  27.102  1.00  0.00     0.022 A 
BRANCH  89  92
ATOM     92  S   UNL A   1      45.968  38.525  27.302  1.00  0.00     0.127 S 
ATOM     93  O   UNL A   1      46.093  39.338  28.510  1.00  0.00    -0.237 OA
ATOM     94  O   UNL A   1      47.026  37.532  27.116  1.00  0.00    -0.237 OA
ATOM     95  O   UNL A   1      45.597  39.245  26.092  1.00  0.00    -0.744 OA
ENDBRANCH  89  92
ENDBRANCH  61  85
BRANCH  73  96
ATOM     96  C   UNL A   1      44.184  28.814  28.299  1.00  0.00     0.023 A 
ATOM     97  C   UNL A   1      45.434  28.615  27.683  1.00  0.00     0.012 A 
ATOM     98  C   UNL A   1      43.063  28.095  27.834  1.00  0.00     0.148 A 
ATOM     99  C   UNL A   1      45.561  27.744  26.600  1.00  0.00     0.002 A 
ATOM    100  C   UNL A   1      43.207  27.191  26.789  1.00  0.00     0.091 A 
ATOM    101  F   UNL A   1      41.877  28.309  28.424  1.00  0.00    -0.205 F 
ATOM    102  C   UNL A   1      44.451  27.024  26.161  1.00  0.00     0.022 A 
BRANCH 100 103
ATOM    103  S   UNL A   1      41.858  26.148  26.223  1.00  0.00     0.127 S 
ATOM    104  O   UNL A   1      41.780  25.155  27.292  1.00  0.00    -0.237 OA
ATOM    105  O   UNL A   1      40.736  27.088  26.180  1.00  0.00    -0.237 OA
ATOM    106  O   UNL A   1      42.265  25.633  24.922  1.00  0.00    -0.744 OA
ENDBRANCH 100 103
ENDBRANCH  73  96
ENDBRANCH  47  48
ENDBRANCH  40  42
ENDBRANCH  39  40
ENDBRANCH  38  39
ENDBRANCH  37  38
ENDBRANCH  36  37
ENDBRANCH  35  36
ENDBRANCH  34  35
ENDBRANCH  33  34
ENDBRANCH  32  33
ENDBRANCH   1  32
TORSDOF 30
ENDMDL
MODEL 2
REMARK VINA RESULT:      -4.8      7.882     13.434
REMARK SMILES CCCCCCCNC(=O)Oc1cccc(-c2ccc([C@@H](C)C(=O)OCCOCCOCCOC(=O)c3ccc(-c4c5nc(c(-c6cccc(S(=O)(=O)[O-])c6F)c6ccc([nH]6)c(-c6cccc(S(=O)(=O)[O-])c6F)c6nc(c(-c7cccc(S(=O)(=O)[O-])c7F)c7ccc4[nH]7)C=C6)C=C5)cc3)cc2F)c1
REMARK SMILES IDX 26 1 25 2 23 3 24 4 21 5 22 6 20 7 17 8 18 9 101 10 19 11
REMARK SMILES IDX 100 12 102 13 16 14 12 15 13 16 103 17 14 18 15 19 11 20
REMARK SMILES IDX 9 21 8 22 10 24 7 25 6 26 5 27 4 28 3 29 2 30 1 31 27 32
REMARK SMILES IDX 28 33 29 34 30 35 31 36 32 37 33 38 34 39 35 40 36 41 37 42
REMARK SMILES IDX 38 43 99 44 39 45 98 46 40 47 41 48 42 49 92 50 43 51 97 52
REMARK SMILES IDX 91 53 93 54 44 55 96 56 90 57 89 58 45 60 77 61 57 62 76 63
REMARK SMILES IDX 58 64 61 65 75 66 94 67 59 68 60 69 74 71 95 72 62 73 46 74
REMARK SMILES IDX 47 75 55 76 48 77 50 78 56 79 49 80 51 81 52 82 53 83 54 84
REMARK SMILES IDX 78 85 79 86 87 87 80 88 82 89 88 90 81 91 83 92 84 93 85 94
REMARK SMILES IDX 86 95 63 96 64 97 72 98 65 99 67 100 73 101 66 102 68 103
REMARK SMILES IDX 69 104 70 105 71 106
REMARK H PARENT 8 23 93 59 61 70
REMARK Flexibility Score: inf
ROOT
ATOM      1  C   UNL A   1      42.791  43.066  30.949  1.00  0.00     0.261 C 
ENDROOT
BRANCH   1   2
ATOM      2  O   UNL A   1      42.050  41.865  30.631  1.00  0.00    -0.463 OA
BRANCH   2   3
ATOM      3  C   UNL A   1      42.728  40.694  30.743  1.00  0.00     0.313 C 
ATOM      4  O   UNL A   1      43.277  40.335  31.782  1.00  0.00    -0.252 OA
BRANCH   3   5
ATOM      5  C   UNL A   1      42.762  39.805  29.495  1.00  0.00     0.126 C 
ATOM      6  C   UNL A   1      43.949  38.849  29.621  1.00  0.00     0.025 C 
BRANCH   5   7
ATOM      7  C   UNL A   1      42.727  40.395  28.085  1.00  0.00    -0.031 A 
ATOM      8  C   UNL A   1      42.784  41.562  25.462  1.00  0.00     0.018 A 
ATOM      9  C   UNL A   1      41.633  40.926  25.965  1.00  0.00     0.012 A 
ATOM     10  C   UNL A   1      43.900  41.601  26.304  1.00  0.00     0.131 A 
ATOM     11  C   UNL A   1      41.599  40.360  27.256  1.00  0.00     0.005 A 
ATOM     12  C   UNL A   1      43.876  41.042  27.588  1.00  0.00     0.044 A 
ATOM     13  F   UNL A   1      45.030  42.204  25.901  1.00  0.00    -0.206 F 
BRANCH   8  14
ATOM     14  C   UNL A   1      42.790  42.197  24.127  1.00  0.00    -0.012 A 
ATOM     15  C   UNL A   1      43.891  43.435  22.344  1.00  0.00     0.133 A 
ATOM     16  C   UNL A   1      42.719  43.459  21.593  1.00  0.00     0.047 A 
ATOM     17  C   UNL A   1      43.937  42.823  23.604  1.00  0.00     0.056 A 
ATOM     18  C   UNL A   1      41.579  42.842  22.095  1.00  0.00     0.004 A 
ATOM     19  C   UNL A   1      41.615  42.219  23.349  1.00  0.00     0.009 A 
BRANCH  15  20
ATOM     20  O   UNL A   1      44.981  44.166  21.845  1.00  0.00    -0.410 OA
BRANCH  20  21
ATOM     21  C   UNL A   1      46.035  43.444  21.311  1.00  0.00     0.412 C 
ATOM     22  N   UNL A   1      47.232  43.699  21.921  1.00  0.00    -0.321 N 
ATOM     23  H   UNL A   1      47.994  43.142  21.639  1.00  0.00     0.167 HD
ATOM     24  O   UNL A   1      45.966  42.667  20.358  1.00  0.00    -0.224 OA
BRANCH  22  25
ATOM     25  C   UNL A   1      47.503  44.699  22.938  1.00  0.00     0.119 C 
BRANCH  25  26
ATOM     26  C   UNL A   1      47.274  44.181  24.358  1.00  0.00     0.021 C 
BRANCH  26  27
ATOM     27  C   UNL A   1      47.191  45.265  25.441  1.00  0.00     0.002 C 
BRANCH  27  28
ATOM     28  C   UNL A   1      45.902  45.275  26.271  1.00  0.00     0.000 C 
BRANCH  28  29
ATOM     29  C   UNL A   1      45.919  46.187  27.502  1.00  0.00    -0.000 C 
BRANCH  29  30
ATOM     30  C   UNL A   1      47.290  46.746  27.889  1.00  0.00    -0.003 C 
ATOM     31  C   UNL A   1      47.277  48.239  28.182  1.00  0.00     0.004 C 
ENDBRANCH  29  30
ENDBRANCH  28  29
ENDBRANCH  27  28
ENDBRANCH  26  27
ENDBRANCH  25  26
ENDBRANCH  22  25
ENDBRANCH  20  21
ENDBRANCH  15  20
ENDBRANCH   8  14
ENDBRANCH   5   7
ENDBRANCH   3   5
ENDBRANCH   2   3
ENDBRANCH   1   2
BRANCH   1  32
ATOM     32  C   UNL A   1      42.459  43.697  32.309  1.00  0.00     0.202 C 
BRANCH  32  33
ATOM     33  O   UNL A   1      42.952  45.002  32.583  1.00  0.00    -0.376 OA
BRANCH  33  34
ATOM     34  C   UNL A   1      44.222  45.150  33.206  1.00  0.00     0.188 C 
BRANCH  34  35
ATOM     35  C   UNL A   1      44.797  43.976  34.011  1.00  0.00     0.188 C 
BRANCH  35  36
ATOM     36  O   UNL A   1      45.553  43.056  33.250  1.00  0.00    -0.376 OA
BRANCH  36  37
ATOM     37  C   UNL A   1      46.906  43.396  33.013  1.00  0.00     0.202 C 
BRANCH  37  38
ATOM     38  C   UNL A   1      47.495  42.849  31.705  1.00  0.00     0.261 C 
BRANCH  38  39
ATOM     39  O   UNL A   1      46.683  41.891  31.001  1.00  0.00    -0.460 OA
BRANCH  39  40
ATOM     40  C   UNL A   1      46.816  41.831  29.659  1.00  0.00     0.338 C 
ATOM     41  O   UNL A   1      46.732  42.766  28.871  1.00  0.00    -0.246 OA
BRANCH  40  42
ATOM     42  C   UNL A   1      47.311  40.485  29.304  1.00  0.00     0.060 A 
ATOM     43  C   UNL A   1      48.056  39.759  30.245  1.00  0.00     0.016 A 
ATOM     44  C   UNL A   1      47.036  39.936  28.049  1.00  0.00     0.016 A 
ATOM     45  C   UNL A   1      48.547  38.492  29.924  1.00  0.00     0.010 A 
ATOM     46  C   UNL A   1      47.547  38.677  27.723  1.00  0.00     0.010 A 
ATOM     47  C   UNL A   1      48.330  37.960  28.646  1.00  0.00    -0.014 A 
BRANCH  47  48
ATOM     48  C   UNL A   1      49.054  36.740  28.206  1.00  0.00     0.031 A 
ATOM     49  C   UNL A   1      50.315  36.904  27.402  1.00  0.00     0.074 A 
ATOM     50  C   UNL A   1      48.590  35.509  28.486  1.00  0.00     0.049 A 
ATOM     51  N   UNL A   1      51.070  35.993  26.846  1.00  0.00    -0.248 NA
ATOM     52  C   UNL A   1      50.784  38.285  27.191  1.00  0.00     0.031 C 
ATOM     53  C   UNL A   1      47.385  35.212  29.258  1.00  0.00     0.029 A 
ATOM     54  N   UNL A   1      49.067  34.274  28.117  1.00  0.00    -0.354 N 
ATOM     55  C   UNL A   1      52.080  36.687  26.190  1.00  0.00     0.074 A 
ATOM     56  C   UNL A   1      51.838  38.096  26.412  1.00  0.00     0.031 C 
ATOM     57  C   UNL A   1      47.197  33.881  29.275  1.00  0.00     0.029 A 
ATOM     58  C   UNL A   1      48.248  33.234  28.490  1.00  0.00     0.049 A 
ATOM     59  H   UNL A   1      49.913  34.146  27.631  1.00  0.00     0.167 HD
ATOM     60  C   UNL A   1      53.120  36.198  25.474  1.00  0.00     0.034 A 
ATOM     61  C   UNL A   1      48.322  31.918  28.207  1.00  0.00     0.034 A 
ATOM     62  C   UNL A   1      53.369  34.797  25.266  1.00  0.00     0.049 A 
ATOM     63  C   UNL A   1      49.475  31.400  27.384  1.00  0.00     0.074 A 
ATOM     64  C   UNL A   1      54.428  34.204  24.600  1.00  0.00     0.029 A 
ATOM     65  N   UNL A   1      52.544  33.772  25.699  1.00  0.00    -0.354 N 
ATOM     66  N   UNL A   1      50.488  32.056  26.870  1.00  0.00    -0.248 NA
ATOM     67  C   UNL A   1      49.513  29.951  27.127  1.00  0.00     0.031 C 
ATOM     68  C   UNL A   1      54.222  32.821  24.599  1.00  0.00     0.029 A 
ATOM     69  C   UNL A   1      53.059  32.550  25.301  1.00  0.00     0.049 A 
ATOM     70  H   UNL A   1      51.714  33.895  26.214  1.00  0.00     0.167 HD
ATOM     71  C   UNL A   1      51.299  31.101  26.266  1.00  0.00     0.074 A 
ATOM     72  C   UNL A   1      50.670  29.816  26.493  1.00  0.00     0.031 C 
ATOM     73  C   UNL A   1      52.454  31.272  25.576  1.00  0.00     0.034 A 
BRANCH  60  74
ATOM     74  C   UNL A   1      54.081  37.189  24.871  1.00  0.00     0.023 A 
ATOM     75  C   UNL A   1      53.824  37.728  23.595  1.00  0.00     0.012 A 
ATOM     76  C   UNL A   1      55.207  37.629  25.594  1.00  0.00     0.148 A 
ATOM     77  C   UNL A   1      54.691  38.664  23.031  1.00  0.00     0.002 A 
ATOM     78  C   UNL A   1      56.041  38.596  25.047  1.00  0.00     0.091 A 
ATOM     79  F   UNL A   1      55.446  37.087  26.797  1.00  0.00    -0.205 F 
ATOM     80  C   UNL A   1      55.792  39.105  23.761  1.00  0.00     0.022 A 
BRANCH  78  81
ATOM     81  S   UNL A   1      57.437  39.289  25.938  1.00  0.00     0.127 S 
ATOM     82  O   UNL A   1      56.788  39.822  27.135  1.00  0.00    -0.237 OA
ATOM     83  O   UNL A   1      58.269  38.108  26.169  1.00  0.00    -0.237 OA
ATOM     84  O   UNL A   1      58.027  40.284  25.053  1.00  0.00    -0.744 OA
ENDBRANCH  78  81
ENDBRANCH  60  74
BRANCH  61  85
ATOM     85  C   UNL A   1      47.280  30.982  28.719  1.00  0.00     0.023 A 
ATOM     86  C   UNL A   1      46.123  30.740  27.953  1.00  0.00     0.012 A 
ATOM     87  C   UNL A   1      47.429  30.333  29.960  1.00  0.00     0.148 A 
ATOM     88  C   UNL A   1      45.119  29.895  28.427  1.00  0.00     0.002 A 
ATOM     89  C   UNL A   1      46.450  29.450  30.402  1.00  0.00     0.091 A 
ATOM     90  F   UNL A   1      48.527  30.591  30.683  1.00  0.00    -0.205 F 
ATOM     91  C   UNL A   1      45.286  29.243  29.645  1.00  0.00     0.022 A 
BRANCH  89  92
ATOM     92  S   UNL A   1      46.633  28.475  31.900  1.00  0.00     0.127 S 
ATOM     93  O   UNL A   1      46.659  29.511  32.929  1.00  0.00    -0.237 OA
ATOM     94  O   UNL A   1      45.418  27.660  31.876  1.00  0.00    -0.237 OA
ATOM     95  O   UNL A   1      47.868  27.722  31.732  1.00  0.00    -0.744 OA
ENDBRANCH  89  92
ENDBRANCH  61  85
BRANCH  73  96
ATOM     96  C   UNL A   1      53.154  30.041  25.053  1.00  0.00     0.023 A 
ATOM     97  C   UNL A   1      54.098  29.371  25.854  1.00  0.00     0.012 A 
ATOM     98  C   UNL A   1      52.814  29.507  23.793  1.00  0.00     0.148 A 
ATOM     99  C   UNL A   1      54.720  28.209  25.395  1.00  0.00     0.002 A 
ATOM    100  C   UNL A   1      53.399  28.321  23.364  1.00  0.00     0.091 A 
ATOM    101  F   UNL A   1      51.923  30.167  23.037  1.00  0.00    -0.205 F 
ATOM    102  C   UNL A   1      54.363  27.678  24.157  1.00  0.00     0.022 A 
BRANCH 100 103
ATOM    103  S   UNL A   1      52.927  27.511  21.831  1.00  0.00     0.127 S 
ATOM    104  O   UNL A   1      53.857  26.384  21.792  1.00  0.00    -0.237 OA
ATOM    105  O   UNL A   1      51.534  27.145  22.090  1.00  0.00    -0.237 OA
ATOM    106  O   UNL A   1      53.105  28.503  20.779  1.00  0.00    -0.744 OA
ENDBRANCH 100 103
ENDBRANCH  73  96
ENDBRANCH  47  48
ENDBRANCH  40  42
ENDBRANCH  39  40
ENDBRANCH  38  39
ENDBRANCH  37  38
ENDBRANCH  36  37
ENDBRANCH  35  36
ENDBRANCH  34  35
ENDBRANCH  33  34
ENDBRANCH  32  33
ENDBRANCH   1  32
TORSDOF 30
ENDMDL
MODEL 3
REMARK VINA RESULT:      -4.7      8.353     13.301
REMARK SMILES CCCCCCCNC(=O)Oc1cccc(-c2ccc([C@@H](C)C(=O)OCCOCCOCCOC(=O)c3ccc(-c4c5nc(c(-c6cccc(S(=O)(=O)[O-])c6F)c6ccc([nH]6)c(-c6cccc(S(=O)(=O)[O-])c6F)c6nc(c(-c7cccc(S(=O)(=O)[O-])c7F)c7ccc4[nH]7)C=C6)C=C5)cc3)cc2F)c1
REMARK SMILES IDX 26 1 25 2 23 3 24 4 21 5 22 6 20 7 17 8 18 9 101 10 19 11
REMARK SMILES IDX 100 12 102 13 16 14 12 15 13 16 103 17 14 18 15 19 11 20
REMARK SMILES IDX 9 21 8 22 10 24 7 25 6 26 5 27 4 28 3 29 2 30 1 31 27 32
REMARK SMILES IDX 28 33 29 34 30 35 31 36 32 37 33 38 34 39 35 40 36 41 37 42
REMARK SMILES IDX 38 43 99 44 39 45 98 46 40 47 41 48 42 49 92 50 43 51 97 52
REMARK SMILES IDX 91 53 93 54 44 55 96 56 90 57 89 58 45 60 77 61 57 62 76 63
REMARK SMILES IDX 58 64 61 65 75 66 94 67 59 68 60 69 74 71 95 72 62 73 46 74
REMARK SMILES IDX 47 75 55 76 48 77 50 78 56 79 49 80 51 81 52 82 53 83 54 84
REMARK SMILES IDX 78 85 79 86 87 87 80 88 82 89 88 90 81 91 83 92 84 93 85 94
REMARK SMILES IDX 86 95 63 96 64 97 72 98 65 99 67 100 73 101 66 102 68 103
REMARK SMILES IDX 69 104 70 105 71 106
REMARK H PARENT 8 23 93 59 61 70
REMARK Flexibility Score: inf
ROOT
ATOM      1  C   UNL A   1      46.021  29.551  28.185  1.00  0.00     0.261 C 
ENDROOT
BRANCH   1   2
ATOM      2  O   UNL A   1      46.531  30.895  28.025  1.00  0.00    -0.463 OA
BRANCH   2   3
ATOM      3  C   UNL A   1      47.530  31.054  27.120  1.00  0.00     0.313 C 
ATOM      4  O   UNL A   1      47.858  30.177  26.325  1.00  0.00    -0.252 OA
BRANCH   3   5
ATOM      5  C   UNL A   1      48.233  32.416  27.115  1.00  0.00     0.126 C 
ATOM      6  C   UNL A   1      49.182  32.469  28.313  1.00  0.00     0.025 C 
BRANCH   5   7
ATOM      7  C   UNL A   1      47.449  33.726  27.024  1.00  0.00    -0.031 A 
ATOM      8  C   UNL A   1      45.956  36.178  26.989  1.00  0.00     0.018 A 
ATOM      9  C   UNL A   1      46.348  35.532  25.801  1.00  0.00     0.012 A 
ATOM     10  C   UNL A   1      46.327  35.565  28.190  1.00  0.00     0.131 A 
ATOM     11  C   UNL A   1      47.074  34.324  25.815  1.00  0.00     0.005 A 
ATOM     12  C   UNL A   1      47.048  34.364  28.215  1.00  0.00     0.044 A 
ATOM     13  F   UNL A   1      45.978  36.112  29.366  1.00  0.00    -0.206 F 
BRANCH   8  14
ATOM     14  C   UNL A   1      45.152  37.417  26.963  1.00  0.00    -0.012 A 
ATOM     15  C   UNL A   1      44.926  39.826  26.696  1.00  0.00     0.133 A 
ATOM     16  C   UNL A   1      43.567  39.765  26.996  1.00  0.00     0.047 A 
ATOM     17  C   UNL A   1      45.723  38.673  26.686  1.00  0.00     0.056 A 
ATOM     18  C   UNL A   1      42.988  38.531  27.268  1.00  0.00     0.004 A 
ATOM     19  C   UNL A   1      43.772  37.371  27.252  1.00  0.00     0.009 A 
BRANCH  15  20
ATOM     20  O   UNL A   1      45.486  41.104  26.538  1.00  0.00    -0.410 OA
BRANCH  20  21
ATOM     21  C   UNL A   1      46.701  41.344  27.157  1.00  0.00     0.412 C 
ATOM     22  N   UNL A   1      46.579  41.965  28.369  1.00  0.00    -0.321 N 
ATOM     23  H   UNL A   1      47.408  42.074  28.890  1.00  0.00     0.167 HD
ATOM     24  O   UNL A   1      47.810  41.080  26.693  1.00  0.00    -0.224 OA
BRANCH  22  25
ATOM     25  C   UNL A   1      45.364  42.483  28.971  1.00  0.00     0.119 C 
BRANCH  25  26
ATOM     26  C   UNL A   1      44.894  43.790  28.333  1.00  0.00     0.021 C 
BRANCH  26  27
ATOM     27  C   UNL A   1      45.951  44.900  28.265  1.00  0.00     0.002 C 
BRANCH  27  28
ATOM     28  C   UNL A   1      45.835  45.854  27.070  1.00  0.00     0.000 C 
BRANCH  28  29
ATOM     29  C   UNL A   1      45.549  45.186  25.721  1.00  0.00    -0.000 C 
BRANCH  29  30
ATOM     30  C   UNL A   1      46.690  44.340  25.150  1.00  0.00    -0.003 C 
ATOM     31  C   UNL A   1      48.042  45.037  25.189  1.00  0.00     0.004 C 
ENDBRANCH  29  30
ENDBRANCH  28  29
ENDBRANCH  27  28
ENDBRANCH  26  27
ENDBRANCH  25  26
ENDBRANCH  22  25
ENDBRANCH  20  21
ENDBRANCH  15  20
ENDBRANCH   8  14
ENDBRANCH   5   7
ENDBRANCH   3   5
ENDBRANCH   2   3
ENDBRANCH   1   2
BRANCH   1  32
ATOM     32  C   UNL A   1      46.874  28.629  29.069  1.00  0.00     0.202 C 
BRANCH  32  33
ATOM     33  O   UNL A   1      46.530  28.508  30.443  1.00  0.00    -0.376 OA
BRANCH  33  34
ATOM     34  C   UNL A   1      45.889  27.323  30.898  1.00  0.00     0.188 C 
BRANCH  34  35
ATOM     35  C   UNL A   1      45.961  26.964  32.389  1.00  0.00     0.188 C 
BRANCH  35  36
ATOM     36  O   UNL A   1      46.200  25.597  32.654  1.00  0.00    -0.376 OA
BRANCH  36  37
ATOM     37  C   UNL A   1      46.007  25.170  33.989  1.00  0.00     0.202 C 
BRANCH  37  38
ATOM     38  C   UNL A   1      47.146  24.322  34.572  1.00  0.00     0.261 C 
BRANCH  38  39
ATOM     39  O   UNL A   1      48.107  25.028  35.378  1.00  0.00    -0.460 OA
BRANCH  39  40
ATOM     40  C   UNL A   1      49.410  24.717  35.206  1.00  0.00     0.338 C 
ATOM     41  O   UNL A   1      50.120  24.078  35.974  1.00  0.00    -0.246 OA
BRANCH  40  42
ATOM     42  C   UNL A   1      49.791  25.073  33.823  1.00  0.00     0.060 A 
ATOM     43  C   UNL A   1      49.610  26.393  33.382  1.00  0.00     0.016 A 
ATOM     44  C   UNL A   1      50.335  24.113  32.967  1.00  0.00     0.016 A 
ATOM     45  C   UNL A   1      49.948  26.747  32.075  1.00  0.00     0.010 A 
ATOM     46  C   UNL A   1      50.653  24.466  31.653  1.00  0.00     0.010 A 
ATOM     47  C   UNL A   1      50.434  25.776  31.189  1.00  0.00    -0.014 A 
BRANCH  47  48
ATOM     48  C   UNL A   1      50.557  26.075  29.740  1.00  0.00     0.031 A 
ATOM     49  C   UNL A   1      51.816  26.735  29.247  1.00  0.00     0.074 A 
ATOM     50  C   UNL A   1      49.563  25.796  28.878  1.00  0.00     0.049 A 
ATOM     51  N   UNL A   1      52.117  27.159  28.047  1.00  0.00    -0.248 NA
ATOM     52  C   UNL A   1      52.877  26.952  30.245  1.00  0.00     0.031 C 
ATOM     53  C   UNL A   1      48.296  25.155  29.225  1.00  0.00     0.029 A 
ATOM     54  N   UNL A   1      49.454  26.052  27.533  1.00  0.00    -0.354 N 
ATOM     55  C   UNL A   1      53.382  27.725  28.152  1.00  0.00     0.074 A 
ATOM     56  C   UNL A   1      53.791  27.596  29.534  1.00  0.00     0.031 C 
ATOM     57  C   UNL A   1      47.521  25.100  28.127  1.00  0.00     0.029 A 
ATOM     58  C   UNL A   1      48.224  25.729  27.009  1.00  0.00     0.049 A 
ATOM     59  H   UNL A   1      50.186  26.431  26.994  1.00  0.00     0.167 HD
ATOM     60  C   UNL A   1      54.141  28.293  27.185  1.00  0.00     0.034 A 
ATOM     61  C   UNL A   1      47.714  25.943  25.779  1.00  0.00     0.034 A 
ATOM     62  C   UNL A   1      53.742  28.409  25.809  1.00  0.00     0.049 A 
ATOM     63  C   UNL A   1      48.569  26.604  24.726  1.00  0.00     0.074 A 
ATOM     64  C   UNL A   1      54.465  28.922  24.746  1.00  0.00     0.029 A 
ATOM     65  N   UNL A   1      52.508  28.029  25.306  1.00  0.00    -0.354 N 
ATOM     66  N   UNL A   1      49.808  27.027  24.809  1.00  0.00    -0.248 NA
ATOM     67  C   UNL A   1      47.964  26.790  23.397  1.00  0.00     0.031 C 
ATOM     68  C   UNL A   1      53.654  28.885  23.608  1.00  0.00     0.029 A 
ATOM     69  C   UNL A   1      52.442  28.310  23.952  1.00  0.00     0.049 A 
ATOM     70  H   UNL A   1      51.786  27.618  25.834  1.00  0.00     0.167 HD
ATOM     71  C   UNL A   1      50.142  27.490  23.540  1.00  0.00     0.074 A 
ATOM     72  C   UNL A   1      48.981  27.280  22.700  1.00  0.00     0.031 C 
ATOM     73  C   UNL A   1      51.301  28.049  23.112  1.00  0.00     0.034 A 
BRANCH  60  74
ATOM     74  C   UNL A   1      55.493  28.826  27.581  1.00  0.00     0.023 A 
ATOM     75  C   UNL A   1      56.640  28.023  27.415  1.00  0.00     0.012 A 
ATOM     76  C   UNL A   1      55.635  30.141  28.063  1.00  0.00     0.148 A 
ATOM     77  C   UNL A   1      57.903  28.508  27.754  1.00  0.00     0.002 A 
ATOM     78  C   UNL A   1      56.900  30.635  28.355  1.00  0.00     0.091 A 
ATOM     79  F   UNL A   1      54.530  30.881  28.235  1.00  0.00    -0.205 F 
ATOM     80  C   UNL A   1      58.033  29.816  28.214  1.00  0.00     0.022 A 
BRANCH  78  81
ATOM     81  S   UNL A   1      57.184  32.330  28.875  1.00  0.00     0.127 S 
ATOM     82  O   UNL A   1      56.614  33.081  27.757  1.00  0.00    -0.237 OA
ATOM     83  O   UNL A   1      56.411  32.402  30.116  1.00  0.00    -0.237 OA
ATOM     84  O   UNL A   1      58.623  32.464  29.047  1.00  0.00    -0.744 OA
ENDBRANCH  78  81
ENDBRANCH  60  74
BRANCH  61  85
ATOM     85  C   UNL A   1      46.322  25.512  25.460  1.00  0.00     0.023 A 
ATOM     86  C   UNL A   1      46.078  24.184  25.060  1.00  0.00     0.012 A 
ATOM     87  C   UNL A   1      45.242  26.412  25.548  1.00  0.00     0.148 A 
ATOM     88  C   UNL A   1      44.789  23.768  24.722  1.00  0.00     0.002 A 
ATOM     89  C   UNL A   1      43.953  25.977  25.265  1.00  0.00     0.091 A 
ATOM     90  F   UNL A   1      45.498  27.676  25.912  1.00  0.00    -0.205 F 
ATOM     91  C   UNL A   1      43.727  24.660  24.834  1.00  0.00     0.022 A 
BRANCH  89  92
ATOM     92  S   UNL A   1      42.508  27.020  25.494  1.00  0.00     0.127 S 
ATOM     93  O   UNL A   1      42.676  27.462  26.876  1.00  0.00    -0.237 OA
ATOM     94  O   UNL A   1      42.724  28.055  24.485  1.00  0.00    -0.237 OA
ATOM     95  O   UNL A   1      41.359  26.161  25.242  1.00  0.00    -0.744 OA
ENDBRANCH  89  92
ENDBRANCH  61  85
BRANCH  73  96
ATOM     96  C   UNL A   1      51.404  28.433  21.656  1.00  0.00     0.023 A 
ATOM     97  C   UNL A   1      51.296  29.783  21.271  1.00  0.00     0.012 A 
ATOM     98  C   UNL A   1      51.686  27.457  20.677  1.00  0.00     0.148 A 
ATOM     99  C   UNL A   1      51.431  30.153  19.933  1.00  0.00     0.002 A 
ATOM    100  C   UNL A   1      51.871  27.839  19.354  1.00  0.00     0.091 A 
ATOM    101  F   UNL A   1      51.771  26.174  21.060  1.00  0.00    -0.205 F 
ATOM    102  C   UNL A   1      51.729  29.184  18.976  1.00  0.00     0.022 A 
BRANCH 100 103
ATOM    103  S   UNL A   1      52.356  26.676  18.073  1.00  0.00     0.127 S 
ATOM    104  O   UNL A   1      52.621  27.568  16.946  1.00  0.00    -0.237 OA
ATOM    105  O   UNL A   1      53.547  26.055  18.653  1.00  0.00    -0.237 OA
ATOM    106  O   UNL A   1      51.227  25.772  17.900  1.00  0.00    -0.744 OA
ENDBRANCH 100 103
ENDBRANCH  73  96
ENDBRANCH  47  48
ENDBRANCH  40  42
ENDBRANCH  39  40
ENDBRANCH  38  39
ENDBRANCH  37  38
ENDBRANCH  36  37
ENDBRANCH  35  36
ENDBRANCH  34  35
ENDBRANCH  33  34
ENDBRANCH  32  33
ENDBRANCH   1  32
TORSDOF 30
ENDMDL
