MODEL 1
REMARK VINA RESULT:     -10.6      0.000      0.000
REMARK SMILES COc1ccccc1[C@@H]1CN(C(=O)c2cnn3ccccc23)C[C@H]1C(=O)OCCOCCOCCOC(=O)c1ccc(-c2c3nc(c(-c4cccc(S(=O)(=O)[O-])c4F)c4ccc([nH]4)c(-c4cccc(S(=O)(=O)[O-])c4F)c4nc(c(-c5cccc(S(=O)(=O)[O-])c5F)c5ccc2[nH]5)C=C4)C=C3)cc1
REMARK SMILES IDX 32 1 31 2 30 3 29 4 28 5 27 6 25 7 26 8 24 9 9 10 10 11
REMARK SMILES IDX 11 12 23 13 8 14 3 15 4 16 5 17 7 18 6 19 2 20 1 21 12 22
REMARK SMILES IDX 13 23 14 24 15 25 22 26 16 27 17 28 21 29 18 30 20 31 19 32
REMARK SMILES IDX 33 33 34 34 35 35 36 36 37 37 38 38 39 39 40 40 101 41 41 42
REMARK SMILES IDX 100 43 42 44 43 45 44 46 94 47 45 48 99 49 93 50 95 51 46 52
REMARK SMILES IDX 98 53 92 54 91 55 47 57 79 58 59 59 78 60 60 61 63 62 77 63
REMARK SMILES IDX 96 64 61 65 62 66 76 68 97 69 64 70 48 71 49 72 57 73 50 74
REMARK SMILES IDX 52 75 58 76 51 77 53 78 54 79 55 80 56 81 80 82 81 83 89 84
REMARK SMILES IDX 82 85 84 86 90 87 83 88 85 89 86 90 87 91 88 92 65 93 66 94
REMARK SMILES IDX 74 95 67 96 69 97 75 98 68 99 70 100 71 101 72 102 73 103
REMARK H PARENT 95 56 63 67
REMARK Flexibility Score: inf
ROOT
ATOM      1  C   UNL A   1      41.746  20.785  26.973  1.00  0.00     0.188 C 
ENDROOT
BRANCH   1   2
ATOM      2  C   UNL A   1      40.280  20.902  26.526  1.00  0.00     0.188 C 
BRANCH   2   3
ATOM      3  O   UNL A   1      39.732  22.165  26.192  1.00  0.00    -0.376 OA
BRANCH   3   4
ATOM      4  C   UNL A   1      38.460  22.221  25.566  1.00  0.00     0.202 C 
BRANCH   4   5
ATOM      5  C   UNL A   1      37.626  20.924  25.452  1.00  0.00     0.261 C 
BRANCH   5   6
ATOM      6  O   UNL A   1      36.295  21.028  24.872  1.00  0.00    -0.463 OA
BRANCH   6   7
ATOM      7  C   UNL A   1      35.342  21.616  25.631  1.00  0.00     0.311 C 
ATOM      8  O   UNL A   1      35.441  21.761  26.848  1.00  0.00    -0.252 OA
BRANCH   7   9
ATOM      9  C   UNL A   1      34.047  22.003  24.927  1.00  0.00     0.128 C 
ATOM     10  C   UNL A   1      32.749  21.151  24.851  1.00  0.00     0.058 C 
ATOM     11  C   UNL A   1      31.653  22.219  24.823  1.00  0.00     0.129 C 
ATOM     12  N   UNL A   1      32.152  23.248  25.695  1.00  0.00    -0.337 N 
ATOM     13  C   UNL A   1      33.598  23.305  25.609  1.00  0.00     0.135 C 
BRANCH  10  14
ATOM     14  C   UNL A   1      32.443  20.193  23.699  1.00  0.00    -0.000 A 
ATOM     15  C   UNL A   1      32.708  18.811  23.694  1.00  0.00     0.122 A 
ATOM     16  C   UNL A   1      32.474  18.032  22.551  1.00  0.00     0.047 A 
ATOM     17  C   UNL A   1      32.020  18.624  21.374  1.00  0.00     0.004 A 
ATOM     18  C   UNL A   1      32.026  20.768  22.479  1.00  0.00     0.008 A 
ATOM     19  C   UNL A   1      31.823  20.000  21.331  1.00  0.00     0.001 A 
BRANCH  15  20
ATOM     20  O   UNL A   1      33.471  18.250  24.686  1.00  0.00    -0.496 OA
ATOM     21  C   UNL A   1      34.769  17.852  24.268  1.00  0.00     0.278 C 
ENDBRANCH  15  20
ENDBRANCH  10  14
BRANCH  12  22
ATOM     22  C   UNL A   1      31.432  24.243  26.324  1.00  0.00     0.257 C 
ATOM     23  O   UNL A   1      30.705  23.998  27.285  1.00  0.00    -0.269 OA
BRANCH  22  24
ATOM     24  C   UNL A   1      31.608  25.607  25.864  1.00  0.00     0.085 A 
ATOM     25  C   UNL A   1      32.655  26.470  26.244  1.00  0.00     0.150 A 
ATOM     26  C   UNL A   1      30.816  26.390  25.042  1.00  0.00     0.079 A 
ATOM     27  N   UNL A   1      32.596  27.666  25.660  1.00  0.00    -0.176 NA
ATOM     28  N   UNL A   1      31.477  27.615  24.892  1.00  0.00    -0.240 N 
ATOM     29  C   UNL A   1      29.578  26.221  24.345  1.00  0.00     0.029 A 
ATOM     30  C   UNL A   1      31.001  28.616  24.044  1.00  0.00     0.113 A 
ATOM     31  C   UNL A   1      29.140  27.188  23.516  1.00  0.00     0.004 A 
ATOM     32  C   UNL A   1      29.868  28.432  23.346  1.00  0.00     0.020 A 
ENDBRANCH  22  24
ENDBRANCH  12  22
ENDBRANCH   7   9
ENDBRANCH   6   7
ENDBRANCH   5   6
ENDBRANCH   4   5
ENDBRANCH   3   4
ENDBRANCH   2   3
ENDBRANCH   1   2
BRANCH   1  33
ATOM     33  O   UNL A   1      42.738  20.827  25.958  1.00  0.00    -0.376 OA
BRANCH  33  34
ATOM     34  C   UNL A   1      43.074  22.074  25.371  1.00  0.00     0.202 C 
BRANCH  34  35
ATOM     35  C   UNL A   1      43.021  23.256  26.340  1.00  0.00     0.261 C 
BRANCH  35  36
ATOM     36  O   UNL A   1      42.291  24.354  25.810  1.00  0.00    -0.460 OA
BRANCH  36  37
ATOM     37  C   UNL A   1      41.750  25.159  26.735  1.00  0.00     0.338 C 
ATOM     38  O   UNL A   1      40.926  24.864  27.604  1.00  0.00    -0.246 OA
BRANCH  37  39
ATOM     39  C   UNL A   1      42.364  26.470  26.625  1.00  0.00     0.060 A 
ATOM     40  C   UNL A   1      43.519  26.691  27.382  1.00  0.00     0.016 A 
ATOM     41  C   UNL A   1      41.613  27.500  26.058  1.00  0.00     0.016 A 
ATOM     42  C   UNL A   1      43.757  27.955  27.842  1.00  0.00     0.010 A 
ATOM     43  C   UNL A   1      41.831  28.761  26.539  1.00  0.00     0.010 A 
ATOM     44  C   UNL A   1      42.814  28.924  27.519  1.00  0.00    -0.014 A 
BRANCH  44  45
ATOM     45  C   UNL A   1      42.731  30.070  28.394  1.00  0.00     0.031 A 
ATOM     46  C   UNL A   1      43.801  31.063  28.205  1.00  0.00     0.074 A 
ATOM     47  C   UNL A   1      41.634  30.197  29.169  1.00  0.00     0.049 A 
ATOM     48  N   UNL A   1      44.576  31.581  29.097  1.00  0.00    -0.248 NA
ATOM     49  C   UNL A   1      44.131  31.433  26.819  1.00  0.00     0.031 C 
ATOM     50  C   UNL A   1      40.430  29.349  29.135  1.00  0.00     0.029 A 
ATOM     51  N   UNL A   1      41.268  31.220  29.988  1.00  0.00    -0.354 N 
ATOM     52  C   UNL A   1      45.334  32.517  28.401  1.00  0.00     0.074 A 
ATOM     53  C   UNL A   1      45.168  32.242  27.000  1.00  0.00     0.031 C 
ATOM     54  C   UNL A   1      39.392  30.046  29.638  1.00  0.00     0.029 A 
ATOM     55  C   UNL A   1      39.886  31.323  30.118  1.00  0.00     0.049 A 
ATOM     56  H   UNL A   1      41.907  31.820  30.437  1.00  0.00     0.167 HD
ATOM     57  C   UNL A   1      45.816  33.633  29.001  1.00  0.00     0.034 A 
ATOM     58  C   UNL A   1      39.189  32.434  30.454  1.00  0.00     0.034 A 
ATOM     59  C   UNL A   1      45.850  33.518  30.429  1.00  0.00     0.049 A 
ATOM     60  C   UNL A   1      40.144  33.403  31.040  1.00  0.00     0.074 A 
ATOM     61  C   UNL A   1      46.473  32.670  31.322  1.00  0.00     0.029 A 
ATOM     62  N   UNL A   1      44.875  34.179  31.133  1.00  0.00    -0.354 N 
ATOM     63  N   UNL A   1      40.752  33.239  32.182  1.00  0.00    -0.248 NA
ATOM     64  C   UNL A   1      40.734  34.399  30.159  1.00  0.00     0.031 C 
ATOM     65  C   UNL A   1      45.580  32.566  32.423  1.00  0.00     0.029 A 
ATOM     66  C   UNL A   1      44.463  33.360  32.149  1.00  0.00     0.049 A 
ATOM     67  H   UNL A   1      44.531  35.082  30.940  1.00  0.00     0.167 HD
ATOM     68  C   UNL A   1      42.013  33.790  31.993  1.00  0.00     0.074 A 
ATOM     69  C   UNL A   1      41.895  34.601  30.787  1.00  0.00     0.031 C 
ATOM     70  C   UNL A   1      43.105  33.303  32.655  1.00  0.00     0.034 A 
BRANCH  57  71
ATOM     71  C   UNL A   1      45.939  34.953  28.296  1.00  0.00     0.023 A 
ATOM     72  C   UNL A   1      44.789  35.758  28.202  1.00  0.00     0.012 A 
ATOM     73  C   UNL A   1      47.060  35.333  27.520  1.00  0.00     0.148 A 
ATOM     74  C   UNL A   1      44.755  36.883  27.374  1.00  0.00     0.002 A 
ATOM     75  C   UNL A   1      47.056  36.507  26.782  1.00  0.00     0.091 A 
ATOM     76  F   UNL A   1      48.096  34.497  27.375  1.00  0.00    -0.205 F 
ATOM     77  C   UNL A   1      45.896  37.273  26.680  1.00  0.00     0.022 A 
BRANCH  75  78
ATOM     78  S   UNL A   1      48.555  37.072  25.970  1.00  0.00     0.127 S 
ATOM     79  O   UNL A   1      48.878  35.936  25.113  1.00  0.00    -0.237 OA
ATOM     80  O   UNL A   1      48.093  38.269  25.266  1.00  0.00    -0.237 OA
ATOM     81  O   UNL A   1      49.480  37.350  27.063  1.00  0.00    -0.744 OA
ENDBRANCH  75  78
ENDBRANCH  57  71
BRANCH  58  82
ATOM     82  C   UNL A   1      37.814  32.809  30.049  1.00  0.00     0.023 A 
ATOM     83  C   UNL A   1      37.364  32.498  28.754  1.00  0.00     0.012 A 
ATOM     84  C   UNL A   1      36.868  33.293  30.984  1.00  0.00     0.148 A 
ATOM     85  C   UNL A   1      36.018  32.662  28.400  1.00  0.00     0.002 A 
ATOM     86  C   UNL A   1      35.539  33.484  30.620  1.00  0.00     0.091 A 
ATOM     87  F   UNL A   1      37.250  33.483  32.255  1.00  0.00    -0.205 F 
ATOM     88  C   UNL A   1      35.108  33.159  29.329  1.00  0.00     0.022 A 
BRANCH  86  89
ATOM     89  S   UNL A   1      34.324  34.151  31.767  1.00  0.00     0.127 S 
ATOM     90  O   UNL A   1      35.081  35.210  32.436  1.00  0.00    -0.237 OA
ATOM     91  O   UNL A   1      33.279  34.623  30.862  1.00  0.00    -0.237 OA
ATOM     92  O   UNL A   1      33.959  33.041  32.639  1.00  0.00    -0.744 OA
ENDBRANCH  86  89
ENDBRANCH  58  82
BRANCH  70  93
ATOM     93  C   UNL A   1      42.886  32.357  33.810  1.00  0.00     0.023 A 
ATOM     94  C   UNL A   1      42.695  32.831  35.124  1.00  0.00     0.012 A 
ATOM     95  C   UNL A   1      42.628  31.003  33.531  1.00  0.00     0.148 A 
ATOM     96  C   UNL A   1      42.264  31.974  36.139  1.00  0.00     0.002 A 
ATOM     97  C   UNL A   1      42.148  30.165  34.531  1.00  0.00     0.091 A 
ATOM     98  F   UNL A   1      42.809  30.566  32.274  1.00  0.00    -0.205 F 
ATOM     99  C   UNL A   1      41.974  30.645  35.839  1.00  0.00     0.022 A 
BRANCH  97 100
ATOM    100  S   UNL A   1      41.602  28.492  34.173  1.00  0.00     0.127 S 
ATOM    101  O   UNL A   1      41.140  28.033  35.479  1.00  0.00    -0.237 OA
ATOM    102  O   UNL A   1      40.538  28.711  33.190  1.00  0.00    -0.237 OA
ATOM    103  O   UNL A   1      42.768  27.801  33.636  1.00  0.00    -0.744 OA
ENDBRANCH  97 100
ENDBRANCH  70  93
ENDBRANCH  44  45
ENDBRANCH  37  39
ENDBRANCH  36  37
ENDBRANCH  35  36
ENDBRANCH  34  35
ENDBRANCH  33  34
ENDBRANCH   1  33
TORSDOF 24
ENDMDL
MODEL 2
REMARK VINA RESULT:     -10.4      1.886      2.334
REMARK SMILES COc1ccccc1[C@@H]1CN(C(=O)c2cnn3ccccc23)C[C@H]1C(=O)OCCOCCOCCOC(=O)c1ccc(-c2c3nc(c(-c4cccc(S(=O)(=O)[O-])c4F)c4ccc([nH]4)c(-c4cccc(S(=O)(=O)[O-])c4F)c4nc(c(-c5cccc(S(=O)(=O)[O-])c5F)c5ccc2[nH]5)C=C4)C=C3)cc1
REMARK SMILES IDX 32 1 31 2 30 3 29 4 28 5 27 6 25 7 26 8 24 9 9 10 10 11
REMARK SMILES IDX 11 12 23 13 8 14 3 15 4 16 5 17 7 18 6 19 2 20 1 21 12 22
REMARK SMILES IDX 13 23 14 24 15 25 22 26 16 27 17 28 21 29 18 30 20 31 19 32
REMARK SMILES IDX 33 33 34 34 35 35 36 36 37 37 38 38 39 39 40 40 101 41 41 42
REMARK SMILES IDX 100 43 42 44 43 45 44 46 94 47 45 48 99 49 93 50 95 51 46 52
REMARK SMILES IDX 98 53 92 54 91 55 47 57 79 58 59 59 78 60 60 61 63 62 77 63
REMARK SMILES IDX 96 64 61 65 62 66 76 68 97 69 64 70 48 71 49 72 57 73 50 74
REMARK SMILES IDX 52 75 58 76 51 77 53 78 54 79 55 80 56 81 80 82 81 83 89 84
REMARK SMILES IDX 82 85 84 86 90 87 83 88 85 89 86 90 87 91 88 92 65 93 66 94
REMARK SMILES IDX 74 95 67 96 69 97 75 98 68 99 70 100 71 101 72 102 73 103
REMARK H PARENT 95 56 63 67
REMARK Flexibility Score: inf
ROOT
ATOM      1  C   UNL A   1      41.711  21.166  27.429  1.00  0.00     0.188 C 
ENDROOT
BRANCH   1   2
ATOM      2  C   UNL A   1      40.257  21.143  26.930  1.00  0.00     0.188 C 
BRANCH   2   3
ATOM      3  O   UNL A   1      39.770  22.178  26.094  1.00  0.00    -0.376 OA
BRANCH   3   4
ATOM      4  C   UNL A   1      38.383  22.231  25.798  1.00  0.00     0.202 C 
BRANCH   4   5
ATOM      5  C   UNL A   1      37.662  20.933  25.368  1.00  0.00     0.261 C 
BRANCH   5   6
ATOM      6  O   UNL A   1      36.335  21.063  24.781  1.00  0.00    -0.463 OA
BRANCH   6   7
ATOM      7  C   UNL A   1      35.374  21.608  25.561  1.00  0.00     0.311 C 
ATOM      8  O   UNL A   1      35.469  21.706  26.783  1.00  0.00    -0.252 OA
BRANCH   7   9
ATOM      9  C   UNL A   1      34.074  22.004  24.870  1.00  0.00     0.128 C 
ATOM     10  C   UNL A   1      32.769  21.161  24.808  1.00  0.00     0.058 C 
ATOM     11  C   UNL A   1      31.681  22.238  24.791  1.00  0.00     0.129 C 
ATOM     12  N   UNL A   1      32.197  23.264  25.657  1.00  0.00    -0.337 N 
ATOM     13  C   UNL A   1      33.642  23.310  25.556  1.00  0.00     0.135 C 
BRANCH  10  14
ATOM     14  C   UNL A   1      32.445  20.206  23.661  1.00  0.00    -0.000 A 
ATOM     15  C   UNL A   1      32.647  18.813  23.675  1.00  0.00     0.122 A 
ATOM     16  C   UNL A   1      32.401  18.032  22.536  1.00  0.00     0.047 A 
ATOM     17  C   UNL A   1      31.999  18.631  21.344  1.00  0.00     0.004 A 
ATOM     18  C   UNL A   1      32.079  20.784  22.426  1.00  0.00     0.008 A 
ATOM     19  C   UNL A   1      31.865  20.013  21.282  1.00  0.00     0.001 A 
BRANCH  15  20
ATOM     20  O   UNL A   1      33.363  18.230  24.688  1.00  0.00    -0.496 OA
ATOM     21  C   UNL A   1      34.702  17.901  24.342  1.00  0.00     0.278 C 
ENDBRANCH  15  20
ENDBRANCH  10  14
BRANCH  12  22
ATOM     22  C   UNL A   1      31.491  24.265  26.293  1.00  0.00     0.257 C 
ATOM     23  O   UNL A   1      31.060  24.118  27.435  1.00  0.00    -0.269 OA
BRANCH  22  24
ATOM     24  C   UNL A   1      31.327  25.529  25.602  1.00  0.00     0.085 A 
ATOM     25  C   UNL A   1      30.293  25.838  24.696  1.00  0.00     0.150 A 
ATOM     26  C   UNL A   1      32.122  26.661  25.595  1.00  0.00     0.079 A 
ATOM     27  N   UNL A   1      30.361  27.078  24.215  1.00  0.00    -0.176 NA
ATOM     28  N   UNL A   1      31.474  27.605  24.788  1.00  0.00    -0.240 N 
ATOM     29  C   UNL A   1      33.354  27.056  26.208  1.00  0.00     0.029 A 
ATOM     30  C   UNL A   1      31.956  28.906  24.634  1.00  0.00     0.113 A 
ATOM     31  C   UNL A   1      33.797  28.319  26.066  1.00  0.00     0.004 A 
ATOM     32  C   UNL A   1      33.082  29.290  25.258  1.00  0.00     0.020 A 
ENDBRANCH  22  24
ENDBRANCH  12  22
ENDBRANCH   7   9
ENDBRANCH   6   7
ENDBRANCH   5   6
ENDBRANCH   4   5
ENDBRANCH   3   4
ENDBRANCH   2   3
ENDBRANCH   1   2
BRANCH   1  33
ATOM     33  O   UNL A   1      42.724  20.855  26.485  1.00  0.00    -0.376 OA
BRANCH  33  34
ATOM     34  C   UNL A   1      43.233  21.885  25.653  1.00  0.00     0.202 C 
BRANCH  34  35
ATOM     35  C   UNL A   1      43.381  23.238  26.352  1.00  0.00     0.261 C 
BRANCH  35  36
ATOM     36  O   UNL A   1      42.958  24.316  25.530  1.00  0.00    -0.460 OA
BRANCH  36  37
ATOM     37  C   UNL A   1      42.073  25.140  26.108  1.00  0.00     0.338 C 
ATOM     38  O   UNL A   1      40.999  24.845  26.636  1.00  0.00    -0.246 OA
BRANCH  37  39
ATOM     39  C   UNL A   1      42.623  26.485  26.108  1.00  0.00     0.060 A 
ATOM     40  C   UNL A   1      43.816  26.678  26.810  1.00  0.00     0.016 A 
ATOM     41  C   UNL A   1      41.792  27.532  25.710  1.00  0.00     0.016 A 
ATOM     42  C   UNL A   1      44.032  27.895  27.393  1.00  0.00     0.010 A 
ATOM     43  C   UNL A   1      41.989  28.741  26.314  1.00  0.00     0.010 A 
ATOM     44  C   UNL A   1      43.030  28.846  27.243  1.00  0.00    -0.014 A 
BRANCH  44  45
ATOM     45  C   UNL A   1      42.958  29.883  28.244  1.00  0.00     0.031 A 
ATOM     46  C   UNL A   1      43.827  31.043  27.986  1.00  0.00     0.074 A 
ATOM     47  C   UNL A   1      42.022  29.770  29.209  1.00  0.00     0.049 A 
ATOM     48  N   UNL A   1      44.680  31.595  28.783  1.00  0.00    -0.248 NA
ATOM     49  C   UNL A   1      43.834  31.579  26.615  1.00  0.00     0.031 C 
ATOM     50  C   UNL A   1      40.960  28.752  29.288  1.00  0.00     0.029 A 
ATOM     51  N   UNL A   1      41.682  30.647  30.190  1.00  0.00    -0.354 N 
ATOM     52  C   UNL A   1      45.157  32.694  28.077  1.00  0.00     0.074 A 
ATOM     53  C   UNL A   1      44.767  32.520  26.704  1.00  0.00     0.031 C 
ATOM     54  C   UNL A   1      39.951  29.232  30.042  1.00  0.00     0.029 A 
ATOM     55  C   UNL A   1      40.349  30.523  30.571  1.00  0.00     0.049 A 
ATOM     56  H   UNL A   1      42.306  31.297  30.587  1.00  0.00     0.167 HD
ATOM     57  C   UNL A   1      45.588  33.815  28.707  1.00  0.00     0.034 A 
ATOM     58  C   UNL A   1      39.584  31.478  31.149  1.00  0.00     0.034 A 
ATOM     59  C   UNL A   1      45.907  33.581  30.085  1.00  0.00     0.049 A 
ATOM     60  C   UNL A   1      40.491  32.529  31.666  1.00  0.00     0.074 A 
ATOM     61  C   UNL A   1      46.798  32.765  30.751  1.00  0.00     0.029 A 
ATOM     62  N   UNL A   1      45.002  34.018  31.019  1.00  0.00    -0.354 N 
ATOM     63  N   UNL A   1      41.321  32.361  32.658  1.00  0.00    -0.248 NA
ATOM     64  C   UNL A   1      40.761  33.678  30.816  1.00  0.00     0.031 C 
ATOM     65  C   UNL A   1      46.153  32.427  31.972  1.00  0.00     0.029 A 
ATOM     66  C   UNL A   1      44.907  33.059  31.990  1.00  0.00     0.049 A 
ATOM     67  H   UNL A   1      44.509  34.870  30.994  1.00  0.00     0.167 HD
ATOM     68  C   UNL A   1      42.437  33.116  32.316  1.00  0.00     0.074 A 
ATOM     69  C   UNL A   1      41.982  34.002  31.250  1.00  0.00     0.031 C 
ATOM     70  C   UNL A   1      43.690  32.748  32.716  1.00  0.00     0.034 A 
BRANCH  57  71
ATOM     71  C   UNL A   1      45.393  35.194  28.147  1.00  0.00     0.023 A 
ATOM     72  C   UNL A   1      46.533  36.002  27.981  1.00  0.00     0.012 A 
ATOM     73  C   UNL A   1      44.131  35.816  28.000  1.00  0.00     0.148 A 
ATOM     74  C   UNL A   1      46.421  37.364  27.688  1.00  0.00     0.002 A 
ATOM     75  C   UNL A   1      44.027  37.142  27.605  1.00  0.00     0.091 A 
ATOM     76  F   UNL A   1      43.015  35.176  28.371  1.00  0.00    -0.205 F 
ATOM     77  C   UNL A   1      45.168  37.931  27.476  1.00  0.00     0.022 A 
BRANCH  75  78
ATOM     78  S   UNL A   1      42.421  37.853  27.229  1.00  0.00     0.127 S 
ATOM     79  O   UNL A   1      41.797  36.786  26.453  1.00  0.00    -0.237 OA
ATOM     80  O   UNL A   1      41.856  38.065  28.561  1.00  0.00    -0.237 OA
ATOM     81  O   UNL A   1      42.727  39.087  26.513  1.00  0.00    -0.744 OA
ENDBRANCH  75  78
ENDBRANCH  57  71
BRANCH  58  82
ATOM     82  C   UNL A   1      38.119  31.669  31.036  1.00  0.00     0.023 A 
ATOM     83  C   UNL A   1      37.346  31.806  32.202  1.00  0.00     0.012 A 
ATOM     84  C   UNL A   1      37.494  31.918  29.790  1.00  0.00     0.148 A 
ATOM     85  C   UNL A   1      35.997  32.178  32.133  1.00  0.00     0.002 A 
ATOM     86  C   UNL A   1      36.146  32.256  29.724  1.00  0.00     0.091 A 
ATOM     87  F   UNL A   1      38.239  31.909  28.676  1.00  0.00    -0.205 F 
ATOM     88  C   UNL A   1      35.395  32.397  30.896  1.00  0.00     0.022 A 
BRANCH  86  89
ATOM     89  S   UNL A   1      35.307  32.523  28.155  1.00  0.00     0.127 S 
ATOM     90  O   UNL A   1      35.404  31.204  27.525  1.00  0.00    -0.237 OA
ATOM     91  O   UNL A   1      33.963  32.896  28.588  1.00  0.00    -0.237 OA
ATOM     92  O   UNL A   1      36.070  33.562  27.474  1.00  0.00    -0.744 OA
ENDBRANCH  86  89
ENDBRANCH  58  82
BRANCH  70  93
ATOM     93  C   UNL A   1      43.826  31.682  33.776  1.00  0.00     0.023 A 
ATOM     94  C   UNL A   1      43.788  31.999  35.149  1.00  0.00     0.012 A 
ATOM     95  C   UNL A   1      43.744  30.333  33.387  1.00  0.00     0.148 A 
ATOM     96  C   UNL A   1      43.680  30.994  36.114  1.00  0.00     0.002 A 
ATOM     97  C   UNL A   1      43.582  29.340  34.346  1.00  0.00     0.091 A 
ATOM     98  F   UNL A   1      43.776  30.045  32.075  1.00  0.00    -0.205 F 
ATOM     99  C   UNL A   1      43.559  29.666  35.711  1.00  0.00     0.022 A 
BRANCH  97 100
ATOM    100  S   UNL A   1      43.257  27.634  33.886  1.00  0.00     0.127 S 
ATOM    101  O   UNL A   1      42.727  27.776  32.533  1.00  0.00    -0.237 OA
ATOM    102  O   UNL A   1      44.588  27.028  33.961  1.00  0.00    -0.237 OA
ATOM    103  O   UNL A   1      42.321  27.127  34.882  1.00  0.00    -0.744 OA
ENDBRANCH  97 100
ENDBRANCH  70  93
ENDBRANCH  44  45
ENDBRANCH  37  39
ENDBRANCH  36  37
ENDBRANCH  35  36
ENDBRANCH  34  35
ENDBRANCH  33  34
ENDBRANCH   1  33
TORSDOF 24
ENDMDL
MODEL 3
REMARK VINA RESULT:     -10.4      1.639      2.371
REMARK SMILES COc1ccccc1[C@@H]1CN(C(=O)c2cnn3ccccc23)C[C@H]1C(=O)OCCOCCOCCOC(=O)c1ccc(-c2c3nc(c(-c4cccc(S(=O)(=O)[O-])c4F)c4ccc([nH]4)c(-c4cccc(S(=O)(=O)[O-])c4F)c4nc(c(-c5cccc(S(=O)(=O)[O-])c5F)c5ccc2[nH]5)C=C4)C=C3)cc1
REMARK SMILES IDX 32 1 31 2 30 3 29 4 28 5 27 6 25 7 26 8 24 9 9 10 10 11
REMARK SMILES IDX 11 12 23 13 8 14 3 15 4 16 5 17 7 18 6 19 2 20 1 21 12 22
REMARK SMILES IDX 13 23 14 24 15 25 22 26 16 27 17 28 21 29 18 30 20 31 19 32
REMARK SMILES IDX 33 33 34 34 35 35 36 36 37 37 38 38 39 39 40 40 101 41 41 42
REMARK SMILES IDX 100 43 42 44 43 45 44 46 94 47 45 48 99 49 93 50 95 51 46 52
REMARK SMILES IDX 98 53 92 54 91 55 47 57 79 58 59 59 78 60 60 61 63 62 77 63
REMARK SMILES IDX 96 64 61 65 62 66 76 68 97 69 64 70 48 71 49 72 57 73 50 74
REMARK SMILES IDX 52 75 58 76 51 77 53 78 54 79 55 80 56 81 80 82 81 83 89 84
REMARK SMILES IDX 82 85 84 86 90 87 83 88 85 89 86 90 87 91 88 92 65 93 66 94
REMARK SMILES IDX 74 95 67 96 69 97 75 98 68 99 70 100 71 101 72 102 73 103
REMARK H PARENT 95 56 63 67
REMARK Flexibility Score: inf
ROOT
ATOM      1  C   UNL A   1      42.486  22.145  25.278  1.00  0.00     0.188 C 
ENDROOT
BRANCH   1   2
ATOM      2  C   UNL A   1      41.665  21.235  26.206  1.00  0.00     0.188 C 
BRANCH   2   3
ATOM      3  O   UNL A   1      40.252  21.198  26.107  1.00  0.00    -0.376 OA
BRANCH   3   4
ATOM      4  C   UNL A   1      39.628  20.044  25.567  1.00  0.00     0.202 C 
BRANCH   4   5
ATOM      5  C   UNL A   1      38.126  20.108  25.205  1.00  0.00     0.261 C 
BRANCH   5   6
ATOM      6  O   UNL A   1      37.412  21.339  25.510  1.00  0.00    -0.463 OA
BRANCH   6   7
ATOM      7  C   UNL A   1      36.620  21.842  24.535  1.00  0.00     0.311 C 
ATOM      8  O   UNL A   1      37.030  22.592  23.650  1.00  0.00    -0.252 OA
BRANCH   7   9
ATOM      9  C   UNL A   1      35.130  21.536  24.636  1.00  0.00     0.128 C 
ATOM     10  C   UNL A   1      34.492  20.258  25.247  1.00  0.00     0.058 C 
ATOM     11  C   UNL A   1      33.178  20.789  25.826  1.00  0.00     0.129 C 
ATOM     12  N   UNL A   1      33.522  22.097  26.317  1.00  0.00    -0.337 N 
ATOM     13  C   UNL A   1      34.545  22.683  25.476  1.00  0.00     0.135 C 
BRANCH  10  14
ATOM     14  C   UNL A   1      34.127  19.027  24.418  1.00  0.00    -0.000 A 
ATOM     15  C   UNL A   1      33.012  18.916  23.567  1.00  0.00     0.122 A 
ATOM     16  C   UNL A   1      32.712  17.709  22.917  1.00  0.00     0.047 A 
ATOM     17  C   UNL A   1      33.489  16.574  23.143  1.00  0.00     0.004 A 
ATOM     18  C   UNL A   1      34.866  17.848  24.658  1.00  0.00     0.008 A 
ATOM     19  C   UNL A   1      34.551  16.638  24.038  1.00  0.00     0.001 A 
BRANCH  15  20
ATOM     20  O   UNL A   1      32.032  19.875  23.584  1.00  0.00    -0.496 OA
ATOM     21  C   UNL A   1      32.031  20.727  22.447  1.00  0.00     0.278 C 
ENDBRANCH  15  20
ENDBRANCH  10  14
BRANCH  12  22
ATOM     22  C   UNL A   1      32.843  22.852  27.252  1.00  0.00     0.257 C 
ATOM     23  O   UNL A   1      33.015  22.687  28.457  1.00  0.00    -0.269 OA
BRANCH  22  24
ATOM     24  C   UNL A   1      31.964  23.902  26.771  1.00  0.00     0.085 A 
ATOM     25  C   UNL A   1      30.564  23.803  26.648  1.00  0.00     0.150 A 
ATOM     26  C   UNL A   1      32.252  25.162  26.279  1.00  0.00     0.079 A 
ATOM     27  N   UNL A   1      29.991  24.920  26.201  1.00  0.00    -0.176 NA
ATOM     28  N   UNL A   1      31.026  25.776  25.997  1.00  0.00    -0.240 N 
ATOM     29  C   UNL A   1      33.439  25.925  26.039  1.00  0.00     0.029 A 
ATOM     30  C   UNL A   1      30.940  27.101  25.568  1.00  0.00     0.113 A 
ATOM     31  C   UNL A   1      33.341  27.209  25.643  1.00  0.00     0.004 A 
ATOM     32  C   UNL A   1      32.054  27.833  25.400  1.00  0.00     0.020 A 
ENDBRANCH  22  24
ENDBRANCH  12  22
ENDBRANCH   7   9
ENDBRANCH   6   7
ENDBRANCH   5   6
ENDBRANCH   4   5
ENDBRANCH   3   4
ENDBRANCH   2   3
ENDBRANCH   1   2
BRANCH   1  33
ATOM     33  O   UNL A   1      43.879  22.240  25.532  1.00  0.00    -0.376 OA
BRANCH  33  34
ATOM     34  C   UNL A   1      44.497  23.517  25.531  1.00  0.00     0.202 C 
BRANCH  34  35
ATOM     35  C   UNL A   1      43.554  24.668  25.178  1.00  0.00     0.261 C 
BRANCH  35  36
ATOM     36  O   UNL A   1      44.182  25.935  25.303  1.00  0.00    -0.460 OA
BRANCH  36  37
ATOM     37  C   UNL A   1      43.341  26.978  25.252  1.00  0.00     0.338 C 
ATOM     38  O   UNL A   1      43.024  27.646  24.264  1.00  0.00    -0.246 OA
BRANCH  37  39
ATOM     39  C   UNL A   1      42.758  27.168  26.568  1.00  0.00     0.060 A 
ATOM     40  C   UNL A   1      41.477  27.726  26.616  1.00  0.00     0.016 A 
ATOM     41  C   UNL A   1      43.603  27.100  27.676  1.00  0.00     0.016 A 
ATOM     42  C   UNL A   1      41.151  28.502  27.691  1.00  0.00     0.010 A 
ATOM     43  C   UNL A   1      43.293  27.898  28.740  1.00  0.00     0.010 A 
ATOM     44  C   UNL A   1      42.136  28.679  28.655  1.00  0.00    -0.014 A 
BRANCH  44  45
ATOM     45  C   UNL A   1      42.045  29.865  29.473  1.00  0.00     0.031 A 
ATOM     46  C   UNL A   1      43.002  30.926  29.121  1.00  0.00     0.074 A 
ATOM     47  C   UNL A   1      41.025  29.951  30.353  1.00  0.00     0.049 A 
ATOM     48  N   UNL A   1      43.817  31.557  29.899  1.00  0.00    -0.248 NA
ATOM     49  C   UNL A   1      43.158  31.236  27.690  1.00  0.00     0.031 C 
ATOM     50  C   UNL A   1      39.900  29.011  30.489  1.00  0.00     0.029 A 
ATOM     51  N   UNL A   1      40.658  30.990  31.151  1.00  0.00    -0.354 N 
ATOM     52  C   UNL A   1      44.418  32.505  29.079  1.00  0.00     0.074 A 
ATOM     53  C   UNL A   1      44.136  32.134  27.719  1.00  0.00     0.031 C 
ATOM     54  C   UNL A   1      38.863  29.653  31.064  1.00  0.00     0.029 A 
ATOM     55  C   UNL A   1      39.293  30.991  31.421  1.00  0.00     0.049 A 
ATOM     56  H   UNL A   1      41.286  31.664  31.499  1.00  0.00     0.167 HD
ATOM     57  C   UNL A   1      44.863  33.690  29.565  1.00  0.00     0.034 A 
ATOM     58  C   UNL A   1      38.542  32.062  31.771  1.00  0.00     0.034 A 
ATOM     59  C   UNL A   1      45.051  33.665  30.986  1.00  0.00     0.049 A 
ATOM     60  C   UNL A   1      39.466  33.137  32.202  1.00  0.00     0.074 A 
ATOM     61  C   UNL A   1      45.830  32.924  31.851  1.00  0.00     0.029 A 
ATOM     62  N   UNL A   1      44.099  34.287  31.754  1.00  0.00    -0.354 N 
ATOM     63  N   UNL A   1      40.198  33.090  33.281  1.00  0.00    -0.248 NA
ATOM     64  C   UNL A   1      39.877  34.122  31.213  1.00  0.00     0.031 C 
ATOM     65  C   UNL A   1      45.065  32.816  33.044  1.00  0.00     0.029 A 
ATOM     66  C   UNL A   1      43.863  33.501  32.849  1.00  0.00     0.049 A 
ATOM     67  H   UNL A   1      43.662  35.147  31.552  1.00  0.00     0.167 HD
ATOM     68  C   UNL A   1      41.382  33.727  32.931  1.00  0.00     0.074 A 
ATOM     69  C   UNL A   1      41.075  34.452  31.703  1.00  0.00     0.031 C 
ATOM     70  C   UNL A   1      42.573  33.368  33.498  1.00  0.00     0.034 A 
BRANCH  57  71
ATOM     71  C   UNL A   1      44.802  34.971  28.784  1.00  0.00     0.023 A 
ATOM     72  C   UNL A   1      43.533  35.521  28.522  1.00  0.00     0.012 A 
ATOM     73  C   UNL A   1      45.904  35.530  28.096  1.00  0.00     0.148 A 
ATOM     74  C   UNL A   1      43.370  36.573  27.617  1.00  0.00     0.002 A 
ATOM     75  C   UNL A   1      45.752  36.641  27.280  1.00  0.00     0.091 A 
ATOM     76  F   UNL A   1      47.093  34.914  28.112  1.00  0.00    -0.205 F 
ATOM     77  C   UNL A   1      44.483  37.150  27.011  1.00  0.00     0.022 A 
BRANCH  75  78
ATOM     78  S   UNL A   1      47.190  37.456  26.579  1.00  0.00     0.127 S 
ATOM     79  O   UNL A   1      46.600  38.655  25.994  1.00  0.00    -0.237 OA
ATOM     80  O   UNL A   1      48.022  37.686  27.761  1.00  0.00    -0.237 OA
ATOM     81  O   UNL A   1      47.745  36.480  25.647  1.00  0.00    -0.744 OA
ENDBRANCH  75  78
ENDBRANCH  57  71
BRANCH  58  82
ATOM     82  C   UNL A   1      37.107  32.302  31.495  1.00  0.00     0.023 A 
ATOM     83  C   UNL A   1      36.240  32.617  32.555  1.00  0.00     0.012 A 
ATOM     84  C   UNL A   1      36.612  32.420  30.173  1.00  0.00     0.148 A 
ATOM     85  C   UNL A   1      34.926  33.037  32.312  1.00  0.00     0.002 A 
ATOM     86  C   UNL A   1      35.297  32.806  29.937  1.00  0.00     0.091 A 
ATOM     87  F   UNL A   1      37.454  32.239  29.146  1.00  0.00    -0.205 F 
ATOM     88  C   UNL A   1      34.452  33.127  31.005  1.00  0.00     0.022 A 
BRANCH  86  89
ATOM     89  S   UNL A   1      34.620  32.912  28.273  1.00  0.00     0.127 S 
ATOM     90  O   UNL A   1      34.553  31.504  27.878  1.00  0.00    -0.237 OA
ATOM     91  O   UNL A   1      33.324  33.542  28.511  1.00  0.00    -0.237 OA
ATOM     92  O   UNL A   1      35.581  33.697  27.508  1.00  0.00    -0.744 OA
ENDBRANCH  86  89
ENDBRANCH  58  82
BRANCH  70  93
ATOM     93  C   UNL A   1      42.553  32.479  34.717  1.00  0.00     0.023 A 
ATOM     94  C   UNL A   1      42.419  33.012  36.015  1.00  0.00     0.012 A 
ATOM     95  C   UNL A   1      42.421  31.091  34.535  1.00  0.00     0.148 A 
ATOM     96  C   UNL A   1      42.168  32.181  37.109  1.00  0.00     0.002 A 
ATOM     97  C   UNL A   1      42.118  30.272  35.617  1.00  0.00     0.091 A 
ATOM     98  F   UNL A   1      42.546  30.597  33.293  1.00  0.00    -0.205 F 
ATOM     99  C   UNL A   1      42.001  30.812  36.908  1.00  0.00     0.022 A 
BRANCH  97 100
ATOM    100  S   UNL A   1      41.729  28.533  35.399  1.00  0.00     0.127 S 
ATOM    101  O   UNL A   1      43.036  27.963  35.080  1.00  0.00    -0.237 OA
ATOM    102  O   UNL A   1      41.204  28.158  36.713  1.00  0.00    -0.237 OA
ATOM    103  O   UNL A   1      40.739  28.479  34.330  1.00  0.00    -0.744 OA
ENDBRANCH  97 100
ENDBRANCH  70  93
ENDBRANCH  44  45
ENDBRANCH  37  39
ENDBRANCH  36  37
ENDBRANCH  35  36
ENDBRANCH  34  35
ENDBRANCH  33  34
ENDBRANCH   1  33
TORSDOF 24
ENDMDL
