MODEL 1
REMARK VINA RESULT:     -11.3      0.000      0.000
REMARK SMILES O=C(OCCOCCOCCOC(=O)[C@@H](Cc1ccccc1)N1C(=O)/C(=C/c2ccncc2)SC1=S)c1ccc(-c2c3nc(c(-c4cccc(S(=O)(=O)[O-])c4F)c4ccc([nH]4)c(-c4cccc(S(=O)(=O)[O-])c4F)c4nc(c(-c5cccc(S(=O)(=O)[O-])c5F)c5ccc2[nH]5)C=C4)C=C3)cc1
REMARK SMILES IDX 7 1 6 2 5 3 4 4 3 5 2 6 1 7 37 8 38 9 99 10 39 11 98 12
REMARK SMILES IDX 40 13 41 14 42 15 92 16 43 17 97 18 91 19 93 20 44 21 96 22
REMARK SMILES IDX 90 23 89 24 45 26 77 27 57 28 76 29 58 30 61 31 75 32 94 33
REMARK SMILES IDX 59 34 60 35 74 37 95 38 62 39 46 40 47 41 55 42 48 43 50 44
REMARK SMILES IDX 56 45 49 46 51 47 52 48 53 49 54 50 78 51 79 52 87 53 80 54
REMARK SMILES IDX 82 55 88 56 81 57 83 58 84 59 85 60 86 61 63 62 64 63 72 64
REMARK SMILES IDX 65 65 67 66 73 67 66 68 68 69 69 70 70 71 71 72 8 73 9 74
REMARK SMILES IDX 10 75 11 76 12 77 13 78 14 79 15 80 16 81 17 82 18 83 22 84
REMARK SMILES IDX 19 85 21 86 20 87 23 88 24 89 35 90 25 91 26 92 34 93 36 94
REMARK SMILES IDX 27 95 28 96 29 97 33 98 30 99 32 100 31 101
REMARK H PARENT 93 25 61 36
REMARK Flexibility Score: inf
ROOT
ATOM      1  C   UNL A   1      33.808  20.015  25.814  1.00  0.00     0.188 C 
ENDROOT
BRANCH   1   2
ATOM      2  O   UNL A   1      35.065  20.589  25.418  1.00  0.00    -0.376 OA
BRANCH   2   3
ATOM      3  C   UNL A   1      35.844  19.727  24.582  1.00  0.00     0.202 C 
BRANCH   3   4
ATOM      4  C   UNL A   1      37.341  19.654  24.914  1.00  0.00     0.261 C 
BRANCH   4   5
ATOM      5  O   UNL A   1      37.862  20.877  25.448  1.00  0.00    -0.460 OA
BRANCH   5   6
ATOM      6  C   UNL A   1      39.000  21.089  26.157  1.00  0.00     0.338 C 
ATOM      7  O   UNL A   1      39.610  20.095  26.549  1.00  0.00    -0.246 OA
BRANCH   6   8
ATOM      8  C   UNL A   1      39.560  22.439  26.513  1.00  0.00     0.060 A 
ATOM      9  C   UNL A   1      39.075  23.672  26.079  1.00  0.00     0.016 A 
ATOM     10  C   UNL A   1      40.652  22.456  27.406  1.00  0.00     0.016 A 
ATOM     11  C   UNL A   1      39.680  24.869  26.469  1.00  0.00     0.010 A 
ATOM     12  C   UNL A   1      41.250  23.655  27.823  1.00  0.00     0.010 A 
ATOM     13  C   UNL A   1      40.768  24.871  27.340  1.00  0.00    -0.014 A 
BRANCH  13  14
ATOM     14  C   UNL A   1      41.404  26.171  27.644  1.00  0.00     0.031 A 
ATOM     15  C   UNL A   1      40.671  27.132  28.526  1.00  0.00     0.074 A 
ATOM     16  C   UNL A   1      42.659  26.424  27.232  1.00  0.00     0.049 A 
ATOM     17  N   UNL A   1      41.079  28.267  29.019  1.00  0.00    -0.248 NA
ATOM     18  C   UNL A   1      39.294  26.767  28.895  1.00  0.00     0.031 C 
ATOM     19  C   UNL A   1      43.440  25.544  26.373  1.00  0.00     0.029 A 
ATOM     20  N   UNL A   1      43.513  27.462  27.506  1.00  0.00    -0.354 N 
ATOM     21  C   UNL A   1      39.980  28.800  29.674  1.00  0.00     0.074 A 
ATOM     22  C   UNL A   1      38.917  27.821  29.603  1.00  0.00     0.031 C 
ATOM     23  C   UNL A   1      44.692  26.018  26.274  1.00  0.00     0.029 A 
ATOM     24  C   UNL A   1      44.780  27.288  26.989  1.00  0.00     0.049 A 
ATOM     25  H   UNL A   1      43.247  28.255  28.025  1.00  0.00     0.167 HD
ATOM     26  C   UNL A   1      39.852  30.028  30.222  1.00  0.00     0.034 A 
ATOM     27  C   UNL A   1      45.868  28.082  27.078  1.00  0.00     0.034 A 
ATOM     28  C   UNL A   1      40.906  30.999  30.265  1.00  0.00     0.049 A 
ATOM     29  C   UNL A   1      45.702  29.418  27.768  1.00  0.00     0.074 A 
ATOM     30  C   UNL A   1      40.866  32.290  30.755  1.00  0.00     0.029 A 
ATOM     31  N   UNL A   1      42.184  30.793  29.769  1.00  0.00    -0.354 N 
ATOM     32  N   UNL A   1      44.696  29.863  28.483  1.00  0.00    -0.248 NA
ATOM     33  C   UNL A   1      46.809  30.377  27.633  1.00  0.00     0.031 C 
ATOM     34  C   UNL A   1      42.111  32.880  30.519  1.00  0.00     0.029 A 
ATOM     35  C   UNL A   1      42.933  31.945  29.909  1.00  0.00     0.049 A 
ATOM     36  H   UNL A   1      42.509  29.951  29.375  1.00  0.00     0.167 HD
ATOM     37  C   UNL A   1      45.039  31.158  28.854  1.00  0.00     0.074 A 
ATOM     38  C   UNL A   1      46.386  31.388  28.376  1.00  0.00     0.031 C 
ATOM     39  C   UNL A   1      44.292  32.107  29.466  1.00  0.00     0.034 A 
BRANCH  26  40
ATOM     40  C   UNL A   1      38.488  30.424  30.703  1.00  0.00     0.023 A 
ATOM     41  C   UNL A   1      38.079  30.145  32.019  1.00  0.00     0.012 A 
ATOM     42  C   UNL A   1      37.614  31.095  29.824  1.00  0.00     0.148 A 
ATOM     43  C   UNL A   1      36.804  30.514  32.450  1.00  0.00     0.002 A 
ATOM     44  C   UNL A   1      36.362  31.489  30.271  1.00  0.00     0.091 A 
ATOM     45  F   UNL A   1      38.022  31.317  28.567  1.00  0.00    -0.205 F 
ATOM     46  C   UNL A   1      35.951  31.192  31.580  1.00  0.00     0.022 A 
BRANCH  44  47
ATOM     47  S   UNL A   1      35.214  32.408  29.241  1.00  0.00     0.127 S 
ATOM     48  O   UNL A   1      34.255  32.895  30.232  1.00  0.00    -0.237 OA
ATOM     49  O   UNL A   1      36.080  33.440  28.670  1.00  0.00    -0.237 OA
ATOM     50  O   UNL A   1      34.680  31.454  28.279  1.00  0.00    -0.744 OA
ENDBRANCH  44  47
ENDBRANCH  26  40
BRANCH  27  51
ATOM     51  C   UNL A   1      47.194  27.701  26.495  1.00  0.00     0.023 A 
ATOM     52  C   UNL A   1      48.249  27.338  27.358  1.00  0.00     0.012 A 
ATOM     53  C   UNL A   1      47.456  27.758  25.114  1.00  0.00     0.148 A 
ATOM     54  C   UNL A   1      49.539  27.126  26.869  1.00  0.00     0.002 A 
ATOM     55  C   UNL A   1      48.711  27.410  24.623  1.00  0.00     0.091 A 
ATOM     56  F   UNL A   1      46.489  28.182  24.289  1.00  0.00    -0.205 F 
ATOM     57  C   UNL A   1      49.767  27.131  25.498  1.00  0.00     0.022 A 
BRANCH  55  58
ATOM     58  S   UNL A   1      48.988  27.183  22.865  1.00  0.00     0.127 S 
ATOM     59  O   UNL A   1      48.288  25.930  22.608  1.00  0.00    -0.237 OA
ATOM     60  O   UNL A   1      48.354  28.376  22.301  1.00  0.00    -0.237 OA
ATOM     61  O   UNL A   1      50.438  27.157  22.727  1.00  0.00    -0.744 OA
ENDBRANCH  55  58
ENDBRANCH  27  51
BRANCH  39  62
ATOM     62  C   UNL A   1      44.903  33.473  29.617  1.00  0.00     0.023 A 
ATOM     63  C   UNL A   1      45.740  33.731  30.721  1.00  0.00     0.012 A 
ATOM     64  C   UNL A   1      44.730  34.458  28.627  1.00  0.00     0.148 A 
ATOM     65  C   UNL A   1      46.377  34.962  30.853  1.00  0.00     0.002 A 
ATOM     66  C   UNL A   1      45.409  35.664  28.740  1.00  0.00     0.091 A 
ATOM     67  F   UNL A   1      43.917  34.191  27.595  1.00  0.00    -0.205 F 
ATOM     68  C   UNL A   1      46.223  35.922  29.856  1.00  0.00     0.022 A 
BRANCH  66  69
ATOM     69  S   UNL A   1      45.354  36.921  27.460  1.00  0.00     0.127 S 
ATOM     70  O   UNL A   1      45.777  36.164  26.282  1.00  0.00    -0.237 OA
ATOM     71  O   UNL A   1      43.943  37.306  27.466  1.00  0.00    -0.237 OA
ATOM     72  O   UNL A   1      46.271  37.971  27.885  1.00  0.00    -0.744 OA
ENDBRANCH  66  69
ENDBRANCH  39  62
ENDBRANCH  13  14
ENDBRANCH   6   8
ENDBRANCH   5   6
ENDBRANCH   4   5
ENDBRANCH   3   4
ENDBRANCH   2   3
ENDBRANCH   1   2
BRANCH   1  73
ATOM     73  C   UNL A   1      33.010  19.516  24.606  1.00  0.00     0.188 C 
BRANCH  73  74
ATOM     74  O   UNL A   1      32.058  20.441  24.067  1.00  0.00    -0.376 OA
BRANCH  74  75
ATOM     75  C   UNL A   1      32.371  21.067  22.827  1.00  0.00     0.202 C 
BRANCH  75  76
ATOM     76  C   UNL A   1      32.542  22.584  22.855  1.00  0.00     0.261 C 
BRANCH  76  77
ATOM     77  O   UNL A   1      31.483  23.231  23.563  1.00  0.00    -0.462 OA
BRANCH  77  78
ATOM     78  C   UNL A   1      31.438  24.580  23.437  1.00  0.00     0.329 C 
ATOM     79  O   UNL A   1      32.035  25.226  22.577  1.00  0.00    -0.250 OA
BRANCH  78  80
ATOM     80  C   UNL A   1      30.531  25.237  24.472  1.00  0.00     0.206 C 
BRANCH  80  81
ATOM     81  C   UNL A   1      30.750  24.926  25.963  1.00  0.00     0.073 C 
BRANCH  81  82
ATOM     82  C   UNL A   1      31.979  24.185  26.439  1.00  0.00    -0.045 A 
ATOM     83  C   UNL A   1      33.267  24.601  26.073  1.00  0.00     0.004 A 
ATOM     84  C   UNL A   1      31.856  23.106  27.325  1.00  0.00     0.004 A 
ATOM     85  C   UNL A   1      34.399  23.951  26.568  1.00  0.00     0.000 A 
ATOM     86  C   UNL A   1      32.986  22.468  27.838  1.00  0.00     0.000 A 
ATOM     87  C   UNL A   1      34.258  22.889  27.456  1.00  0.00     0.000 A 
ENDBRANCH  81  82
ENDBRANCH  80  81
BRANCH  80  88
ATOM     88  N   UNL A   1      30.450  26.665  24.151  1.00  0.00    -0.278 N 
ATOM     89  C   UNL A   1      29.235  27.157  23.722  1.00  0.00     0.267 C 
ATOM     90  C   UNL A   1      31.449  27.595  24.350  1.00  0.00     0.149 C 
ATOM     91  O   UNL A   1      28.160  26.575  23.771  1.00  0.00    -0.268 OA
ATOM     92  C   UNL A   1      29.377  28.562  23.291  1.00  0.00     0.081 C 
ATOM     93  S   UNL A   1      30.894  29.171  23.789  1.00  0.00    -0.054 SA
ATOM     94  S   UNL A   1      32.950  27.349  25.028  1.00  0.00    -0.052 S 
ATOM     95  C   UNL A   1      28.362  29.136  22.636  1.00  0.00     0.029 C 
BRANCH  95  96
ATOM     96  C   UNL A   1      28.230  30.517  22.174  1.00  0.00    -0.021 A 
ATOM     97  C   UNL A   1      28.035  30.862  20.843  1.00  0.00     0.028 A 
ATOM     98  C   UNL A   1      28.245  31.530  23.132  1.00  0.00     0.028 A 
ATOM     99  C   UNL A   1      27.893  32.201  20.519  1.00  0.00     0.111 A 
ATOM    100  C   UNL A   1      28.094  32.840  22.714  1.00  0.00     0.111 A 
ATOM    101  N   UNL A   1      27.917  33.202  21.427  1.00  0.00    -0.265 NA
ENDBRANCH  95  96
ENDBRANCH  80  88
ENDBRANCH  78  80
ENDBRANCH  77  78
ENDBRANCH  76  77
ENDBRANCH  75  76
ENDBRANCH  74  75
ENDBRANCH  73  74
ENDBRANCH   1  73
TORSDOF 24
ENDMDL
MODEL 2
REMARK VINA RESULT:     -11.0      2.639      8.170
REMARK SMILES O=C(OCCOCCOCCOC(=O)[C@@H](Cc1ccccc1)N1C(=O)/C(=C/c2ccncc2)SC1=S)c1ccc(-c2c3nc(c(-c4cccc(S(=O)(=O)[O-])c4F)c4ccc([nH]4)c(-c4cccc(S(=O)(=O)[O-])c4F)c4nc(c(-c5cccc(S(=O)(=O)[O-])c5F)c5ccc2[nH]5)C=C4)C=C3)cc1
REMARK SMILES IDX 7 1 6 2 5 3 4 4 3 5 2 6 1 7 37 8 38 9 99 10 39 11 98 12
REMARK SMILES IDX 40 13 41 14 42 15 92 16 43 17 97 18 91 19 93 20 44 21 96 22
REMARK SMILES IDX 90 23 89 24 45 26 77 27 57 28 76 29 58 30 61 31 75 32 94 33
REMARK SMILES IDX 59 34 60 35 74 37 95 38 62 39 46 40 47 41 55 42 48 43 50 44
REMARK SMILES IDX 56 45 49 46 51 47 52 48 53 49 54 50 78 51 79 52 87 53 80 54
REMARK SMILES IDX 82 55 88 56 81 57 83 58 84 59 85 60 86 61 63 62 64 63 72 64
REMARK SMILES IDX 65 65 67 66 73 67 66 68 68 69 69 70 70 71 71 72 8 73 9 74
REMARK SMILES IDX 10 75 11 76 12 77 13 78 14 79 15 80 16 81 17 82 18 83 22 84
REMARK SMILES IDX 19 85 21 86 20 87 23 88 24 89 35 90 25 91 26 92 34 93 36 94
REMARK SMILES IDX 27 95 28 96 29 97 33 98 30 99 32 100 31 101
REMARK H PARENT 93 25 61 36
REMARK Flexibility Score: inf
ROOT
ATOM      1  C   UNL A   1      33.785  20.937  26.050  1.00  0.00     0.188 C 
ENDROOT
BRANCH   1   2
ATOM      2  O   UNL A   1      35.168  21.324  26.095  1.00  0.00    -0.376 OA
BRANCH   2   3
ATOM      3  C   UNL A   1      35.908  20.922  24.938  1.00  0.00     0.202 C 
BRANCH   3   4
ATOM      4  C   UNL A   1      37.395  20.621  25.170  1.00  0.00     0.261 C 
BRANCH   4   5
ATOM      5  O   UNL A   1      38.165  21.788  25.487  1.00  0.00    -0.460 OA
BRANCH   5   6
ATOM      6  C   UNL A   1      39.220  21.919  26.330  1.00  0.00     0.338 C 
ATOM      7  O   UNL A   1      39.635  20.895  26.872  1.00  0.00    -0.246 OA
BRANCH   6   8
ATOM      8  C   UNL A   1      39.907  23.214  26.664  1.00  0.00     0.060 A 
ATOM      9  C   UNL A   1      39.597  24.469  26.141  1.00  0.00     0.016 A 
ATOM     10  C   UNL A   1      40.933  23.156  27.631  1.00  0.00     0.016 A 
ATOM     11  C   UNL A   1      40.308  25.610  26.519  1.00  0.00     0.010 A 
ATOM     12  C   UNL A   1      41.635  24.302  28.035  1.00  0.00     0.010 A 
ATOM     13  C   UNL A   1      41.329  25.536  27.465  1.00  0.00    -0.014 A 
BRANCH  13  14
ATOM     14  C   UNL A   1      42.089  26.772  27.755  1.00  0.00     0.031 A 
ATOM     15  C   UNL A   1      43.363  27.014  27.011  1.00  0.00     0.074 A 
ATOM     16  C   UNL A   1      41.578  27.704  28.578  1.00  0.00     0.049 A 
ATOM     17  N   UNL A   1      44.127  28.071  27.012  1.00  0.00    -0.248 NA
ATOM     18  C   UNL A   1      43.845  25.916  26.156  1.00  0.00     0.031 C 
ATOM     19  C   UNL A   1      40.345  27.547  29.340  1.00  0.00     0.029 A 
ATOM     20  N   UNL A   1      41.997  28.974  28.885  1.00  0.00    -0.354 N 
ATOM     21  C   UNL A   1      45.227  27.731  26.241  1.00  0.00     0.074 A 
ATOM     22  C   UNL A   1      44.988  26.409  25.704  1.00  0.00     0.031 C 
ATOM     23  C   UNL A   1      40.045  28.709  29.942  1.00  0.00     0.029 A 
ATOM     24  C   UNL A   1      41.114  29.670  29.685  1.00  0.00     0.049 A 
ATOM     25  H   UNL A   1      42.846  29.353  28.563  1.00  0.00     0.167 HD
ATOM     26  C   UNL A   1      46.366  28.434  26.059  1.00  0.00     0.034 A 
ATOM     27  C   UNL A   1      41.187  30.932  30.159  1.00  0.00     0.034 A 
ATOM     28  C   UNL A   1      46.600  29.735  26.616  1.00  0.00     0.049 A 
ATOM     29  C   UNL A   1      42.448  31.715  29.869  1.00  0.00     0.074 A 
ATOM     30  C   UNL A   1      47.738  30.514  26.531  1.00  0.00     0.029 A 
ATOM     31  N   UNL A   1      45.687  30.433  27.391  1.00  0.00    -0.354 N 
ATOM     32  N   UNL A   1      43.429  31.432  29.045  1.00  0.00    -0.248 NA
ATOM     33  C   UNL A   1      42.628  32.979  30.600  1.00  0.00     0.031 C 
ATOM     34  C   UNL A   1      47.528  31.669  27.291  1.00  0.00     0.029 A 
ATOM     35  C   UNL A   1      46.248  31.620  27.821  1.00  0.00     0.049 A 
ATOM     36  H   UNL A   1      44.775  30.129  27.604  1.00  0.00     0.167 HD
ATOM     37  C   UNL A   1      44.351  32.463  29.184  1.00  0.00     0.074 A 
ATOM     38  C   UNL A   1      43.764  33.429  30.090  1.00  0.00     0.031 C 
ATOM     39  C   UNL A   1      45.602  32.578  28.678  1.00  0.00     0.034 A 
BRANCH  26  40
ATOM     40  C   UNL A   1      47.482  27.753  25.327  1.00  0.00     0.023 A 
ATOM     41  C   UNL A   1      48.330  26.847  25.987  1.00  0.00     0.012 A 
ATOM     42  C   UNL A   1      47.671  28.019  23.955  1.00  0.00     0.148 A 
ATOM     43  C   UNL A   1      49.369  26.225  25.293  1.00  0.00     0.002 A 
ATOM     44  C   UNL A   1      48.684  27.371  23.265  1.00  0.00     0.091 A 
ATOM     45  F   UNL A   1      46.866  28.912  23.363  1.00  0.00    -0.205 F 
ATOM     46  C   UNL A   1      49.540  26.481  23.933  1.00  0.00     0.022 A 
BRANCH  44  47
ATOM     47  S   UNL A   1      48.951  27.600  21.504  1.00  0.00     0.127 S 
ATOM     48  O   UNL A   1      49.827  26.470  21.191  1.00  0.00    -0.237 OA
ATOM     49  O   UNL A   1      47.593  27.484  20.975  1.00  0.00    -0.237 OA
ATOM     50  O   UNL A   1      49.559  28.914  21.354  1.00  0.00    -0.744 OA
ENDBRANCH  44  47
ENDBRANCH  26  40
BRANCH  27  51
ATOM     51  C   UNL A   1      40.095  31.550  30.978  1.00  0.00     0.023 A 
ATOM     52  C   UNL A   1      39.275  32.540  30.398  1.00  0.00     0.012 A 
ATOM     53  C   UNL A   1      39.894  31.232  32.334  1.00  0.00     0.148 A 
ATOM     54  C   UNL A   1      38.350  33.250  31.167  1.00  0.00     0.002 A 
ATOM     55  C   UNL A   1      38.876  31.847  33.055  1.00  0.00     0.091 A 
ATOM     56  F   UNL A   1      40.719  30.353  32.921  1.00  0.00    -0.205 F 
ATOM     57  C   UNL A   1      38.126  32.883  32.488  1.00  0.00     0.022 A 
BRANCH  55  58
ATOM     58  S   UNL A   1      38.403  31.253  34.681  1.00  0.00     0.127 S 
ATOM     59  O   UNL A   1      38.322  29.812  34.465  1.00  0.00    -0.237 OA
ATOM     60  O   UNL A   1      39.529  31.695  35.505  1.00  0.00    -0.237 OA
ATOM     61  O   UNL A   1      37.149  31.938  34.966  1.00  0.00    -0.744 OA
ENDBRANCH  55  58
ENDBRANCH  27  51
BRANCH  39  62
ATOM     62  C   UNL A   1      46.417  33.763  29.119  1.00  0.00     0.023 A 
ATOM     63  C   UNL A   1      46.346  34.957  28.375  1.00  0.00     0.012 A 
ATOM     64  C   UNL A   1      47.166  33.724  30.308  1.00  0.00     0.148 A 
ATOM     65  C   UNL A   1      47.032  36.094  28.796  1.00  0.00     0.002 A 
ATOM     66  C   UNL A   1      47.807  34.876  30.748  1.00  0.00     0.091 A 
ATOM     67  F   UNL A   1      47.229  32.570  30.988  1.00  0.00    -0.205 F 
ATOM     68  C   UNL A   1      47.751  36.057  29.988  1.00  0.00     0.022 A 
BRANCH  66  69
ATOM     69  S   UNL A   1      48.671  34.955  32.319  1.00  0.00     0.127 S 
ATOM     70  O   UNL A   1      49.747  33.985  32.116  1.00  0.00    -0.237 OA
ATOM     71  O   UNL A   1      49.106  36.351  32.362  1.00  0.00    -0.237 OA
ATOM     72  O   UNL A   1      47.693  34.593  33.336  1.00  0.00    -0.744 OA
ENDBRANCH  66  69
ENDBRANCH  39  62
ENDBRANCH  13  14
ENDBRANCH   6   8
ENDBRANCH   5   6
ENDBRANCH   4   5
ENDBRANCH   3   4
ENDBRANCH   2   3
ENDBRANCH   1   2
BRANCH   1  73
ATOM     73  C   UNL A   1      33.494  20.019  24.859  1.00  0.00     0.188 C 
BRANCH  73  74
ATOM     74  O   UNL A   1      32.587  20.541  23.882  1.00  0.00    -0.376 OA
BRANCH  74  75
ATOM     75  C   UNL A   1      32.161  21.893  24.028  1.00  0.00     0.202 C 
BRANCH  75  76
ATOM     76  C   UNL A   1      32.375  22.808  22.824  1.00  0.00     0.261 C 
BRANCH  76  77
ATOM     77  O   UNL A   1      33.308  23.854  23.103  1.00  0.00    -0.462 OA
BRANCH  77  78
ATOM     78  C   UNL A   1      33.058  24.571  24.226  1.00  0.00     0.329 C 
ATOM     79  O   UNL A   1      33.369  24.225  25.364  1.00  0.00    -0.250 OA
BRANCH  78  80
ATOM     80  C   UNL A   1      32.362  25.896  23.933  1.00  0.00     0.206 C 
BRANCH  80  81
ATOM     81  C   UNL A   1      30.939  25.880  23.350  1.00  0.00     0.073 C 
BRANCH  81  82
ATOM     82  C   UNL A   1      30.186  27.163  23.078  1.00  0.00    -0.045 A 
ATOM     83  C   UNL A   1      30.796  28.238  22.414  1.00  0.00     0.004 A 
ATOM     84  C   UNL A   1      28.832  27.275  23.419  1.00  0.00     0.004 A 
ATOM     85  C   UNL A   1      30.076  29.395  22.109  1.00  0.00     0.000 A 
ATOM     86  C   UNL A   1      28.105  28.422  23.097  1.00  0.00     0.000 A 
ATOM     87  C   UNL A   1      28.728  29.483  22.445  1.00  0.00     0.000 A 
ENDBRANCH  81  82
ENDBRANCH  80  81
BRANCH  80  88
ATOM     88  N   UNL A   1      32.532  26.757  25.108  1.00  0.00    -0.278 N 
ATOM     89  C   UNL A   1      33.505  27.734  25.051  1.00  0.00     0.267 C 
ATOM     90  C   UNL A   1      31.728  26.761  26.229  1.00  0.00     0.149 C 
ATOM     91  O   UNL A   1      34.109  28.095  24.052  1.00  0.00    -0.268 OA
ATOM     92  C   UNL A   1      33.646  28.389  26.366  1.00  0.00     0.081 C 
ATOM     93  S   UNL A   1      32.342  27.948  27.379  1.00  0.00    -0.054 SA
ATOM     94  S   UNL A   1      30.368  25.842  26.511  1.00  0.00    -0.052 S 
ATOM     95  C   UNL A   1      34.689  29.202  26.567  1.00  0.00     0.029 C 
BRANCH  95  96
ATOM     96  C   UNL A   1      35.008  30.016  27.739  1.00  0.00    -0.021 A 
ATOM     97  C   UNL A   1      35.955  29.651  28.688  1.00  0.00     0.028 A 
ATOM     98  C   UNL A   1      34.365  31.246  27.875  1.00  0.00     0.028 A 
ATOM     99  C   UNL A   1      36.201  30.511  29.744  1.00  0.00     0.111 A 
ATOM    100  C   UNL A   1      34.677  32.039  28.965  1.00  0.00     0.111 A 
ATOM    101  N   UNL A   1      35.582  31.701  29.906  1.00  0.00    -0.265 NA
ENDBRANCH  95  96
ENDBRANCH  80  88
ENDBRANCH  78  80
ENDBRANCH  77  78
ENDBRANCH  76  77
ENDBRANCH  75  76
ENDBRANCH  74  75
ENDBRANCH  73  74
ENDBRANCH   1  73
TORSDOF 24
ENDMDL
MODEL 3
REMARK VINA RESULT:     -10.2      6.308     11.118
REMARK SMILES O=C(OCCOCCOCCOC(=O)[C@@H](Cc1ccccc1)N1C(=O)/C(=C/c2ccncc2)SC1=S)c1ccc(-c2c3nc(c(-c4cccc(S(=O)(=O)[O-])c4F)c4ccc([nH]4)c(-c4cccc(S(=O)(=O)[O-])c4F)c4nc(c(-c5cccc(S(=O)(=O)[O-])c5F)c5ccc2[nH]5)C=C4)C=C3)cc1
REMARK SMILES IDX 7 1 6 2 5 3 4 4 3 5 2 6 1 7 37 8 38 9 99 10 39 11 98 12
REMARK SMILES IDX 40 13 41 14 42 15 92 16 43 17 97 18 91 19 93 20 44 21 96 22
REMARK SMILES IDX 90 23 89 24 45 26 77 27 57 28 76 29 58 30 61 31 75 32 94 33
REMARK SMILES IDX 59 34 60 35 74 37 95 38 62 39 46 40 47 41 55 42 48 43 50 44
REMARK SMILES IDX 56 45 49 46 51 47 52 48 53 49 54 50 78 51 79 52 87 53 80 54
REMARK SMILES IDX 82 55 88 56 81 57 83 58 84 59 85 60 86 61 63 62 64 63 72 64
REMARK SMILES IDX 65 65 67 66 73 67 66 68 68 69 69 70 70 71 71 72 8 73 9 74
REMARK SMILES IDX 10 75 11 76 12 77 13 78 14 79 15 80 16 81 17 82 18 83 22 84
REMARK SMILES IDX 19 85 21 86 20 87 23 88 24 89 35 90 25 91 26 92 34 93 36 94
REMARK SMILES IDX 27 95 28 96 29 97 33 98 30 99 32 100 31 101
REMARK H PARENT 93 25 61 36
REMARK Flexibility Score: inf
ROOT
ATOM      1  C   UNL A   1      35.039  32.012  28.070  1.00  0.00     0.188 C 
ENDROOT
BRANCH   1   2
ATOM      2  O   UNL A   1      35.654  30.800  28.535  1.00  0.00    -0.376 OA
BRANCH   2   3
ATOM      3  C   UNL A   1      36.528  30.200  27.572  1.00  0.00     0.202 C 
BRANCH   3   4
ATOM      4  C   UNL A   1      37.958  29.920  28.053  1.00  0.00     0.261 C 
BRANCH   4   5
ATOM      5  O   UNL A   1      38.400  30.828  29.070  1.00  0.00    -0.460 OA
BRANCH   5   6
ATOM      6  C   UNL A   1      38.961  30.560  30.276  1.00  0.00     0.338 C 
ATOM      7  O   UNL A   1      38.345  30.928  31.276  1.00  0.00    -0.246 OA
BRANCH   6   8
ATOM      8  C   UNL A   1      40.279  29.867  30.484  1.00  0.00     0.060 A 
ATOM      9  C   UNL A   1      40.459  28.536  30.861  1.00  0.00     0.016 A 
ATOM     10  C   UNL A   1      41.442  30.625  30.230  1.00  0.00     0.016 A 
ATOM     11  C   UNL A   1      41.735  27.996  31.032  1.00  0.00     0.010 A 
ATOM     12  C   UNL A   1      42.727  30.082  30.375  1.00  0.00     0.010 A 
ATOM     13  C   UNL A   1      42.875  28.761  30.792  1.00  0.00    -0.014 A 
BRANCH  13  14
ATOM     14  C   UNL A   1      44.190  28.143  31.071  1.00  0.00     0.031 A 
ATOM     15  C   UNL A   1      44.996  27.635  29.918  1.00  0.00     0.074 A 
ATOM     16  C   UNL A   1      44.692  28.153  32.319  1.00  0.00     0.049 A 
ATOM     17  N   UNL A   1      46.214  27.169  29.910  1.00  0.00    -0.248 NA
ATOM     18  C   UNL A   1      44.339  27.647  28.600  1.00  0.00     0.031 C 
ATOM     19  C   UNL A   1      43.974  28.628  33.495  1.00  0.00     0.029 A 
ATOM     20  N   UNL A   1      45.923  27.795  32.806  1.00  0.00    -0.354 N 
ATOM     21  C   UNL A   1      46.435  26.741  28.611  1.00  0.00     0.074 A 
ATOM     22  C   UNL A   1      45.267  27.093  27.834  1.00  0.00     0.031 C 
ATOM     23  C   UNL A   1      44.806  28.637  34.549  1.00  0.00     0.029 A 
ATOM     24  C   UNL A   1      46.093  28.079  34.145  1.00  0.00     0.049 A 
ATOM     25  H   UNL A   1      46.620  27.376  32.251  1.00  0.00     0.167 HD
ATOM     26  C   UNL A   1      47.492  26.051  28.130  1.00  0.00     0.034 A 
ATOM     27  C   UNL A   1      47.167  27.888  34.941  1.00  0.00     0.034 A 
ATOM     28  C   UNL A   1      48.635  25.688  28.916  1.00  0.00     0.049 A 
ATOM     29  C   UNL A   1      48.361  27.179  34.342  1.00  0.00     0.074 A 
ATOM     30  C   UNL A   1      49.739  24.948  28.538  1.00  0.00     0.029 A 
ATOM     31  N   UNL A   1      48.803  26.012  30.254  1.00  0.00    -0.354 N 
ATOM     32  N   UNL A   1      48.608  26.883  33.088  1.00  0.00    -0.248 NA
ATOM     33  C   UNL A   1      49.413  26.747  35.276  1.00  0.00     0.031 C 
ATOM     34  C   UNL A   1      50.558  24.791  29.660  1.00  0.00     0.029 A 
ATOM     35  C   UNL A   1      49.976  25.458  30.727  1.00  0.00     0.049 A 
ATOM     36  H   UNL A   1      48.178  26.555  30.787  1.00  0.00     0.167 HD
ATOM     37  C   UNL A   1      49.822  26.207  33.090  1.00  0.00     0.074 A 
ATOM     38  C   UNL A   1      50.312  26.229  34.453  1.00  0.00     0.031 C 
ATOM     39  C   UNL A   1      50.450  25.555  32.082  1.00  0.00     0.034 A 
BRANCH  26  40
ATOM     40  C   UNL A   1      47.396  25.545  26.722  1.00  0.00     0.023 A 
ATOM     41  C   UNL A   1      48.093  26.179  25.679  1.00  0.00     0.012 A 
ATOM     42  C   UNL A   1      46.605  24.410  26.450  1.00  0.00     0.148 A 
ATOM     43  C   UNL A   1      47.989  25.698  24.373  1.00  0.00     0.002 A 
ATOM     44  C   UNL A   1      46.535  23.919  25.155  1.00  0.00     0.091 A 
ATOM     45  F   UNL A   1      45.928  23.849  27.461  1.00  0.00    -0.205 F 
ATOM     46  C   UNL A   1      47.217  24.566  24.114  1.00  0.00     0.022 A 
BRANCH  44  47
ATOM     47  S   UNL A   1      45.607  22.441  24.733  1.00  0.00     0.127 S 
ATOM     48  O   UNL A   1      45.014  22.823  23.451  1.00  0.00    -0.237 OA
ATOM     49  O   UNL A   1      46.665  21.435  24.641  1.00  0.00    -0.237 OA
ATOM     50  O   UNL A   1      44.657  22.235  25.817  1.00  0.00    -0.744 OA
ENDBRANCH  44  47
ENDBRANCH  26  40
BRANCH  27  51
ATOM     51  C   UNL A   1      47.193  28.315  36.377  1.00  0.00     0.023 A 
ATOM     52  C   UNL A   1      47.721  29.580  36.711  1.00  0.00     0.012 A 
ATOM     53  C   UNL A   1      46.773  27.473  37.423  1.00  0.00     0.148 A 
ATOM     54  C   UNL A   1      47.906  29.954  38.043  1.00  0.00     0.002 A 
ATOM     55  C   UNL A   1      46.833  27.911  38.742  1.00  0.00     0.091 A 
ATOM     56  F   UNL A   1      46.347  26.238  37.128  1.00  0.00    -0.205 F 
ATOM     57  C   UNL A   1      47.433  29.135  39.061  1.00  0.00     0.022 A 
BRANCH  55  58
ATOM     58  S   UNL A   1      46.035  26.992  40.061  1.00  0.00     0.127 S 
ATOM     59  O   UNL A   1      46.793  25.746  40.062  1.00  0.00    -0.237 OA
ATOM     60  O   UNL A   1      46.264  27.860  41.217  1.00  0.00    -0.237 OA
ATOM     61  O   UNL A   1      44.641  26.904  39.648  1.00  0.00    -0.744 OA
ENDBRANCH  55  58
ENDBRANCH  27  51
BRANCH  39  62
ATOM     62  C   UNL A   1      51.701  24.796  32.427  1.00  0.00     0.023 A 
ATOM     63  C   UNL A   1      52.947  25.448  32.329  1.00  0.00     0.012 A 
ATOM     64  C   UNL A   1      51.637  23.486  32.934  1.00  0.00     0.148 A 
ATOM     65  C   UNL A   1      54.118  24.796  32.707  1.00  0.00     0.002 A 
ATOM     66  C   UNL A   1      52.804  22.861  33.357  1.00  0.00     0.091 A 
ATOM     67  F   UNL A   1      50.441  22.884  33.002  1.00  0.00    -0.205 F 
ATOM     68  C   UNL A   1      54.045  23.509  33.234  1.00  0.00     0.022 A 
BRANCH  66  69
ATOM     69  S   UNL A   1      52.799  21.246  34.140  1.00  0.00     0.127 S 
ATOM     70  O   UNL A   1      52.040  21.511  35.362  1.00  0.00    -0.237 OA
ATOM     71  O   UNL A   1      52.100  20.425  33.152  1.00  0.00    -0.237 OA
ATOM     72  O   UNL A   1      54.197  20.891  34.343  1.00  0.00    -0.744 OA
ENDBRANCH  66  69
ENDBRANCH  39  62
ENDBRANCH  13  14
ENDBRANCH   6   8
ENDBRANCH   5   6
ENDBRANCH   4   5
ENDBRANCH   3   4
ENDBRANCH   2   3
ENDBRANCH   1   2
BRANCH   1  73
ATOM     73  C   UNL A   1      33.577  31.787  27.672  1.00  0.00     0.188 C 
BRANCH  73  74
ATOM     74  O   UNL A   1      33.178  30.420  27.529  1.00  0.00    -0.376 OA
BRANCH  74  75
ATOM     75  C   UNL A   1      32.749  29.986  26.242  1.00  0.00     0.202 C 
BRANCH  75  76
ATOM     76  C   UNL A   1      31.767  28.817  26.210  1.00  0.00     0.261 C 
BRANCH  76  77
ATOM     77  O   UNL A   1      32.299  27.687  25.516  1.00  0.00    -0.462 OA
BRANCH  77  78
ATOM     78  C   UNL A   1      31.614  26.529  25.679  1.00  0.00     0.329 C 
ATOM     79  O   UNL A   1      31.454  25.953  26.753  1.00  0.00    -0.250 OA
BRANCH  78  80
ATOM     80  C   UNL A   1      31.021  26.009  24.374  1.00  0.00     0.206 C 
BRANCH  80  81
ATOM     81  C   UNL A   1      30.767  26.996  23.222  1.00  0.00     0.073 C 
BRANCH  81  82
ATOM     82  C   UNL A   1      29.596  27.952  23.249  1.00  0.00    -0.045 A 
ATOM     83  C   UNL A   1      29.768  29.322  23.005  1.00  0.00     0.004 A 
ATOM     84  C   UNL A   1      28.294  27.470  23.446  1.00  0.00     0.004 A 
ATOM     85  C   UNL A   1      28.673  30.188  22.968  1.00  0.00     0.000 A 
ATOM     86  C   UNL A   1      27.197  28.331  23.389  1.00  0.00     0.000 A 
ATOM     87  C   UNL A   1      27.387  29.690  23.154  1.00  0.00     0.000 A 
ENDBRANCH  81  82
ENDBRANCH  80  81
BRANCH  80  88
ATOM     88  N   UNL A   1      31.769  24.806  23.994  1.00  0.00    -0.278 N 
ATOM     89  C   UNL A   1      31.298  23.590  24.444  1.00  0.00     0.267 C 
ATOM     90  C   UNL A   1      32.840  24.761  23.125  1.00  0.00     0.149 C 
ATOM     91  O   UNL A   1      30.209  23.382  24.960  1.00  0.00    -0.268 OA
ATOM     92  C   UNL A   1      32.255  22.517  24.109  1.00  0.00     0.081 C 
ATOM     93  S   UNL A   1      33.419  23.101  23.002  1.00  0.00    -0.054 SA
ATOM     94  S   UNL A   1      33.514  26.025  22.274  1.00  0.00    -0.052 S 
ATOM     95  C   UNL A   1      32.081  21.310  24.659  1.00  0.00     0.029 C 
BRANCH  95  96
ATOM     96  C   UNL A   1      32.837  20.080  24.433  1.00  0.00    -0.021 A 
ATOM     97  C   UNL A   1      32.379  19.036  23.639  1.00  0.00     0.028 A 
ATOM     98  C   UNL A   1      34.107  19.980  25.001  1.00  0.00     0.028 A 
ATOM     99  C   UNL A   1      33.191  17.927  23.468  1.00  0.00     0.111 A 
ATOM    100  C   UNL A   1      34.846  18.833  24.774  1.00  0.00     0.111 A 
ATOM    101  N   UNL A   1      34.418  17.801  24.019  1.00  0.00    -0.265 NA
ENDBRANCH  95  96
ENDBRANCH  80  88
ENDBRANCH  78  80
ENDBRANCH  77  78
ENDBRANCH  76  77
ENDBRANCH  75  76
ENDBRANCH  74  75
ENDBRANCH  73  74
ENDBRANCH   1  73
TORSDOF 24
ENDMDL
