MODEL 1
REMARK VINA RESULT:     -10.5      0.000      0.000
REMARK SMILES Cc1cc(Cl)cc2c1O[C@H](C(F)(F)F)C(C(=O)OCCOCCOCCOC(=O)c1ccc(-c3c4nc(c(-c5cccc(S(=O)(=O)[O-])c5F)c5ccc([nH]5)c(-c5cccc(S(=O)(=O)[O-])c5F)c5nc(c(-c6cccc(S(=O)(=O)[O-])c6F)c6ccc3[nH]6)C=C5)C=C4)cc1)=C2
REMARK SMILES IDX 23 1 22 2 21 3 20 4 19 5 18 6 16 7 17 8 15 9 1 10 2 11 3 12
REMARK SMILES IDX 8 13 4 14 7 15 9 16 5 17 6 18 93 19 10 20 11 21 12 22 13 23
REMARK SMILES IDX 14 24 24 25 25 26 26 27 27 28 28 29 29 30 30 31 31 32 92 33
REMARK SMILES IDX 32 34 91 35 33 36 34 37 35 38 85 39 36 40 90 41 84 42 86 43
REMARK SMILES IDX 37 44 89 45 83 46 82 47 38 49 70 50 50 51 69 52 51 53 54 54
REMARK SMILES IDX 68 55 87 56 52 57 53 58 67 60 88 61 55 62 39 63 40 64 48 65
REMARK SMILES IDX 41 66 43 67 49 68 42 69 44 70 45 71 46 72 47 73 71 74 72 75
REMARK SMILES IDX 80 76 73 77 75 78 81 79 74 80 76 81 77 82 78 83 79 84 56 85
REMARK SMILES IDX 57 86 65 87 58 88 60 89 66 90 59 91 61 92 62 93 63 94 64 95
REMARK H PARENT 86 48 54 59
REMARK Flexibility Score: inf
ROOT
ATOM      1  C   UNL A   1      31.797  29.605  27.019  1.00  0.00     0.188 C 
ENDROOT
BRANCH   1   2
ATOM      2  C   UNL A   1      31.851  28.517  25.926  1.00  0.00     0.188 C 
BRANCH   2   3
ATOM      3  O   UNL A   1      32.900  28.593  24.992  1.00  0.00    -0.376 OA
BRANCH   3   4
ATOM      4  C   UNL A   1      32.700  29.037  23.664  1.00  0.00     0.202 C 
BRANCH   4   5
ATOM      5  C   UNL A   1      32.591  28.145  22.415  1.00  0.00     0.261 C 
BRANCH   5   6
ATOM      6  O   UNL A   1      33.518  27.068  22.297  1.00  0.00    -0.460 OA
BRANCH   6   7
ATOM      7  C   UNL A   1      32.964  25.842  22.136  1.00  0.00     0.338 C 
ATOM      8  O   UNL A   1      32.330  25.443  21.173  1.00  0.00    -0.246 OA
BRANCH   7   9
ATOM      9  C   UNL A   1      33.321  24.994  23.286  1.00  0.00     0.087 C 
ATOM     10  C   UNL A   1      33.283  22.279  27.627  1.00  0.00     0.048 C 
ATOM     11  C   UNL A   1      34.149  22.338  26.400  1.00  0.00    -0.007 A 
ATOM     12  C   UNL A   1      35.226  21.448  26.267  1.00  0.00     0.027 A 
ATOM     13  C   UNL A   1      33.914  23.281  25.386  1.00  0.00     0.131 A 
ATOM     14  C   UNL A   1      36.034  21.489  25.133  1.00  0.00     0.042 A 
ATOM     15  C   UNL A   1      34.705  23.290  24.231  1.00  0.00     0.019 A 
ATOM     16  O   UNL A   1      32.887  24.159  25.595  1.00  0.00    -0.475 OA
ATOM     17  Cl  UNL A   1      37.342  20.382  24.983  1.00  0.00    -0.084 Cl
ATOM     18  C   UNL A   1      35.779  22.401  24.113  1.00  0.00     0.032 A 
ATOM     19  C   UNL A   1      34.373  24.181  23.132  1.00  0.00     0.027 C 
ATOM     20  C   UNL A   1      32.504  25.084  24.544  1.00  0.00     0.316 C 
BRANCH  20  21
ATOM     21  C   UNL A   1      31.000  24.910  24.288  1.00  0.00     0.430 C 
ATOM     22  F   UNL A   1      30.346  24.570  25.427  1.00  0.00    -0.167 F 
ATOM     23  F   UNL A   1      30.425  26.053  23.846  1.00  0.00    -0.167 F 
ATOM     24  F   UNL A   1      30.746  23.947  23.374  1.00  0.00    -0.167 F 
ENDBRANCH  20  21
ENDBRANCH   7   9
ENDBRANCH   6   7
ENDBRANCH   5   6
ENDBRANCH   4   5
ENDBRANCH   3   4
ENDBRANCH   2   3
ENDBRANCH   1   2
BRANCH   1  25
ATOM     25  O   UNL A   1      31.862  30.980  26.676  1.00  0.00    -0.376 OA
BRANCH  25  26
ATOM     26  C   UNL A   1      32.667  31.850  27.461  1.00  0.00     0.202 C 
BRANCH  26  27
ATOM     27  C   UNL A   1      32.499  33.373  27.350  1.00  0.00     0.261 C 
BRANCH  27  28
ATOM     28  O   UNL A   1      32.309  34.049  28.600  1.00  0.00    -0.460 OA
BRANCH  28  29
ATOM     29  C   UNL A   1      33.320  34.874  28.972  1.00  0.00     0.338 C 
ATOM     30  O   UNL A   1      33.278  36.087  29.086  1.00  0.00    -0.246 OA
BRANCH  29  31
ATOM     31  C   UNL A   1      34.467  34.068  29.430  1.00  0.00     0.060 A 
ATOM     32  C   UNL A   1      34.254  33.143  30.463  1.00  0.00     0.016 A 
ATOM     33  C   UNL A   1      35.740  34.249  28.889  1.00  0.00     0.016 A 
ATOM     34  C   UNL A   1      35.322  32.413  30.976  1.00  0.00     0.010 A 
ATOM     35  C   UNL A   1      36.816  33.536  29.426  1.00  0.00     0.010 A 
ATOM     36  C   UNL A   1      36.616  32.640  30.491  1.00  0.00    -0.014 A 
BRANCH  36  37
ATOM     37  C   UNL A   1      37.776  32.089  31.228  1.00  0.00     0.031 A 
ATOM     38  C   UNL A   1      38.505  30.914  30.637  1.00  0.00     0.074 A 
ATOM     39  C   UNL A   1      38.184  32.626  32.392  1.00  0.00     0.049 A 
ATOM     40  N   UNL A   1      39.529  30.254  31.107  1.00  0.00    -0.248 NA
ATOM     41  C   UNL A   1      38.012  30.418  29.340  1.00  0.00     0.031 C 
ATOM     42  C   UNL A   1      37.574  33.779  33.050  1.00  0.00     0.029 A 
ATOM     43  N   UNL A   1      39.203  32.255  33.233  1.00  0.00    -0.354 N 
ATOM     44  C   UNL A   1      39.799  29.262  30.173  1.00  0.00     0.074 A 
ATOM     45  C   UNL A   1      38.820  29.392  29.116  1.00  0.00     0.031 C 
ATOM     46  C   UNL A   1      38.219  34.009  34.209  1.00  0.00     0.029 A 
ATOM     47  C   UNL A   1      39.269  33.006  34.383  1.00  0.00     0.049 A 
ATOM     48  H   UNL A   1      39.827  31.520  33.033  1.00  0.00     0.167 HD
ATOM     49  C   UNL A   1      40.785  28.336  30.183  1.00  0.00     0.034 A 
ATOM     50  C   UNL A   1      40.076  32.884  35.458  1.00  0.00     0.034 A 
ATOM     51  C   UNL A   1      41.761  28.208  31.231  1.00  0.00     0.049 A 
ATOM     52  C   UNL A   1      41.128  31.803  35.473  1.00  0.00     0.074 A 
ATOM     53  C   UNL A   1      42.809  27.311  31.320  1.00  0.00     0.029 A 
ATOM     54  N   UNL A   1      41.802  28.991  32.372  1.00  0.00    -0.354 N 
ATOM     55  N   UNL A   1      41.437  30.936  34.537  1.00  0.00    -0.248 NA
ATOM     56  C   UNL A   1      41.961  31.698  36.680  1.00  0.00     0.031 C 
ATOM     57  C   UNL A   1      43.472  27.537  32.529  1.00  0.00     0.029 A 
ATOM     58  C   UNL A   1      42.852  28.590  33.181  1.00  0.00     0.049 A 
ATOM     59  H   UNL A   1      41.178  29.725  32.579  1.00  0.00     0.167 HD
ATOM     60  C   UNL A   1      42.515  30.206  35.029  1.00  0.00     0.074 A 
ATOM     61  C   UNL A   1      42.820  30.746  36.338  1.00  0.00     0.031 C 
ATOM     62  C   UNL A   1      43.180  29.171  34.458  1.00  0.00     0.034 A 
BRANCH  49  63
ATOM     63  C   UNL A   1      40.886  27.408  29.004  1.00  0.00     0.023 A 
ATOM     64  C   UNL A   1      40.009  26.309  28.915  1.00  0.00     0.012 A 
ATOM     65  C   UNL A   1      41.787  27.662  27.953  1.00  0.00     0.148 A 
ATOM     66  C   UNL A   1      40.039  25.464  27.806  1.00  0.00     0.002 A 
ATOM     67  C   UNL A   1      41.784  26.841  26.832  1.00  0.00     0.091 A 
ATOM     68  F   UNL A   1      42.629  28.699  28.070  1.00  0.00    -0.205 F 
ATOM     69  C   UNL A   1      40.916  25.739  26.761  1.00  0.00     0.022 A 
BRANCH  67  70
ATOM     70  S   UNL A   1      42.820  27.150  25.398  1.00  0.00     0.127 S 
ATOM     71  O   UNL A   1      44.137  27.305  26.014  1.00  0.00    -0.237 OA
ATOM     72  O   UNL A   1      42.649  25.921  24.625  1.00  0.00    -0.237 OA
ATOM     73  O   UNL A   1      42.284  28.348  24.765  1.00  0.00    -0.744 OA
ENDBRANCH  67  70
ENDBRANCH  49  63
BRANCH  50  74
ATOM     74  C   UNL A   1      39.951  33.842  36.594  1.00  0.00     0.023 A 
ATOM     75  C   UNL A   1      40.393  35.169  36.428  1.00  0.00     0.012 A 
ATOM     76  C   UNL A   1      39.378  33.457  37.822  1.00  0.00     0.148 A 
ATOM     77  C   UNL A   1      40.286  36.090  37.472  1.00  0.00     0.002 A 
ATOM     78  C   UNL A   1      39.224  34.394  38.839  1.00  0.00     0.091 A 
ATOM     79  F   UNL A   1      38.984  32.185  37.968  1.00  0.00    -0.205 F 
ATOM     80  C   UNL A   1      39.692  35.707  38.671  1.00  0.00     0.022 A 
BRANCH  78  81
ATOM     81  S   UNL A   1      38.357  34.027  40.368  1.00  0.00     0.127 S 
ATOM     82  O   UNL A   1      38.240  35.352  40.971  1.00  0.00    -0.237 OA
ATOM     83  O   UNL A   1      37.102  33.461  39.873  1.00  0.00    -0.237 OA
ATOM     84  O   UNL A   1      39.202  33.080  41.083  1.00  0.00    -0.744 OA
ENDBRANCH  78  81
ENDBRANCH  50  74
BRANCH  62  85
ATOM     85  C   UNL A   1      44.317  28.543  35.225  1.00  0.00     0.023 A 
ATOM     86  C   UNL A   1      45.624  29.040  35.056  1.00  0.00     0.012 A 
ATOM     87  C   UNL A   1      44.075  27.551  36.197  1.00  0.00     0.148 A 
ATOM     88  C   UNL A   1      46.676  28.545  35.827  1.00  0.00     0.002 A 
ATOM     89  C   UNL A   1      45.119  27.098  36.996  1.00  0.00     0.091 A 
ATOM     90  F   UNL A   1      42.827  27.081  36.333  1.00  0.00    -0.205 F 
ATOM     91  C   UNL A   1      46.421  27.587  36.806  1.00  0.00     0.022 A 
BRANCH  89  92
ATOM     92  S   UNL A   1      44.868  25.946  38.353  1.00  0.00     0.127 S 
ATOM     93  O   UNL A   1      46.243  25.668  38.763  1.00  0.00    -0.237 OA
ATOM     94  O   UNL A   1      44.097  26.748  39.303  1.00  0.00    -0.237 OA
ATOM     95  O   UNL A   1      44.142  24.816  37.789  1.00  0.00    -0.744 OA
ENDBRANCH  89  92
ENDBRANCH  62  85
ENDBRANCH  36  37
ENDBRANCH  29  31
ENDBRANCH  28  29
ENDBRANCH  27  28
ENDBRANCH  26  27
ENDBRANCH  25  26
ENDBRANCH   1  25
TORSDOF 21
ENDMDL
MODEL 2
REMARK VINA RESULT:     -10.4      2.540      3.766
REMARK SMILES Cc1cc(Cl)cc2c1O[C@H](C(F)(F)F)C(C(=O)OCCOCCOCCOC(=O)c1ccc(-c3c4nc(c(-c5cccc(S(=O)(=O)[O-])c5F)c5ccc([nH]5)c(-c5cccc(S(=O)(=O)[O-])c5F)c5nc(c(-c6cccc(S(=O)(=O)[O-])c6F)c6ccc3[nH]6)C=C5)C=C4)cc1)=C2
REMARK SMILES IDX 23 1 22 2 21 3 20 4 19 5 18 6 16 7 17 8 15 9 1 10 2 11 3 12
REMARK SMILES IDX 8 13 4 14 7 15 9 16 5 17 6 18 93 19 10 20 11 21 12 22 13 23
REMARK SMILES IDX 14 24 24 25 25 26 26 27 27 28 28 29 29 30 30 31 31 32 92 33
REMARK SMILES IDX 32 34 91 35 33 36 34 37 35 38 85 39 36 40 90 41 84 42 86 43
REMARK SMILES IDX 37 44 89 45 83 46 82 47 38 49 70 50 50 51 69 52 51 53 54 54
REMARK SMILES IDX 68 55 87 56 52 57 53 58 67 60 88 61 55 62 39 63 40 64 48 65
REMARK SMILES IDX 41 66 43 67 49 68 42 69 44 70 45 71 46 72 47 73 71 74 72 75
REMARK SMILES IDX 80 76 73 77 75 78 81 79 74 80 76 81 77 82 78 83 79 84 56 85
REMARK SMILES IDX 57 86 65 87 58 88 60 89 66 90 59 91 61 92 62 93 63 94 64 95
REMARK H PARENT 86 48 54 59
REMARK Flexibility Score: inf
ROOT
ATOM      1  C   UNL A   1      31.966  26.956  26.750  1.00  0.00     0.188 C 
ENDROOT
BRANCH   1   2
ATOM      2  C   UNL A   1      31.045  25.728  26.588  1.00  0.00     0.188 C 
BRANCH   2   3
ATOM      3  O   UNL A   1      31.424  24.546  27.251  1.00  0.00    -0.376 OA
BRANCH   3   4
ATOM      4  C   UNL A   1      31.003  23.267  26.817  1.00  0.00     0.202 C 
BRANCH   4   5
ATOM      5  C   UNL A   1      31.741  22.358  25.820  1.00  0.00     0.261 C 
BRANCH   5   6
ATOM      6  O   UNL A   1      31.029  21.954  24.651  1.00  0.00    -0.460 OA
BRANCH   6   7
ATOM      7  C   UNL A   1      31.616  22.279  23.474  1.00  0.00     0.338 C 
ATOM      8  O   UNL A   1      31.786  21.550  22.512  1.00  0.00    -0.246 OA
BRANCH   7   9
ATOM      9  C   UNL A   1      31.953  23.713  23.482  1.00  0.00     0.087 C 
ATOM     10  C   UNL A   1      34.379  28.221  23.423  1.00  0.00     0.048 C 
ATOM     11  C   UNL A   1      32.976  27.750  23.165  1.00  0.00    -0.007 A 
ATOM     12  C   UNL A   1      31.999  28.669  22.755  1.00  0.00     0.027 A 
ATOM     13  C   UNL A   1      32.615  26.404  23.342  1.00  0.00     0.131 A 
ATOM     14  C   UNL A   1      30.695  28.244  22.508  1.00  0.00     0.042 A 
ATOM     15  C   UNL A   1      31.314  25.976  23.054  1.00  0.00     0.019 A 
ATOM     16  O   UNL A   1      33.594  25.564  23.797  1.00  0.00    -0.475 OA
ATOM     17  Cl  UNL A   1      29.514  29.384  21.994  1.00  0.00    -0.084 Cl
ATOM     18  C   UNL A   1      30.347  26.903  22.650  1.00  0.00     0.032 A 
ATOM     19  C   UNL A   1      30.985  24.561  23.115  1.00  0.00     0.027 C 
ATOM     20  C   UNL A   1      33.334  24.139  23.892  1.00  0.00     0.316 C 
BRANCH  20  21
ATOM     21  C   UNL A   1      34.436  23.407  23.112  1.00  0.00     0.430 C 
ATOM     22  F   UNL A   1      34.629  22.154  23.597  1.00  0.00    -0.167 F 
ATOM     23  F   UNL A   1      34.125  23.266  21.803  1.00  0.00    -0.167 F 
ATOM     24  F   UNL A   1      35.624  24.051  23.180  1.00  0.00    -0.167 F 
ENDBRANCH  20  21
ENDBRANCH   7   9
ENDBRANCH   6   7
ENDBRANCH   5   6
ENDBRANCH   4   5
ENDBRANCH   3   4
ENDBRANCH   2   3
ENDBRANCH   1   2
BRANCH   1  25
ATOM     25  O   UNL A   1      31.431  28.222  27.102  1.00  0.00    -0.376 OA
BRANCH  25  26
ATOM     26  C   UNL A   1      31.594  29.313  26.206  1.00  0.00     0.202 C 
BRANCH  26  27
ATOM     27  C   UNL A   1      31.735  30.745  26.744  1.00  0.00     0.261 C 
BRANCH  27  28
ATOM     28  O   UNL A   1      32.970  31.392  26.411  1.00  0.00    -0.460 OA
BRANCH  28  29
ATOM     29  C   UNL A   1      33.440  32.256  27.346  1.00  0.00     0.338 C 
ATOM     30  O   UNL A   1      32.848  33.199  27.843  1.00  0.00    -0.246 OA
BRANCH  29  31
ATOM     31  C   UNL A   1      34.740  31.774  27.849  1.00  0.00     0.060 A 
ATOM     32  C   UNL A   1      34.846  30.425  28.218  1.00  0.00     0.016 A 
ATOM     33  C   UNL A   1      35.823  32.640  28.002  1.00  0.00     0.016 A 
ATOM     34  C   UNL A   1      36.032  29.943  28.767  1.00  0.00     0.010 A 
ATOM     35  C   UNL A   1      37.003  32.160  28.580  1.00  0.00     0.010 A 
ATOM     36  C   UNL A   1      37.100  30.820  28.992  1.00  0.00    -0.014 A 
BRANCH  36  37
ATOM     37  C   UNL A   1      38.236  30.380  29.834  1.00  0.00     0.031 A 
ATOM     38  C   UNL A   1      39.203  29.380  29.263  1.00  0.00     0.074 A 
ATOM     39  C   UNL A   1      38.416  30.867  31.075  1.00  0.00     0.049 A 
ATOM     40  N   UNL A   1      40.254  28.837  29.815  1.00  0.00    -0.248 NA
ATOM     41  C   UNL A   1      38.949  28.934  27.881  1.00  0.00     0.031 C 
ATOM     42  C   UNL A   1      37.561  31.856  31.726  1.00  0.00     0.029 A 
ATOM     43  N   UNL A   1      39.373  30.574  32.014  1.00  0.00    -0.354 N 
ATOM     44  C   UNL A   1      40.783  27.980  28.858  1.00  0.00     0.074 A 
ATOM     45  C   UNL A   1      39.927  28.060  27.694  1.00  0.00     0.031 C 
ATOM     46  C   UNL A   1      38.021  32.074  32.972  1.00  0.00     0.029 A 
ATOM     47  C   UNL A   1      39.186  31.223  33.212  1.00  0.00     0.049 A 
ATOM     48  H   UNL A   1      40.122  29.958  31.846  1.00  0.00     0.167 HD
ATOM     49  C   UNL A   1      41.892  27.210  28.932  1.00  0.00     0.034 A 
ATOM     50  C   UNL A   1      39.869  31.125  34.371  1.00  0.00     0.034 A 
ATOM     51  C   UNL A   1      42.745  27.133  30.086  1.00  0.00     0.049 A 
ATOM     52  C   UNL A   1      41.067  30.211  34.448  1.00  0.00     0.074 A 
ATOM     53  C   UNL A   1      43.902  26.393  30.249  1.00  0.00     0.029 A 
ATOM     54  N   UNL A   1      42.530  27.811  31.275  1.00  0.00    -0.354 N 
ATOM     55  N   UNL A   1      41.615  29.484  33.503  1.00  0.00    -0.248 NA
ATOM     56  C   UNL A   1      41.757  30.122  35.744  1.00  0.00     0.031 C 
ATOM     57  C   UNL A   1      44.375  26.606  31.547  1.00  0.00     0.029 A 
ATOM     58  C   UNL A   1      43.526  27.497  32.183  1.00  0.00     0.049 A 
ATOM     59  H   UNL A   1      41.780  28.425  31.449  1.00  0.00     0.167 HD
ATOM     60  C   UNL A   1      42.727  28.877  34.080  1.00  0.00     0.074 A 
ATOM     61  C   UNL A   1      42.788  29.339  35.451  1.00  0.00     0.031 C 
ATOM     62  C   UNL A   1      43.606  28.004  33.530  1.00  0.00     0.034 A 
BRANCH  49  63
ATOM     63  C   UNL A   1      42.274  26.414  27.715  1.00  0.00     0.023 A 
ATOM     64  C   UNL A   1      43.101  27.004  26.737  1.00  0.00     0.012 A 
ATOM     65  C   UNL A   1      41.885  25.069  27.573  1.00  0.00     0.148 A 
ATOM     66  C   UNL A   1      43.521  26.272  25.627  1.00  0.00     0.002 A 
ATOM     67  C   UNL A   1      42.340  24.333  26.486  1.00  0.00     0.091 A 
ATOM     68  F   UNL A   1      41.078  24.536  28.502  1.00  0.00    -0.205 F 
ATOM     69  C   UNL A   1      43.151  24.935  25.509  1.00  0.00     0.022 A 
BRANCH  67  70
ATOM     70  S   UNL A   1      41.985  22.585  26.278  1.00  0.00     0.127 S 
ATOM     71  O   UNL A   1      42.653  22.297  25.010  1.00  0.00    -0.237 OA
ATOM     72  O   UNL A   1      42.630  21.999  27.453  1.00  0.00    -0.237 OA
ATOM     73  O   UNL A   1      40.533  22.468  26.257  1.00  0.00    -0.744 OA
ENDBRANCH  67  70
ENDBRANCH  49  63
BRANCH  50  74
ATOM     74  C   UNL A   1      39.464  31.951  35.545  1.00  0.00     0.023 A 
ATOM     75  C   UNL A   1      39.902  33.287  35.632  1.00  0.00     0.012 A 
ATOM     76  C   UNL A   1      38.632  31.434  36.558  1.00  0.00     0.148 A 
ATOM     77  C   UNL A   1      39.536  34.087  36.716  1.00  0.00     0.002 A 
ATOM     78  C   UNL A   1      38.227  32.253  37.607  1.00  0.00     0.091 A 
ATOM     79  F   UNL A   1      38.244  30.155  36.469  1.00  0.00    -0.205 F 
ATOM     80  C   UNL A   1      38.691  33.575  37.696  1.00  0.00     0.022 A 
BRANCH  78  81
ATOM     81  S   UNL A   1      37.039  31.720  38.845  1.00  0.00     0.127 S 
ATOM     82  O   UNL A   1      37.801  31.882  40.080  1.00  0.00    -0.237 OA
ATOM     83  O   UNL A   1      35.957  32.686  38.656  1.00  0.00    -0.237 OA
ATOM     84  O   UNL A   1      36.690  30.350  38.492  1.00  0.00    -0.744 OA
ENDBRANCH  78  81
ENDBRANCH  50  74
BRANCH  62  85
ATOM     85  C   UNL A   1      44.729  27.483  34.393  1.00  0.00     0.023 A 
ATOM     86  C   UNL A   1      45.972  28.146  34.388  1.00  0.00     0.012 A 
ATOM     87  C   UNL A   1      44.516  26.419  35.293  1.00  0.00     0.148 A 
ATOM     88  C   UNL A   1      46.991  27.746  35.251  1.00  0.00     0.002 A 
ATOM     89  C   UNL A   1      45.520  26.058  36.184  1.00  0.00     0.091 A 
ATOM     90  F   UNL A   1      43.331  25.791  35.273  1.00  0.00    -0.205 F 
ATOM     91  C   UNL A   1      46.761  26.714  36.158  1.00  0.00     0.022 A 
BRANCH  89  92
ATOM     92  S   UNL A   1      45.279  24.815  37.460  1.00  0.00     0.127 S 
ATOM     93  O   UNL A   1      45.111  23.601  36.664  1.00  0.00    -0.237 OA
ATOM     94  O   UNL A   1      46.535  24.887  38.206  1.00  0.00    -0.237 OA
ATOM     95  O   UNL A   1      44.105  25.236  38.213  1.00  0.00    -0.744 OA
ENDBRANCH  89  92
ENDBRANCH  62  85
ENDBRANCH  36  37
ENDBRANCH  29  31
ENDBRANCH  28  29
ENDBRANCH  27  28
ENDBRANCH  26  27
ENDBRANCH  25  26
ENDBRANCH   1  25
TORSDOF 21
ENDMDL
MODEL 3
REMARK VINA RESULT:      -9.9      1.742      2.142
REMARK SMILES Cc1cc(Cl)cc2c1O[C@H](C(F)(F)F)C(C(=O)OCCOCCOCCOC(=O)c1ccc(-c3c4nc(c(-c5cccc(S(=O)(=O)[O-])c5F)c5ccc([nH]5)c(-c5cccc(S(=O)(=O)[O-])c5F)c5nc(c(-c6cccc(S(=O)(=O)[O-])c6F)c6ccc3[nH]6)C=C5)C=C4)cc1)=C2
REMARK SMILES IDX 23 1 22 2 21 3 20 4 19 5 18 6 16 7 17 8 15 9 1 10 2 11 3 12
REMARK SMILES IDX 8 13 4 14 7 15 9 16 5 17 6 18 93 19 10 20 11 21 12 22 13 23
REMARK SMILES IDX 14 24 24 25 25 26 26 27 27 28 28 29 29 30 30 31 31 32 92 33
REMARK SMILES IDX 32 34 91 35 33 36 34 37 35 38 85 39 36 40 90 41 84 42 86 43
REMARK SMILES IDX 37 44 89 45 83 46 82 47 38 49 70 50 50 51 69 52 51 53 54 54
REMARK SMILES IDX 68 55 87 56 52 57 53 58 67 60 88 61 55 62 39 63 40 64 48 65
REMARK SMILES IDX 41 66 43 67 49 68 42 69 44 70 45 71 46 72 47 73 71 74 72 75
REMARK SMILES IDX 80 76 73 77 75 78 81 79 74 80 76 81 77 82 78 83 79 84 56 85
REMARK SMILES IDX 57 86 65 87 58 88 60 89 66 90 59 91 61 92 62 93 63 94 64 95
REMARK H PARENT 86 48 54 59
REMARK Flexibility Score: inf
ROOT
ATOM      1  C   UNL A   1      32.010  29.834  27.201  1.00  0.00     0.188 C 
ENDROOT
BRANCH   1   2
ATOM      2  C   UNL A   1      31.811  28.643  26.240  1.00  0.00     0.188 C 
BRANCH   2   3
ATOM      3  O   UNL A   1      32.731  28.505  25.184  1.00  0.00    -0.376 OA
BRANCH   3   4
ATOM      4  C   UNL A   1      32.531  29.113  23.923  1.00  0.00     0.202 C 
BRANCH   4   5
ATOM      5  C   UNL A   1      32.526  28.398  22.561  1.00  0.00     0.261 C 
BRANCH   5   6
ATOM      6  O   UNL A   1      33.405  27.286  22.401  1.00  0.00    -0.460 OA
BRANCH   6   7
ATOM      7  C   UNL A   1      32.798  26.081  22.276  1.00  0.00     0.338 C 
ATOM      8  O   UNL A   1      32.078  25.713  21.364  1.00  0.00    -0.246 OA
BRANCH   7   9
ATOM      9  C   UNL A   1      33.216  25.211  23.389  1.00  0.00     0.087 C 
ATOM     10  C   UNL A   1      33.390  22.366  27.643  1.00  0.00     0.048 C 
ATOM     11  C   UNL A   1      34.218  22.490  26.395  1.00  0.00    -0.007 A 
ATOM     12  C   UNL A   1      35.318  21.641  26.204  1.00  0.00     0.027 A 
ATOM     13  C   UNL A   1      33.923  23.455  25.418  1.00  0.00     0.131 A 
ATOM     14  C   UNL A   1      36.091  21.743  25.050  1.00  0.00     0.042 A 
ATOM     15  C   UNL A   1      34.680  23.526  24.242  1.00  0.00     0.019 A 
ATOM     16  O   UNL A   1      32.875  24.292  25.682  1.00  0.00    -0.475 OA
ATOM     17  Cl  UNL A   1      37.430  20.684  24.829  1.00  0.00    -0.084 Cl
ATOM     18  C   UNL A   1      35.778  22.676  24.066  1.00  0.00     0.032 A 
ATOM     19  C   UNL A   1      34.288  24.438  23.181  1.00  0.00     0.027 C 
ATOM     20  C   UNL A   1      32.433  25.236  24.672  1.00  0.00     0.316 C 
BRANCH  20  21
ATOM     21  C   UNL A   1      30.929  25.021  24.453  1.00  0.00     0.430 C 
ATOM     22  F   UNL A   1      30.329  26.159  24.022  1.00  0.00    -0.167 F 
ATOM     23  F   UNL A   1      30.682  24.080  23.511  1.00  0.00    -0.167 F 
ATOM     24  F   UNL A   1      30.297  24.637  25.586  1.00  0.00    -0.167 F 
ENDBRANCH  20  21
ENDBRANCH   7   9
ENDBRANCH   6   7
ENDBRANCH   5   6
ENDBRANCH   4   5
ENDBRANCH   3   4
ENDBRANCH   2   3
ENDBRANCH   1   2
BRANCH   1  25
ATOM     25  O   UNL A   1      32.176  31.150  26.698  1.00  0.00    -0.376 OA
BRANCH  25  26
ATOM     26  C   UNL A   1      32.963  32.076  27.435  1.00  0.00     0.202 C 
BRANCH  26  27
ATOM     27  C   UNL A   1      32.578  33.563  27.474  1.00  0.00     0.261 C 
BRANCH  27  28
ATOM     28  O   UNL A   1      32.504  34.130  28.790  1.00  0.00    -0.460 OA
BRANCH  28  29
ATOM     29  C   UNL A   1      33.567  34.891  29.152  1.00  0.00     0.338 C 
ATOM     30  O   UNL A   1      33.580  36.094  29.346  1.00  0.00    -0.246 OA
BRANCH  29  31
ATOM     31  C   UNL A   1      34.705  34.015  29.487  1.00  0.00     0.060 A 
ATOM     32  C   UNL A   1      34.509  33.020  30.457  1.00  0.00     0.016 A 
ATOM     33  C   UNL A   1      35.956  34.196  28.896  1.00  0.00     0.016 A 
ATOM     34  C   UNL A   1      35.575  32.217  30.857  1.00  0.00     0.010 A 
ATOM     35  C   UNL A   1      37.030  33.408  29.321  1.00  0.00     0.010 A 
ATOM     36  C   UNL A   1      36.850  32.439  30.324  1.00  0.00    -0.014 A 
BRANCH  36  37
ATOM     37  C   UNL A   1      38.025  31.795  30.956  1.00  0.00     0.031 A 
ATOM     38  C   UNL A   1      38.718  30.688  30.212  1.00  0.00     0.074 A 
ATOM     39  C   UNL A   1      38.476  32.192  32.159  1.00  0.00     0.049 A 
ATOM     40  N   UNL A   1      39.747  29.968  30.570  1.00  0.00    -0.248 NA
ATOM     41  C   UNL A   1      38.178  30.349  28.882  1.00  0.00     0.031 C 
ATOM     42  C   UNL A   1      37.903  33.268  32.964  1.00  0.00     0.029 A 
ATOM     43  N   UNL A   1      39.514  31.715  32.920  1.00  0.00    -0.354 N 
ATOM     44  C   UNL A   1      39.974  29.086  29.521  1.00  0.00     0.074 A 
ATOM     45  C   UNL A   1      38.965  29.347  28.518  1.00  0.00     0.031 C 
ATOM     46  C   UNL A   1      38.586  33.357  34.120  1.00  0.00     0.029 A 
ATOM     47  C   UNL A   1      39.627  32.329  34.145  1.00  0.00     0.049 A 
ATOM     48  H   UNL A   1      40.121  31.002  32.617  1.00  0.00     0.167 HD
ATOM     49  C   UNL A   1      40.946  28.155  29.393  1.00  0.00     0.034 A 
ATOM     50  C   UNL A   1      40.464  32.076  35.172  1.00  0.00     0.034 A 
ATOM     51  C   UNL A   1      41.952  27.897  30.387  1.00  0.00     0.049 A 
ATOM     52  C   UNL A   1      41.501  30.990  35.030  1.00  0.00     0.074 A 
ATOM     53  C   UNL A   1      42.989  26.985  30.340  1.00  0.00     0.029 A 
ATOM     54  N   UNL A   1      42.040  28.544  31.609  1.00  0.00    -0.354 N 
ATOM     55  N   UNL A   1      41.769  30.233  33.992  1.00  0.00    -0.248 NA
ATOM     56  C   UNL A   1      42.369  30.738  36.190  1.00  0.00     0.031 C 
ATOM     57  C   UNL A   1      43.693  27.064  31.546  1.00  0.00     0.029 A 
ATOM     58  C   UNL A   1      43.108  28.042  32.332  1.00  0.00     0.049 A 
ATOM     59  H   UNL A   1      41.433  29.256  31.918  1.00  0.00     0.167 HD
ATOM     60  C   UNL A   1      42.851  29.439  34.363  1.00  0.00     0.074 A 
ATOM     61  C   UNL A   1      43.204  29.823  35.714  1.00  0.00     0.031 C 
ATOM     62  C   UNL A   1      43.483  28.469  33.657  1.00  0.00     0.034 A 
BRANCH  49  63
ATOM     63  C   UNL A   1      40.998  27.367  28.113  1.00  0.00     0.023 A 
ATOM     64  C   UNL A   1      41.616  27.933  26.980  1.00  0.00     0.012 A 
ATOM     65  C   UNL A   1      40.509  26.048  28.050  1.00  0.00     0.148 A 
ATOM     66  C   UNL A   1      41.732  27.205  25.797  1.00  0.00     0.002 A 
ATOM     67  C   UNL A   1      40.665  25.313  26.881  1.00  0.00     0.091 A 
ATOM     68  F   UNL A   1      39.903  25.539  29.133  1.00  0.00    -0.205 F 
ATOM     69  C   UNL A   1      41.268  25.893  25.752  1.00  0.00     0.022 A 
BRANCH  67  70
ATOM     70  S   UNL A   1      40.172  23.592  26.742  1.00  0.00     0.127 S 
ATOM     71  O   UNL A   1      38.862  23.712  26.102  1.00  0.00    -0.237 OA
ATOM     72  O   UNL A   1      41.221  23.041  25.886  1.00  0.00    -0.237 OA
ATOM     73  O   UNL A   1      40.153  23.068  28.101  1.00  0.00    -0.744 OA
ENDBRANCH  67  70
ENDBRANCH  49  63
BRANCH  50  74
ATOM     74  C   UNL A   1      40.388  32.899  36.413  1.00  0.00     0.023 A 
ATOM     75  C   UNL A   1      39.422  32.588  37.390  1.00  0.00     0.012 A 
ATOM     76  C   UNL A   1      41.278  33.968  36.644  1.00  0.00     0.148 A 
ATOM     77  C   UNL A   1      39.329  33.338  38.563  1.00  0.00     0.002 A 
ATOM     78  C   UNL A   1      41.215  34.676  37.839  1.00  0.00     0.091 A 
ATOM     79  F   UNL A   1      42.175  34.264  35.694  1.00  0.00    -0.205 F 
ATOM     80  C   UNL A   1      40.231  34.372  38.794  1.00  0.00     0.022 A 
BRANCH  78  81
ATOM     81  S   UNL A   1      42.414  35.939  38.279  1.00  0.00     0.127 S 
ATOM     82  O   UNL A   1      43.659  35.176  38.299  1.00  0.00    -0.237 OA
ATOM     83  O   UNL A   1      42.283  36.878  37.163  1.00  0.00    -0.237 OA
ATOM     84  O   UNL A   1      41.977  36.468  39.564  1.00  0.00    -0.744 OA
ENDBRANCH  78  81
ENDBRANCH  50  74
BRANCH  62  85
ATOM     85  C   UNL A   1      44.634  27.746  34.310  1.00  0.00     0.023 A 
ATOM     86  C   UNL A   1      45.932  28.286  34.220  1.00  0.00     0.012 A 
ATOM     87  C   UNL A   1      44.414  26.606  35.109  1.00  0.00     0.148 A 
ATOM     88  C   UNL A   1      46.995  27.692  34.899  1.00  0.00     0.002 A 
ATOM     89  C   UNL A   1      45.468  26.049  35.823  1.00  0.00     0.091 A 
ATOM     90  F   UNL A   1      43.174  26.098  35.171  1.00  0.00    -0.205 F 
ATOM     91  C   UNL A   1      46.761  26.584  35.711  1.00  0.00     0.022 A 
BRANCH  89  92
ATOM     92  S   UNL A   1      45.243  24.688  36.977  1.00  0.00     0.127 S 
ATOM     93  O   UNL A   1      44.633  23.672  36.122  1.00  0.00    -0.237 OA
ATOM     94  O   UNL A   1      46.617  24.397  37.385  1.00  0.00    -0.237 OA
ATOM     95  O   UNL A   1      44.393  25.204  38.041  1.00  0.00    -0.744 OA
ENDBRANCH  89  92
ENDBRANCH  62  85
ENDBRANCH  36  37
ENDBRANCH  29  31
ENDBRANCH  28  29
ENDBRANCH  27  28
ENDBRANCH  26  27
ENDBRANCH  25  26
ENDBRANCH   1  25
TORSDOF 21
ENDMDL
