MODEL 1
REMARK VINA RESULT:     -10.6      0.000      0.000
REMARK SMILES O=C(OCCOCCOCCOC(=O)[C@@H]1O[C@H](OC(=O)c2cccnc2)[C@@H](O)[C@H](O)[C@H]1O)c1ccc(-c2c3nc(c(-c4cccc(S(=O)(=O)[O-])c4F)c4ccc([nH]4)c(-c4cccc(S(=O)(=O)[O-])c4F)c4nc(c(-c5cccc(S(=O)(=O)[O-])c5F)c5ccc2[nH]5)C=C4)C=C3)cc1
REMARK SMILES IDX 7 1 6 2 5 3 4 4 3 5 2 6 1 7 33 8 34 9 95 10 35 11 94 12
REMARK SMILES IDX 36 13 37 14 38 15 88 16 39 17 93 18 87 19 89 20 40 21 92 22
REMARK SMILES IDX 86 23 85 24 41 26 73 27 53 28 72 29 54 30 57 31 71 32 90 33
REMARK SMILES IDX 55 34 56 35 70 37 91 38 58 39 42 40 43 41 51 42 44 43 46 44
REMARK SMILES IDX 52 45 45 46 47 47 48 48 49 49 50 50 74 51 75 52 83 53 76 54
REMARK SMILES IDX 78 55 84 56 77 57 79 58 80 59 81 60 82 61 59 62 60 63 68 64
REMARK SMILES IDX 61 65 63 66 69 67 62 68 64 69 65 70 66 71 67 72 8 73 9 74
REMARK SMILES IDX 10 75 11 76 12 77 13 78 14 79 15 80 16 81 31 82 17 83 29 84
REMARK SMILES IDX 27 85 32 86 18 88 19 89 20 90 21 91 22 92 26 93 23 94 25 95
REMARK SMILES IDX 24 96 30 97 28 99
REMARK H PARENT 89 25 57 36 32 87 30 98 28 100
REMARK Flexibility Score: inf
ROOT
ATOM      1  C   UNL A   1      36.027  21.338  24.614  1.00  0.00     0.188 C 
ENDROOT
BRANCH   1   2
ATOM      2  O   UNL A   1      37.427  21.583  24.480  1.00  0.00    -0.376 OA
BRANCH   2   3
ATOM      3  C   UNL A   1      38.209  21.070  25.564  1.00  0.00     0.202 C 
BRANCH   3   4
ATOM      4  C   UNL A   1      38.964  19.746  25.307  1.00  0.00     0.261 C 
BRANCH   4   5
ATOM      5  O   UNL A   1      40.034  19.470  26.232  1.00  0.00    -0.460 OA
BRANCH   5   6
ATOM      6  C   UNL A   1      41.269  20.029  26.325  1.00  0.00     0.338 C 
ATOM      7  O   UNL A   1      42.246  19.305  26.135  1.00  0.00    -0.246 OA
BRANCH   6   8
ATOM      8  C   UNL A   1      41.515  21.467  26.667  1.00  0.00     0.060 A 
ATOM      9  C   UNL A   1      41.445  22.515  25.758  1.00  0.00     0.016 A 
ATOM     10  C   UNL A   1      41.810  21.792  28.006  1.00  0.00     0.016 A 
ATOM     11  C   UNL A   1      41.742  23.816  26.113  1.00  0.00     0.010 A 
ATOM     12  C   UNL A   1      42.049  23.120  28.392  1.00  0.00     0.010 A 
ATOM     13  C   UNL A   1      42.038  24.136  27.428  1.00  0.00    -0.014 A 
BRANCH  13  14
ATOM     14  C   UNL A   1      42.462  25.526  27.681  1.00  0.00     0.031 A 
ATOM     15  C   UNL A   1      43.800  25.951  27.187  1.00  0.00     0.074 A 
ATOM     16  C   UNL A   1      41.579  26.449  28.110  1.00  0.00     0.049 A 
ATOM     17  N   UNL A   1      44.332  27.137  27.222  1.00  0.00    -0.248 NA
ATOM     18  C   UNL A   1      44.603  24.941  26.474  1.00  0.00     0.031 C 
ATOM     19  C   UNL A   1      40.167  26.192  28.334  1.00  0.00     0.029 A 
ATOM     20  N   UNL A   1      41.707  27.772  28.432  1.00  0.00    -0.354 N 
ATOM     21  C   UNL A   1      45.511  27.032  26.508  1.00  0.00     0.074 A 
ATOM     22  C   UNL A   1      45.645  25.658  26.082  1.00  0.00     0.031 C 
ATOM     23  C   UNL A   1      39.579  27.255  28.892  1.00  0.00     0.029 A 
ATOM     24  C   UNL A   1      40.585  28.277  29.056  1.00  0.00     0.049 A 
ATOM     25  H   UNL A   1      42.512  28.306  28.239  1.00  0.00     0.167 HD
ATOM     26  C   UNL A   1      46.378  28.022  26.211  1.00  0.00     0.034 A 
ATOM     27  C   UNL A   1      40.404  29.421  29.733  1.00  0.00     0.034 A 
ATOM     28  C   UNL A   1      46.221  29.370  26.680  1.00  0.00     0.049 A 
ATOM     29  C   UNL A   1      41.501  30.421  29.638  1.00  0.00     0.074 A 
ATOM     30  C   UNL A   1      47.073  30.443  26.514  1.00  0.00     0.029 A 
ATOM     31  N   UNL A   1      45.144  29.820  27.435  1.00  0.00    -0.354 N 
ATOM     32  N   UNL A   1      42.634  30.311  28.990  1.00  0.00    -0.248 NA
ATOM     33  C   UNL A   1      41.277  31.719  30.276  1.00  0.00     0.031 C 
ATOM     34  C   UNL A   1      46.536  31.530  27.212  1.00  0.00     0.029 A 
ATOM     35  C   UNL A   1      45.323  31.150  27.770  1.00  0.00     0.049 A 
ATOM     36  H   UNL A   1      44.367  29.274  27.694  1.00  0.00     0.167 HD
ATOM     37  C   UNL A   1      43.234  31.549  29.075  1.00  0.00     0.074 A 
ATOM     38  C   UNL A   1      42.337  32.391  29.850  1.00  0.00     0.031 C 
ATOM     39  C   UNL A   1      44.410  31.956  28.541  1.00  0.00     0.034 A 
BRANCH  26  40
ATOM     40  C   UNL A   1      47.576  27.646  25.392  1.00  0.00     0.023 A 
ATOM     41  C   UNL A   1      48.758  27.203  26.020  1.00  0.00     0.012 A 
ATOM     42  C   UNL A   1      47.529  27.755  23.992  1.00  0.00     0.148 A 
ATOM     43  C   UNL A   1      49.887  26.896  25.261  1.00  0.00     0.002 A 
ATOM     44  C   UNL A   1      48.641  27.407  23.240  1.00  0.00     0.091 A 
ATOM     45  F   UNL A   1      46.405  28.217  23.427  1.00  0.00    -0.205 F 
ATOM     46  C   UNL A   1      49.826  26.989  23.872  1.00  0.00     0.022 A 
BRANCH  44  47
ATOM     47  S   UNL A   1      48.643  27.444  21.447  1.00  0.00     0.127 S 
ATOM     48  O   UNL A   1      48.813  26.027  21.122  1.00  0.00    -0.237 OA
ATOM     49  O   UNL A   1      47.315  27.983  21.157  1.00  0.00    -0.237 OA
ATOM     50  O   UNL A   1      49.754  28.300  21.060  1.00  0.00    -0.744 OA
ENDBRANCH  44  47
ENDBRANCH  26  40
BRANCH  27  51
ATOM     51  C   UNL A   1      39.189  29.635  30.562  1.00  0.00     0.023 A 
ATOM     52  C   UNL A   1      39.011  28.983  31.793  1.00  0.00     0.012 A 
ATOM     53  C   UNL A   1      38.183  30.506  30.098  1.00  0.00     0.148 A 
ATOM     54  C   UNL A   1      37.830  29.160  32.522  1.00  0.00     0.002 A 
ATOM     55  C   UNL A   1      37.035  30.717  30.849  1.00  0.00     0.091 A 
ATOM     56  F   UNL A   1      38.358  31.118  28.917  1.00  0.00    -0.205 F 
ATOM     57  C   UNL A   1      36.842  30.029  32.055  1.00  0.00     0.022 A 
BRANCH  55  58
ATOM     58  S   UNL A   1      35.821  31.936  30.331  1.00  0.00     0.127 S 
ATOM     59  O   UNL A   1      34.908  31.958  31.467  1.00  0.00    -0.237 OA
ATOM     60  O   UNL A   1      36.633  33.140  30.167  1.00  0.00    -0.237 OA
ATOM     61  O   UNL A   1      35.279  31.415  29.073  1.00  0.00    -0.744 OA
ENDBRANCH  55  58
ENDBRANCH  27  51
BRANCH  39  62
ATOM     62  C   UNL A   1      44.757  33.396  28.757  1.00  0.00     0.023 A 
ATOM     63  C   UNL A   1      44.341  34.368  27.828  1.00  0.00     0.012 A 
ATOM     64  C   UNL A   1      45.492  33.775  29.893  1.00  0.00     0.148 A 
ATOM     65  C   UNL A   1      44.701  35.701  28.005  1.00  0.00     0.002 A 
ATOM     66  C   UNL A   1      45.787  35.112  30.096  1.00  0.00     0.091 A 
ATOM     67  F   UNL A   1      45.900  32.819  30.742  1.00  0.00    -0.205 F 
ATOM     68  C   UNL A   1      45.411  36.074  29.145  1.00  0.00     0.022 A 
BRANCH  66  69
ATOM     69  S   UNL A   1      46.597  35.692  31.587  1.00  0.00     0.127 S 
ATOM     70  O   UNL A   1      45.495  35.681  32.547  1.00  0.00    -0.237 OA
ATOM     71  O   UNL A   1      47.609  34.659  31.805  1.00  0.00    -0.237 OA
ATOM     72  O   UNL A   1      47.135  37.008  31.268  1.00  0.00    -0.744 OA
ENDBRANCH  66  69
ENDBRANCH  39  62
ENDBRANCH  13  14
ENDBRANCH   6   8
ENDBRANCH   5   6
ENDBRANCH   4   5
ENDBRANCH   3   4
ENDBRANCH   2   3
ENDBRANCH   1   2
BRANCH   1  73
ATOM     73  C   UNL A   1      35.480  21.328  26.043  1.00  0.00     0.188 C 
BRANCH  73  74
ATOM     74  O   UNL A   1      34.911  22.527  26.556  1.00  0.00    -0.376 OA
BRANCH  74  75
ATOM     75  C   UNL A   1      34.006  22.410  27.649  1.00  0.00     0.202 C 
BRANCH  75  76
ATOM     76  C   UNL A   1      32.497  22.594  27.406  1.00  0.00     0.261 C 
BRANCH  76  77
ATOM     77  O   UNL A   1      32.171  23.183  26.142  1.00  0.00    -0.461 OA
BRANCH  77  78
ATOM     78  C   UNL A   1      31.497  24.374  26.177  1.00  0.00     0.338 C 
ATOM     79  O   UNL A   1      30.507  24.566  26.876  1.00  0.00    -0.249 OA
BRANCH  78  80
ATOM     80  C   UNL A   1      32.235  25.472  25.370  1.00  0.00     0.263 C 
ATOM     81  O   UNL A   1      31.314  26.530  25.179  1.00  0.00    -0.322 OA
ATOM     82  C   UNL A   1      32.853  24.888  24.105  1.00  0.00     0.186 C 
ATOM     83  C   UNL A   1      31.572  27.476  24.157  1.00  0.00     0.343 C 
ATOM     84  C   UNL A   1      33.235  25.980  23.090  1.00  0.00     0.181 C 
ATOM     85  C   UNL A   1      32.085  26.923  22.825  1.00  0.00     0.214 C 
BRANCH  82  86
ATOM     86  O   UNL A   1      34.033  24.187  24.539  1.00  0.00    -0.387 OA
ATOM     87  H   UNL A   1      34.744  24.319  23.891  1.00  0.00     0.211 HD
ENDBRANCH  82  86
BRANCH  83  88
ATOM     88  O   UNL A   1      30.369  28.217  23.913  1.00  0.00    -0.429 OA
BRANCH  88  89
ATOM     89  C   UNL A   1      30.461  29.532  24.230  1.00  0.00     0.342 C 
ATOM     90  O   UNL A   1      31.204  30.067  25.040  1.00  0.00    -0.246 OA
BRANCH  89  91
ATOM     91  C   UNL A   1      29.584  30.280  23.339  1.00  0.00     0.078 A 
ATOM     92  C   UNL A   1      28.858  31.389  23.766  1.00  0.00     0.019 A 
ATOM     93  C   UNL A   1      29.470  29.857  22.024  1.00  0.00     0.126 A 
ATOM     94  C   UNL A   1      28.032  32.031  22.854  1.00  0.00     0.021 A 
ATOM     95  N   UNL A   1      28.653  30.452  21.122  1.00  0.00    -0.264 NA
ATOM     96  C   UNL A   1      27.963  31.530  21.562  1.00  0.00     0.111 A 
ENDBRANCH  89  91
ENDBRANCH  88  89
ENDBRANCH  83  88
BRANCH  84  97
ATOM     97  O   UNL A   1      33.680  25.394  21.869  1.00  0.00    -0.387 OA
ATOM     98  H   UNL A   1      33.114  24.639  21.648  1.00  0.00     0.211 HD
ENDBRANCH  84  97
BRANCH  85  99
ATOM     99  O   UNL A   1      32.542  27.995  21.980  1.00  0.00    -0.384 OA
ATOM    100  H   UNL A   1      33.512  27.985  21.940  1.00  0.00     0.211 HD
ENDBRANCH  85  99
ENDBRANCH  78  80
ENDBRANCH  77  78
ENDBRANCH  76  77
ENDBRANCH  75  76
ENDBRANCH  74  75
ENDBRANCH  73  74
ENDBRANCH   1  73
TORSDOF 26
ENDMDL
MODEL 2
REMARK VINA RESULT:     -10.4      5.382     10.863
REMARK SMILES O=C(OCCOCCOCCOC(=O)[C@@H]1O[C@H](OC(=O)c2cccnc2)[C@@H](O)[C@H](O)[C@H]1O)c1ccc(-c2c3nc(c(-c4cccc(S(=O)(=O)[O-])c4F)c4ccc([nH]4)c(-c4cccc(S(=O)(=O)[O-])c4F)c4nc(c(-c5cccc(S(=O)(=O)[O-])c5F)c5ccc2[nH]5)C=C4)C=C3)cc1
REMARK SMILES IDX 7 1 6 2 5 3 4 4 3 5 2 6 1 7 33 8 34 9 95 10 35 11 94 12
REMARK SMILES IDX 36 13 37 14 38 15 88 16 39 17 93 18 87 19 89 20 40 21 92 22
REMARK SMILES IDX 86 23 85 24 41 26 73 27 53 28 72 29 54 30 57 31 71 32 90 33
REMARK SMILES IDX 55 34 56 35 70 37 91 38 58 39 42 40 43 41 51 42 44 43 46 44
REMARK SMILES IDX 52 45 45 46 47 47 48 48 49 49 50 50 74 51 75 52 83 53 76 54
REMARK SMILES IDX 78 55 84 56 77 57 79 58 80 59 81 60 82 61 59 62 60 63 68 64
REMARK SMILES IDX 61 65 63 66 69 67 62 68 64 69 65 70 66 71 67 72 8 73 9 74
REMARK SMILES IDX 10 75 11 76 12 77 13 78 14 79 15 80 16 81 31 82 17 83 29 84
REMARK SMILES IDX 27 85 32 86 18 88 19 89 20 90 21 91 22 92 26 93 23 94 25 95
REMARK SMILES IDX 24 96 30 97 28 99
REMARK H PARENT 89 25 57 36 32 87 30 98 28 100
REMARK Flexibility Score: inf
ROOT
ATOM      1  C   UNL A   1      32.880  29.497  25.022  1.00  0.00     0.188 C 
ENDROOT
BRANCH   1   2
ATOM      2  O   UNL A   1      31.893  30.299  25.670  1.00  0.00    -0.376 OA
BRANCH   2   3
ATOM      3  C   UNL A   1      32.367  30.955  26.850  1.00  0.00     0.202 C 
BRANCH   3   4
ATOM      4  C   UNL A   1      31.650  32.265  27.249  1.00  0.00     0.261 C 
BRANCH   4   5
ATOM      5  O   UNL A   1      32.461  33.452  27.158  1.00  0.00    -0.460 OA
BRANCH   5   6
ATOM      6  C   UNL A   1      33.115  34.135  28.135  1.00  0.00     0.338 C 
ATOM      7  O   UNL A   1      32.721  35.268  28.408  1.00  0.00    -0.246 OA
BRANCH   6   8
ATOM      8  C   UNL A   1      34.300  33.604  28.882  1.00  0.00     0.060 A 
ATOM      9  C   UNL A   1      35.621  33.916  28.586  1.00  0.00     0.016 A 
ATOM     10  C   UNL A   1      34.067  32.752  29.980  1.00  0.00     0.016 A 
ATOM     11  C   UNL A   1      36.680  33.350  29.269  1.00  0.00     0.010 A 
ATOM     12  C   UNL A   1      35.135  32.222  30.723  1.00  0.00     0.010 A 
ATOM     13  C   UNL A   1      36.453  32.507  30.344  1.00  0.00    -0.014 A 
BRANCH  13  14
ATOM     14  C   UNL A   1      37.643  31.857  30.925  1.00  0.00     0.031 A 
ATOM     15  C   UNL A   1      38.056  32.253  32.299  1.00  0.00     0.074 A 
ATOM     16  C   UNL A   1      38.183  30.766  30.348  1.00  0.00     0.049 A 
ATOM     17  N   UNL A   1      39.009  31.752  33.029  1.00  0.00    -0.248 NA
ATOM     18  C   UNL A   1      37.235  33.271  32.979  1.00  0.00     0.031 C 
ATOM     19  C   UNL A   1      37.658  30.123  29.156  1.00  0.00     0.029 A 
ATOM     20  N   UNL A   1      39.270  29.996  30.660  1.00  0.00    -0.354 N 
ATOM     21  C   UNL A   1      38.884  32.360  34.263  1.00  0.00     0.074 A 
ATOM     22  C   UNL A   1      37.790  33.301  34.180  1.00  0.00     0.031 C 
ATOM     23  C   UNL A   1      38.484  29.157  28.741  1.00  0.00     0.029 A 
ATOM     24  C   UNL A   1      39.600  29.112  29.655  1.00  0.00     0.049 A 
ATOM     25  H   UNL A   1      39.763  30.067  31.510  1.00  0.00     0.167 HD
ATOM     26  C   UNL A   1      39.609  32.113  35.374  1.00  0.00     0.034 A 
ATOM     27  C   UNL A   1      40.709  28.381  29.465  1.00  0.00     0.034 A 
ATOM     28  C   UNL A   1      40.708  31.190  35.404  1.00  0.00     0.049 A 
ATOM     29  C   UNL A   1      41.666  28.332  30.603  1.00  0.00     0.074 A 
ATOM     30  C   UNL A   1      41.570  30.912  36.446  1.00  0.00     0.029 A 
ATOM     31  N   UNL A   1      41.112  30.411  34.326  1.00  0.00    -0.354 N 
ATOM     32  N   UNL A   1      41.567  28.934  31.762  1.00  0.00    -0.248 NA
ATOM     33  C   UNL A   1      42.826  27.452  30.461  1.00  0.00     0.031 C 
ATOM     34  C   UNL A   1      42.527  30.003  35.982  1.00  0.00     0.029 A 
ATOM     35  C   UNL A   1      42.232  29.673  34.667  1.00  0.00     0.049 A 
ATOM     36  H   UNL A   1      40.667  30.387  33.448  1.00  0.00     0.167 HD
ATOM     37  C   UNL A   1      42.611  28.455  32.522  1.00  0.00     0.074 A 
ATOM     38  C   UNL A   1      43.337  27.516  31.682  1.00  0.00     0.031 C 
ATOM     39  C   UNL A   1      42.927  28.749  33.806  1.00  0.00     0.034 A 
BRANCH  26  40
ATOM     40  C   UNL A   1      39.251  32.896  36.601  1.00  0.00     0.023 A 
ATOM     41  C   UNL A   1      39.819  34.167  36.827  1.00  0.00     0.012 A 
ATOM     42  C   UNL A   1      38.362  32.353  37.544  1.00  0.00     0.148 A 
ATOM     43  C   UNL A   1      39.522  34.876  37.990  1.00  0.00     0.002 A 
ATOM     44  C   UNL A   1      38.036  33.082  38.677  1.00  0.00     0.091 A 
ATOM     45  F   UNL A   1      37.869  31.126  37.321  1.00  0.00    -0.205 F 
ATOM     46  C   UNL A   1      38.624  34.338  38.910  1.00  0.00     0.022 A 
BRANCH  44  47
ATOM     47  S   UNL A   1      36.853  32.498  39.892  1.00  0.00     0.127 S 
ATOM     48  O   UNL A   1      37.458  31.233  40.310  1.00  0.00    -0.237 OA
ATOM     49  O   UNL A   1      36.903  33.561  40.895  1.00  0.00    -0.237 OA
ATOM     50  O   UNL A   1      35.583  32.369  39.192  1.00  0.00    -0.744 OA
ENDBRANCH  44  47
ENDBRANCH  26  40
BRANCH  27  51
ATOM     51  C   UNL A   1      40.967  27.706  28.166  1.00  0.00     0.023 A 
ATOM     52  C   UNL A   1      41.344  28.427  27.022  1.00  0.00     0.012 A 
ATOM     53  C   UNL A   1      40.820  26.307  28.075  1.00  0.00     0.148 A 
ATOM     54  C   UNL A   1      41.524  27.770  25.799  1.00  0.00     0.002 A 
ATOM     55  C   UNL A   1      41.048  25.654  26.873  1.00  0.00     0.091 A 
ATOM     56  F   UNL A   1      40.451  25.628  29.172  1.00  0.00    -0.205 F 
ATOM     57  C   UNL A   1      41.380  26.383  25.723  1.00  0.00     0.022 A 
BRANCH  55  58
ATOM     58  S   UNL A   1      41.004  23.860  26.790  1.00  0.00     0.127 S 
ATOM     59  O   UNL A   1      39.599  23.602  26.499  1.00  0.00    -0.237 OA
ATOM     60  O   UNL A   1      41.926  23.571  25.694  1.00  0.00    -0.237 OA
ATOM     61  O   UNL A   1      41.488  23.412  28.100  1.00  0.00    -0.744 OA
ENDBRANCH  55  58
ENDBRANCH  27  51
BRANCH  39  62
ATOM     62  C   UNL A   1      44.093  28.003  34.375  1.00  0.00     0.023 A 
ATOM     63  C   UNL A   1      45.380  28.573  34.341  1.00  0.00     0.012 A 
ATOM     64  C   UNL A   1      43.897  26.737  34.952  1.00  0.00     0.148 A 
ATOM     65  C   UNL A   1      46.470  27.861  34.831  1.00  0.00     0.002 A 
ATOM     66  C   UNL A   1      44.977  26.066  35.499  1.00  0.00     0.091 A 
ATOM     67  F   UNL A   1      42.663  26.209  34.940  1.00  0.00    -0.205 F 
ATOM     68  C   UNL A   1      46.267  26.616  35.422  1.00  0.00     0.022 A 
BRANCH  66  69
ATOM     69  S   UNL A   1      44.789  24.513  36.374  1.00  0.00     0.127 S 
ATOM     70  O   UNL A   1      46.145  23.973  36.317  1.00  0.00    -0.237 OA
ATOM     71  O   UNL A   1      44.363  24.961  37.701  1.00  0.00    -0.237 OA
ATOM     72  O   UNL A   1      43.783  23.755  35.642  1.00  0.00    -0.744 OA
ENDBRANCH  66  69
ENDBRANCH  39  62
ENDBRANCH  13  14
ENDBRANCH   6   8
ENDBRANCH   5   6
ENDBRANCH   4   5
ENDBRANCH   3   4
ENDBRANCH   2   3
ENDBRANCH   1   2
BRANCH   1  73
ATOM     73  C   UNL A   1      32.476  28.884  23.679  1.00  0.00     0.188 C 
BRANCH  73  74
ATOM     74  O   UNL A   1      32.830  27.530  23.422  1.00  0.00    -0.376 OA
BRANCH  74  75
ATOM     75  C   UNL A   1      33.272  27.204  22.108  1.00  0.00     0.202 C 
BRANCH  75  76
ATOM     76  C   UNL A   1      32.939  25.823  21.517  1.00  0.00     0.261 C 
BRANCH  76  77
ATOM     77  O   UNL A   1      33.019  24.745  22.457  1.00  0.00    -0.461 OA
BRANCH  77  78
ATOM     78  C   UNL A   1      33.485  23.550  21.978  1.00  0.00     0.338 C 
ATOM     79  O   UNL A   1      33.452  23.242  20.790  1.00  0.00    -0.249 OA
BRANCH  78  80
ATOM     80  C   UNL A   1      34.199  22.731  23.083  1.00  0.00     0.263 C 
ATOM     81  O   UNL A   1      33.264  22.556  24.133  1.00  0.00    -0.322 OA
ATOM     82  C   UNL A   1      35.521  23.383  23.468  1.00  0.00     0.186 C 
ATOM     83  C   UNL A   1      33.747  22.200  25.416  1.00  0.00     0.343 C 
ATOM     84  C   UNL A   1      36.060  22.854  24.809  1.00  0.00     0.181 C 
ATOM     85  C   UNL A   1      35.012  22.917  25.896  1.00  0.00     0.214 C 
BRANCH  82  86
ATOM     86  O   UNL A   1      36.438  23.055  22.408  1.00  0.00    -0.387 OA
ATOM     87  H   UNL A   1      36.403  23.745  21.726  1.00  0.00     0.211 HD
ENDBRANCH  82  86
BRANCH  83  88
ATOM     88  O   UNL A   1      32.701  22.426  26.370  1.00  0.00    -0.429 OA
BRANCH  88  89
ATOM     89  C   UNL A   1      31.466  22.518  25.818  1.00  0.00     0.342 C 
ATOM     90  O   UNL A   1      30.702  21.614  25.513  1.00  0.00    -0.246 OA
BRANCH  89  91
ATOM     91  C   UNL A   1      31.103  23.926  25.741  1.00  0.00     0.078 A 
ATOM     92  C   UNL A   1      30.368  24.450  24.680  1.00  0.00     0.019 A 
ATOM     93  C   UNL A   1      31.517  24.768  26.761  1.00  0.00     0.126 A 
ATOM     94  C   UNL A   1      30.083  25.808  24.677  1.00  0.00     0.021 A 
ATOM     95  N   UNL A   1      31.271  26.100  26.770  1.00  0.00    -0.264 NA
ATOM     96  C   UNL A   1      30.551  26.581  25.730  1.00  0.00     0.111 A 
ENDBRANCH  89  91
ENDBRANCH  88  89
ENDBRANCH  83  88
BRANCH  84  97
ATOM     97  O   UNL A   1      37.220  23.580  25.205  1.00  0.00    -0.387 OA
ATOM     98  H   UNL A   1      37.848  23.613  24.467  1.00  0.00     0.211 HD
ENDBRANCH  84  97
BRANCH  85  99
ATOM     99  O   UNL A   1      35.527  22.284  27.082  1.00  0.00    -0.384 OA
ATOM    100  H   UNL A   1      34.796  21.883  27.578  1.00  0.00     0.211 HD
ENDBRANCH  85  99
ENDBRANCH  78  80
ENDBRANCH  77  78
ENDBRANCH  76  77
ENDBRANCH  75  76
ENDBRANCH  74  75
ENDBRANCH  73  74
ENDBRANCH   1  73
TORSDOF 26
ENDMDL
MODEL 3
REMARK VINA RESULT:     -10.2      2.430      8.618
REMARK SMILES O=C(OCCOCCOCCOC(=O)[C@@H]1O[C@H](OC(=O)c2cccnc2)[C@@H](O)[C@H](O)[C@H]1O)c1ccc(-c2c3nc(c(-c4cccc(S(=O)(=O)[O-])c4F)c4ccc([nH]4)c(-c4cccc(S(=O)(=O)[O-])c4F)c4nc(c(-c5cccc(S(=O)(=O)[O-])c5F)c5ccc2[nH]5)C=C4)C=C3)cc1
REMARK SMILES IDX 7 1 6 2 5 3 4 4 3 5 2 6 1 7 33 8 34 9 95 10 35 11 94 12
REMARK SMILES IDX 36 13 37 14 38 15 88 16 39 17 93 18 87 19 89 20 40 21 92 22
REMARK SMILES IDX 86 23 85 24 41 26 73 27 53 28 72 29 54 30 57 31 71 32 90 33
REMARK SMILES IDX 55 34 56 35 70 37 91 38 58 39 42 40 43 41 51 42 44 43 46 44
REMARK SMILES IDX 52 45 45 46 47 47 48 48 49 49 50 50 74 51 75 52 83 53 76 54
REMARK SMILES IDX 78 55 84 56 77 57 79 58 80 59 81 60 82 61 59 62 60 63 68 64
REMARK SMILES IDX 61 65 63 66 69 67 62 68 64 69 65 70 66 71 67 72 8 73 9 74
REMARK SMILES IDX 10 75 11 76 12 77 13 78 14 79 15 80 16 81 31 82 17 83 29 84
REMARK SMILES IDX 27 85 32 86 18 88 19 89 20 90 21 91 22 92 26 93 23 94 25 95
REMARK SMILES IDX 24 96 30 97 28 99
REMARK H PARENT 89 25 57 36 32 87 30 98 28 100
REMARK Flexibility Score: inf
ROOT
ATOM      1  C   UNL A   1      33.115  33.175  28.051  1.00  0.00     0.188 C 
ENDROOT
BRANCH   1   2
ATOM      2  O   UNL A   1      32.950  34.086  29.137  1.00  0.00    -0.376 OA
BRANCH   2   3
ATOM      3  C   UNL A   1      34.174  34.418  29.802  1.00  0.00     0.202 C 
BRANCH   3   4
ATOM      4  C   UNL A   1      34.175  34.310  31.344  1.00  0.00     0.261 C 
BRANCH   4   5
ATOM      5  O   UNL A   1      34.335  32.973  31.857  1.00  0.00    -0.460 OA
BRANCH   5   6
ATOM      6  C   UNL A   1      35.400  32.402  32.478  1.00  0.00     0.338 C 
ATOM      7  O   UNL A   1      35.451  32.461  33.707  1.00  0.00    -0.246 OA
BRANCH   6   8
ATOM      8  C   UNL A   1      36.527  31.726  31.760  1.00  0.00     0.060 A 
ATOM      9  C   UNL A   1      37.655  31.204  32.382  1.00  0.00     0.016 A 
ATOM     10  C   UNL A   1      36.433  31.577  30.362  1.00  0.00     0.016 A 
ATOM     11  C   UNL A   1      38.695  30.644  31.666  1.00  0.00     0.010 A 
ATOM     12  C   UNL A   1      37.454  30.950  29.631  1.00  0.00     0.010 A 
ATOM     13  C   UNL A   1      38.606  30.503  30.291  1.00  0.00    -0.014 A 
BRANCH  13  14
ATOM     14  C   UNL A   1      39.817  30.010  29.607  1.00  0.00     0.031 A 
ATOM     15  C   UNL A   1      41.007  30.902  29.561  1.00  0.00     0.074 A 
ATOM     16  C   UNL A   1      39.934  28.712  29.264  1.00  0.00     0.049 A 
ATOM     17  N   UNL A   1      42.192  30.640  29.093  1.00  0.00    -0.248 NA
ATOM     18  C   UNL A   1      40.883  32.219  30.211  1.00  0.00     0.031 C 
ATOM     19  C   UNL A   1      38.935  27.696  29.543  1.00  0.00     0.029 A 
ATOM     20  N   UNL A   1      40.917  28.010  28.621  1.00  0.00    -0.354 N 
ATOM     21  C   UNL A   1      42.967  31.736  29.421  1.00  0.00     0.074 A 
ATOM     22  C   UNL A   1      42.115  32.690  30.092  1.00  0.00     0.031 C 
ATOM     23  C   UNL A   1      39.265  26.539  28.958  1.00  0.00     0.029 A 
ATOM     24  C   UNL A   1      40.516  26.739  28.266  1.00  0.00     0.049 A 
ATOM     25  H   UNL A   1      41.813  28.373  28.432  1.00  0.00     0.167 HD
ATOM     26  C   UNL A   1      44.289  31.897  29.205  1.00  0.00     0.034 A 
ATOM     27  C   UNL A   1      41.073  25.850  27.429  1.00  0.00     0.034 A 
ATOM     28  C   UNL A   1      45.092  30.934  28.506  1.00  0.00     0.049 A 
ATOM     29  C   UNL A   1      42.446  26.167  26.954  1.00  0.00     0.074 A 
ATOM     30  C   UNL A   1      46.425  31.019  28.153  1.00  0.00     0.029 A 
ATOM     31  N   UNL A   1      44.625  29.715  28.029  1.00  0.00    -0.354 N 
ATOM     32  N   UNL A   1      43.170  27.221  27.236  1.00  0.00    -0.248 NA
ATOM     33  C   UNL A   1      43.116  25.159  26.132  1.00  0.00     0.031 C 
ATOM     34  C   UNL A   1      46.749  29.874  27.418  1.00  0.00     0.029 A 
ATOM     35  C   UNL A   1      45.634  29.049  27.357  1.00  0.00     0.049 A 
ATOM     36  H   UNL A   1      43.709  29.374  28.152  1.00  0.00     0.167 HD
ATOM     37  C   UNL A   1      44.412  26.979  26.690  1.00  0.00     0.074 A 
ATOM     38  C   UNL A   1      44.334  25.676  26.049  1.00  0.00     0.031 C 
ATOM     39  C   UNL A   1      45.520  27.755  26.734  1.00  0.00     0.034 A 
BRANCH  26  40
ATOM     40  C   UNL A   1      44.900  33.178  29.687  1.00  0.00     0.023 A 
ATOM     41  C   UNL A   1      45.399  33.280  31.002  1.00  0.00     0.012 A 
ATOM     42  C   UNL A   1      44.958  34.291  28.831  1.00  0.00     0.148 A 
ATOM     43  C   UNL A   1      45.926  34.485  31.465  1.00  0.00     0.002 A 
ATOM     44  C   UNL A   1      45.523  35.474  29.284  1.00  0.00     0.091 A 
ATOM     45  F   UNL A   1      44.440  34.176  27.600  1.00  0.00    -0.205 F 
ATOM     46  C   UNL A   1      45.996  35.578  30.603  1.00  0.00     0.022 A 
BRANCH  44  47
ATOM     47  S   UNL A   1      45.706  36.918  28.236  1.00  0.00     0.127 S 
ATOM     48  O   UNL A   1      46.080  36.310  26.958  1.00  0.00    -0.237 OA
ATOM     49  O   UNL A   1      44.360  37.487  28.271  1.00  0.00    -0.237 OA
ATOM     50  O   UNL A   1      46.739  37.738  28.851  1.00  0.00    -0.744 OA
ENDBRANCH  44  47
ENDBRANCH  26  40
BRANCH  27  51
ATOM     51  C   UNL A   1      40.322  24.648  26.982  1.00  0.00     0.023 A 
ATOM     52  C   UNL A   1      39.069  24.751  26.356  1.00  0.00     0.012 A 
ATOM     53  C   UNL A   1      40.876  23.370  27.197  1.00  0.00     0.148 A 
ATOM     54  C   UNL A   1      38.361  23.599  25.998  1.00  0.00     0.002 A 
ATOM     55  C   UNL A   1      40.193  22.232  26.795  1.00  0.00     0.091 A 
ATOM     56  F   UNL A   1      42.070  23.282  27.802  1.00  0.00    -0.205 F 
ATOM     57  C   UNL A   1      38.922  22.338  26.212  1.00  0.00     0.022 A 
BRANCH  55  58
ATOM     58  S   UNL A   1      40.960  20.613  26.935  1.00  0.00     0.127 S 
ATOM     59  O   UNL A   1      42.330  20.889  26.520  1.00  0.00    -0.237 OA
ATOM     60  O   UNL A   1      40.794  20.307  28.354  1.00  0.00    -0.237 OA
ATOM     61  O   UNL A   1      40.175  19.748  26.050  1.00  0.00    -0.744 OA
ENDBRANCH  55  58
ENDBRANCH  27  51
BRANCH  39  62
ATOM     62  C   UNL A   1      46.745  27.175  26.096  1.00  0.00     0.023 A 
ATOM     63  C   UNL A   1      47.523  26.231  26.792  1.00  0.00     0.012 A 
ATOM     64  C   UNL A   1      47.110  27.570  24.798  1.00  0.00     0.148 A 
ATOM     65  C   UNL A   1      48.684  25.725  26.217  1.00  0.00     0.002 A 
ATOM     66  C   UNL A   1      48.229  27.011  24.207  1.00  0.00     0.091 A 
ATOM     67  F   UNL A   1      46.364  28.497  24.175  1.00  0.00    -0.205 F 
ATOM     68  C   UNL A   1      49.029  26.104  24.921  1.00  0.00     0.022 A 
BRANCH  66  69
ATOM     69  S   UNL A   1      48.682  27.356  22.507  1.00  0.00     0.127 S 
ATOM     70  O   UNL A   1      50.013  27.936  22.666  1.00  0.00    -0.237 OA
ATOM     71  O   UNL A   1      48.662  26.021  21.910  1.00  0.00    -0.237 OA
ATOM     72  O   UNL A   1      47.663  28.262  21.994  1.00  0.00    -0.744 OA
ENDBRANCH  66  69
ENDBRANCH  39  62
ENDBRANCH  13  14
ENDBRANCH   6   8
ENDBRANCH   5   6
ENDBRANCH   4   5
ENDBRANCH   3   4
ENDBRANCH   2   3
ENDBRANCH   1   2
BRANCH   1  73
ATOM     73  C   UNL A   1      32.016  33.191  26.985  1.00  0.00     0.188 C 
BRANCH  73  74
ATOM     74  O   UNL A   1      31.498  31.946  26.532  1.00  0.00    -0.376 OA
BRANCH  74  75
ATOM     75  C   UNL A   1      32.125  30.760  27.009  1.00  0.00     0.202 C 
BRANCH  75  76
ATOM     76  C   UNL A   1      33.032  29.950  26.066  1.00  0.00     0.261 C 
BRANCH  76  77
ATOM     77  O   UNL A   1      33.198  28.578  26.442  1.00  0.00    -0.461 OA
BRANCH  77  78
ATOM     78  C   UNL A   1      32.350  27.676  25.859  1.00  0.00     0.338 C 
ATOM     79  O   UNL A   1      31.356  27.226  26.422  1.00  0.00    -0.249 OA
BRANCH  78  80
ATOM     80  C   UNL A   1      32.705  27.438  24.370  1.00  0.00     0.263 C 
ATOM     81  O   UNL A   1      31.687  28.052  23.601  1.00  0.00    -0.322 OA
ATOM     82  C   UNL A   1      32.942  25.956  24.102  1.00  0.00     0.186 C 
ATOM     83  C   UNL A   1      31.533  27.664  22.247  1.00  0.00     0.343 C 
ATOM     84  C   UNL A   1      32.896  25.625  22.600  1.00  0.00     0.181 C 
ATOM     85  C   UNL A   1      31.647  26.168  21.946  1.00  0.00     0.214 C 
BRANCH  82  86
ATOM     86  O   UNL A   1      34.253  25.673  24.627  1.00  0.00    -0.387 OA
ATOM     87  H   UNL A   1      34.756  26.499  24.704  1.00  0.00     0.211 HD
ENDBRANCH  82  86
BRANCH  83  88
ATOM     88  O   UNL A   1      30.258  28.129  21.787  1.00  0.00    -0.429 OA
BRANCH  88  89
ATOM     89  C   UNL A   1      29.332  28.256  22.770  1.00  0.00     0.342 C 
ATOM     90  O   UNL A   1      29.008  27.435  23.617  1.00  0.00    -0.246 OA
BRANCH  89  91
ATOM     91  C   UNL A   1      28.830  29.622  22.753  1.00  0.00     0.078 A 
ATOM     92  C   UNL A   1      29.405  30.618  21.967  1.00  0.00     0.019 A 
ATOM     93  C   UNL A   1      27.747  29.934  23.559  1.00  0.00     0.126 A 
ATOM     94  C   UNL A   1      28.873  31.899  22.026  1.00  0.00     0.021 A 
ATOM     95  N   UNL A   1      27.225  31.180  23.653  1.00  0.00    -0.264 NA
ATOM     96  C   UNL A   1      27.799  32.127  22.875  1.00  0.00     0.111 A 
ENDBRANCH  89  91
ENDBRANCH  88  89
ENDBRANCH  83  88
BRANCH  84  97
ATOM     97  O   UNL A   1      32.984  24.217  22.396  1.00  0.00    -0.387 OA
ATOM     98  H   UNL A   1      32.391  23.763  23.014  1.00  0.00     0.211 HD
ENDBRANCH  84  97
BRANCH  85  99
ATOM     99  O   UNL A   1      31.728  25.948  20.525  1.00  0.00    -0.384 OA
ATOM    100  H   UNL A   1      31.806  24.997  20.349  1.00  0.00     0.211 HD
ENDBRANCH  85  99
ENDBRANCH  78  80
ENDBRANCH  77  78
ENDBRANCH  76  77
ENDBRANCH  75  76
ENDBRANCH  74  75
ENDBRANCH  73  74
ENDBRANCH   1  73
TORSDOF 26
ENDMDL
