MODEL 1
REMARK VINA RESULT:     -10.9      0.000      0.000
REMARK SMILES O=C(OCCOCCOCCOC(=O)[C@H]1Cc2[nH]cnc2CN1C(=O)c1ccncc1Cl)c1ccc(-c2c3nc(c(-c4cccc(S(=O)(=O)[O-])c4F)c4ccc([nH]4)c(-c4cccc(S(=O)(=O)[O-])c4F)c4nc(c(-c5cccc(S(=O)(=O)[O-])c5F)c5ccc2[nH]5)C=C4)C=C3)cc1
REMARK SMILES IDX 7 1 6 2 5 3 4 4 3 5 2 6 1 7 33 8 34 9 95 10 35 11 94 12
REMARK SMILES IDX 36 13 37 14 38 15 88 16 39 17 93 18 87 19 89 20 40 21 92 22
REMARK SMILES IDX 86 23 85 24 41 26 73 27 53 28 72 29 54 30 57 31 71 32 90 33
REMARK SMILES IDX 55 34 56 35 70 37 91 38 58 39 42 40 43 41 51 42 44 43 46 44
REMARK SMILES IDX 52 45 45 46 47 47 48 48 49 49 50 50 74 51 75 52 83 53 76 54
REMARK SMILES IDX 78 55 84 56 77 57 79 58 80 59 81 60 82 61 59 62 60 63 68 64
REMARK SMILES IDX 61 65 63 66 69 67 62 68 64 69 65 70 66 71 67 72 8 73 9 74
REMARK SMILES IDX 10 75 11 76 12 77 13 78 14 79 15 80 16 81 23 82 17 83 22 84
REMARK SMILES IDX 18 85 21 86 19 87 20 89 24 90 25 91 26 92 27 93 31 94 28 95
REMARK SMILES IDX 30 96 32 97 29 98
REMARK H PARENT 89 25 57 36 18 88
REMARK Flexibility Score: inf
ROOT
ATOM      1  C   UNL A   1      37.325  21.930  25.744  1.00  0.00     0.188 C 
ENDROOT
BRANCH   1   2
ATOM      2  O   UNL A   1      38.074  21.184  24.806  1.00  0.00    -0.376 OA
BRANCH   2   3
ATOM      3  C   UNL A   1      38.051  19.771  24.779  1.00  0.00     0.202 C 
BRANCH   3   4
ATOM      4  C   UNL A   1      38.927  18.916  25.691  1.00  0.00     0.261 C 
BRANCH   4   5
ATOM      5  O   UNL A   1      40.296  18.835  25.285  1.00  0.00    -0.460 OA
BRANCH   5   6
ATOM      6  C   UNL A   1      41.400  19.497  25.689  1.00  0.00     0.338 C 
ATOM      7  O   UNL A   1      42.470  18.889  25.664  1.00  0.00    -0.246 OA
BRANCH   6   8
ATOM      8  C   UNL A   1      41.398  20.874  26.264  1.00  0.00     0.060 A 
ATOM      9  C   UNL A   1      42.057  21.986  25.741  1.00  0.00     0.016 A 
ATOM     10  C   UNL A   1      40.689  21.027  27.475  1.00  0.00     0.016 A 
ATOM     11  C   UNL A   1      42.188  23.141  26.490  1.00  0.00     0.010 A 
ATOM     12  C   UNL A   1      40.772  22.203  28.209  1.00  0.00     0.010 A 
ATOM     13  C   UNL A   1      41.602  23.216  27.748  1.00  0.00    -0.014 A 
BRANCH  13  14
ATOM     14  C   UNL A   1      41.933  24.384  28.546  1.00  0.00     0.031 A 
ATOM     15  C   UNL A   1      41.030  25.550  28.389  1.00  0.00     0.074 A 
ATOM     16  C   UNL A   1      42.999  24.387  29.367  1.00  0.00     0.049 A 
ATOM     17  N   UNL A   1      41.312  26.721  27.916  1.00  0.00    -0.248 NA
ATOM     18  C   UNL A   1      39.605  25.339  28.671  1.00  0.00     0.031 C 
ATOM     19  C   UNL A   1      43.801  23.231  29.779  1.00  0.00     0.029 A 
ATOM     20  N   UNL A   1      43.497  25.404  30.125  1.00  0.00    -0.354 N 
ATOM     21  C   UNL A   1      40.146  27.472  28.070  1.00  0.00     0.074 A 
ATOM     22  C   UNL A   1      39.097  26.527  28.347  1.00  0.00     0.031 C 
ATOM     23  C   UNL A   1      44.483  23.551  30.898  1.00  0.00     0.029 A 
ATOM     24  C   UNL A   1      44.264  24.955  31.192  1.00  0.00     0.049 A 
ATOM     25  H   UNL A   1      43.331  26.356  29.936  1.00  0.00     0.167 HD
ATOM     26  C   UNL A   1      40.192  28.825  28.227  1.00  0.00     0.034 A 
ATOM     27  C   UNL A   1      44.598  25.661  32.296  1.00  0.00     0.034 A 
ATOM     28  C   UNL A   1      41.438  29.370  27.742  1.00  0.00     0.049 A 
ATOM     29  C   UNL A   1      44.464  27.099  31.973  1.00  0.00     0.074 A 
ATOM     30  C   UNL A   1      42.117  29.369  26.541  1.00  0.00     0.029 A 
ATOM     31  N   UNL A   1      42.344  29.797  28.684  1.00  0.00    -0.354 N 
ATOM     32  N   UNL A   1      45.244  27.735  31.143  1.00  0.00    -0.248 NA
ATOM     33  C   UNL A   1      43.213  27.767  32.291  1.00  0.00     0.031 C 
ATOM     34  C   UNL A   1      43.500  29.372  26.890  1.00  0.00     0.029 A 
ATOM     35  C   UNL A   1      43.588  29.404  28.283  1.00  0.00     0.049 A 
ATOM     36  H   UNL A   1      42.132  30.298  29.504  1.00  0.00     0.167 HD
ATOM     37  C   UNL A   1      44.406  28.637  30.501  1.00  0.00     0.074 A 
ATOM     38  C   UNL A   1      43.216  28.709  31.343  1.00  0.00     0.031 C 
ATOM     39  C   UNL A   1      44.631  29.006  29.203  1.00  0.00     0.034 A 
BRANCH  26  40
ATOM     40  C   UNL A   1      39.329  29.604  29.215  1.00  0.00     0.023 A 
ATOM     41  C   UNL A   1      39.060  30.958  28.892  1.00  0.00     0.012 A 
ATOM     42  C   UNL A   1      39.067  29.212  30.548  1.00  0.00     0.148 A 
ATOM     43  C   UNL A   1      38.705  31.894  29.871  1.00  0.00     0.002 A 
ATOM     44  C   UNL A   1      38.659  30.135  31.506  1.00  0.00     0.091 A 
ATOM     45  F   UNL A   1      39.305  27.964  30.949  1.00  0.00    -0.205 F 
ATOM     46  C   UNL A   1      38.520  31.484  31.184  1.00  0.00     0.022 A 
BRANCH  44  47
ATOM     47  S   UNL A   1      38.376  29.651  33.215  1.00  0.00     0.127 S 
ATOM     48  O   UNL A   1      39.713  29.233  33.620  1.00  0.00    -0.237 OA
ATOM     49  O   UNL A   1      37.907  30.905  33.805  1.00  0.00    -0.237 OA
ATOM     50  O   UNL A   1      37.363  28.601  33.163  1.00  0.00    -0.744 OA
ENDBRANCH  44  47
ENDBRANCH  26  40
BRANCH  27  51
ATOM     51  C   UNL A   1      44.790  25.167  33.677  1.00  0.00     0.023 A 
ATOM     52  C   UNL A   1      43.671  24.975  34.509  1.00  0.00     0.012 A 
ATOM     53  C   UNL A   1      46.037  24.659  34.110  1.00  0.00     0.148 A 
ATOM     54  C   UNL A   1      43.785  24.283  35.720  1.00  0.00     0.002 A 
ATOM     55  C   UNL A   1      46.151  23.995  35.327  1.00  0.00     0.091 A 
ATOM     56  F   UNL A   1      47.093  24.741  33.290  1.00  0.00    -0.205 F 
ATOM     57  C   UNL A   1      45.023  23.793  36.129  1.00  0.00     0.022 A 
BRANCH  55  58
ATOM     58  S   UNL A   1      47.725  23.354  35.916  1.00  0.00     0.127 S 
ATOM     59  O   UNL A   1      48.113  24.361  36.905  1.00  0.00    -0.237 OA
ATOM     60  O   UNL A   1      47.336  22.064  36.477  1.00  0.00    -0.237 OA
ATOM     61  O   UNL A   1      48.592  23.307  34.745  1.00  0.00    -0.744 OA
ENDBRANCH  55  58
ENDBRANCH  27  51
BRANCH  39  62
ATOM     62  C   UNL A   1      45.972  28.693  28.591  1.00  0.00     0.023 A 
ATOM     63  C   UNL A   1      47.081  29.549  28.750  1.00  0.00     0.012 A 
ATOM     64  C   UNL A   1      46.165  27.435  27.994  1.00  0.00     0.148 A 
ATOM     65  C   UNL A   1      48.346  29.172  28.296  1.00  0.00     0.002 A 
ATOM     66  C   UNL A   1      47.434  27.043  27.588  1.00  0.00     0.091 A 
ATOM     67  F   UNL A   1      45.103  26.625  27.856  1.00  0.00    -0.205 F 
ATOM     68  C   UNL A   1      48.526  27.914  27.727  1.00  0.00     0.022 A 
BRANCH  66  69
ATOM     69  S   UNL A   1      47.751  25.384  26.979  1.00  0.00     0.127 S 
ATOM     70  O   UNL A   1      47.101  25.408  25.671  1.00  0.00    -0.237 OA
ATOM     71  O   UNL A   1      49.214  25.336  26.933  1.00  0.00    -0.237 OA
ATOM     72  O   UNL A   1      47.162  24.483  27.962  1.00  0.00    -0.744 OA
ENDBRANCH  66  69
ENDBRANCH  39  62
ENDBRANCH  13  14
ENDBRANCH   6   8
ENDBRANCH   5   6
ENDBRANCH   4   5
ENDBRANCH   3   4
ENDBRANCH   2   3
ENDBRANCH   1   2
BRANCH   1  73
ATOM     73  C   UNL A   1      35.827  22.236  25.574  1.00  0.00     0.188 C 
BRANCH  73  74
ATOM     74  O   UNL A   1      34.995  21.484  24.721  1.00  0.00    -0.376 OA
BRANCH  74  75
ATOM     75  C   UNL A   1      33.765  21.975  24.234  1.00  0.00     0.202 C 
BRANCH  75  76
ATOM     76  C   UNL A   1      33.658  23.193  23.311  1.00  0.00     0.261 C 
BRANCH  76  77
ATOM     77  O   UNL A   1      33.070  24.342  23.916  1.00  0.00    -0.462 OA
BRANCH  77  78
ATOM     78  C   UNL A   1      33.309  25.552  23.324  1.00  0.00     0.329 C 
ATOM     79  O   UNL A   1      34.006  25.719  22.336  1.00  0.00    -0.250 OA
BRANCH  78  80
ATOM     80  C   UNL A   1      32.686  26.654  24.192  1.00  0.00     0.201 C 
ATOM     81  C   UNL A   1      33.986  27.235  24.862  1.00  0.00     0.093 C 
ATOM     82  N   UNL A   1      31.788  27.747  23.648  1.00  0.00    -0.318 N 
ATOM     83  C   UNL A   1      33.679  28.465  25.604  1.00  0.00     0.042 A 
ATOM     84  C   UNL A   1      31.366  28.770  24.650  1.00  0.00     0.179 C 
ATOM     85  N   UNL A   1      34.475  29.172  26.454  1.00  0.00    -0.348 N 
ATOM     86  C   UNL A   1      32.512  29.174  25.498  1.00  0.00     0.081 A 
ATOM     87  C   UNL A   1      33.753  30.268  26.842  1.00  0.00     0.197 A 
ATOM     88  H   UNL A   1      35.390  28.940  26.733  1.00  0.00     0.167 HD
ATOM     89  N   UNL A   1      32.564  30.294  26.281  1.00  0.00    -0.240 NA
BRANCH  82  90
ATOM     90  C   UNL A   1      30.912  27.714  22.554  1.00  0.00     0.256 C 
ATOM     91  O   UNL A   1      31.052  26.939  21.607  1.00  0.00    -0.269 OA
BRANCH  90  92
ATOM     92  C   UNL A   1      29.735  28.576  22.446  1.00  0.00     0.061 A 
ATOM     93  C   UNL A   1      29.894  29.863  21.938  1.00  0.00     0.035 A 
ATOM     94  C   UNL A   1      28.529  28.209  23.047  1.00  0.00     0.072 A 
ATOM     95  C   UNL A   1      28.792  30.697  21.924  1.00  0.00     0.112 A 
ATOM     96  C   UNL A   1      27.486  29.121  22.987  1.00  0.00     0.132 A 
ATOM     97  Cl  UNL A   1      28.291  26.696  23.834  1.00  0.00    -0.082 Cl
ATOM     98  N   UNL A   1      27.586  30.351  22.421  1.00  0.00    -0.263 NA
ENDBRANCH  90  92
ENDBRANCH  82  90
ENDBRANCH  78  80
ENDBRANCH  77  78
ENDBRANCH  76  77
ENDBRANCH  75  76
ENDBRANCH  74  75
ENDBRANCH  73  74
ENDBRANCH   1  73
TORSDOF 22
ENDMDL
MODEL 2
REMARK VINA RESULT:     -10.7      3.001      8.111
REMARK SMILES O=C(OCCOCCOCCOC(=O)[C@H]1Cc2[nH]cnc2CN1C(=O)c1ccncc1Cl)c1ccc(-c2c3nc(c(-c4cccc(S(=O)(=O)[O-])c4F)c4ccc([nH]4)c(-c4cccc(S(=O)(=O)[O-])c4F)c4nc(c(-c5cccc(S(=O)(=O)[O-])c5F)c5ccc2[nH]5)C=C4)C=C3)cc1
REMARK SMILES IDX 7 1 6 2 5 3 4 4 3 5 2 6 1 7 33 8 34 9 95 10 35 11 94 12
REMARK SMILES IDX 36 13 37 14 38 15 88 16 39 17 93 18 87 19 89 20 40 21 92 22
REMARK SMILES IDX 86 23 85 24 41 26 73 27 53 28 72 29 54 30 57 31 71 32 90 33
REMARK SMILES IDX 55 34 56 35 70 37 91 38 58 39 42 40 43 41 51 42 44 43 46 44
REMARK SMILES IDX 52 45 45 46 47 47 48 48 49 49 50 50 74 51 75 52 83 53 76 54
REMARK SMILES IDX 78 55 84 56 77 57 79 58 80 59 81 60 82 61 59 62 60 63 68 64
REMARK SMILES IDX 61 65 63 66 69 67 62 68 64 69 65 70 66 71 67 72 8 73 9 74
REMARK SMILES IDX 10 75 11 76 12 77 13 78 14 79 15 80 16 81 23 82 17 83 22 84
REMARK SMILES IDX 18 85 21 86 19 87 20 89 24 90 25 91 26 92 27 93 31 94 28 95
REMARK SMILES IDX 30 96 32 97 29 98
REMARK H PARENT 89 25 57 36 18 88
REMARK Flexibility Score: inf
ROOT
ATOM      1  C   UNL A   1      35.132  34.219  28.433  1.00  0.00     0.188 C 
ENDROOT
BRANCH   1   2
ATOM      2  O   UNL A   1      35.904  33.982  29.592  1.00  0.00    -0.376 OA
BRANCH   2   3
ATOM      3  C   UNL A   1      35.329  33.935  30.882  1.00  0.00     0.202 C 
BRANCH   3   4
ATOM      4  C   UNL A   1      34.646  32.687  31.435  1.00  0.00     0.261 C 
BRANCH   4   5
ATOM      5  O   UNL A   1      35.486  31.532  31.492  1.00  0.00    -0.460 OA
BRANCH   5   6
ATOM      6  C   UNL A   1      36.510  31.197  32.304  1.00  0.00     0.338 C 
ATOM      7  O   UNL A   1      36.508  31.662  33.444  1.00  0.00    -0.246 OA
BRANCH   6   8
ATOM      8  C   UNL A   1      37.695  30.393  31.885  1.00  0.00     0.060 A 
ATOM      9  C   UNL A   1      37.778  29.001  31.855  1.00  0.00     0.016 A 
ATOM     10  C   UNL A   1      38.840  31.138  31.530  1.00  0.00     0.016 A 
ATOM     11  C   UNL A   1      39.000  28.375  31.689  1.00  0.00     0.010 A 
ATOM     12  C   UNL A   1      40.060  30.513  31.309  1.00  0.00     0.010 A 
ATOM     13  C   UNL A   1      40.143  29.139  31.486  1.00  0.00    -0.014 A 
BRANCH  13  14
ATOM     14  C   UNL A   1      41.408  28.423  31.502  1.00  0.00     0.031 A 
ATOM     15  C   UNL A   1      42.094  28.354  32.815  1.00  0.00     0.074 A 
ATOM     16  C   UNL A   1      41.906  27.867  30.383  1.00  0.00     0.049 A 
ATOM     17  N   UNL A   1      43.237  28.864  33.147  1.00  0.00    -0.248 NA
ATOM     18  C   UNL A   1      41.351  27.757  33.932  1.00  0.00     0.031 C 
ATOM     19  C   UNL A   1      41.209  27.664  29.110  1.00  0.00     0.029 A 
ATOM     20  N   UNL A   1      43.096  27.229  30.197  1.00  0.00    -0.354 N 
ATOM     21  C   UNL A   1      43.465  28.438  34.456  1.00  0.00     0.074 A 
ATOM     22  C   UNL A   1      42.204  27.942  34.939  1.00  0.00     0.031 C 
ATOM     23  C   UNL A   1      41.866  26.726  28.398  1.00  0.00     0.029 A 
ATOM     24  C   UNL A   1      43.083  26.371  29.105  1.00  0.00     0.049 A 
ATOM     25  H   UNL A   1      43.882  27.362  30.776  1.00  0.00     0.167 HD
ATOM     26  C   UNL A   1      44.730  28.277  34.936  1.00  0.00     0.034 A 
ATOM     27  C   UNL A   1      43.952  25.363  28.863  1.00  0.00     0.034 A 
ATOM     28  C   UNL A   1      45.689  29.027  34.158  1.00  0.00     0.049 A 
ATOM     29  C   UNL A   1      45.182  25.628  29.641  1.00  0.00     0.074 A 
ATOM     30  C   UNL A   1      45.862  30.352  33.812  1.00  0.00     0.029 A 
ATOM     31  N   UNL A   1      46.519  28.311  33.330  1.00  0.00    -0.354 N 
ATOM     32  N   UNL A   1      46.008  26.605  29.388  1.00  0.00    -0.248 NA
ATOM     33  C   UNL A   1      45.315  25.025  30.957  1.00  0.00     0.031 C 
ATOM     34  C   UNL A   1      46.451  30.327  32.513  1.00  0.00     0.029 A 
ATOM     35  C   UNL A   1      46.628  28.991  32.151  1.00  0.00     0.049 A 
ATOM     36  H   UNL A   1      46.958  27.458  33.549  1.00  0.00     0.167 HD
ATOM     37  C   UNL A   1      46.441  27.028  30.638  1.00  0.00     0.074 A 
ATOM     38  C   UNL A   1      46.096  25.936  31.543  1.00  0.00     0.031 C 
ATOM     39  C   UNL A   1      46.761  28.338  30.866  1.00  0.00     0.034 A 
BRANCH  26  40
ATOM     40  C   UNL A   1      45.175  27.109  35.811  1.00  0.00     0.023 A 
ATOM     41  C   UNL A   1      46.015  27.421  36.909  1.00  0.00     0.012 A 
ATOM     42  C   UNL A   1      45.108  25.747  35.438  1.00  0.00     0.148 A 
ATOM     43  C   UNL A   1      46.852  26.464  37.494  1.00  0.00     0.002 A 
ATOM     44  C   UNL A   1      45.900  24.788  36.061  1.00  0.00     0.091 A 
ATOM     45  F   UNL A   1      44.357  25.360  34.408  1.00  0.00    -0.205 F 
ATOM     46  C   UNL A   1      46.806  25.148  37.057  1.00  0.00     0.022 A 
BRANCH  44  47
ATOM     47  S   UNL A   1      45.857  23.062  35.555  1.00  0.00     0.127 S 
ATOM     48  O   UNL A   1      44.434  22.766  35.667  1.00  0.00    -0.237 OA
ATOM     49  O   UNL A   1      46.374  23.140  34.189  1.00  0.00    -0.237 OA
ATOM     50  O   UNL A   1      46.734  22.358  36.485  1.00  0.00    -0.744 OA
ENDBRANCH  44  47
ENDBRANCH  26  40
BRANCH  27  51
ATOM     51  C   UNL A   1      43.692  24.068  28.196  1.00  0.00     0.023 A 
ATOM     52  C   UNL A   1      42.561  23.314  28.560  1.00  0.00     0.012 A 
ATOM     53  C   UNL A   1      44.412  23.678  27.043  1.00  0.00     0.148 A 
ATOM     54  C   UNL A   1      42.149  22.219  27.790  1.00  0.00     0.002 A 
ATOM     55  C   UNL A   1      44.013  22.575  26.296  1.00  0.00     0.091 A 
ATOM     56  F   UNL A   1      45.429  24.441  26.621  1.00  0.00    -0.205 F 
ATOM     57  C   UNL A   1      42.873  21.850  26.659  1.00  0.00     0.022 A 
BRANCH  55  58
ATOM     58  S   UNL A   1      44.917  22.039  24.836  1.00  0.00     0.127 S 
ATOM     59  O   UNL A   1      46.217  21.671  25.400  1.00  0.00    -0.237 OA
ATOM     60  O   UNL A   1      44.110  20.914  24.375  1.00  0.00    -0.237 OA
ATOM     61  O   UNL A   1      44.960  23.199  23.954  1.00  0.00    -0.744 OA
ENDBRANCH  55  58
ENDBRANCH  27  51
BRANCH  39  62
ATOM     62  C   UNL A   1      46.965  29.244  29.680  1.00  0.00     0.023 A 
ATOM     63  C   UNL A   1      48.229  29.406  29.075  1.00  0.00     0.012 A 
ATOM     64  C   UNL A   1      45.836  29.804  29.057  1.00  0.00     0.148 A 
ATOM     65  C   UNL A   1      48.367  30.137  27.894  1.00  0.00     0.002 A 
ATOM     66  C   UNL A   1      45.972  30.489  27.856  1.00  0.00     0.091 A 
ATOM     67  F   UNL A   1      44.638  29.636  29.637  1.00  0.00    -0.205 F 
ATOM     68  C   UNL A   1      47.238  30.668  27.277  1.00  0.00     0.022 A 
BRANCH  66  69
ATOM     69  S   UNL A   1      44.539  31.073  26.944  1.00  0.00     0.127 S 
ATOM     70  O   UNL A   1      43.942  32.019  27.883  1.00  0.00    -0.237 OA
ATOM     71  O   UNL A   1      45.142  31.686  25.760  1.00  0.00    -0.237 OA
ATOM     72  O   UNL A   1      43.746  29.884  26.654  1.00  0.00    -0.744 OA
ENDBRANCH  66  69
ENDBRANCH  39  62
ENDBRANCH  13  14
ENDBRANCH   6   8
ENDBRANCH   5   6
ENDBRANCH   4   5
ENDBRANCH   3   4
ENDBRANCH   2   3
ENDBRANCH   1   2
BRANCH   1  73
ATOM     73  C   UNL A   1      34.228  33.152  27.790  1.00  0.00     0.188 C 
BRANCH  73  74
ATOM     74  O   UNL A   1      34.379  31.777  28.053  1.00  0.00    -0.376 OA
BRANCH  74  75
ATOM     75  C   UNL A   1      33.774  30.781  27.258  1.00  0.00     0.202 C 
BRANCH  75  76
ATOM     76  C   UNL A   1      34.105  29.291  27.387  1.00  0.00     0.261 C 
BRANCH  76  77
ATOM     77  O   UNL A   1      33.289  28.433  26.594  1.00  0.00    -0.462 OA
BRANCH  77  78
ATOM     78  C   UNL A   1      32.109  28.010  27.141  1.00  0.00     0.329 C 
ATOM     79  O   UNL A   1      31.953  27.702  28.312  1.00  0.00    -0.250 OA
BRANCH  78  80
ATOM     80  C   UNL A   1      31.076  27.849  26.016  1.00  0.00     0.201 C 
ATOM     81  C   UNL A   1      31.406  29.130  25.164  1.00  0.00     0.093 C 
ATOM     82  N   UNL A   1      30.956  26.607  25.156  1.00  0.00    -0.318 N 
ATOM     83  C   UNL A   1      30.676  29.104  23.889  1.00  0.00     0.042 A 
ATOM     84  C   UNL A   1      29.946  26.698  24.059  1.00  0.00     0.179 C 
ATOM     85  N   UNL A   1      30.550  30.089  22.956  1.00  0.00    -0.348 N 
ATOM     86  C   UNL A   1      30.035  28.009  23.375  1.00  0.00     0.081 A 
ATOM     87  C   UNL A   1      29.823  29.557  21.925  1.00  0.00     0.197 A 
ATOM     88  H   UNL A   1      30.911  31.003  23.013  1.00  0.00     0.167 HD
ATOM     89  N   UNL A   1      29.499  28.303  22.152  1.00  0.00    -0.240 NA
BRANCH  82  90
ATOM     90  C   UNL A   1      31.240  25.273  25.477  1.00  0.00     0.256 C 
ATOM     91  O   UNL A   1      30.887  24.750  26.535  1.00  0.00    -0.269 OA
BRANCH  90  92
ATOM     92  C   UNL A   1      31.954  24.367  24.577  1.00  0.00     0.061 A 
ATOM     93  C   UNL A   1      31.231  23.381  23.910  1.00  0.00     0.035 A 
ATOM     94  C   UNL A   1      33.350  24.337  24.563  1.00  0.00     0.072 A 
ATOM     95  C   UNL A   1      31.930  22.477  23.132  1.00  0.00     0.112 A 
ATOM     96  C   UNL A   1      33.956  23.384  23.758  1.00  0.00     0.132 A 
ATOM     97  Cl  UNL A   1      34.326  25.419  25.479  1.00  0.00    -0.082 Cl
ATOM     98  N   UNL A   1      33.275  22.465  23.026  1.00  0.00    -0.263 NA
ENDBRANCH  90  92
ENDBRANCH  82  90
ENDBRANCH  78  80
ENDBRANCH  77  78
ENDBRANCH  76  77
ENDBRANCH  75  76
ENDBRANCH  74  75
ENDBRANCH  73  74
ENDBRANCH   1  73
TORSDOF 22
ENDMDL
MODEL 3
REMARK VINA RESULT:     -10.4      3.959      7.717
REMARK SMILES O=C(OCCOCCOCCOC(=O)[C@H]1Cc2[nH]cnc2CN1C(=O)c1ccncc1Cl)c1ccc(-c2c3nc(c(-c4cccc(S(=O)(=O)[O-])c4F)c4ccc([nH]4)c(-c4cccc(S(=O)(=O)[O-])c4F)c4nc(c(-c5cccc(S(=O)(=O)[O-])c5F)c5ccc2[nH]5)C=C4)C=C3)cc1
REMARK SMILES IDX 7 1 6 2 5 3 4 4 3 5 2 6 1 7 33 8 34 9 95 10 35 11 94 12
REMARK SMILES IDX 36 13 37 14 38 15 88 16 39 17 93 18 87 19 89 20 40 21 92 22
REMARK SMILES IDX 86 23 85 24 41 26 73 27 53 28 72 29 54 30 57 31 71 32 90 33
REMARK SMILES IDX 55 34 56 35 70 37 91 38 58 39 42 40 43 41 51 42 44 43 46 44
REMARK SMILES IDX 52 45 45 46 47 47 48 48 49 49 50 50 74 51 75 52 83 53 76 54
REMARK SMILES IDX 78 55 84 56 77 57 79 58 80 59 81 60 82 61 59 62 60 63 68 64
REMARK SMILES IDX 61 65 63 66 69 67 62 68 64 69 65 70 66 71 67 72 8 73 9 74
REMARK SMILES IDX 10 75 11 76 12 77 13 78 14 79 15 80 16 81 23 82 17 83 22 84
REMARK SMILES IDX 18 85 21 86 19 87 20 89 24 90 25 91 26 92 27 93 31 94 28 95
REMARK SMILES IDX 30 96 32 97 29 98
REMARK H PARENT 89 25 57 36 18 88
REMARK Flexibility Score: inf
ROOT
ATOM      1  C   UNL A   1      38.675  22.225  25.876  1.00  0.00     0.188 C 
ENDROOT
BRANCH   1   2
ATOM      2  O   UNL A   1      39.818  21.673  26.497  1.00  0.00    -0.376 OA
BRANCH   2   3
ATOM      3  C   UNL A   1      40.423  22.271  27.625  1.00  0.00     0.202 C 
BRANCH   3   4
ATOM      4  C   UNL A   1      41.831  21.909  28.093  1.00  0.00     0.261 C 
BRANCH   4   5
ATOM      5  O   UNL A   1      42.879  22.485  27.308  1.00  0.00    -0.460 OA
BRANCH   5   6
ATOM      6  C   UNL A   1      42.917  23.568  26.505  1.00  0.00     0.338 C 
ATOM      7  O   UNL A   1      42.960  23.375  25.290  1.00  0.00    -0.246 OA
BRANCH   6   8
ATOM      8  C   UNL A   1      43.021  24.976  26.986  1.00  0.00     0.060 A 
ATOM      9  C   UNL A   1      43.885  25.448  27.975  1.00  0.00     0.016 A 
ATOM     10  C   UNL A   1      42.120  25.889  26.397  1.00  0.00     0.016 A 
ATOM     11  C   UNL A   1      43.718  26.713  28.508  1.00  0.00     0.010 A 
ATOM     12  C   UNL A   1      41.983  27.179  26.892  1.00  0.00     0.010 A 
ATOM     13  C   UNL A   1      42.722  27.544  28.008  1.00  0.00    -0.014 A 
BRANCH  13  14
ATOM     14  C   UNL A   1      42.490  28.781  28.735  1.00  0.00     0.031 A 
ATOM     15  C   UNL A   1      43.436  29.886  28.448  1.00  0.00     0.074 A 
ATOM     16  C   UNL A   1      41.474  28.892  29.611  1.00  0.00     0.049 A 
ATOM     17  N   UNL A   1      44.278  30.447  29.255  1.00  0.00    -0.248 NA
ATOM     18  C   UNL A   1      43.550  30.328  27.053  1.00  0.00     0.031 C 
ATOM     19  C   UNL A   1      40.352  27.966  29.787  1.00  0.00     0.029 A 
ATOM     20  N   UNL A   1      41.153  29.937  30.426  1.00  0.00    -0.354 N 
ATOM     21  C   UNL A   1      44.857  31.483  28.522  1.00  0.00     0.074 A 
ATOM     22  C   UNL A   1      44.522  31.234  27.146  1.00  0.00     0.031 C 
ATOM     23  C   UNL A   1      39.354  28.608  30.428  1.00  0.00     0.029 A 
ATOM     24  C   UNL A   1      39.820  29.928  30.814  1.00  0.00     0.049 A 
ATOM     25  H   UNL A   1      41.798  30.625  30.709  1.00  0.00     0.167 HD
ATOM     26  C   UNL A   1      45.331  32.604  29.136  1.00  0.00     0.034 A 
ATOM     27  C   UNL A   1      39.119  30.972  31.312  1.00  0.00     0.034 A 
ATOM     28  C   UNL A   1      45.595  32.367  30.536  1.00  0.00     0.049 A 
ATOM     29  C   UNL A   1      40.088  31.953  31.848  1.00  0.00     0.074 A 
ATOM     30  C   UNL A   1      46.383  31.495  31.261  1.00  0.00     0.029 A 
ATOM     31  N   UNL A   1      44.724  32.924  31.441  1.00  0.00    -0.354 N 
ATOM     32  N   UNL A   1      40.827  31.747  32.903  1.00  0.00    -0.248 NA
ATOM     33  C   UNL A   1      40.521  33.042  30.988  1.00  0.00     0.031 C 
ATOM     34  C   UNL A   1      45.661  31.250  32.467  1.00  0.00     0.029 A 
ATOM     35  C   UNL A   1      44.489  32.006  32.423  1.00  0.00     0.049 A 
ATOM     36  H   UNL A   1      44.337  33.827  31.389  1.00  0.00     0.167 HD
ATOM     37  C   UNL A   1      42.036  32.362  32.607  1.00  0.00     0.074 A 
ATOM     38  C   UNL A   1      41.740  33.254  31.491  1.00  0.00     0.031 C 
ATOM     39  C   UNL A   1      43.215  31.868  33.095  1.00  0.00     0.034 A 
BRANCH  26  40
ATOM     40  C   UNL A   1      45.135  34.021  28.606  1.00  0.00     0.023 A 
ATOM     41  C   UNL A   1      46.239  34.902  28.728  1.00  0.00     0.012 A 
ATOM     42  C   UNL A   1      43.884  34.616  28.327  1.00  0.00     0.148 A 
ATOM     43  C   UNL A   1      46.077  36.293  28.728  1.00  0.00     0.002 A 
ATOM     44  C   UNL A   1      43.737  35.998  28.271  1.00  0.00     0.091 A 
ATOM     45  F   UNL A   1      42.787  33.870  28.212  1.00  0.00    -0.205 F 
ATOM     46  C   UNL A   1      44.820  36.842  28.515  1.00  0.00     0.022 A 
BRANCH  44  47
ATOM     47  S   UNL A   1      42.137  36.761  27.968  1.00  0.00     0.127 S 
ATOM     48  O   UNL A   1      42.430  38.162  28.245  1.00  0.00    -0.237 OA
ATOM     49  O   UNL A   1      41.914  36.435  26.560  1.00  0.00    -0.237 OA
ATOM     50  O   UNL A   1      41.209  36.106  28.885  1.00  0.00    -0.744 OA
ENDBRANCH  44  47
ENDBRANCH  26  40
BRANCH  27  51
ATOM     51  C   UNL A   1      37.684  31.282  31.135  1.00  0.00     0.023 A 
ATOM     52  C   UNL A   1      36.889  31.566  32.260  1.00  0.00     0.012 A 
ATOM     53  C   UNL A   1      37.139  31.531  29.853  1.00  0.00     0.148 A 
ATOM     54  C   UNL A   1      35.603  32.100  32.117  1.00  0.00     0.002 A 
ATOM     55  C   UNL A   1      35.851  32.038  29.715  1.00  0.00     0.091 A 
ATOM     56  F   UNL A   1      37.913  31.364  28.773  1.00  0.00    -0.205 F 
ATOM     57  C   UNL A   1      35.084  32.336  30.846  1.00  0.00     0.022 A 
BRANCH  55  58
ATOM     58  S   UNL A   1      35.120  32.347  28.101  1.00  0.00     0.127 S 
ATOM     59  O   UNL A   1      35.326  31.067  27.422  1.00  0.00    -0.237 OA
ATOM     60  O   UNL A   1      33.733  32.640  28.447  1.00  0.00    -0.237 OA
ATOM     61  O   UNL A   1      35.883  33.451  27.530  1.00  0.00    -0.744 OA
ENDBRANCH  55  58
ENDBRANCH  27  51
BRANCH  39  62
ATOM     62  C   UNL A   1      43.163  30.867  34.220  1.00  0.00     0.023 A 
ATOM     63  C   UNL A   1      43.233  31.260  35.572  1.00  0.00     0.012 A 
ATOM     64  C   UNL A   1      42.862  29.527  33.916  1.00  0.00     0.148 A 
ATOM     65  C   UNL A   1      43.041  30.332  36.597  1.00  0.00     0.002 A 
ATOM     66  C   UNL A   1      42.623  28.618  34.939  1.00  0.00     0.091 A 
ATOM     67  F   UNL A   1      42.789  29.166  32.625  1.00  0.00    -0.205 F 
ATOM     68  C   UNL A   1      42.722  29.014  36.282  1.00  0.00     0.022 A 
BRANCH  66  69
ATOM     69  S   UNL A   1      42.073  26.944  34.594  1.00  0.00     0.127 S 
ATOM     70  O   UNL A   1      43.127  26.449  33.712  1.00  0.00    -0.237 OA
ATOM     71  O   UNL A   1      42.053  26.334  35.924  1.00  0.00    -0.237 OA
ATOM     72  O   UNL A   1      40.754  27.079  33.988  1.00  0.00    -0.744 OA
ENDBRANCH  66  69
ENDBRANCH  39  62
ENDBRANCH  13  14
ENDBRANCH   6   8
ENDBRANCH   5   6
ENDBRANCH   4   5
ENDBRANCH   3   4
ENDBRANCH   2   3
ENDBRANCH   1   2
BRANCH   1  73
ATOM     73  C   UNL A   1      38.242  23.690  26.059  1.00  0.00     0.188 C 
BRANCH  73  74
ATOM     74  O   UNL A   1      36.959  24.148  25.700  1.00  0.00    -0.376 OA
BRANCH  74  75
ATOM     75  C   UNL A   1      36.282  23.685  24.551  1.00  0.00     0.202 C 
BRANCH  75  76
ATOM     76  C   UNL A   1      34.891  24.181  24.143  1.00  0.00     0.261 C 
BRANCH  76  77
ATOM     77  O   UNL A   1      34.816  24.704  22.820  1.00  0.00    -0.462 OA
BRANCH  77  78
ATOM     78  C   UNL A   1      33.884  25.677  22.583  1.00  0.00     0.329 C 
ATOM     79  O   UNL A   1      33.637  26.154  21.487  1.00  0.00    -0.250 OA
BRANCH  78  80
ATOM     80  C   UNL A   1      33.326  26.159  23.930  1.00  0.00     0.201 C 
ATOM     81  C   UNL A   1      33.625  27.699  23.808  1.00  0.00     0.093 C 
ATOM     82  N   UNL A   1      31.911  25.888  24.399  1.00  0.00    -0.318 N 
ATOM     83  C   UNL A   1      32.989  28.437  24.907  1.00  0.00     0.042 A 
ATOM     84  C   UNL A   1      31.547  26.528  25.699  1.00  0.00     0.179 C 
ATOM     85  N   UNL A   1      33.143  29.744  25.261  1.00  0.00    -0.348 N 
ATOM     86  C   UNL A   1      32.038  27.925  25.748  1.00  0.00     0.081 A 
ATOM     87  C   UNL A   1      32.294  29.965  26.312  1.00  0.00     0.197 A 
ATOM     88  H   UNL A   1      33.745  30.399  24.842  1.00  0.00     0.167 HD
ATOM     89  N   UNL A   1      31.615  28.883  26.628  1.00  0.00    -0.240 NA
BRANCH  82  90
ATOM     90  C   UNL A   1      31.073  24.801  24.115  1.00  0.00     0.256 C 
ATOM     91  O   UNL A   1      29.900  24.934  23.764  1.00  0.00    -0.269 OA
BRANCH  90  92
ATOM     92  C   UNL A   1      31.518  23.409  24.180  1.00  0.00     0.061 A 
ATOM     93  C   UNL A   1      31.797  22.741  22.990  1.00  0.00     0.035 A 
ATOM     94  C   UNL A   1      31.443  22.696  25.378  1.00  0.00     0.072 A 
ATOM     95  C   UNL A   1      32.131  21.402  23.060  1.00  0.00     0.112 A 
ATOM     96  C   UNL A   1      31.789  21.353  25.340  1.00  0.00     0.132 A 
ATOM     97  Cl  UNL A   1      30.957  23.406  26.870  1.00  0.00    -0.082 Cl
ATOM     98  N   UNL A   1      32.150  20.695  24.209  1.00  0.00    -0.263 NA
ENDBRANCH  90  92
ENDBRANCH  82  90
ENDBRANCH  78  80
ENDBRANCH  77  78
ENDBRANCH  76  77
ENDBRANCH  75  76
ENDBRANCH  74  75
ENDBRANCH  73  74
ENDBRANCH   1  73
TORSDOF 22
ENDMDL
