MODEL 1
REMARK VINA RESULT:     -10.3      0.000      0.000
REMARK SMILES CC(C)[C@@H]1CN(C(=O)Cc2ccsc2)C[C@H]1C(=O)OCCOCCOCCOC(=O)c1ccc(-c2c3nc(c(-c4cccc(S(=O)(=O)[O-])c4F)c4ccc([nH]4)c(-c4cccc(S(=O)(=O)[O-])c4F)c4nc(c(-c5cccc(S(=O)(=O)[O-])c5F)c5ccc2[nH]5)C=C4)C=C3)cc1
REMARK SMILES IDX 23 1 22 2 21 3 20 4 19 5 17 6 18 7 16 8 4 9 5 10 6 11 15 12
REMARK SMILES IDX 2 13 1 14 3 15 7 16 8 17 9 18 10 19 11 20 14 21 12 22 13 23
REMARK SMILES IDX 24 24 25 25 26 26 27 27 28 28 29 29 30 30 31 31 32 32 93 33
REMARK SMILES IDX 33 34 92 35 34 36 35 37 36 38 86 39 37 40 91 41 85 42 87 43
REMARK SMILES IDX 38 44 90 45 84 46 83 47 39 49 71 50 51 51 70 52 52 53 55 54
REMARK SMILES IDX 69 55 88 56 53 57 54 58 68 60 89 61 56 62 40 63 41 64 49 65
REMARK SMILES IDX 42 66 44 67 50 68 43 69 45 70 46 71 47 72 48 73 72 74 73 75
REMARK SMILES IDX 81 76 74 77 76 78 82 79 75 80 77 81 78 82 79 83 80 84 57 85
REMARK SMILES IDX 58 86 66 87 59 88 61 89 67 90 60 91 62 92 63 93 64 94 65 95
REMARK H PARENT 87 48 55 59
REMARK Flexibility Score: inf
ROOT
ATOM      1  C   UNL A   1      33.695  25.981  25.724  1.00  0.00     0.188 C 
ENDROOT
BRANCH   1   2
ATOM      2  O   UNL A   1      34.354  27.144  26.210  1.00  0.00    -0.376 OA
BRANCH   2   3
ATOM      3  C   UNL A   1      33.607  28.150  26.874  1.00  0.00     0.202 C 
BRANCH   3   4
ATOM      4  C   UNL A   1      33.797  29.591  26.394  1.00  0.00     0.261 C 
BRANCH   4   5
ATOM      5  O   UNL A   1      32.709  30.141  25.612  1.00  0.00    -0.463 OA
BRANCH   5   6
ATOM      6  C   UNL A   1      32.443  29.511  24.434  1.00  0.00     0.311 C 
ATOM      7  O   UNL A   1      33.274  29.325  23.553  1.00  0.00    -0.252 OA
BRANCH   6   8
ATOM      8  C   UNL A   1      30.974  29.193  24.206  1.00  0.00     0.124 C 
ATOM      9  C   UNL A   1      30.291  29.408  22.828  1.00  0.00     0.027 C 
ATOM     10  C   UNL A   1      29.280  28.249  22.773  1.00  0.00     0.124 C 
ATOM     11  N   UNL A   1      29.776  27.218  23.649  1.00  0.00    -0.341 N 
ATOM     12  C   UNL A   1      30.848  27.696  24.489  1.00  0.00     0.135 C 
BRANCH   9  13
ATOM     13  C   UNL A   1      29.475  30.722  22.571  1.00  0.00    -0.012 C 
ATOM     14  C   UNL A   1      28.250  30.572  21.678  1.00  0.00     0.008 C 
ATOM     15  C   UNL A   1      29.160  31.463  23.876  1.00  0.00     0.008 C 
ENDBRANCH   9  13
BRANCH  11  16
ATOM     16  C   UNL A   1      29.224  25.969  23.845  1.00  0.00     0.227 C 
ATOM     17  O   UNL A   1      28.093  25.828  24.314  1.00  0.00    -0.275 OA
BRANCH  16  18
ATOM     18  C   UNL A   1      30.061  24.762  23.453  1.00  0.00     0.136 C 
BRANCH  18  19
ATOM     19  C   UNL A   1      30.653  24.000  24.614  1.00  0.00    -0.028 A 
ATOM     20  C   UNL A   1      30.437  24.375  25.984  1.00  0.00     0.016 A 
ATOM     21  C   UNL A   1      31.460  22.875  24.549  1.00  0.00     0.069 A 
ATOM     22  C   UNL A   1      31.091  23.556  26.876  1.00  0.00     0.065 A 
ATOM     23  S   UNL A   1      31.972  22.326  26.086  1.00  0.00    -0.152 S 
ENDBRANCH  18  19
ENDBRANCH  16  18
ENDBRANCH  11  16
ENDBRANCH   6   8
ENDBRANCH   5   6
ENDBRANCH   4   5
ENDBRANCH   3   4
ENDBRANCH   2   3
ENDBRANCH   1   2
BRANCH   1  24
ATOM     24  C   UNL A   1      34.390  25.129  24.660  1.00  0.00     0.188 C 
BRANCH  24  25
ATOM     25  O   UNL A   1      35.141  24.049  25.193  1.00  0.00    -0.376 OA
BRANCH  25  26
ATOM     26  C   UNL A   1      35.274  22.921  24.341  1.00  0.00     0.202 C 
BRANCH  26  27
ATOM     27  C   UNL A   1      36.110  21.829  25.014  1.00  0.00     0.261 C 
BRANCH  27  28
ATOM     28  O   UNL A   1      37.495  21.834  24.620  1.00  0.00    -0.460 OA
BRANCH  28  29
ATOM     29  C   UNL A   1      38.368  21.339  25.521  1.00  0.00     0.338 C 
ATOM     30  O   UNL A   1      38.679  20.160  25.674  1.00  0.00    -0.246 OA
BRANCH  29  31
ATOM     31  C   UNL A   1      39.076  22.466  26.147  1.00  0.00     0.060 A 
ATOM     32  C   UNL A   1      38.563  23.754  25.964  1.00  0.00     0.016 A 
ATOM     33  C   UNL A   1      40.234  22.267  26.896  1.00  0.00     0.016 A 
ATOM     34  C   UNL A   1      39.202  24.857  26.525  1.00  0.00     0.010 A 
ATOM     35  C   UNL A   1      40.893  23.375  27.434  1.00  0.00     0.010 A 
ATOM     36  C   UNL A   1      40.392  24.676  27.236  1.00  0.00    -0.014 A 
BRANCH  36  37
ATOM     37  C   UNL A   1      41.216  25.846  27.622  1.00  0.00     0.031 A 
ATOM     38  C   UNL A   1      40.572  26.928  28.441  1.00  0.00     0.074 A 
ATOM     39  C   UNL A   1      42.504  25.955  27.250  1.00  0.00     0.049 A 
ATOM     40  N   UNL A   1      41.023  28.113  28.752  1.00  0.00    -0.248 NA
ATOM     41  C   UNL A   1      39.232  26.630  28.978  1.00  0.00     0.031 C 
ATOM     42  C   UNL A   1      43.263  24.946  26.515  1.00  0.00     0.029 A 
ATOM     43  N   UNL A   1      43.391  26.990  27.419  1.00  0.00    -0.354 N 
ATOM     44  C   UNL A   1      40.007  28.724  29.475  1.00  0.00     0.074 A 
ATOM     45  C   UNL A   1      38.919  27.774  29.567  1.00  0.00     0.031 C 
ATOM     46  C   UNL A   1      44.495  25.424  26.269  1.00  0.00     0.029 A 
ATOM     47  C   UNL A   1      44.594  26.789  26.784  1.00  0.00     0.049 A 
ATOM     48  H   UNL A   1      43.186  27.797  27.945  1.00  0.00     0.167 HD
ATOM     49  C   UNL A   1      39.981  29.964  30.016  1.00  0.00     0.034 A 
ATOM     50  C   UNL A   1      45.634  27.628  26.603  1.00  0.00     0.034 A 
ATOM     51  C   UNL A   1      41.072  30.895  29.947  1.00  0.00     0.049 A 
ATOM     52  C   UNL A   1      45.560  29.026  27.165  1.00  0.00     0.074 A 
ATOM     53  C   UNL A   1      41.147  32.175  30.468  1.00  0.00     0.029 A 
ATOM     54  N   UNL A   1      42.281  30.646  29.317  1.00  0.00    -0.354 N 
ATOM     55  N   UNL A   1      44.613  29.579  27.884  1.00  0.00    -0.248 NA
ATOM     56  C   UNL A   1      46.705  29.910  26.903  1.00  0.00     0.031 C 
ATOM     57  C   UNL A   1      42.398  32.706  30.138  1.00  0.00     0.029 A 
ATOM     58  C   UNL A   1      43.109  31.749  29.432  1.00  0.00     0.049 A 
ATOM     59  H   UNL A   1      42.517  29.809  28.856  1.00  0.00     0.167 HD
ATOM     60  C   UNL A   1      45.062  30.861  28.187  1.00  0.00     0.074 A 
ATOM     61  C   UNL A   1      46.373  30.997  27.588  1.00  0.00     0.031 C 
ATOM     62  C   UNL A   1      44.438  31.844  28.884  1.00  0.00     0.034 A 
BRANCH  49  63
ATOM     63  C   UNL A   1      38.725  30.379  30.733  1.00  0.00     0.023 A 
ATOM     64  C   UNL A   1      38.557  30.054  32.094  1.00  0.00     0.012 A 
ATOM     65  C   UNL A   1      37.725  31.112  30.066  1.00  0.00     0.148 A 
ATOM     66  C   UNL A   1      37.396  30.425  32.772  1.00  0.00     0.002 A 
ATOM     67  C   UNL A   1      36.589  31.513  30.759  1.00  0.00     0.091 A 
ATOM     68  F   UNL A   1      37.891  31.384  28.763  1.00  0.00    -0.205 F 
ATOM     69  C   UNL A   1      36.418  31.162  32.108  1.00  0.00     0.022 A 
BRANCH  67  70
ATOM     70  S   UNL A   1      35.308  32.522  30.006  1.00  0.00     0.127 S 
ATOM     71  O   UNL A   1      34.382  32.706  31.123  1.00  0.00    -0.237 OA
ATOM     72  O   UNL A   1      36.047  33.726  29.622  1.00  0.00    -0.237 OA
ATOM     73  O   UNL A   1      34.796  31.745  28.886  1.00  0.00    -0.744 OA
ENDBRANCH  67  70
ENDBRANCH  49  63
BRANCH  50  74
ATOM     74  C   UNL A   1      46.844  27.172  25.860  1.00  0.00     0.023 A 
ATOM     75  C   UNL A   1      47.765  26.316  26.495  1.00  0.00     0.012 A 
ATOM     76  C   UNL A   1      47.087  27.576  24.532  1.00  0.00     0.148 A 
ATOM     77  C   UNL A   1      48.915  25.888  25.830  1.00  0.00     0.002 A 
ATOM     78  C   UNL A   1      48.207  27.103  23.857  1.00  0.00     0.091 A 
ATOM     79  F   UNL A   1      46.215  28.414  23.954  1.00  0.00    -0.205 F 
ATOM     80  C   UNL A   1      49.131  26.272  24.509  1.00  0.00     0.022 A 
BRANCH  78  81
ATOM     81  S   UNL A   1      48.503  27.452  22.120  1.00  0.00     0.127 S 
ATOM     82  O   UNL A   1      47.304  28.201  21.756  1.00  0.00    -0.237 OA
ATOM     83  O   UNL A   1      49.731  28.245  22.175  1.00  0.00    -0.237 OA
ATOM     84  O   UNL A   1      48.656  26.152  21.480  1.00  0.00    -0.744 OA
ENDBRANCH  78  81
ENDBRANCH  50  74
BRANCH  62  85
ATOM     85  C   UNL A   1      45.174  33.143  29.082  1.00  0.00     0.023 A 
ATOM     86  C   UNL A   1      45.994  33.317  30.214  1.00  0.00     0.012 A 
ATOM     87  C   UNL A   1      45.130  34.151  28.098  1.00  0.00     0.148 A 
ATOM     88  C   UNL A   1      46.742  34.483  30.375  1.00  0.00     0.002 A 
ATOM     89  C   UNL A   1      45.913  35.291  28.242  1.00  0.00     0.091 A 
ATOM     90  F   UNL A   1      44.329  33.973  27.037  1.00  0.00    -0.205 F 
ATOM     91  C   UNL A   1      46.712  35.463  29.383  1.00  0.00     0.022 A 
BRANCH  89  92
ATOM     92  S   UNL A   1      46.010  36.559  26.973  1.00  0.00     0.127 S 
ATOM     93  O   UNL A   1      44.644  37.079  26.966  1.00  0.00    -0.237 OA
ATOM     94  O   UNL A   1      47.009  37.475  27.524  1.00  0.00    -0.237 OA
ATOM     95  O   UNL A   1      46.426  35.877  25.755  1.00  0.00    -0.744 OA
ENDBRANCH  89  92
ENDBRANCH  62  85
ENDBRANCH  36  37
ENDBRANCH  29  31
ENDBRANCH  28  29
ENDBRANCH  27  28
ENDBRANCH  26  27
ENDBRANCH  25  26
ENDBRANCH  24  25
ENDBRANCH   1  24
TORSDOF 24
ENDMDL
MODEL 2
REMARK VINA RESULT:      -8.7      4.400      9.881
REMARK SMILES CC(C)[C@@H]1CN(C(=O)Cc2ccsc2)C[C@H]1C(=O)OCCOCCOCCOC(=O)c1ccc(-c2c3nc(c(-c4cccc(S(=O)(=O)[O-])c4F)c4ccc([nH]4)c(-c4cccc(S(=O)(=O)[O-])c4F)c4nc(c(-c5cccc(S(=O)(=O)[O-])c5F)c5ccc2[nH]5)C=C4)C=C3)cc1
REMARK SMILES IDX 23 1 22 2 21 3 20 4 19 5 17 6 18 7 16 8 4 9 5 10 6 11 15 12
REMARK SMILES IDX 2 13 1 14 3 15 7 16 8 17 9 18 10 19 11 20 14 21 12 22 13 23
REMARK SMILES IDX 24 24 25 25 26 26 27 27 28 28 29 29 30 30 31 31 32 32 93 33
REMARK SMILES IDX 33 34 92 35 34 36 35 37 36 38 86 39 37 40 91 41 85 42 87 43
REMARK SMILES IDX 38 44 90 45 84 46 83 47 39 49 71 50 51 51 70 52 52 53 55 54
REMARK SMILES IDX 69 55 88 56 53 57 54 58 68 60 89 61 56 62 40 63 41 64 49 65
REMARK SMILES IDX 42 66 44 67 50 68 43 69 45 70 46 71 47 72 48 73 72 74 73 75
REMARK SMILES IDX 81 76 74 77 76 78 82 79 75 80 77 81 78 82 79 83 80 84 57 85
REMARK SMILES IDX 58 86 66 87 59 88 61 89 67 90 60 91 62 92 63 93 64 94 65 95
REMARK H PARENT 87 48 55 59
REMARK Flexibility Score: inf
ROOT
ATOM      1  C   UNL A   1      33.483  31.090  27.289  1.00  0.00     0.188 C 
ENDROOT
BRANCH   1   2
ATOM      2  O   UNL A   1      33.701  29.787  26.766  1.00  0.00    -0.376 OA
BRANCH   2   3
ATOM      3  C   UNL A   1      33.022  29.377  25.590  1.00  0.00     0.202 C 
BRANCH   3   4
ATOM      4  C   UNL A   1      33.787  28.474  24.620  1.00  0.00     0.261 C 
BRANCH   4   5
ATOM      5  O   UNL A   1      33.280  28.438  23.264  1.00  0.00    -0.463 OA
BRANCH   5   6
ATOM      6  C   UNL A   1      33.360  27.236  22.629  1.00  0.00     0.311 C 
ATOM      7  O   UNL A   1      33.890  27.071  21.536  1.00  0.00    -0.252 OA
BRANCH   6   8
ATOM      8  C   UNL A   1      32.586  26.113  23.301  1.00  0.00     0.124 C 
ATOM      9  C   UNL A   1      31.099  25.821  22.961  1.00  0.00     0.027 C 
ATOM     10  C   UNL A   1      31.022  24.290  23.092  1.00  0.00     0.124 C 
ATOM     11  N   UNL A   1      32.356  23.784  22.892  1.00  0.00    -0.341 N 
ATOM     12  C   UNL A   1      33.342  24.838  22.932  1.00  0.00     0.135 C 
BRANCH   9  13
ATOM     13  C   UNL A   1      29.971  26.403  23.880  1.00  0.00    -0.012 C 
ATOM     14  C   UNL A   1      30.249  26.352  25.377  1.00  0.00     0.008 C 
ATOM     15  C   UNL A   1      29.518  27.794  23.418  1.00  0.00     0.008 C 
ENDBRANCH   9  13
BRANCH  11  16
ATOM     16  C   UNL A   1      32.736  22.459  22.847  1.00  0.00     0.227 C 
ATOM     17  O   UNL A   1      32.111  21.629  22.185  1.00  0.00    -0.275 OA
BRANCH  16  18
ATOM     18  C   UNL A   1      33.966  22.053  23.643  1.00  0.00     0.136 C 
BRANCH  18  19
ATOM     19  C   UNL A   1      33.821  22.180  25.140  1.00  0.00    -0.028 A 
ATOM     20  C   UNL A   1      32.631  21.786  25.843  1.00  0.00     0.016 A 
ATOM     21  C   UNL A   1      34.761  22.671  26.032  1.00  0.00     0.069 A 
ATOM     22  C   UNL A   1      32.709  22.012  27.199  1.00  0.00     0.065 A 
ATOM     23  S   UNL A   1      34.205  22.697  27.649  1.00  0.00    -0.152 S 
ENDBRANCH  18  19
ENDBRANCH  16  18
ENDBRANCH  11  16
ENDBRANCH   6   8
ENDBRANCH   5   6
ENDBRANCH   4   5
ENDBRANCH   3   4
ENDBRANCH   2   3
ENDBRANCH   1   2
BRANCH   1  24
ATOM     24  C   UNL A   1      34.521  31.688  28.241  1.00  0.00     0.188 C 
BRANCH  24  25
ATOM     25  O   UNL A   1      35.863  31.481  27.827  1.00  0.00    -0.376 OA
BRANCH  25  26
ATOM     26  C   UNL A   1      36.783  31.186  28.868  1.00  0.00     0.202 C 
BRANCH  26  27
ATOM     27  C   UNL A   1      36.506  32.053  30.098  1.00  0.00     0.261 C 
BRANCH  27  28
ATOM     28  O   UNL A   1      37.678  32.332  30.887  1.00  0.00    -0.460 OA
BRANCH  28  29
ATOM     29  C   UNL A   1      37.860  33.619  31.244  1.00  0.00     0.338 C 
ATOM     30  O   UNL A   1      37.214  34.251  32.077  1.00  0.00    -0.246 OA
BRANCH  29  31
ATOM     31  C   UNL A   1      39.115  34.093  30.642  1.00  0.00     0.060 A 
ATOM     32  C   UNL A   1      39.087  34.544  29.318  1.00  0.00     0.016 A 
ATOM     33  C   UNL A   1      40.309  34.088  31.361  1.00  0.00     0.016 A 
ATOM     34  C   UNL A   1      40.251  34.991  28.698  1.00  0.00     0.010 A 
ATOM     35  C   UNL A   1      41.483  34.508  30.730  1.00  0.00     0.010 A 
ATOM     36  C   UNL A   1      41.464  34.944  29.392  1.00  0.00    -0.014 A 
BRANCH  36  37
ATOM     37  C   UNL A   1      42.742  35.174  28.677  1.00  0.00     0.031 A 
ATOM     38  C   UNL A   1      43.649  33.999  28.447  1.00  0.00     0.074 A 
ATOM     39  C   UNL A   1      43.098  36.398  28.247  1.00  0.00     0.049 A 
ATOM     40  N   UNL A   1      44.878  33.973  28.008  1.00  0.00    -0.248 NA
ATOM     41  C   UNL A   1      43.089  32.672  28.761  1.00  0.00     0.031 C 
ATOM     42  C   UNL A   1      42.279  37.604  28.345  1.00  0.00     0.029 A 
ATOM     43  N   UNL A   1      44.265  36.827  27.663  1.00  0.00    -0.354 N 
ATOM     44  C   UNL A   1      45.260  32.638  28.042  1.00  0.00     0.074 A 
ATOM     45  C   UNL A   1      44.127  31.882  28.532  1.00  0.00     0.031 C 
ATOM     46  C   UNL A   1      42.981  38.645  27.867  1.00  0.00     0.029 A 
ATOM     47  C   UNL A   1      44.314  38.189  27.477  1.00  0.00     0.049 A 
ATOM     48  H   UNL A   1      44.995  36.219  27.403  1.00  0.00     0.167 HD
ATOM     49  C   UNL A   1      46.446  32.089  27.694  1.00  0.00     0.034 A 
ATOM     50  C   UNL A   1      45.334  38.977  27.079  1.00  0.00     0.034 A 
ATOM     51  C   UNL A   1      47.560  32.836  27.181  1.00  0.00     0.049 A 
ATOM     52  C   UNL A   1      46.666  38.349  26.750  1.00  0.00     0.074 A 
ATOM     53  C   UNL A   1      48.804  32.372  26.793  1.00  0.00     0.029 A 
ATOM     54  N   UNL A   1      47.563  34.209  26.983  1.00  0.00    -0.354 N 
ATOM     55  N   UNL A   1      47.004  37.082  26.743  1.00  0.00    -0.248 NA
ATOM     56  C   UNL A   1      47.753  39.260  26.361  1.00  0.00     0.031 C 
ATOM     57  C   UNL A   1      49.566  33.468  26.376  1.00  0.00     0.029 A 
ATOM     58  C   UNL A   1      48.789  34.610  26.483  1.00  0.00     0.049 A 
ATOM     59  H   UNL A   1      46.806  34.808  27.171  1.00  0.00     0.167 HD
ATOM     60  C   UNL A   1      48.329  37.042  26.319  1.00  0.00     0.074 A 
ATOM     61  C   UNL A   1      48.727  38.410  26.062  1.00  0.00     0.031 C 
ATOM     62  C   UNL A   1      49.148  35.971  26.171  1.00  0.00     0.034 A 
BRANCH  49  63
ATOM     63  C   UNL A   1      46.594  30.600  27.857  1.00  0.00     0.023 A 
ATOM     64  C   UNL A   1      46.972  30.068  29.106  1.00  0.00     0.012 A 
ATOM     65  C   UNL A   1      46.334  29.729  26.782  1.00  0.00     0.148 A 
ATOM     66  C   UNL A   1      47.121  28.692  29.274  1.00  0.00     0.002 A 
ATOM     67  C   UNL A   1      46.446  28.356  26.968  1.00  0.00     0.091 A 
ATOM     68  F   UNL A   1      46.006  30.258  25.594  1.00  0.00    -0.205 F 
ATOM     69  C   UNL A   1      46.849  27.837  28.209  1.00  0.00     0.022 A 
BRANCH  67  70
ATOM     70  S   UNL A   1      46.050  27.175  25.674  1.00  0.00     0.127 S 
ATOM     71  O   UNL A   1      46.972  27.579  24.613  1.00  0.00    -0.237 OA
ATOM     72  O   UNL A   1      46.374  25.898  26.311  1.00  0.00    -0.237 OA
ATOM     73  O   UNL A   1      44.636  27.363  25.382  1.00  0.00    -0.744 OA
ENDBRANCH  67  70
ENDBRANCH  49  63
BRANCH  50  74
ATOM     74  C   UNL A   1      45.140  40.450  26.960  1.00  0.00     0.023 A 
ATOM     75  C   UNL A   1      44.669  40.992  25.748  1.00  0.00     0.012 A 
ATOM     76  C   UNL A   1      45.414  41.318  28.037  1.00  0.00     0.148 A 
ATOM     77  C   UNL A   1      44.495  42.369  25.602  1.00  0.00     0.002 A 
ATOM     78  C   UNL A   1      45.188  42.683  27.903  1.00  0.00     0.091 A 
ATOM     79  F   UNL A   1      45.889  40.788  29.173  1.00  0.00    -0.205 F 
ATOM     80  C   UNL A   1      44.744  43.213  26.682  1.00  0.00     0.022 A 
BRANCH  78  81
ATOM     81  S   UNL A   1      45.369  43.828  29.275  1.00  0.00     0.127 S 
ATOM     82  O   UNL A   1      45.152  45.116  28.621  1.00  0.00    -0.237 OA
ATOM     83  O   UNL A   1      44.292  43.402  30.169  1.00  0.00    -0.237 OA
ATOM     84  O   UNL A   1      46.709  43.603  29.799  1.00  0.00    -0.744 OA
ENDBRANCH  78  81
ENDBRANCH  50  74
BRANCH  62  85
ATOM     85  C   UNL A   1      50.546  36.216  25.668  1.00  0.00     0.023 A 
ATOM     86  C   UNL A   1      50.797  36.238  24.282  1.00  0.00     0.012 A 
ATOM     87  C   UNL A   1      51.588  36.524  26.565  1.00  0.00     0.148 A 
ATOM     88  C   UNL A   1      52.069  36.539  23.797  1.00  0.00     0.002 A 
ATOM     89  C   UNL A   1      52.842  36.868  26.073  1.00  0.00     0.091 A 
ATOM     90  F   UNL A   1      51.333  36.480  27.881  1.00  0.00    -0.205 F 
ATOM     91  C   UNL A   1      53.087  36.867  24.691  1.00  0.00     0.022 A 
BRANCH  89  92
ATOM     92  S   UNL A   1      54.185  37.396  27.145  1.00  0.00     0.127 S 
ATOM     93  O   UNL A   1      53.774  38.756  27.489  1.00  0.00    -0.237 OA
ATOM     94  O   UNL A   1      54.099  36.436  28.247  1.00  0.00    -0.237 OA
ATOM     95  O   UNL A   1      55.399  37.292  26.348  1.00  0.00    -0.744 OA
ENDBRANCH  89  92
ENDBRANCH  62  85
ENDBRANCH  36  37
ENDBRANCH  29  31
ENDBRANCH  28  29
ENDBRANCH  27  28
ENDBRANCH  26  27
ENDBRANCH  25  26
ENDBRANCH  24  25
ENDBRANCH   1  24
TORSDOF 24
ENDMDL
MODEL 3
REMARK VINA RESULT:      -8.5      5.013      7.979
REMARK SMILES CC(C)[C@@H]1CN(C(=O)Cc2ccsc2)C[C@H]1C(=O)OCCOCCOCCOC(=O)c1ccc(-c2c3nc(c(-c4cccc(S(=O)(=O)[O-])c4F)c4ccc([nH]4)c(-c4cccc(S(=O)(=O)[O-])c4F)c4nc(c(-c5cccc(S(=O)(=O)[O-])c5F)c5ccc2[nH]5)C=C4)C=C3)cc1
REMARK SMILES IDX 23 1 22 2 21 3 20 4 19 5 17 6 18 7 16 8 4 9 5 10 6 11 15 12
REMARK SMILES IDX 2 13 1 14 3 15 7 16 8 17 9 18 10 19 11 20 14 21 12 22 13 23
REMARK SMILES IDX 24 24 25 25 26 26 27 27 28 28 29 29 30 30 31 31 32 32 93 33
REMARK SMILES IDX 33 34 92 35 34 36 35 37 36 38 86 39 37 40 91 41 85 42 87 43
REMARK SMILES IDX 38 44 90 45 84 46 83 47 39 49 71 50 51 51 70 52 52 53 55 54
REMARK SMILES IDX 69 55 88 56 53 57 54 58 68 60 89 61 56 62 40 63 41 64 49 65
REMARK SMILES IDX 42 66 44 67 50 68 43 69 45 70 46 71 47 72 48 73 72 74 73 75
REMARK SMILES IDX 81 76 74 77 76 78 82 79 75 80 77 81 78 82 79 83 80 84 57 85
REMARK SMILES IDX 58 86 66 87 59 88 61 89 67 90 60 91 62 92 63 93 64 94 65 95
REMARK H PARENT 87 48 55 59
REMARK Flexibility Score: inf
ROOT
ATOM      1  C   UNL A   1      32.015  30.225  27.181  1.00  0.00     0.188 C 
ENDROOT
BRANCH   1   2
ATOM      2  O   UNL A   1      31.722  29.064  26.415  1.00  0.00    -0.376 OA
BRANCH   2   3
ATOM      3  C   UNL A   1      31.481  27.830  27.072  1.00  0.00     0.202 C 
BRANCH   3   4
ATOM      4  C   UNL A   1      32.086  26.574  26.441  1.00  0.00     0.261 C 
BRANCH   4   5
ATOM      5  O   UNL A   1      31.141  25.546  26.058  1.00  0.00    -0.463 OA
BRANCH   5   6
ATOM      6  C   UNL A   1      30.772  25.532  24.747  1.00  0.00     0.311 C 
ATOM      7  O   UNL A   1      29.742  26.038  24.319  1.00  0.00    -0.252 OA
BRANCH   6   8
ATOM      8  C   UNL A   1      31.660  24.684  23.850  1.00  0.00     0.124 C 
ATOM      9  C   UNL A   1      33.130  25.077  23.540  1.00  0.00     0.027 C 
ATOM     10  C   UNL A   1      33.826  23.708  23.442  1.00  0.00     0.124 C 
ATOM     11  N   UNL A   1      33.033  22.778  24.205  1.00  0.00    -0.341 N 
ATOM     12  C   UNL A   1      31.743  23.328  24.549  1.00  0.00     0.135 C 
BRANCH   9  13
ATOM     13  C   UNL A   1      33.458  25.839  22.210  1.00  0.00    -0.012 C 
ATOM     14  C   UNL A   1      32.630  25.435  20.998  1.00  0.00     0.008 C 
ATOM     15  C   UNL A   1      33.490  27.358  22.416  1.00  0.00     0.008 C 
ENDBRANCH   9  13
BRANCH  11  16
ATOM     16  C   UNL A   1      33.329  21.454  24.452  1.00  0.00     0.227 C 
ATOM     17  O   UNL A   1      34.116  21.121  25.341  1.00  0.00    -0.275 OA
BRANCH  16  18
ATOM     18  C   UNL A   1      32.641  20.408  23.590  1.00  0.00     0.136 C 
BRANCH  18  19
ATOM     19  C   UNL A   1      32.814  18.985  24.063  1.00  0.00    -0.028 A 
ATOM     20  C   UNL A   1      33.155  17.906  23.176  1.00  0.00     0.016 A 
ATOM     21  C   UNL A   1      32.679  18.513  25.358  1.00  0.00     0.069 A 
ATOM     22  C   UNL A   1      33.237  16.690  23.817  1.00  0.00     0.065 A 
ATOM     23  S   UNL A   1      32.909  16.823  25.486  1.00  0.00    -0.152 S 
ENDBRANCH  18  19
ENDBRANCH  16  18
ENDBRANCH  11  16
ENDBRANCH   6   8
ENDBRANCH   5   6
ENDBRANCH   4   5
ENDBRANCH   3   4
ENDBRANCH   2   3
ENDBRANCH   1   2
BRANCH   1  24
ATOM     24  C   UNL A   1      31.770  31.602  26.559  1.00  0.00     0.188 C 
BRANCH  24  25
ATOM     25  O   UNL A   1      32.431  32.660  27.235  1.00  0.00    -0.376 OA
BRANCH  25  26
ATOM     26  C   UNL A   1      33.402  32.259  28.191  1.00  0.00     0.202 C 
BRANCH  26  27
ATOM     27  C   UNL A   1      34.781  32.816  27.829  1.00  0.00     0.261 C 
BRANCH  27  28
ATOM     28  O   UNL A   1      35.158  33.974  28.596  1.00  0.00    -0.460 OA
BRANCH  28  29
ATOM     29  C   UNL A   1      35.364  33.772  29.913  1.00  0.00     0.338 C 
ATOM     30  O   UNL A   1      34.634  34.123  30.836  1.00  0.00    -0.246 OA
BRANCH  29  31
ATOM     31  C   UNL A   1      36.499  32.849  30.067  1.00  0.00     0.060 A 
ATOM     32  C   UNL A   1      36.291  31.651  30.758  1.00  0.00     0.016 A 
ATOM     33  C   UNL A   1      37.756  33.156  29.550  1.00  0.00     0.016 A 
ATOM     34  C   UNL A   1      37.336  30.750  30.943  1.00  0.00     0.010 A 
ATOM     35  C   UNL A   1      38.813  32.267  29.761  1.00  0.00     0.010 A 
ATOM     36  C   UNL A   1      38.614  31.069  30.473  1.00  0.00    -0.014 A 
BRANCH  36  37
ATOM     37  C   UNL A   1      39.782  30.250  30.874  1.00  0.00     0.031 A 
ATOM     38  C   UNL A   1      40.503  30.614  32.140  1.00  0.00     0.074 A 
ATOM     39  C   UNL A   1      40.204  29.212  30.130  1.00  0.00     0.049 A 
ATOM     40  N   UNL A   1      41.638  30.168  32.606  1.00  0.00    -0.248 NA
ATOM     41  C   UNL A   1      39.853  31.624  32.994  1.00  0.00     0.031 C 
ATOM     42  C   UNL A   1      39.552  28.715  28.920  1.00  0.00     0.029 A 
ATOM     43  N   UNL A   1      41.307  28.407  30.276  1.00  0.00    -0.354 N 
ATOM     44  C   UNL A   1      41.867  30.877  33.779  1.00  0.00     0.074 A 
ATOM     45  C   UNL A   1      40.746  31.774  33.960  1.00  0.00     0.031 C 
ATOM     46  C   UNL A   1      40.285  27.707  28.415  1.00  0.00     0.029 A 
ATOM     47  C   UNL A   1      41.481  27.523  29.236  1.00  0.00     0.049 A 
ATOM     48  H   UNL A   1      41.913  28.457  31.050  1.00  0.00     0.167 HD
ATOM     49  C   UNL A   1      42.915  30.788  34.630  1.00  0.00     0.034 A 
ATOM     50  C   UNL A   1      42.509  26.695  28.960  1.00  0.00     0.034 A 
ATOM     51  C   UNL A   1      44.012  29.878  34.463  1.00  0.00     0.049 A 
ATOM     52  C   UNL A   1      43.693  26.654  29.893  1.00  0.00     0.074 A 
ATOM     53  C   UNL A   1      45.121  29.706  35.274  1.00  0.00     0.029 A 
ATOM     54  N   UNL A   1      44.141  28.982  33.412  1.00  0.00    -0.354 N 
ATOM     55  N   UNL A   1      43.880  27.296  31.021  1.00  0.00    -0.248 NA
ATOM     56  C   UNL A   1      44.803  25.763  29.521  1.00  0.00     0.031 C 
ATOM     57  C   UNL A   1      45.928  28.717  34.703  1.00  0.00     0.029 A 
ATOM     58  C   UNL A   1      45.312  28.257  33.550  1.00  0.00     0.049 A 
ATOM     59  H   UNL A   1      43.495  28.878  32.677  1.00  0.00     0.167 HD
ATOM     60  C   UNL A   1      45.110  26.862  31.509  1.00  0.00     0.074 A 
ATOM     61  C   UNL A   1      45.616  25.891  30.562  1.00  0.00     0.031 C 
ATOM     62  C   UNL A   1      45.769  27.247  32.631  1.00  0.00     0.034 A 
BRANCH  49  63
ATOM     63  C   UNL A   1      42.917  31.705  35.822  1.00  0.00     0.023 A 
ATOM     64  C   UNL A   1      42.355  31.270  37.039  1.00  0.00     0.012 A 
ATOM     65  C   UNL A   1      43.496  32.986  35.745  1.00  0.00     0.148 A 
ATOM     66  C   UNL A   1      42.341  32.110  38.153  1.00  0.00     0.002 A 
ATOM     67  C   UNL A   1      43.515  33.802  36.869  1.00  0.00     0.091 A 
ATOM     68  F   UNL A   1      43.998  33.392  34.568  1.00  0.00    -0.205 F 
ATOM     69  C   UNL A   1      42.929  33.370  38.071  1.00  0.00     0.022 A 
BRANCH  67  70
ATOM     70  S   UNL A   1      44.309  35.412  36.877  1.00  0.00     0.127 S 
ATOM     71  O   UNL A   1      43.517  36.138  35.885  1.00  0.00    -0.237 OA
ATOM     72  O   UNL A   1      44.106  35.851  38.259  1.00  0.00    -0.237 OA
ATOM     73  O   UNL A   1      45.700  35.173  36.517  1.00  0.00    -0.744 OA
ENDBRANCH  67  70
ENDBRANCH  49  63
BRANCH  50  74
ATOM     74  C   UNL A   1      42.467  25.827  27.749  1.00  0.00     0.023 A 
ATOM     75  C   UNL A   1      42.872  26.354  26.506  1.00  0.00     0.012 A 
ATOM     76  C   UNL A   1      42.036  24.487  27.817  1.00  0.00     0.148 A 
ATOM     77  C   UNL A   1      42.826  25.570  25.352  1.00  0.00     0.002 A 
ATOM     78  C   UNL A   1      42.044  23.696  26.673  1.00  0.00     0.091 A 
ATOM     79  F   UNL A   1      41.628  24.012  29.002  1.00  0.00    -0.205 F 
ATOM     80  C   UNL A   1      42.423  24.240  25.437  1.00  0.00     0.022 A 
BRANCH  78  81
ATOM     81  S   UNL A   1      41.653  21.943  26.712  1.00  0.00     0.127 S 
ATOM     82  O   UNL A   1      40.213  21.963  26.952  1.00  0.00    -0.237 OA
ATOM     83  O   UNL A   1      42.048  21.516  25.370  1.00  0.00    -0.237 OA
ATOM     84  O   UNL A   1      42.466  21.385  27.783  1.00  0.00    -0.744 OA
ENDBRANCH  78  81
ENDBRANCH  50  74
BRANCH  62  85
ATOM     85  C   UNL A   1      47.091  26.590  32.932  1.00  0.00     0.023 A 
ATOM     86  C   UNL A   1      47.126  25.406  33.694  1.00  0.00     0.012 A 
ATOM     87  C   UNL A   1      48.285  27.091  32.375  1.00  0.00     0.148 A 
ATOM     88  C   UNL A   1      48.332  24.743  33.917  1.00  0.00     0.002 A 
ATOM     89  C   UNL A   1      49.476  26.400  32.564  1.00  0.00     0.091 A 
ATOM     90  F   UNL A   1      48.232  28.229  31.668  1.00  0.00    -0.205 F 
ATOM     91  C   UNL A   1      49.504  25.232  33.342  1.00  0.00     0.022 A 
BRANCH  89  92
ATOM     92  S   UNL A   1      51.014  26.903  31.783  1.00  0.00     0.127 S 
ATOM     93  O   UNL A   1      51.302  28.160  32.471  1.00  0.00    -0.237 OA
ATOM     94  O   UNL A   1      51.913  25.800  32.126  1.00  0.00    -0.237 OA
ATOM     95  O   UNL A   1      50.722  27.021  30.361  1.00  0.00    -0.744 OA
ENDBRANCH  89  92
ENDBRANCH  62  85
ENDBRANCH  36  37
ENDBRANCH  29  31
ENDBRANCH  28  29
ENDBRANCH  27  28
ENDBRANCH  26  27
ENDBRANCH  25  26
ENDBRANCH  24  25
ENDBRANCH   1  24
TORSDOF 24
ENDMDL
