MODEL 1
REMARK VINA RESULT:     -12.0      0.000      0.000
REMARK SMILES O=C(OCCOCCOCCOC(=O)[C@H]1CC=CC[C@H]1C(=O)Nc1ccc(S(=O)(=O)N2CCc3ccccc32)cc1)c1ccc(-c2c3nc(c(-c4cccc(S(=O)(=O)[O-])c4F)c4ccc([nH]4)c(-c4cccc(S(=O)(=O)[O-])c4F)c4nc(c(-c5cccc(S(=O)(=O)[O-])c5F)c5ccc2[nH]5)C=C4)C=C3)cc1
REMARK SMILES IDX 8 1 7 2 6 3 5 4 4 5 3 6 2 7 1 8 42 9 43 10 104 11 44 12
REMARK SMILES IDX 103 13 45 14 46 15 47 16 97 17 48 18 102 19 96 20 98 21
REMARK SMILES IDX 49 22 101 23 95 24 94 25 50 27 82 28 62 29 81 30 63 31 66 32
REMARK SMILES IDX 80 33 99 34 64 35 65 36 79 38 100 39 67 40 51 41 52 42 60 43
REMARK SMILES IDX 53 44 55 45 61 46 54 47 56 48 57 49 58 50 59 51 83 52 84 53
REMARK SMILES IDX 92 54 85 55 87 56 93 57 86 58 88 59 89 60 90 61 91 62 68 63
REMARK SMILES IDX 69 64 77 65 70 66 72 67 78 68 71 69 73 70 74 71 75 72 76 73
REMARK SMILES IDX 9 74 10 75 11 76 12 77 13 78 14 79 15 80 16 81 20 82 17 83
REMARK SMILES IDX 19 84 18 85 21 86 22 87 23 88 24 90 25 91 41 92 26 93 40 94
REMARK SMILES IDX 27 95 28 96 29 97 30 98 31 99 32 100 39 101 33 102 34 103
REMARK SMILES IDX 38 104 35 105 37 106 36 107
REMARK H PARENT 98 26 66 37 23 89
REMARK Flexibility Score: inf
ROOT
ATOM      1  C   UNL A   1      31.050  27.112  27.056  1.00  0.00     0.188 C 
ENDROOT
BRANCH   1   2
ATOM      2  C   UNL A   1      31.718  28.644  26.413  1.00  0.00     0.188 C 
BRANCH   2   3
ATOM      3  O   UNL A   1      31.566  29.949  27.007  1.00  0.00    -0.376 OA
BRANCH   3   4
ATOM      4  C   UNL A   1      32.572  30.958  26.873  1.00  0.00     0.202 C 
BRANCH   4   5
ATOM      5  C   UNL A   1      33.826  30.924  27.744  1.00  0.00     0.261 C 
BRANCH   5   6
ATOM      6  O   UNL A   1      34.340  32.128  28.319  1.00  0.00    -0.460 OA
BRANCH   6   7
ATOM      7  C   UNL A   1      34.922  32.052  29.535  1.00  0.00     0.338 C 
ATOM      8  O   UNL A   1      34.444  32.564  30.533  1.00  0.00    -0.246 OA
BRANCH   7   9
ATOM      9  C   UNL A   1      36.116  31.162  29.527  1.00  0.00     0.060 A 
ATOM     10  C   UNL A   1      36.257  30.109  30.447  1.00  0.00     0.016 A 
ATOM     11  C   UNL A   1      37.081  31.358  28.538  1.00  0.00     0.016 A 
ATOM     12  C   UNL A   1      37.268  29.172  30.294  1.00  0.00     0.010 A 
ATOM     13  C   UNL A   1      38.188  30.510  28.481  1.00  0.00     0.010 A 
ATOM     14  C   UNL A   1      38.276  29.410  29.356  1.00  0.00    -0.014 A 
BRANCH  14  15
ATOM     15  C   UNL A   1      39.588  28.815  29.681  1.00  0.00     0.031 A 
ATOM     16  C   UNL A   1      40.243  29.458  30.870  1.00  0.00     0.074 A 
ATOM     17  C   UNL A   1      40.106  27.727  29.086  1.00  0.00     0.049 A 
ATOM     18  N   UNL A   1      41.217  29.021  31.612  1.00  0.00    -0.248 NA
ATOM     19  C   UNL A   1      39.644  30.725  31.346  1.00  0.00     0.031 C 
ATOM     20  C   UNL A   1      39.516  26.976  27.986  1.00  0.00     0.029 A 
ATOM     21  N   UNL A   1      41.272  27.052  29.341  1.00  0.00    -0.354 N 
ATOM     22  C   UNL A   1      41.313  29.934  32.652  1.00  0.00     0.074 A 
ATOM     23  C   UNL A   1      40.300  30.938  32.468  1.00  0.00     0.031 C 
ATOM     24  C   UNL A   1      40.343  25.988  27.608  1.00  0.00     0.029 A 
ATOM     25  C   UNL A   1      41.514  26.012  28.472  1.00  0.00     0.049 A 
ATOM     26  H   UNL A   1      41.881  27.290  30.076  1.00  0.00     0.167 HD
ATOM     27  C   UNL A   1      42.190  29.946  33.673  1.00  0.00     0.034 A 
ATOM     28  C   UNL A   1      42.564  25.173  28.402  1.00  0.00     0.034 A 
ATOM     29  C   UNL A   1      43.280  29.029  33.754  1.00  0.00     0.049 A 
ATOM     30  C   UNL A   1      43.618  25.301  29.470  1.00  0.00     0.074 A 
ATOM     31  C   UNL A   1      44.300  28.984  34.680  1.00  0.00     0.029 A 
ATOM     32  N   UNL A   1      43.526  28.034  32.817  1.00  0.00    -0.354 N 
ATOM     33  N   UNL A   1      43.640  26.098  30.513  1.00  0.00    -0.248 NA
ATOM     34  C   UNL A   1      44.764  24.390  29.384  1.00  0.00     0.031 C 
ATOM     35  C   UNL A   1      45.197  27.993  34.269  1.00  0.00     0.029 A 
ATOM     36  C   UNL A   1      44.700  27.382  33.126  1.00  0.00     0.049 A 
ATOM     37  H   UNL A   1      42.949  27.827  32.047  1.00  0.00     0.167 HD
ATOM     38  C   UNL A   1      44.776  25.754  31.235  1.00  0.00     0.074 A 
ATOM     39  C   UNL A   1      45.406  24.665  30.510  1.00  0.00     0.031 C 
ATOM     40  C   UNL A   1      45.261  26.280  32.386  1.00  0.00     0.034 A 
BRANCH  27  41
ATOM     41  C   UNL A   1      42.029  31.050  34.673  1.00  0.00     0.023 A 
ATOM     42  C   UNL A   1      41.107  30.915  35.733  1.00  0.00     0.012 A 
ATOM     43  C   UNL A   1      42.719  32.262  34.500  1.00  0.00     0.148 A 
ATOM     44  C   UNL A   1      40.848  31.989  36.584  1.00  0.00     0.002 A 
ATOM     45  C   UNL A   1      42.492  33.309  35.381  1.00  0.00     0.091 A 
ATOM     46  F   UNL A   1      43.542  32.384  33.450  1.00  0.00    -0.205 F 
ATOM     47  C   UNL A   1      41.545  33.182  36.413  1.00  0.00     0.022 A 
BRANCH  45  48
ATOM     48  S   UNL A   1      43.381  34.863  35.278  1.00  0.00     0.127 S 
ATOM     49  O   UNL A   1      42.996  35.509  36.532  1.00  0.00    -0.237 OA
ATOM     50  O   UNL A   1      44.771  34.410  35.226  1.00  0.00    -0.237 OA
ATOM     51  O   UNL A   1      42.908  35.522  34.069  1.00  0.00    -0.744 OA
ENDBRANCH  45  48
ENDBRANCH  27  41
BRANCH  28  52
ATOM     52  C   UNL A   1      42.652  24.127  27.340  1.00  0.00     0.023 A 
ATOM     53  C   UNL A   1      43.317  24.409  26.130  1.00  0.00     0.012 A 
ATOM     54  C   UNL A   1      42.064  22.858  27.513  1.00  0.00     0.148 A 
ATOM     55  C   UNL A   1      43.354  23.467  25.099  1.00  0.00     0.002 A 
ATOM     56  C   UNL A   1      42.146  21.906  26.501  1.00  0.00     0.091 A 
ATOM     57  F   UNL A   1      41.429  22.605  28.667  1.00  0.00    -0.205 F 
ATOM     58  C   UNL A   1      42.773  22.215  25.285  1.00  0.00     0.022 A 
BRANCH  56  59
ATOM     59  S   UNL A   1      41.522  20.232  26.689  1.00  0.00     0.127 S 
ATOM     60  O   UNL A   1      42.397  19.700  27.731  1.00  0.00    -0.237 OA
ATOM     61  O   UNL A   1      40.141  20.472  27.105  1.00  0.00    -0.237 OA
ATOM     62  O   UNL A   1      41.655  19.611  25.377  1.00  0.00    -0.744 OA
ENDBRANCH  56  59
ENDBRANCH  28  52
BRANCH  40  63
ATOM     63  C   UNL A   1      46.500  25.658  32.958  1.00  0.00     0.023 A 
ATOM     64  C   UNL A   1      46.402  24.622  33.905  1.00  0.00     0.012 A 
ATOM     65  C   UNL A   1      47.763  26.040  32.466  1.00  0.00     0.148 A 
ATOM     66  C   UNL A   1      47.551  23.995  34.381  1.00  0.00     0.002 A 
ATOM     67  C   UNL A   1      48.896  25.368  32.895  1.00  0.00     0.091 A 
ATOM     68  F   UNL A   1      47.827  27.042  31.575  1.00  0.00    -0.205 F 
ATOM     69  C   UNL A   1      48.794  24.357  33.864  1.00  0.00     0.022 A 
BRANCH  67  70
ATOM     70  S   UNL A   1      50.516  25.684  32.190  1.00  0.00     0.127 S 
ATOM     71  O   UNL A   1      51.035  26.711  33.091  1.00  0.00    -0.237 OA
ATOM     72  O   UNL A   1      51.165  24.379  32.310  1.00  0.00    -0.237 OA
ATOM     73  O   UNL A   1      50.281  26.116  30.818  1.00  0.00    -0.744 OA
ENDBRANCH  67  70
ENDBRANCH  40  63
ENDBRANCH  14  15
ENDBRANCH   7   9
ENDBRANCH   6   7
ENDBRANCH   5   6
ENDBRANCH   4   5
ENDBRANCH   3   4
ENDBRANCH   2   3
ENDBRANCH   1   2
BRANCH   1  74
ATOM     74  O   UNL A   1      31.359  25.188  26.518  1.00  0.00    -0.376 OA
BRANCH  74  75
ATOM     75  C   UNL A   1      30.901  23.685  26.807  1.00  0.00     0.202 C 
BRANCH  75  76
ATOM     76  C   UNL A   1      31.939  22.560  26.599  1.00  0.00     0.261 C 
BRANCH  76  77
ATOM     77  O   UNL A   1      33.160  22.760  27.354  1.00  0.00    -0.463 OA
BRANCH  77  78
ATOM     78  C   UNL A   1      34.295  22.428  26.687  1.00  0.00     0.310 C 
ATOM     79  O   UNL A   1      34.920  21.402  26.941  1.00  0.00    -0.252 OA
BRANCH  78  80
ATOM     80  C   UNL A   1      34.718  23.432  25.594  1.00  0.00     0.116 C 
ATOM     81  C   UNL A   1      36.147  23.941  25.945  1.00  0.00     0.043 C 
ATOM     82  C   UNL A   1      34.663  23.126  24.062  1.00  0.00     0.097 C 
ATOM     83  C   UNL A   1      37.265  23.100  25.383  1.00  0.00    -0.030 C 
ATOM     84  C   UNL A   1      35.963  22.686  23.313  1.00  0.00     0.041 C 
ATOM     85  C   UNL A   1      37.192  22.558  24.161  1.00  0.00    -0.030 C 
BRANCH  82  86
ATOM     86  C   UNL A   1      33.480  22.440  23.386  1.00  0.00     0.228 C 
ATOM     87  O   UNL A   1      33.305  21.259  23.703  1.00  0.00    -0.274 OA
ATOM     88  N   UNL A   1      32.498  22.956  22.615  1.00  0.00    -0.326 N 
ATOM     89  H   UNL A   1      32.073  22.328  21.986  1.00  0.00     0.169 HD
BRANCH  88  90
ATOM     90  C   UNL A   1      32.010  24.252  22.593  1.00  0.00     0.041 A 
ATOM     91  C   UNL A   1      30.388  24.727  23.358  1.00  0.00     0.027 A 
ATOM     92  C   UNL A   1      33.072  25.559  21.967  1.00  0.00     0.027 A 
ATOM     93  C   UNL A   1      29.983  26.476  23.529  1.00  0.00     0.024 A 
ATOM     94  C   UNL A   1      32.650  27.244  22.139  1.00  0.00     0.024 A 
ATOM     95  C   UNL A   1      31.140  27.686  22.891  1.00  0.00     0.088 A 
BRANCH  95  96
ATOM     96  S   UNL A   1      30.608  29.303  22.618  1.00  0.00     0.264 S 
ATOM     97  O   UNL A   1      31.695  30.111  23.125  1.00  0.00    -0.201 OA
ATOM     98  O   UNL A   1      30.163  29.425  21.244  1.00  0.00    -0.201 OA
BRANCH  96  99
ATOM     99  N   UNL A   1      29.184  29.227  23.712  1.00  0.00    -0.266 N 
ATOM    100  C   UNL A   1      28.115  28.311  23.138  1.00  0.00     0.140 C 
ATOM    101  C   UNL A   1      28.599  30.527  23.729  1.00  0.00     0.055 A 
ATOM    102  C   UNL A   1      27.128  29.248  22.400  1.00  0.00     0.060 C 
ATOM    103  C   UNL A   1      27.732  30.596  22.651  1.00  0.00    -0.022 A 
ATOM    104  C   UNL A   1      29.267  31.611  24.269  1.00  0.00     0.027 A 
ATOM    105  C   UNL A   1      27.796  31.715  21.849  1.00  0.00     0.006 A 
ATOM    106  C   UNL A   1      29.308  32.751  23.482  1.00  0.00     0.002 A 
ATOM    107  C   UNL A   1      28.637  32.770  22.246  1.00  0.00     0.000 A 
ENDBRANCH  96  99
ENDBRANCH  95  96
ENDBRANCH  88  90
ENDBRANCH  82  86
ENDBRANCH  78  80
ENDBRANCH  77  78
ENDBRANCH  76  77
ENDBRANCH  75  76
ENDBRANCH  74  75
ENDBRANCH   1  74
TORSDOF 24
ENDMDL
MODEL 2
REMARK VINA RESULT:     -11.5      1.807      2.063
REMARK SMILES O=C(OCCOCCOCCOC(=O)[C@H]1CC=CC[C@H]1C(=O)Nc1ccc(S(=O)(=O)N2CCc3ccccc32)cc1)c1ccc(-c2c3nc(c(-c4cccc(S(=O)(=O)[O-])c4F)c4ccc([nH]4)c(-c4cccc(S(=O)(=O)[O-])c4F)c4nc(c(-c5cccc(S(=O)(=O)[O-])c5F)c5ccc2[nH]5)C=C4)C=C3)cc1
REMARK SMILES IDX 8 1 7 2 6 3 5 4 4 5 3 6 2 7 1 8 42 9 43 10 104 11 44 12
REMARK SMILES IDX 103 13 45 14 46 15 47 16 97 17 48 18 102 19 96 20 98 21
REMARK SMILES IDX 49 22 101 23 95 24 94 25 50 27 82 28 62 29 81 30 63 31 66 32
REMARK SMILES IDX 80 33 99 34 64 35 65 36 79 38 100 39 67 40 51 41 52 42 60 43
REMARK SMILES IDX 53 44 55 45 61 46 54 47 56 48 57 49 58 50 59 51 83 52 84 53
REMARK SMILES IDX 92 54 85 55 87 56 93 57 86 58 88 59 89 60 90 61 91 62 68 63
REMARK SMILES IDX 69 64 77 65 70 66 72 67 78 68 71 69 73 70 74 71 75 72 76 73
REMARK SMILES IDX 9 74 10 75 11 76 12 77 13 78 14 79 15 80 16 81 20 82 17 83
REMARK SMILES IDX 19 84 18 85 21 86 22 87 23 88 24 90 25 91 41 92 26 93 40 94
REMARK SMILES IDX 27 95 28 96 29 97 30 98 31 99 32 100 39 101 33 102 34 103
REMARK SMILES IDX 38 104 35 105 37 106 36 107
REMARK H PARENT 98 26 66 37 23 89
REMARK Flexibility Score: inf
ROOT
ATOM      1  C   UNL A   1      31.032  27.140  27.006  1.00  0.00     0.188 C 
ENDROOT
BRANCH   1   2
ATOM      2  C   UNL A   1      31.671  28.654  26.294  1.00  0.00     0.188 C 
BRANCH   2   3
ATOM      3  O   UNL A   1      31.703  29.944  26.937  1.00  0.00    -0.376 OA
BRANCH   3   4
ATOM      4  C   UNL A   1      32.752  30.885  26.685  1.00  0.00     0.202 C 
BRANCH   4   5
ATOM      5  C   UNL A   1      34.071  30.800  27.449  1.00  0.00     0.261 C 
BRANCH   5   6
ATOM      6  O   UNL A   1      34.808  31.987  27.751  1.00  0.00    -0.460 OA
BRANCH   6   7
ATOM      7  C   UNL A   1      35.421  32.066  28.952  1.00  0.00     0.338 C 
ATOM      8  O   UNL A   1      35.036  32.799  29.847  1.00  0.00    -0.246 OA
BRANCH   7   9
ATOM      9  C   UNL A   1      36.510  31.060  29.090  1.00  0.00     0.060 A 
ATOM     10  C   UNL A   1      36.574  30.187  30.189  1.00  0.00     0.016 A 
ATOM     11  C   UNL A   1      37.451  30.958  28.063  1.00  0.00     0.016 A 
ATOM     12  C   UNL A   1      37.470  29.129  30.196  1.00  0.00     0.010 A 
ATOM     13  C   UNL A   1      38.457  29.995  28.146  1.00  0.00     0.010 A 
ATOM     14  C   UNL A   1      38.460  29.073  29.210  1.00  0.00    -0.014 A 
BRANCH  14  15
ATOM     15  C   UNL A   1      39.712  28.403  29.617  1.00  0.00     0.031 A 
ATOM     16  C   UNL A   1      40.364  29.053  30.804  1.00  0.00     0.074 A 
ATOM     17  C   UNL A   1      40.174  27.255  29.093  1.00  0.00     0.049 A 
ATOM     18  N   UNL A   1      41.274  28.585  31.605  1.00  0.00    -0.248 NA
ATOM     19  C   UNL A   1      39.839  30.380  31.198  1.00  0.00     0.031 C 
ATOM     20  C   UNL A   1      39.575  26.498  28.003  1.00  0.00     0.029 A 
ATOM     21  N   UNL A   1      41.278  26.514  29.426  1.00  0.00    -0.354 N 
ATOM     22  C   UNL A   1      41.394  29.536  32.608  1.00  0.00     0.074 A 
ATOM     23  C   UNL A   1      40.464  30.599  32.337  1.00  0.00     0.031 C 
ATOM     24  C   UNL A   1      40.344  25.437  27.704  1.00  0.00     0.029 A 
ATOM     25  C   UNL A   1      41.478  25.420  28.615  1.00  0.00     0.049 A 
ATOM     26  H   UNL A   1      41.872  26.742  30.176  1.00  0.00     0.167 HD
ATOM     27  C   UNL A   1      42.229  29.534  33.664  1.00  0.00     0.034 A 
ATOM     28  C   UNL A   1      42.467  24.507  28.627  1.00  0.00     0.034 A 
ATOM     29  C   UNL A   1      43.246  28.548  33.831  1.00  0.00     0.049 A 
ATOM     30  C   UNL A   1      43.485  24.611  29.732  1.00  0.00     0.074 A 
ATOM     31  C   UNL A   1      44.223  28.475  34.801  1.00  0.00     0.029 A 
ATOM     32  N   UNL A   1      43.457  27.496  32.950  1.00  0.00    -0.354 N 
ATOM     33  N   UNL A   1      43.523  25.452  30.739  1.00  0.00    -0.248 NA
ATOM     34  C   UNL A   1      44.565  23.618  29.734  1.00  0.00     0.031 C 
ATOM     35  C   UNL A   1      45.062  27.406  34.472  1.00  0.00     0.029 A 
ATOM     36  C   UNL A   1      44.568  26.778  33.336  1.00  0.00     0.049 A 
ATOM     37  H   UNL A   1      42.897  27.294  32.165  1.00  0.00     0.167 HD
ATOM     38  C   UNL A   1      44.602  25.063  31.523  1.00  0.00     0.074 A 
ATOM     39  C   UNL A   1      45.181  23.901  30.874  1.00  0.00     0.031 C 
ATOM     40  C   UNL A   1      45.078  25.607  32.670  1.00  0.00     0.034 A 
BRANCH  27  41
ATOM     41  C   UNL A   1      42.108  30.692  34.607  1.00  0.00     0.023 A 
ATOM     42  C   UNL A   1      41.212  30.627  35.695  1.00  0.00     0.012 A 
ATOM     43  C   UNL A   1      42.809  31.884  34.352  1.00  0.00     0.148 A 
ATOM     44  C   UNL A   1      40.989  31.748  36.494  1.00  0.00     0.002 A 
ATOM     45  C   UNL A   1      42.618  32.979  35.181  1.00  0.00     0.091 A 
ATOM     46  F   UNL A   1      43.606  31.937  33.276  1.00  0.00    -0.205 F 
ATOM     47  C   UNL A   1      41.697  32.920  36.242  1.00  0.00     0.022 A 
BRANCH  45  48
ATOM     48  S   UNL A   1      43.524  34.512  34.973  1.00  0.00     0.127 S 
ATOM     49  O   UNL A   1      43.342  34.773  33.546  1.00  0.00    -0.237 OA
ATOM     50  O   UNL A   1      42.792  35.417  35.858  1.00  0.00    -0.237 OA
ATOM     51  O   UNL A   1      44.893  34.232  35.382  1.00  0.00    -0.744 OA
ENDBRANCH  45  48
ENDBRANCH  27  41
BRANCH  28  52
ATOM     52  C   UNL A   1      42.522  23.410  27.615  1.00  0.00     0.023 A 
ATOM     53  C   UNL A   1      41.497  22.444  27.568  1.00  0.00     0.012 A 
ATOM     54  C   UNL A   1      43.597  23.305  26.709  1.00  0.00     0.148 A 
ATOM     55  C   UNL A   1      41.564  21.374  26.673  1.00  0.00     0.002 A 
ATOM     56  C   UNL A   1      43.633  22.264  25.786  1.00  0.00     0.091 A 
ATOM     57  F   UNL A   1      44.569  24.226  26.767  1.00  0.00    -0.205 F 
ATOM     58  C   UNL A   1      42.628  21.286  25.780  1.00  0.00     0.022 A 
BRANCH  56  59
ATOM     59  S   UNL A   1      44.906  22.125  24.526  1.00  0.00     0.127 S 
ATOM     60  O   UNL A   1      46.100  21.879  25.331  1.00  0.00    -0.237 OA
ATOM     61  O   UNL A   1      44.436  20.977  23.751  1.00  0.00    -0.237 OA
ATOM     62  O   UNL A   1      44.885  23.389  23.802  1.00  0.00    -0.744 OA
ENDBRANCH  56  59
ENDBRANCH  28  52
BRANCH  40  63
ATOM     63  C   UNL A   1      46.246  24.927  33.321  1.00  0.00     0.023 A 
ATOM     64  C   UNL A   1      47.542  25.455  33.181  1.00  0.00     0.012 A 
ATOM     65  C   UNL A   1      46.026  23.819  34.162  1.00  0.00     0.148 A 
ATOM     66  C   UNL A   1      48.615  24.865  33.846  1.00  0.00     0.002 A 
ATOM     67  C   UNL A   1      47.087  23.279  34.871  1.00  0.00     0.091 A 
ATOM     68  F   UNL A   1      44.782  23.328  34.264  1.00  0.00    -0.205 F 
ATOM     69  C   UNL A   1      48.384  23.789  34.701  1.00  0.00     0.022 A 
BRANCH  67  70
ATOM     70  S   UNL A   1      46.857  21.977  36.085  1.00  0.00     0.127 S 
ATOM     71  O   UNL A   1      47.914  22.280  37.048  1.00  0.00    -0.237 OA
ATOM     72  O   UNL A   1      45.500  22.239  36.564  1.00  0.00    -0.237 OA
ATOM     73  O   UNL A   1      47.009  20.721  35.363  1.00  0.00    -0.744 OA
ENDBRANCH  67  70
ENDBRANCH  40  63
ENDBRANCH  14  15
ENDBRANCH   7   9
ENDBRANCH   6   7
ENDBRANCH   5   6
ENDBRANCH   4   5
ENDBRANCH   3   4
ENDBRANCH   2   3
ENDBRANCH   1   2
BRANCH   1  74
ATOM     74  O   UNL A   1      31.281  25.205  26.478  1.00  0.00    -0.376 OA
BRANCH  74  75
ATOM     75  C   UNL A   1      30.834  23.711  26.828  1.00  0.00     0.202 C 
BRANCH  75  76
ATOM     76  C   UNL A   1      31.857  22.577  26.596  1.00  0.00     0.261 C 
BRANCH  76  77
ATOM     77  O   UNL A   1      33.075  22.740  27.364  1.00  0.00    -0.463 OA
BRANCH  77  78
ATOM     78  C   UNL A   1      34.209  22.396  26.701  1.00  0.00     0.310 C 
ATOM     79  O   UNL A   1      34.811  21.354  26.943  1.00  0.00    -0.252 OA
BRANCH  78  80
ATOM     80  C   UNL A   1      34.660  23.407  25.627  1.00  0.00     0.116 C 
ATOM     81  C   UNL A   1      36.082  23.912  26.017  1.00  0.00     0.043 C 
ATOM     82  C   UNL A   1      34.645  23.114  24.091  1.00  0.00     0.097 C 
ATOM     83  C   UNL A   1      37.212  23.073  25.476  1.00  0.00    -0.030 C 
ATOM     84  C   UNL A   1      35.962  22.678  23.372  1.00  0.00     0.041 C 
ATOM     85  C   UNL A   1      37.169  22.541  24.249  1.00  0.00    -0.030 C 
BRANCH  82  86
ATOM     86  C   UNL A   1      33.478  22.435  23.380  1.00  0.00     0.228 C 
ATOM     87  O   UNL A   1      33.293  21.252  23.682  1.00  0.00    -0.274 OA
ATOM     88  N   UNL A   1      32.516  22.958  22.589  1.00  0.00    -0.326 N 
ATOM     89  H   UNL A   1      32.106  22.337  21.944  1.00  0.00     0.169 HD
BRANCH  88  90
ATOM     90  C   UNL A   1      32.029  24.255  22.566  1.00  0.00     0.041 A 
ATOM     91  C   UNL A   1      30.381  24.722  23.277  1.00  0.00     0.027 A 
ATOM     92  C   UNL A   1      33.114  25.569  21.996  1.00  0.00     0.027 A 
ATOM     93  C   UNL A   1      29.971  26.469  23.455  1.00  0.00     0.024 A 
ATOM     94  C   UNL A   1      32.688  27.252  22.174  1.00  0.00     0.024 A 
ATOM     95  C   UNL A   1      31.151  27.686  22.876  1.00  0.00     0.088 A 
BRANCH  95  96
ATOM     96  S   UNL A   1      30.630  29.307  22.604  1.00  0.00     0.264 S 
ATOM     97  O   UNL A   1      31.740  30.106  23.076  1.00  0.00    -0.201 OA
ATOM     98  O   UNL A   1      30.151  29.424  21.241  1.00  0.00    -0.201 OA
BRANCH  96  99
ATOM     99  N   UNL A   1      29.235  29.255  23.736  1.00  0.00    -0.266 N 
ATOM    100  C   UNL A   1      28.187  28.267  23.249  1.00  0.00     0.140 C 
ATOM    101  C   UNL A   1      28.604  30.533  23.681  1.00  0.00     0.055 A 
ATOM    102  C   UNL A   1      27.151  29.118  22.476  1.00  0.00     0.060 C 
ATOM    103  C   UNL A   1      27.711  30.500  22.623  1.00  0.00    -0.022 A 
ATOM    104  C   UNL A   1      29.245  31.673  24.131  1.00  0.00     0.027 A 
ATOM    105  C   UNL A   1      27.718  31.564  21.747  1.00  0.00     0.006 A 
ATOM    106  C   UNL A   1      29.228  32.758  23.271  1.00  0.00     0.002 A 
ATOM    107  C   UNL A   1      28.529  32.671  22.053  1.00  0.00     0.000 A 
ENDBRANCH  96  99
ENDBRANCH  95  96
ENDBRANCH  88  90
ENDBRANCH  82  86
ENDBRANCH  78  80
ENDBRANCH  77  78
ENDBRANCH  76  77
ENDBRANCH  75  76
ENDBRANCH  74  75
ENDBRANCH   1  74
TORSDOF 24
ENDMDL
MODEL 3
REMARK VINA RESULT:     -10.3      1.877      7.279
REMARK SMILES O=C(OCCOCCOCCOC(=O)[C@H]1CC=CC[C@H]1C(=O)Nc1ccc(S(=O)(=O)N2CCc3ccccc32)cc1)c1ccc(-c2c3nc(c(-c4cccc(S(=O)(=O)[O-])c4F)c4ccc([nH]4)c(-c4cccc(S(=O)(=O)[O-])c4F)c4nc(c(-c5cccc(S(=O)(=O)[O-])c5F)c5ccc2[nH]5)C=C4)C=C3)cc1
REMARK SMILES IDX 8 1 7 2 6 3 5 4 4 5 3 6 2 7 1 8 42 9 43 10 104 11 44 12
REMARK SMILES IDX 103 13 45 14 46 15 47 16 97 17 48 18 102 19 96 20 98 21
REMARK SMILES IDX 49 22 101 23 95 24 94 25 50 27 82 28 62 29 81 30 63 31 66 32
REMARK SMILES IDX 80 33 99 34 64 35 65 36 79 38 100 39 67 40 51 41 52 42 60 43
REMARK SMILES IDX 53 44 55 45 61 46 54 47 56 48 57 49 58 50 59 51 83 52 84 53
REMARK SMILES IDX 92 54 85 55 87 56 93 57 86 58 88 59 89 60 90 61 91 62 68 63
REMARK SMILES IDX 69 64 77 65 70 66 72 67 78 68 71 69 73 70 74 71 75 72 76 73
REMARK SMILES IDX 9 74 10 75 11 76 12 77 13 78 14 79 15 80 16 81 20 82 17 83
REMARK SMILES IDX 19 84 18 85 21 86 22 87 23 88 24 90 25 91 41 92 26 93 40 94
REMARK SMILES IDX 27 95 28 96 29 97 30 98 31 99 32 100 39 101 33 102 34 103
REMARK SMILES IDX 38 104 35 105 37 106 36 107
REMARK H PARENT 98 26 66 37 23 89
REMARK Flexibility Score: inf
ROOT
ATOM      1  C   UNL A   1      31.119  27.841  26.967  1.00  0.00     0.188 C 
ENDROOT
BRANCH   1   2
ATOM      2  C   UNL A   1      31.918  29.379  26.515  1.00  0.00     0.188 C 
BRANCH   2   3
ATOM      3  O   UNL A   1      32.269  30.447  27.418  1.00  0.00    -0.376 OA
BRANCH   3   4
ATOM      4  C   UNL A   1      33.285  31.401  27.094  1.00  0.00     0.202 C 
BRANCH   4   5
ATOM      5  C   UNL A   1      34.519  31.552  27.980  1.00  0.00     0.261 C 
BRANCH   5   6
ATOM      6  O   UNL A   1      34.680  32.708  28.806  1.00  0.00    -0.460 OA
BRANCH   6   7
ATOM      7  C   UNL A   1      35.002  32.521  30.104  1.00  0.00     0.338 C 
ATOM      8  O   UNL A   1      34.219  32.720  31.017  1.00  0.00    -0.246 OA
BRANCH   7   9
ATOM      9  C   UNL A   1      36.354  31.917  30.262  1.00  0.00     0.060 A 
ATOM     10  C   UNL A   1      36.555  30.747  31.014  1.00  0.00     0.016 A 
ATOM     11  C   UNL A   1      37.426  32.509  29.594  1.00  0.00     0.016 A 
ATOM     12  C   UNL A   1      37.776  30.090  30.980  1.00  0.00     0.010 A 
ATOM     13  C   UNL A   1      38.696  31.937  29.690  1.00  0.00     0.010 A 
ATOM     14  C   UNL A   1      38.868  30.721  30.377  1.00  0.00    -0.014 A 
BRANCH  14  15
ATOM     15  C   UNL A   1      40.187  30.353  30.929  1.00  0.00     0.031 A 
ATOM     16  C   UNL A   1      40.861  29.257  30.155  1.00  0.00     0.074 A 
ATOM     17  C   UNL A   1      40.808  31.001  31.930  1.00  0.00     0.049 A 
ATOM     18  N   UNL A   1      42.109  28.894  30.153  1.00  0.00    -0.248 NA
ATOM     19  C   UNL A   1      40.023  28.536  29.170  1.00  0.00     0.031 C 
ATOM     20  C   UNL A   1      40.284  32.128  32.689  1.00  0.00     0.029 A 
ATOM     21  N   UNL A   1      42.046  30.794  32.482  1.00  0.00    -0.354 N 
ATOM     22  C   UNL A   1      42.206  27.944  29.147  1.00  0.00     0.074 A 
ATOM     23  C   UNL A   1      40.908  27.788  28.546  1.00  0.00     0.031 C 
ATOM     24  C   UNL A   1      41.154  32.477  33.653  1.00  0.00     0.029 A 
ATOM     25  C   UNL A   1      42.322  31.615  33.552  1.00  0.00     0.049 A 
ATOM     26  H   UNL A   1      42.679  30.120  32.145  1.00  0.00     0.167 HD
ATOM     27  C   UNL A   1      43.288  27.239  28.766  1.00  0.00     0.034 A 
ATOM     28  C   UNL A   1      43.408  31.662  34.346  1.00  0.00     0.034 A 
ATOM     29  C   UNL A   1      44.525  27.298  29.474  1.00  0.00     0.049 A 
ATOM     30  C   UNL A   1      44.556  30.753  33.993  1.00  0.00     0.074 A 
ATOM     31  C   UNL A   1      45.675  26.570  29.259  1.00  0.00     0.029 A 
ATOM     32  N   UNL A   1      44.740  28.092  30.593  1.00  0.00    -0.354 N 
ATOM     33  N   UNL A   1      44.676  29.936  32.972  1.00  0.00    -0.248 NA
ATOM     34  C   UNL A   1      45.733  30.802  34.867  1.00  0.00     0.031 C 
ATOM     35  C   UNL A   1      46.570  26.884  30.286  1.00  0.00     0.029 A 
ATOM     36  C   UNL A   1      45.999  27.854  31.099  1.00  0.00     0.049 A 
ATOM     37  H   UNL A   1      44.090  28.729  30.968  1.00  0.00     0.167 HD
ATOM     38  C   UNL A   1      45.958  29.409  33.052  1.00  0.00     0.074 A 
ATOM     39  C   UNL A   1      46.577  30.012  34.218  1.00  0.00     0.031 C 
ATOM     40  C   UNL A   1      46.575  28.511  32.244  1.00  0.00     0.034 A 
BRANCH  27  41
ATOM     41  C   UNL A   1      43.095  26.298  27.617  1.00  0.00     0.023 A 
ATOM     42  C   UNL A   1      43.263  26.755  26.292  1.00  0.00     0.012 A 
ATOM     43  C   UNL A   1      42.648  24.986  27.849  1.00  0.00     0.148 A 
ATOM     44  C   UNL A   1      42.950  25.928  25.215  1.00  0.00     0.002 A 
ATOM     45  C   UNL A   1      42.385  24.153  26.771  1.00  0.00     0.091 A 
ATOM     46  F   UNL A   1      42.438  24.598  29.114  1.00  0.00    -0.205 F 
ATOM     47  C   UNL A   1      42.520  24.626  25.454  1.00  0.00     0.022 A 
BRANCH  45  48
ATOM     48  S   UNL A   1      41.882  22.444  26.977  1.00  0.00     0.127 S 
ATOM     49  O   UNL A   1      41.823  21.983  25.591  1.00  0.00    -0.237 OA
ATOM     50  O   UNL A   1      42.991  21.896  27.757  1.00  0.00    -0.237 OA
ATOM     51  O   UNL A   1      40.604  22.479  27.674  1.00  0.00    -0.744 OA
ENDBRANCH  45  48
ENDBRANCH  27  41
BRANCH  28  52
ATOM     52  C   UNL A   1      43.488  32.611  35.495  1.00  0.00     0.023 A 
ATOM     53  C   UNL A   1      44.119  33.861  35.334  1.00  0.00     0.012 A 
ATOM     54  C   UNL A   1      42.958  32.275  36.758  1.00  0.00     0.148 A 
ATOM     55  C   UNL A   1      44.261  34.735  36.414  1.00  0.00     0.002 A 
ATOM     56  C   UNL A   1      43.059  33.171  37.818  1.00  0.00     0.091 A 
ATOM     57  F   UNL A   1      42.365  31.081  36.901  1.00  0.00    -0.205 F 
ATOM     58  C   UNL A   1      43.728  34.393  37.654  1.00  0.00     0.022 A 
BRANCH  56  59
ATOM     59  S   UNL A   1      42.312  32.866  39.424  1.00  0.00     0.127 S 
ATOM     60  O   UNL A   1      42.632  31.457  39.641  1.00  0.00    -0.237 OA
ATOM     61  O   UNL A   1      43.042  33.804  40.277  1.00  0.00    -0.237 OA
ATOM     62  O   UNL A   1      40.897  33.174  39.266  1.00  0.00    -0.744 OA
ENDBRANCH  56  59
ENDBRANCH  28  52
BRANCH  40  63
ATOM     63  C   UNL A   1      48.000  28.166  32.562  1.00  0.00     0.023 A 
ATOM     64  C   UNL A   1      49.051  28.946  32.046  1.00  0.00     0.012 A 
ATOM     65  C   UNL A   1      48.279  27.123  33.466  1.00  0.00     0.148 A 
ATOM     66  C   UNL A   1      50.369  28.670  32.401  1.00  0.00     0.002 A 
ATOM     67  C   UNL A   1      49.587  26.896  33.865  1.00  0.00     0.091 A 
ATOM     68  F   UNL A   1      47.258  26.386  33.930  1.00  0.00    -0.205 F 
ATOM     69  C   UNL A   1      50.634  27.657  33.321  1.00  0.00     0.022 A 
BRANCH  67  70
ATOM     70  S   UNL A   1      50.001  25.699  35.136  1.00  0.00     0.127 S 
ATOM     71  O   UNL A   1      51.448  25.870  35.244  1.00  0.00    -0.237 OA
ATOM     72  O   UNL A   1      49.239  26.192  36.283  1.00  0.00    -0.237 OA
ATOM     73  O   UNL A   1      49.559  24.406  34.630  1.00  0.00    -0.744 OA
ENDBRANCH  67  70
ENDBRANCH  40  63
ENDBRANCH  14  15
ENDBRANCH   7   9
ENDBRANCH   6   7
ENDBRANCH   5   6
ENDBRANCH   4   5
ENDBRANCH   3   4
ENDBRANCH   2   3
ENDBRANCH   1   2
BRANCH   1  74
ATOM     74  O   UNL A   1      31.615  25.917  26.598  1.00  0.00    -0.376 OA
BRANCH  74  75
ATOM     75  C   UNL A   1      31.202  24.404  26.900  1.00  0.00     0.202 C 
BRANCH  75  76
ATOM     76  C   UNL A   1      32.105  23.281  26.341  1.00  0.00     0.261 C 
BRANCH  76  77
ATOM     77  O   UNL A   1      33.126  22.850  27.274  1.00  0.00    -0.463 OA
BRANCH  77  78
ATOM     78  C   UNL A   1      34.302  22.496  26.697  1.00  0.00     0.310 C 
ATOM     79  O   UNL A   1      34.921  21.494  27.046  1.00  0.00    -0.252 OA
BRANCH  78  80
ATOM     80  C   UNL A   1      34.781  23.441  25.575  1.00  0.00     0.116 C 
ATOM     81  C   UNL A   1      36.209  23.938  25.950  1.00  0.00     0.043 C 
ATOM     82  C   UNL A   1      34.770  23.067  24.057  1.00  0.00     0.097 C 
ATOM     83  C   UNL A   1      37.326  23.051  25.463  1.00  0.00    -0.030 C 
ATOM     84  C   UNL A   1      36.084  22.570  23.372  1.00  0.00     0.041 C 
ATOM     85  C   UNL A   1      37.282  22.456  24.265  1.00  0.00    -0.030 C 
BRANCH  82  86
ATOM     86  C   UNL A   1      33.596  22.375  23.373  1.00  0.00     0.228 C 
ATOM     87  O   UNL A   1      33.429  21.191  23.683  1.00  0.00    -0.274 OA
ATOM     88  N   UNL A   1      32.612  22.885  22.601  1.00  0.00    -0.326 N 
ATOM     89  H   UNL A   1      32.195  22.258  21.967  1.00  0.00     0.169 HD
BRANCH  88  90
ATOM     90  C   UNL A   1      32.112  24.177  22.584  1.00  0.00     0.041 A 
ATOM     91  C   UNL A   1      30.441  24.617  23.260  1.00  0.00     0.027 A 
ATOM     92  C   UNL A   1      33.197  25.511  22.061  1.00  0.00     0.027 A 
ATOM     93  C   UNL A   1      30.008  26.357  23.452  1.00  0.00     0.024 A 
ATOM     94  C   UNL A   1      32.747  27.187  22.252  1.00  0.00     0.024 A 
ATOM     95  C   UNL A   1      31.189  27.594  22.920  1.00  0.00     0.088 A 
BRANCH  95  96
ATOM     96  S   UNL A   1      30.657  29.213  22.659  1.00  0.00     0.264 S 
ATOM     97  O   UNL A   1      31.757  30.017  23.146  1.00  0.00    -0.201 OA
ATOM     98  O   UNL A   1      30.188  29.338  21.293  1.00  0.00    -0.201 OA
BRANCH  96  99
ATOM     99  N   UNL A   1      29.254  29.141  23.780  1.00  0.00    -0.266 N 
ATOM    100  C   UNL A   1      28.198  28.182  23.254  1.00  0.00     0.140 C 
ATOM    101  C   UNL A   1      28.639  30.427  23.764  1.00  0.00     0.055 A 
ATOM    102  C   UNL A   1      27.177  29.071  22.503  1.00  0.00     0.060 C 
ATOM    103  C   UNL A   1      27.752  30.440  22.699  1.00  0.00    -0.022 A 
ATOM    104  C   UNL A   1      29.290  31.544  24.255  1.00  0.00     0.027 A 
ATOM    105  C   UNL A   1      27.777  31.532  21.859  1.00  0.00     0.006 A 
ATOM    106  C   UNL A   1      29.291  32.657  23.431  1.00  0.00     0.002 A 
ATOM    107  C   UNL A   1      28.599  32.619  22.206  1.00  0.00     0.000 A 
ENDBRANCH  96  99
ENDBRANCH  95  96
ENDBRANCH  88  90
ENDBRANCH  82  86
ENDBRANCH  78  80
ENDBRANCH  77  78
ENDBRANCH  76  77
ENDBRANCH  75  76
ENDBRANCH  74  75
ENDBRANCH   1  74
TORSDOF 24
ENDMDL
