MODEL 1
REMARK VINA RESULT:      -8.1      0.000      0.000
REMARK SMILES C[C@@H](C(=O)OCCOCCOCCOC(=O)c1ccc(-c2c3nc(c(-c4cccc(S(=O)(=O)[O-])c4F)c4ccc([nH]4)c(-c4cccc(S(=O)(=O)[O-])c4F)c4nc(c(-c5cccc(S(=O)(=O)[O-])c5F)c5ccc2[nH]5)C=C4)C=C3)cc1)N(C)c1ccc(C(N)=O)nn1
REMARK SMILES IDX 9 1 8 2 7 3 6 4 5 5 3 6 4 7 2 8 1 9 80 10 81 11 82 12 83 13
REMARK SMILES IDX 90 14 84 15 89 16 85 17 86 18 87 19 88 20 10 23 11 24 12 25
REMARK SMILES IDX 13 26 14 27 15 28 16 29 17 30 18 31 79 32 19 33 78 34 20 35
REMARK SMILES IDX 21 36 22 37 72 38 23 39 77 40 71 41 73 42 24 43 76 44 70 45
REMARK SMILES IDX 69 46 25 48 57 49 37 50 56 51 38 52 41 53 55 54 74 55 39 56
REMARK SMILES IDX 40 57 54 59 75 60 42 61 26 62 27 63 35 64 28 65 30 66 36 67
REMARK SMILES IDX 29 68 31 69 32 70 33 71 34 72 58 73 59 74 67 75 60 76 62 77
REMARK SMILES IDX 68 78 61 79 63 80 64 81 65 82 66 83 43 84 44 85 52 86 45 87
REMARK SMILES IDX 47 88 53 89 46 90 48 91 49 92 50 93 51 94
REMARK H PARENT 87 21 87 22 73 47 41 58
REMARK Flexibility Score: inf
ROOT
ATOM      1  C   UNL A   1      39.112  28.707  29.664  1.00  0.00     0.188 C 
ENDROOT
BRANCH   1   2
ATOM      2  O   UNL A   1      40.433  28.649  30.180  1.00  0.00    -0.376 OA
BRANCH   2   3
ATOM      3  C   UNL A   1      41.434  29.345  29.449  1.00  0.00     0.202 C 
BRANCH   3   4
ATOM      4  C   UNL A   1      42.505  28.502  28.726  1.00  0.00     0.261 C 
BRANCH   4   5
ATOM      5  O   UNL A   1      42.002  27.309  28.059  1.00  0.00    -0.462 OA
BRANCH   5   6
ATOM      6  C   UNL A   1      42.778  26.179  28.076  1.00  0.00     0.328 C 
ATOM      7  O   UNL A   1      43.983  26.208  28.300  1.00  0.00    -0.250 OA
BRANCH   6   8
ATOM      8  C   UNL A   1      42.018  24.870  27.645  1.00  0.00     0.190 C 
ATOM      9  C   UNL A   1      42.105  23.626  28.528  1.00  0.00     0.044 C 
BRANCH   8  10
ATOM     10  N   UNL A   1      42.131  24.487  26.187  1.00  0.00    -0.345 N 
ATOM     11  C   UNL A   1      42.307  25.645  25.298  1.00  0.00     0.146 C 
BRANCH  10  12
ATOM     12  C   UNL A   1      42.999  23.443  25.793  1.00  0.00     0.151 A 
ATOM     13  C   UNL A   1      44.714  23.743  25.611  1.00  0.00     0.051 A 
ATOM     14  N   UNL A   1      42.341  21.904  25.535  1.00  0.00    -0.132 NA
ATOM     15  C   UNL A   1      45.788  22.360  25.119  1.00  0.00     0.040 A 
ATOM     16  N   UNL A   1      43.211  20.490  25.044  1.00  0.00    -0.143 NA
ATOM     17  C   UNL A   1      44.933  20.558  24.787  1.00  0.00     0.150 A 
BRANCH  17  18
ATOM     18  C   UNL A   1      45.282  19.030  24.455  1.00  0.00     0.269 C 
ATOM     19  N   UNL A   1      45.439  18.786  23.111  1.00  0.00    -0.364 N 
ATOM     20  O   UNL A   1      45.433  18.119  25.259  1.00  0.00    -0.268 OA
ATOM     21  H   UNL A   1      45.318  19.516  22.461  1.00  0.00     0.160 HD
ATOM     22  H   UNL A   1      45.670  17.882  22.799  1.00  0.00     0.160 HD
ENDBRANCH  17  18
ENDBRANCH  10  12
ENDBRANCH   8  10
ENDBRANCH   6   8
ENDBRANCH   5   6
ENDBRANCH   4   5
ENDBRANCH   3   4
ENDBRANCH   2   3
ENDBRANCH   1   2
BRANCH   1  23
ATOM     23  C   UNL A   1      38.356  30.040  29.878  1.00  0.00     0.188 C 
BRANCH  23  24
ATOM     24  O   UNL A   1      37.360  29.982  30.863  1.00  0.00    -0.376 OA
BRANCH  24  25
ATOM     25  C   UNL A   1      37.622  30.601  32.102  1.00  0.00     0.202 C 
BRANCH  25  26
ATOM     26  C   UNL A   1      37.173  32.040  32.431  1.00  0.00     0.261 C 
BRANCH  26  27
ATOM     27  O   UNL A   1      38.034  32.824  33.276  1.00  0.00    -0.460 OA
BRANCH  27  28
ATOM     28  C   UNL A   1      38.025  34.157  33.092  1.00  0.00     0.338 C 
ATOM     29  O   UNL A   1      37.362  34.976  33.705  1.00  0.00    -0.246 OA
BRANCH  28  30
ATOM     30  C   UNL A   1      39.001  34.557  32.061  1.00  0.00     0.060 A 
ATOM     31  C   UNL A   1      38.599  34.795  30.326  1.00  0.00     0.016 A 
ATOM     32  C   UNL A   1      40.672  34.361  32.486  1.00  0.00     0.016 A 
ATOM     33  C   UNL A   1      40.089  34.803  28.961  1.00  0.00     0.010 A 
ATOM     34  C   UNL A   1      41.996  34.431  31.310  1.00  0.00     0.010 A 
ATOM     35  C   UNL A   1      41.792  34.642  29.554  1.00  0.00    -0.014 A 
BRANCH  35  36
ATOM     36  C   UNL A   1      43.038  34.989  28.770  1.00  0.00     0.031 A 
ATOM     37  C   UNL A   1      44.058  33.893  28.469  1.00  0.00     0.074 A 
ATOM     38  C   UNL A   1      43.418  36.275  28.591  1.00  0.00     0.049 A 
ATOM     39  N   UNL A   1      45.356  33.979  28.298  1.00  0.00    -0.248 NA
ATOM     40  C   UNL A   1      43.568  32.503  28.480  1.00  0.00     0.031 C 
ATOM     41  C   UNL A   1      42.648  37.477  28.906  1.00  0.00     0.029 A 
ATOM     42  N   UNL A   1      44.628  36.793  28.177  1.00  0.00    -0.354 N 
ATOM     43  C   UNL A   1      45.835  32.668  28.328  1.00  0.00     0.074 A 
ATOM     44  C   UNL A   1      44.700  31.828  28.632  1.00  0.00     0.031 C 
ATOM     45  C   UNL A   1      43.394  38.571  28.728  1.00  0.00     0.029 A 
ATOM     46  C   UNL A   1      44.715  38.164  28.309  1.00  0.00     0.049 A 
ATOM     47  H   UNL A   1      45.359  36.237  27.820  1.00  0.00     0.167 HD
ATOM     48  C   UNL A   1      47.079  32.191  28.055  1.00  0.00     0.034 A 
ATOM     49  C   UNL A   1      45.732  39.029  28.139  1.00  0.00     0.034 A 
ATOM     50  C   UNL A   1      48.131  33.022  27.528  1.00  0.00     0.049 A 
ATOM     51  C   UNL A   1      47.035  38.500  27.641  1.00  0.00     0.074 A 
ATOM     52  C   UNL A   1      49.334  32.639  26.959  1.00  0.00     0.029 A 
ATOM     53  N   UNL A   1      48.080  34.405  27.458  1.00  0.00    -0.354 N 
ATOM     54  N   UNL A   1      47.421  37.255  27.527  1.00  0.00    -0.248 NA
ATOM     55  C   UNL A   1      48.008  39.488  27.163  1.00  0.00     0.031 C 
ATOM     56  C   UNL A   1      50.003  33.793  26.534  1.00  0.00     0.029 A 
ATOM     57  C   UNL A   1      49.210  34.890  26.825  1.00  0.00     0.049 A 
ATOM     58  H   UNL A   1      47.346  34.960  27.807  1.00  0.00     0.167 HD
ATOM     59  C   UNL A   1      48.655  37.303  26.899  1.00  0.00     0.074 A 
ATOM     60  C   UNL A   1      48.949  38.703  26.661  1.00  0.00     0.031 C 
ATOM     61  C   UNL A   1      49.465  36.279  26.546  1.00  0.00     0.034 A 
BRANCH  48  62
ATOM     62  C   UNL A   1      47.330  30.695  28.161  1.00  0.00     0.023 A 
ATOM     63  C   UNL A   1      47.821  30.153  29.371  1.00  0.00     0.012 A 
ATOM     64  C   UNL A   1      47.030  29.811  27.102  1.00  0.00     0.148 A 
ATOM     65  C   UNL A   1      48.101  28.793  29.493  1.00  0.00     0.002 A 
ATOM     66  C   UNL A   1      47.246  28.442  27.256  1.00  0.00     0.091 A 
ATOM     67  F   UNL A   1      46.545  30.318  25.960  1.00  0.00    -0.205 F 
ATOM     68  C   UNL A   1      47.808  27.937  28.440  1.00  0.00     0.022 A 
BRANCH  66  69
ATOM     69  S   UNL A   1      46.790  27.222  26.015  1.00  0.00     0.127 S 
ATOM     70  O   UNL A   1      47.721  27.537  24.933  1.00  0.00    -0.237 OA
ATOM     71  O   UNL A   1      47.066  25.963  26.708  1.00  0.00    -0.237 OA
ATOM     72  O   UNL A   1      45.384  27.456  25.715  1.00  0.00    -0.744 OA
ENDBRANCH  66  69
ENDBRANCH  48  62
BRANCH  49  73
ATOM     73  C   UNL A   1      45.483  40.491  28.288  1.00  0.00     0.023 A 
ATOM     74  C   UNL A   1      45.249  41.253  27.128  1.00  0.00     0.012 A 
ATOM     75  C   UNL A   1      45.393  41.110  29.551  1.00  0.00     0.148 A 
ATOM     76  C   UNL A   1      44.972  42.616  27.214  1.00  0.00     0.002 A 
ATOM     77  C   UNL A   1      45.080  42.464  29.631  1.00  0.00     0.091 A 
ATOM     78  F   UNL A   1      45.585  40.357  30.642  1.00  0.00    -0.205 F 
ATOM     79  C   UNL A   1      44.884  43.221  28.464  1.00  0.00     0.022 A 
BRANCH  77  80
ATOM     80  S   UNL A   1      44.841  43.321  31.193  1.00  0.00     0.127 S 
ATOM     81  O   UNL A   1      46.217  43.471  31.661  1.00  0.00    -0.237 OA
ATOM     82  O   UNL A   1      44.200  44.563  30.761  1.00  0.00    -0.237 OA
ATOM     83  O   UNL A   1      43.994  42.448  31.994  1.00  0.00    -0.744 OA
ENDBRANCH  77  80
ENDBRANCH  49  73
BRANCH  61  84
ATOM     84  C   UNL A   1      50.717  36.623  25.793  1.00  0.00     0.023 A 
ATOM     85  C   UNL A   1      50.765  36.470  24.395  1.00  0.00     0.012 A 
ATOM     86  C   UNL A   1      51.826  37.154  26.477  1.00  0.00     0.148 A 
ATOM     87  C   UNL A   1      51.917  36.810  23.690  1.00  0.00     0.002 A 
ATOM     88  C   UNL A   1      52.949  37.545  25.762  1.00  0.00     0.091 A 
ATOM     89  F   UNL A   1      51.764  37.262  27.812  1.00  0.00    -0.205 F 
ATOM     90  C   UNL A   1      53.002  37.360  24.370  1.00  0.00     0.022 A 
BRANCH  88  91
ATOM     91  S   UNL A   1      54.348  38.358  26.539  1.00  0.00     0.127 S 
ATOM     92  O   UNL A   1      53.743  39.599  27.019  1.00  0.00    -0.237 OA
ATOM     93  O   UNL A   1      54.711  37.408  27.591  1.00  0.00    -0.237 OA
ATOM     94  O   UNL A   1      55.352  38.518  25.495  1.00  0.00    -0.744 OA
ENDBRANCH  88  91
ENDBRANCH  61  84
ENDBRANCH  35  36
ENDBRANCH  28  30
ENDBRANCH  27  28
ENDBRANCH  26  27
ENDBRANCH  25  26
ENDBRANCH  24  25
ENDBRANCH  23  24
ENDBRANCH   1  23
TORSDOF 23
ENDMDL
MODEL 2
REMARK VINA RESULT:      -7.9      8.775     11.804
REMARK SMILES C[C@@H](C(=O)OCCOCCOCCOC(=O)c1ccc(-c2c3nc(c(-c4cccc(S(=O)(=O)[O-])c4F)c4ccc([nH]4)c(-c4cccc(S(=O)(=O)[O-])c4F)c4nc(c(-c5cccc(S(=O)(=O)[O-])c5F)c5ccc2[nH]5)C=C4)C=C3)cc1)N(C)c1ccc(C(N)=O)nn1
REMARK SMILES IDX 9 1 8 2 7 3 6 4 5 5 3 6 4 7 2 8 1 9 80 10 81 11 82 12 83 13
REMARK SMILES IDX 90 14 84 15 89 16 85 17 86 18 87 19 88 20 10 23 11 24 12 25
REMARK SMILES IDX 13 26 14 27 15 28 16 29 17 30 18 31 79 32 19 33 78 34 20 35
REMARK SMILES IDX 21 36 22 37 72 38 23 39 77 40 71 41 73 42 24 43 76 44 70 45
REMARK SMILES IDX 69 46 25 48 57 49 37 50 56 51 38 52 41 53 55 54 74 55 39 56
REMARK SMILES IDX 40 57 54 59 75 60 42 61 26 62 27 63 35 64 28 65 30 66 36 67
REMARK SMILES IDX 29 68 31 69 32 70 33 71 34 72 58 73 59 74 67 75 60 76 62 77
REMARK SMILES IDX 68 78 61 79 63 80 64 81 65 82 66 83 43 84 44 85 52 86 45 87
REMARK SMILES IDX 47 88 53 89 46 90 48 91 49 92 50 93 51 94
REMARK H PARENT 87 21 87 22 73 47 41 58
REMARK Flexibility Score: inf
ROOT
ATOM      1  C   UNL A   1      34.027  31.830  28.127  1.00  0.00     0.188 C 
ENDROOT
BRANCH   1   2
ATOM      2  O   UNL A   1      33.471  31.488  26.867  1.00  0.00    -0.376 OA
BRANCH   2   3
ATOM      3  C   UNL A   1      32.144  30.981  26.871  1.00  0.00     0.202 C 
BRANCH   3   4
ATOM      4  C   UNL A   1      31.713  30.100  25.679  1.00  0.00     0.261 C 
BRANCH   4   5
ATOM      5  O   UNL A   1      32.803  29.625  24.839  1.00  0.00    -0.462 OA
BRANCH   5   6
ATOM      6  C   UNL A   1      33.052  28.278  24.795  1.00  0.00     0.328 C 
ATOM      7  O   UNL A   1      33.949  27.751  25.444  1.00  0.00    -0.250 OA
BRANCH   6   8
ATOM      8  C   UNL A   1      32.185  27.497  23.740  1.00  0.00     0.190 C 
ATOM      9  C   UNL A   1      31.313  28.279  22.759  1.00  0.00     0.044 C 
BRANCH   8  10
ATOM     10  N   UNL A   1      31.438  26.289  24.257  1.00  0.00    -0.345 N 
ATOM     11  C   UNL A   1      30.022  26.275  23.864  1.00  0.00     0.146 C 
BRANCH  10  12
ATOM     12  C   UNL A   1      31.991  24.996  24.111  1.00  0.00     0.151 A 
ATOM     13  C   UNL A   1      33.217  24.693  22.899  1.00  0.00     0.051 A 
ATOM     14  N   UNL A   1      31.458  23.771  25.153  1.00  0.00    -0.132 NA
ATOM     15  C   UNL A   1      33.906  23.015  22.765  1.00  0.00     0.040 A 
ATOM     16  N   UNL A   1      31.989  22.123  25.148  1.00  0.00    -0.143 NA
ATOM     17  C   UNL A   1      33.198  21.589  24.012  1.00  0.00     0.150 A 
BRANCH  17  18
ATOM     18  C   UNL A   1      33.421  20.065  24.453  1.00  0.00     0.269 C 
ATOM     19  N   UNL A   1      32.358  19.248  24.147  1.00  0.00    -0.364 N 
ATOM     20  O   UNL A   1      34.414  19.594  24.990  1.00  0.00    -0.268 OA
ATOM     21  H   UNL A   1      31.557  19.623  23.715  1.00  0.00     0.160 HD
ATOM     22  H   UNL A   1      32.398  18.288  24.362  1.00  0.00     0.160 HD
ENDBRANCH  17  18
ENDBRANCH  10  12
ENDBRANCH   8  10
ENDBRANCH   6   8
ENDBRANCH   5   6
ENDBRANCH   4   5
ENDBRANCH   3   4
ENDBRANCH   2   3
ENDBRANCH   1   2
BRANCH   1  23
ATOM     23  C   UNL A   1      34.251  33.338  28.386  1.00  0.00     0.188 C 
BRANCH  23  24
ATOM     24  O   UNL A   1      34.748  33.633  29.664  1.00  0.00    -0.376 OA
BRANCH  24  25
ATOM     25  C   UNL A   1      34.781  32.592  30.614  1.00  0.00     0.202 C 
BRANCH  25  26
ATOM     26  C   UNL A   1      36.066  32.180  31.361  1.00  0.00     0.261 C 
BRANCH  26  27
ATOM     27  O   UNL A   1      36.238  30.784  31.660  1.00  0.00    -0.460 OA
BRANCH  27  28
ATOM     28  C   UNL A   1      36.681  29.994  30.666  1.00  0.00     0.338 C 
ATOM     29  O   UNL A   1      36.148  29.808  29.585  1.00  0.00    -0.246 OA
BRANCH  28  30
ATOM     30  C   UNL A   1      37.982  29.389  31.007  1.00  0.00     0.060 A 
ATOM     31  C   UNL A   1      38.177  27.870  31.945  1.00  0.00     0.016 A 
ATOM     32  C   UNL A   1      39.361  30.432  30.859  1.00  0.00     0.016 A 
ATOM     33  C   UNL A   1      39.964  27.457  32.794  1.00  0.00     0.010 A 
ATOM     34  C   UNL A   1      40.952  30.054  31.542  1.00  0.00     0.010 A 
ATOM     35  C   UNL A   1      41.331  28.609  32.511  1.00  0.00    -0.014 A 
BRANCH  35  36
ATOM     36  C   UNL A   1      42.797  28.313  32.731  1.00  0.00     0.031 A 
ATOM     37  C   UNL A   1      43.668  27.932  31.535  1.00  0.00     0.074 A 
ATOM     38  C   UNL A   1      43.288  28.083  33.971  1.00  0.00     0.049 A 
ATOM     39  N   UNL A   1      44.736  27.173  31.484  1.00  0.00    -0.248 NA
ATOM     40  C   UNL A   1      43.204  28.369  30.206  1.00  0.00     0.031 C 
ATOM     41  C   UNL A   1      42.598  28.275  35.245  1.00  0.00     0.029 A 
ATOM     42  N   UNL A   1      44.489  27.526  34.361  1.00  0.00    -0.354 N 
ATOM     43  C   UNL A   1      44.972  26.933  30.129  1.00  0.00     0.074 A 
ATOM     44  C   UNL A   1      43.878  27.546  29.411  1.00  0.00     0.031 C 
ATOM     45  C   UNL A   1      43.340  27.813  36.255  1.00  0.00     0.029 A 
ATOM     46  C   UNL A   1      44.560  27.260  35.713  1.00  0.00     0.049 A 
ATOM     47  H   UNL A   1      45.225  27.338  33.734  1.00  0.00     0.167 HD
ATOM     48  C   UNL A   1      46.031  26.331  29.523  1.00  0.00     0.034 A 
ATOM     49  C   UNL A   1      45.478  26.626  36.465  1.00  0.00     0.034 A 
ATOM     50  C   UNL A   1      47.216  25.939  30.242  1.00  0.00     0.049 A 
ATOM     51  C   UNL A   1      46.729  26.153  35.805  1.00  0.00     0.074 A 
ATOM     52  C   UNL A   1      48.453  25.573  29.739  1.00  0.00     0.029 A 
ATOM     53  N   UNL A   1      47.324  25.912  31.624  1.00  0.00    -0.354 N 
ATOM     54  N   UNL A   1      47.000  26.077  34.527  1.00  0.00    -0.248 NA
ATOM     55  C   UNL A   1      47.834  25.765  36.689  1.00  0.00     0.031 C 
ATOM     56  C   UNL A   1      49.312  25.339  30.819  1.00  0.00     0.029 A 
ATOM     57  C   UNL A   1      48.614  25.572  31.992  1.00  0.00     0.049 A 
ATOM     58  H   UNL A   1      46.592  26.108  32.251  1.00  0.00     0.167 HD
ATOM     59  C   UNL A   1      48.331  25.698  34.450  1.00  0.00     0.074 A 
ATOM     60  C   UNL A   1      48.807  25.560  35.812  1.00  0.00     0.031 C 
ATOM     61  C   UNL A   1      49.088  25.492  33.348  1.00  0.00     0.034 A 
BRANCH  48  62
ATOM     62  C   UNL A   1      46.035  26.205  28.009  1.00  0.00     0.023 A 
ATOM     63  C   UNL A   1      46.354  27.329  27.214  1.00  0.00     0.012 A 
ATOM     64  C   UNL A   1      45.788  24.973  27.363  1.00  0.00     0.148 A 
ATOM     65  C   UNL A   1      46.330  27.261  25.822  1.00  0.00     0.002 A 
ATOM     66  C   UNL A   1      45.834  24.896  25.971  1.00  0.00     0.091 A 
ATOM     67  F   UNL A   1      45.505  23.899  28.113  1.00  0.00    -0.205 F 
ATOM     68  C   UNL A   1      46.076  26.046  25.201  1.00  0.00     0.022 A 
BRANCH  66  69
ATOM     69  S   UNL A   1      45.648  23.357  25.058  1.00  0.00     0.127 S 
ATOM     70  O   UNL A   1      46.469  23.612  23.876  1.00  0.00    -0.237 OA
ATOM     71  O   UNL A   1      46.213  22.380  25.990  1.00  0.00    -0.237 OA
ATOM     72  O   UNL A   1      44.223  23.206  24.807  1.00  0.00    -0.744 OA
ENDBRANCH  66  69
ENDBRANCH  48  62
BRANCH  49  73
ATOM     73  C   UNL A   1      45.299  26.567  37.944  1.00  0.00     0.023 A 
ATOM     74  C   UNL A   1      45.009  25.322  38.535  1.00  0.00     0.012 A 
ATOM     75  C   UNL A   1      45.493  27.693  38.768  1.00  0.00     0.148 A 
ATOM     76  C   UNL A   1      44.872  25.203  39.916  1.00  0.00     0.002 A 
ATOM     77  C   UNL A   1      45.391  27.560  40.149  1.00  0.00     0.091 A 
ATOM     78  F   UNL A   1      45.803  28.860  38.185  1.00  0.00    -0.205 F 
ATOM     79  C   UNL A   1      45.067  26.320  40.723  1.00  0.00     0.022 A 
BRANCH  77  80
ATOM     80  S   UNL A   1      45.722  28.911  41.289  1.00  0.00     0.127 S 
ATOM     81  O   UNL A   1      44.896  29.978  40.729  1.00  0.00    -0.237 OA
ATOM     82  O   UNL A   1      45.241  28.361  42.555  1.00  0.00    -0.237 OA
ATOM     83  O   UNL A   1      47.161  29.129  41.230  1.00  0.00    -0.744 OA
ENDBRANCH  77  80
ENDBRANCH  49  73
BRANCH  61  84
ATOM     84  C   UNL A   1      50.538  25.169  33.565  1.00  0.00     0.023 A 
ATOM     85  C   UNL A   1      51.452  26.195  33.870  1.00  0.00     0.012 A 
ATOM     86  C   UNL A   1      50.976  23.833  33.519  1.00  0.00     0.148 A 
ATOM     87  C   UNL A   1      52.795  25.896  34.095  1.00  0.00     0.002 A 
ATOM     88  C   UNL A   1      52.302  23.536  33.800  1.00  0.00     0.091 A 
ATOM     89  F   UNL A   1      50.091  22.879  33.197  1.00  0.00    -0.205 F 
ATOM     90  C   UNL A   1      53.216  24.568  34.074  1.00  0.00     0.022 A 
BRANCH  88  91
ATOM     91  S   UNL A   1      52.909  21.851  33.901  1.00  0.00     0.127 S 
ATOM     92  O   UNL A   1      52.722  21.383  32.528  1.00  0.00    -0.237 OA
ATOM     93  O   UNL A   1      54.305  22.049  34.294  1.00  0.00    -0.237 OA
ATOM     94  O   UNL A   1      52.087  21.184  34.903  1.00  0.00    -0.744 OA
ENDBRANCH  88  91
ENDBRANCH  61  84
ENDBRANCH  35  36
ENDBRANCH  28  30
ENDBRANCH  27  28
ENDBRANCH  26  27
ENDBRANCH  25  26
ENDBRANCH  24  25
ENDBRANCH  23  24
ENDBRANCH   1  23
TORSDOF 23
ENDMDL
MODEL 3
REMARK VINA RESULT:      -7.8      8.790     12.328
REMARK SMILES C[C@@H](C(=O)OCCOCCOCCOC(=O)c1ccc(-c2c3nc(c(-c4cccc(S(=O)(=O)[O-])c4F)c4ccc([nH]4)c(-c4cccc(S(=O)(=O)[O-])c4F)c4nc(c(-c5cccc(S(=O)(=O)[O-])c5F)c5ccc2[nH]5)C=C4)C=C3)cc1)N(C)c1ccc(C(N)=O)nn1
REMARK SMILES IDX 9 1 8 2 7 3 6 4 5 5 3 6 4 7 2 8 1 9 80 10 81 11 82 12 83 13
REMARK SMILES IDX 90 14 84 15 89 16 85 17 86 18 87 19 88 20 10 23 11 24 12 25
REMARK SMILES IDX 13 26 14 27 15 28 16 29 17 30 18 31 79 32 19 33 78 34 20 35
REMARK SMILES IDX 21 36 22 37 72 38 23 39 77 40 71 41 73 42 24 43 76 44 70 45
REMARK SMILES IDX 69 46 25 48 57 49 37 50 56 51 38 52 41 53 55 54 74 55 39 56
REMARK SMILES IDX 40 57 54 59 75 60 42 61 26 62 27 63 35 64 28 65 30 66 36 67
REMARK SMILES IDX 29 68 31 69 32 70 33 71 34 72 58 73 59 74 67 75 60 76 62 77
REMARK SMILES IDX 68 78 61 79 63 80 64 81 65 82 66 83 43 84 44 85 52 86 45 87
REMARK SMILES IDX 47 88 53 89 46 90 48 91 49 92 50 93 51 94
REMARK H PARENT 87 21 87 22 73 47 41 58
REMARK Flexibility Score: inf
ROOT
ATOM      1  C   UNL A   1      34.082  31.971  28.196  1.00  0.00     0.188 C 
ENDROOT
BRANCH   1   2
ATOM      2  O   UNL A   1      33.460  31.773  26.936  1.00  0.00    -0.376 OA
BRANCH   2   3
ATOM      3  C   UNL A   1      32.096  31.374  26.953  1.00  0.00     0.202 C 
BRANCH   3   4
ATOM      4  C   UNL A   1      31.719  30.090  26.185  1.00  0.00     0.261 C 
BRANCH   4   5
ATOM      5  O   UNL A   1      32.820  29.445  25.484  1.00  0.00    -0.462 OA
BRANCH   5   6
ATOM      6  C   UNL A   1      33.262  28.231  25.944  1.00  0.00     0.328 C 
ATOM      7  O   UNL A   1      34.313  28.102  26.562  1.00  0.00    -0.250 OA
BRANCH   6   8
ATOM      8  C   UNL A   1      32.380  27.010  25.488  1.00  0.00     0.190 C 
ATOM      9  C   UNL A   1      32.679  25.619  26.043  1.00  0.00     0.044 C 
BRANCH   8  10
ATOM     10  N   UNL A   1      32.074  26.930  24.009  1.00  0.00    -0.345 N 
ATOM     11  C   UNL A   1      31.998  25.549  23.511  1.00  0.00     0.146 C 
BRANCH  10  12
ATOM     12  C   UNL A   1      31.022  27.698  23.460  1.00  0.00     0.151 A 
ATOM     13  C   UNL A   1      29.358  27.333  23.865  1.00  0.00     0.051 A 
ATOM     14  N   UNL A   1      31.418  28.986  22.433  1.00  0.00    -0.132 NA
ATOM     15  C   UNL A   1      28.045  28.364  23.144  1.00  0.00     0.040 A 
ATOM     16  N   UNL A   1      30.298  30.047  21.648  1.00  0.00    -0.143 NA
ATOM     17  C   UNL A   1      28.583  29.861  21.894  1.00  0.00     0.150 A 
BRANCH  17  18
ATOM     18  C   UNL A   1      27.990  31.097  21.067  1.00  0.00     0.269 C 
ATOM     19  N   UNL A   1      28.066  32.292  21.743  1.00  0.00    -0.364 N 
ATOM     20  O   UNL A   1      27.521  31.068  19.937  1.00  0.00    -0.268 OA
ATOM     21  H   UNL A   1      28.443  32.320  22.652  1.00  0.00     0.160 HD
ATOM     22  H   UNL A   1      27.743  33.119  21.318  1.00  0.00     0.160 HD
ENDBRANCH  17  18
ENDBRANCH  10  12
ENDBRANCH   8  10
ENDBRANCH   6   8
ENDBRANCH   5   6
ENDBRANCH   4   5
ENDBRANCH   3   4
ENDBRANCH   2   3
ENDBRANCH   1   2
BRANCH   1  23
ATOM     23  C   UNL A   1      34.139  33.431  28.703  1.00  0.00     0.188 C 
BRANCH  23  24
ATOM     24  O   UNL A   1      34.689  33.571  29.986  1.00  0.00    -0.376 OA
BRANCH  24  25
ATOM     25  C   UNL A   1      35.017  32.397  30.694  1.00  0.00     0.202 C 
BRANCH  25  26
ATOM     26  C   UNL A   1      36.156  32.334  31.731  1.00  0.00     0.261 C 
BRANCH  26  27
ATOM     27  O   UNL A   1      36.522  31.037  32.234  1.00  0.00    -0.460 OA
BRANCH  27  28
ATOM     28  C   UNL A   1      36.744  30.069  31.328  1.00  0.00     0.338 C 
ATOM     29  O   UNL A   1      36.000  29.725  30.425  1.00  0.00    -0.246 OA
BRANCH  28  30
ATOM     30  C   UNL A   1      38.082  29.474  31.503  1.00  0.00     0.060 A 
ATOM     31  C   UNL A   1      38.386  27.871  32.254  1.00  0.00     0.016 A 
ATOM     32  C   UNL A   1      39.420  30.571  31.366  1.00  0.00     0.016 A 
ATOM     33  C   UNL A   1      40.243  27.429  32.918  1.00  0.00     0.010 A 
ATOM     34  C   UNL A   1      41.069  30.173  31.882  1.00  0.00     0.010 A 
ATOM     35  C   UNL A   1      41.556  28.648  32.659  1.00  0.00    -0.014 A 
BRANCH  35  36
ATOM     36  C   UNL A   1      43.042  28.377  32.735  1.00  0.00     0.031 A 
ATOM     37  C   UNL A   1      43.782  27.922  31.479  1.00  0.00     0.074 A 
ATOM     38  C   UNL A   1      43.668  28.236  33.926  1.00  0.00     0.049 A 
ATOM     39  N   UNL A   1      44.848  27.168  31.361  1.00  0.00    -0.248 NA
ATOM     40  C   UNL A   1      43.169  28.263  30.183  1.00  0.00     0.031 C 
ATOM     41  C   UNL A   1      43.120  28.510  35.253  1.00  0.00     0.029 A 
ATOM     42  N   UNL A   1      44.913  27.715  34.218  1.00  0.00    -0.354 N 
ATOM     43  C   UNL A   1      44.938  26.838  30.008  1.00  0.00     0.074 A 
ATOM     44  C   UNL A   1      43.763  27.393  29.376  1.00  0.00     0.031 C 
ATOM     45  C   UNL A   1      43.975  28.123  36.203  1.00  0.00     0.029 A 
ATOM     46  C   UNL A   1      45.136  27.542  35.568  1.00  0.00     0.049 A 
ATOM     47  H   UNL A   1      45.579  27.490  33.527  1.00  0.00     0.167 HD
ATOM     48  C   UNL A   1      45.933  26.203  29.331  1.00  0.00     0.034 A 
ATOM     49  C   UNL A   1      46.139  26.968  36.256  1.00  0.00     0.034 A 
ATOM     50  C   UNL A   1      47.195  25.868  29.940  1.00  0.00     0.049 A 
ATOM     51  C   UNL A   1      47.317  26.459  35.495  1.00  0.00     0.074 A 
ATOM     52  C   UNL A   1      48.374  25.478  29.329  1.00  0.00     0.029 A 
ATOM     53  N   UNL A   1      47.454  25.938  31.299  1.00  0.00    -0.354 N 
ATOM     54  N   UNL A   1      47.447  26.297  34.203  1.00  0.00    -0.248 NA
ATOM     55  C   UNL A   1      48.518  26.141  36.275  1.00  0.00     0.031 C 
ATOM     56  C   UNL A   1      49.350  25.324  30.321  1.00  0.00     0.029 A 
ATOM     57  C   UNL A   1      48.781  25.632  31.545  1.00  0.00     0.049 A 
ATOM     58  H   UNL A   1      46.792  26.171  31.989  1.00  0.00     0.167 HD
ATOM     59  C   UNL A   1      48.767  25.924  34.005  1.00  0.00     0.074 A 
ATOM     60  C   UNL A   1      49.392  25.882  35.313  1.00  0.00     0.031 C 
ATOM     61  C   UNL A   1      49.403  25.648  32.843  1.00  0.00     0.034 A 
BRANCH  48  62
ATOM     62  C   UNL A   1      45.773  25.973  27.837  1.00  0.00     0.023 A 
ATOM     63  C   UNL A   1      45.935  27.055  26.942  1.00  0.00     0.012 A 
ATOM     64  C   UNL A   1      45.524  24.690  27.302  1.00  0.00     0.148 A 
ATOM     65  C   UNL A   1      45.757  26.891  25.569  1.00  0.00     0.002 A 
ATOM     66  C   UNL A   1      45.417  24.520  25.922  1.00  0.00     0.091 A 
ATOM     67  F   UNL A   1      45.390  23.657  28.146  1.00  0.00    -0.205 F 
ATOM     68  C   UNL A   1      45.504  25.624  25.059  1.00  0.00     0.022 A 
BRANCH  66  69
ATOM     69  S   UNL A   1      45.218  22.914  25.135  1.00  0.00     0.127 S 
ATOM     70  O   UNL A   1      46.328  22.160  25.715  1.00  0.00    -0.237 OA
ATOM     71  O   UNL A   1      43.894  22.506  25.607  1.00  0.00    -0.237 OA
ATOM     72  O   UNL A   1      45.307  23.153  23.702  1.00  0.00    -0.744 OA
ENDBRANCH  66  69
ENDBRANCH  48  62
BRANCH  49  73
ATOM     73  C   UNL A   1      46.125  27.008  37.746  1.00  0.00     0.023 A 
ATOM     74  C   UNL A   1      45.766  25.840  38.445  1.00  0.00     0.012 A 
ATOM     75  C   UNL A   1      46.537  28.146  38.468  1.00  0.00     0.148 A 
ATOM     76  C   UNL A   1      45.775  25.811  39.838  1.00  0.00     0.002 A 
ATOM     77  C   UNL A   1      46.579  28.099  39.859  1.00  0.00     0.091 A 
ATOM     78  F   UNL A   1      46.908  29.234  37.781  1.00  0.00    -0.205 F 
ATOM     79  C   UNL A   1      46.184  26.938  40.545  1.00  0.00     0.022 A 
BRANCH  77  80
ATOM     80  S   UNL A   1      47.188  29.458  40.865  1.00  0.00     0.127 S 
ATOM     81  O   UNL A   1      48.044  30.167  39.916  1.00  0.00    -0.237 OA
ATOM     82  O   UNL A   1      45.949  30.154  41.212  1.00  0.00    -0.237 OA
ATOM     83  O   UNL A   1      47.871  28.838  41.991  1.00  0.00    -0.744 OA
ENDBRANCH  77  80
ENDBRANCH  49  73
BRANCH  61  84
ATOM     84  C   UNL A   1      50.871  25.351  32.919  1.00  0.00     0.023 A 
ATOM     85  C   UNL A   1      51.801  26.403  33.022  1.00  0.00     0.012 A 
ATOM     86  C   UNL A   1      51.320  24.017  32.946  1.00  0.00     0.148 A 
ATOM     87  C   UNL A   1      53.164  26.130  33.116  1.00  0.00     0.002 A 
ATOM     88  C   UNL A   1      52.673  23.752  33.099  1.00  0.00     0.091 A 
ATOM     89  F   UNL A   1      50.416  23.035  32.818  1.00  0.00    -0.205 F 
ATOM     90  C   UNL A   1      53.598  24.807  33.169  1.00  0.00     0.022 A 
BRANCH  88  91
ATOM     91  S   UNL A   1      53.310  22.084  33.283  1.00  0.00     0.127 S 
ATOM     92  O   UNL A   1      52.743  21.417  32.112  1.00  0.00    -0.237 OA
ATOM     93  O   UNL A   1      54.756  22.299  33.223  1.00  0.00    -0.237 OA
ATOM     94  O   UNL A   1      52.823  21.606  34.570  1.00  0.00    -0.744 OA
ENDBRANCH  88  91
ENDBRANCH  61  84
ENDBRANCH  35  36
ENDBRANCH  28  30
ENDBRANCH  27  28
ENDBRANCH  26  27
ENDBRANCH  25  26
ENDBRANCH  24  25
ENDBRANCH  23  24
ENDBRANCH   1  23
TORSDOF 23
ENDMDL
