MODEL 1
REMARK VINA RESULT:     -10.8      0.000      0.000
REMARK SMILES CCOc1cc([C@@H]2[NH2+][C@H](C(=O)OCCOCCOCCOC(=O)c3ccc(-c4c5nc(c(-c6cccc(S(=O)(=O)[O-])c6F)c6ccc([nH]6)c(-c6cccc(S(=O)(=O)[O-])c6F)c6nc(c(-c7cccc(S(=O)(=O)[O-])c7F)c7ccc4[nH]7)C=C6)C=C5)cc3)CS2)ccc1OCc1ccc(Cl)cc1
REMARK SMILES IDX 16 1 15 2 14 3 13 4 12 5 10 6 11 7 9 8 7 9 8 10 88 11 87 14
REMARK SMILES IDX 6 15 4 16 5 17 91 18 90 19 89 20 3 21 2 22 1 23 92 24 93 25
REMARK SMILES IDX 94 26 95 27 100 28 96 29 99 30 97 31 98 32 17 33 18 34 19 35
REMARK SMILES IDX 20 36 21 37 22 38 23 39 24 40 25 41 86 42 26 43 85 44 27 45
REMARK SMILES IDX 28 46 29 47 79 48 30 49 84 50 78 51 80 52 31 53 83 54 77 55
REMARK SMILES IDX 76 56 32 58 64 59 44 60 63 61 45 62 48 63 62 64 81 65 46 66
REMARK SMILES IDX 47 67 61 69 82 70 49 71 33 72 34 73 42 74 35 75 37 76 43 77
REMARK SMILES IDX 36 78 38 79 39 80 40 81 41 82 65 83 66 84 74 85 67 86 69 87
REMARK SMILES IDX 75 88 68 89 70 90 71 91 72 92 73 93 50 94 51 95 59 96 52 97
REMARK SMILES IDX 54 98 60 99 53 100 55 101 56 102 57 103 58 104
REMARK H PARENT 8 12 8 13 80 57 48 68
REMARK Flexibility Score: inf
ROOT
ATOM      1  C   UNL A   1      34.863  24.680  25.332  1.00  0.00     0.188 C 
ENDROOT
BRANCH   1   2
ATOM      2  O   UNL A   1      34.154  25.810  24.830  1.00  0.00    -0.376 OA
BRANCH   2   3
ATOM      3  C   UNL A   1      33.985  26.815  25.836  1.00  0.00     0.202 C 
BRANCH   3   4
ATOM      4  C   UNL A   1      32.666  27.615  25.766  1.00  0.00     0.261 C 
BRANCH   4   5
ATOM      5  O   UNL A   1      32.869  28.948  25.231  1.00  0.00    -0.459 OA
BRANCH   5   6
ATOM      6  C   UNL A   1      32.932  29.080  23.880  1.00  0.00     0.365 C 
ATOM      7  O   UNL A   1      33.970  29.307  23.264  1.00  0.00    -0.245 OA
BRANCH   6   8
ATOM      8  C   UNL A   1      31.574  28.947  23.158  1.00  0.00     0.304 C 
ATOM      9  C   UNL A   1      30.713  26.881  22.158  1.00  0.00     0.274 C 
ATOM     10  N   UNL A   1      31.569  28.058  21.952  1.00  0.00    -0.319 N 
ATOM     11  S   UNL A   1      29.403  27.411  23.288  1.00  0.00    -0.087 SA
ATOM     12  H   UNL A   1      31.220  28.587  21.152  1.00  0.00     0.348 HD
ATOM     13  H   UNL A   1      32.523  27.738  21.785  1.00  0.00     0.348 HD
ATOM     14  C   UNL A   1      30.468  28.604  24.144  1.00  0.00     0.153 C 
BRANCH   9  15
ATOM     15  C   UNL A   1      31.556  25.685  22.598  1.00  0.00     0.024 A 
ATOM     16  C   UNL A   1      31.611  23.534  23.787  1.00  0.00     0.161 A 
ATOM     17  C   UNL A   1      31.119  24.845  23.661  1.00  0.00     0.061 A 
ATOM     18  C   UNL A   1      32.514  23.061  22.824  1.00  0.00     0.161 A 
ATOM     19  C   UNL A   1      33.057  23.932  21.885  1.00  0.00     0.051 A 
ATOM     20  C   UNL A   1      32.619  25.241  21.801  1.00  0.00     0.015 A 
BRANCH  16  21
ATOM     21  O   UNL A   1      31.059  22.645  24.666  1.00  0.00    -0.490 OA
BRANCH  21  22
ATOM     22  C   UNL A   1      31.472  22.737  26.035  1.00  0.00     0.226 C 
ATOM     23  C   UNL A   1      30.658  23.858  26.688  1.00  0.00     0.049 C 
ENDBRANCH  21  22
ENDBRANCH  16  21
BRANCH  18  24
ATOM     24  O   UNL A   1      32.919  21.774  22.620  1.00  0.00    -0.485 OA
BRANCH  24  25
ATOM     25  C   UNL A   1      31.928  20.761  22.573  1.00  0.00     0.265 C 
BRANCH  25  26
ATOM     26  C   UNL A   1      32.325  19.479  23.279  1.00  0.00    -0.011 A 
ATOM     27  C   UNL A   1      32.595  18.283  22.592  1.00  0.00     0.009 A 
ATOM     28  C   UNL A   1      32.453  19.479  24.672  1.00  0.00     0.009 A 
ATOM     29  C   UNL A   1      32.965  17.121  23.263  1.00  0.00     0.021 A 
ATOM     30  C   UNL A   1      32.825  18.317  25.351  1.00  0.00     0.021 A 
ATOM     31  C   UNL A   1      33.079  17.143  24.645  1.00  0.00     0.041 A 
ATOM     32  Cl  UNL A   1      33.539  15.715  25.482  1.00  0.00    -0.084 Cl
ENDBRANCH  25  26
ENDBRANCH  24  25
ENDBRANCH  18  24
ENDBRANCH   9  15
ENDBRANCH   6   8
ENDBRANCH   5   6
ENDBRANCH   4   5
ENDBRANCH   3   4
ENDBRANCH   2   3
ENDBRANCH   1   2
BRANCH   1  33
ATOM     33  C   UNL A   1      35.482  23.821  24.259  1.00  0.00     0.188 C 
BRANCH  33  34
ATOM     34  O   UNL A   1      36.497  22.947  24.760  1.00  0.00    -0.376 OA
BRANCH  34  35
ATOM     35  C   UNL A   1      36.001  21.675  25.168  1.00  0.00     0.202 C 
BRANCH  35  36
ATOM     36  C   UNL A   1      37.109  20.625  25.274  1.00  0.00     0.261 C 
BRANCH  36  37
ATOM     37  O   UNL A   1      38.399  21.202  25.064  1.00  0.00    -0.460 OA
BRANCH  37  38
ATOM     38  C   UNL A   1      39.350  20.841  25.978  1.00  0.00     0.338 C 
ATOM     39  O   UNL A   1      39.826  19.752  26.158  1.00  0.00    -0.246 OA
BRANCH  38  40
ATOM     40  C   UNL A   1      39.870  22.097  26.572  1.00  0.00     0.060 A 
ATOM     41  C   UNL A   1      39.353  23.318  26.107  1.00  0.00     0.016 A 
ATOM     42  C   UNL A   1      40.787  22.066  27.625  1.00  0.00     0.016 A 
ATOM     43  C   UNL A   1      39.772  24.516  26.682  1.00  0.00     0.010 A 
ATOM     44  C   UNL A   1      41.228  23.261  28.180  1.00  0.00     0.010 A 
ATOM     45  C   UNL A   1      40.752  24.486  27.682  1.00  0.00    -0.014 A 
BRANCH  45  46
ATOM     46  C   UNL A   1      41.521  25.704  27.999  1.00  0.00     0.031 A 
ATOM     47  C   UNL A   1      40.776  26.803  28.703  1.00  0.00     0.074 A 
ATOM     48  C   UNL A   1      42.795  25.857  27.600  1.00  0.00     0.049 A 
ATOM     49  N   UNL A   1      41.152  28.023  28.970  1.00  0.00    -0.248 NA
ATOM     50  C   UNL A   1      39.405  26.483  29.148  1.00  0.00     0.031 C 
ATOM     51  C   UNL A   1      43.596  24.849  26.911  1.00  0.00     0.029 A 
ATOM     52  N   UNL A   1      43.619  26.949  27.683  1.00  0.00    -0.354 N 
ATOM     53  C   UNL A   1      40.057  28.623  29.580  1.00  0.00     0.074 A 
ATOM     54  C   UNL A   1      39.000  27.641  29.639  1.00  0.00     0.031 C 
ATOM     55  C   UNL A   1      44.789  25.385  26.594  1.00  0.00     0.029 A 
ATOM     56  C   UNL A   1      44.818  26.778  27.033  1.00  0.00     0.049 A 
ATOM     57  H   UNL A   1      43.376  27.775  28.162  1.00  0.00     0.167 HD
ATOM     58  C   UNL A   1      39.946  29.883  30.056  1.00  0.00     0.034 A 
ATOM     59  C   UNL A   1      45.804  27.667  26.797  1.00  0.00     0.034 A 
ATOM     60  C   UNL A   1      41.005  30.847  29.986  1.00  0.00     0.049 A 
ATOM     61  C   UNL A   1      45.649  29.074  27.322  1.00  0.00     0.074 A 
ATOM     62  C   UNL A   1      41.023  32.143  30.463  1.00  0.00     0.029 A 
ATOM     63  N   UNL A   1      42.234  30.618  29.386  1.00  0.00    -0.354 N 
ATOM     64  N   UNL A   1      44.655  29.599  28.000  1.00  0.00    -0.248 NA
ATOM     65  C   UNL A   1      46.762  30.001  27.077  1.00  0.00     0.031 C 
ATOM     66  C   UNL A   1      42.258  32.707  30.129  1.00  0.00     0.029 A 
ATOM     67  C   UNL A   1      43.019  31.751  29.473  1.00  0.00     0.049 A 
ATOM     68  H   UNL A   1      42.506  29.772  28.960  1.00  0.00     0.167 HD
ATOM     69  C   UNL A   1      45.038  30.903  28.295  1.00  0.00     0.074 A 
ATOM     70  C   UNL A   1      46.364  31.082  27.736  1.00  0.00     0.031 C 
ATOM     71  C   UNL A   1      44.358  31.873  28.956  1.00  0.00     0.034 A 
BRANCH  58  72
ATOM     72  C   UNL A   1      38.642  30.268  30.700  1.00  0.00     0.023 A 
ATOM     73  C   UNL A   1      38.394  29.908  32.041  1.00  0.00     0.012 A 
ATOM     74  C   UNL A   1      37.673  31.000  29.989  1.00  0.00     0.148 A 
ATOM     75  C   UNL A   1      37.188  30.244  32.654  1.00  0.00     0.002 A 
ATOM     76  C   UNL A   1      36.492  31.370  30.621  1.00  0.00     0.091 A 
ATOM     77  F   UNL A   1      37.915  31.303  28.706  1.00  0.00    -0.205 F 
ATOM     78  C   UNL A   1      36.243  30.983  31.948  1.00  0.00     0.022 A 
BRANCH  76  79
ATOM     79  S   UNL A   1      35.242  32.383  29.824  1.00  0.00     0.127 S 
ATOM     80  O   UNL A   1      34.310  32.623  30.924  1.00  0.00    -0.237 OA
ATOM     81  O   UNL A   1      36.016  33.555  29.414  1.00  0.00    -0.237 OA
ATOM     82  O   UNL A   1      34.718  31.585  28.725  1.00  0.00    -0.744 OA
ENDBRANCH  76  79
ENDBRANCH  58  72
BRANCH  59  83
ATOM     83  C   UNL A   1      47.034  27.251  26.064  1.00  0.00     0.023 A 
ATOM     84  C   UNL A   1      47.108  27.447  24.671  1.00  0.00     0.012 A 
ATOM     85  C   UNL A   1      48.131  26.674  26.733  1.00  0.00     0.148 A 
ATOM     86  C   UNL A   1      48.236  27.048  23.953  1.00  0.00     0.002 A 
ATOM     87  C   UNL A   1      49.274  26.324  26.019  1.00  0.00     0.091 A 
ATOM     88  F   UNL A   1      48.038  26.477  28.055  1.00  0.00    -0.205 F 
ATOM     89  C   UNL A   1      49.322  26.496  24.627  1.00  0.00     0.022 A 
BRANCH  87  90
ATOM     90  S   UNL A   1      50.763  25.714  26.818  1.00  0.00     0.127 S 
ATOM     91  O   UNL A   1      50.295  24.459  27.402  1.00  0.00    -0.237 OA
ATOM     92  O   UNL A   1      51.674  25.562  25.684  1.00  0.00    -0.237 OA
ATOM     93  O   UNL A   1      51.152  26.749  27.767  1.00  0.00    -0.744 OA
ENDBRANCH  87  90
ENDBRANCH  59  83
BRANCH  71  94
ATOM     94  C   UNL A   1      45.046  33.196  29.158  1.00  0.00     0.023 A 
ATOM     95  C   UNL A   1      45.805  33.423  30.321  1.00  0.00     0.012 A 
ATOM     96  C   UNL A   1      45.017  34.176  28.145  1.00  0.00     0.148 A 
ATOM     97  C   UNL A   1      46.503  34.618  30.487  1.00  0.00     0.002 A 
ATOM     98  C   UNL A   1      45.757  35.342  28.294  1.00  0.00     0.091 A 
ATOM     99  F   UNL A   1      44.275  33.943  27.052  1.00  0.00    -0.205 F 
ATOM    100  C   UNL A   1      46.489  35.570  29.470  1.00  0.00     0.022 A 
BRANCH  98 101
ATOM    101  S   UNL A   1      45.881  36.573  26.993  1.00  0.00     0.127 S 
ATOM    102  O   UNL A   1      44.523  37.112  26.963  1.00  0.00    -0.237 OA
ATOM    103  O   UNL A   1      46.890  37.488  27.527  1.00  0.00    -0.237 OA
ATOM    104  O   UNL A   1      46.294  35.852  25.796  1.00  0.00    -0.744 OA
ENDBRANCH  98 101
ENDBRANCH  71  94
ENDBRANCH  45  46
ENDBRANCH  38  40
ENDBRANCH  37  38
ENDBRANCH  36  37
ENDBRANCH  35  36
ENDBRANCH  34  35
ENDBRANCH  33  34
ENDBRANCH   1  33
TORSDOF 26
ENDMDL
MODEL 2
REMARK VINA RESULT:     -10.4      1.943      7.449
REMARK SMILES CCOc1cc([C@@H]2[NH2+][C@H](C(=O)OCCOCCOCCOC(=O)c3ccc(-c4c5nc(c(-c6cccc(S(=O)(=O)[O-])c6F)c6ccc([nH]6)c(-c6cccc(S(=O)(=O)[O-])c6F)c6nc(c(-c7cccc(S(=O)(=O)[O-])c7F)c7ccc4[nH]7)C=C6)C=C5)cc3)CS2)ccc1OCc1ccc(Cl)cc1
REMARK SMILES IDX 16 1 15 2 14 3 13 4 12 5 10 6 11 7 9 8 7 9 8 10 88 11 87 14
REMARK SMILES IDX 6 15 4 16 5 17 91 18 90 19 89 20 3 21 2 22 1 23 92 24 93 25
REMARK SMILES IDX 94 26 95 27 100 28 96 29 99 30 97 31 98 32 17 33 18 34 19 35
REMARK SMILES IDX 20 36 21 37 22 38 23 39 24 40 25 41 86 42 26 43 85 44 27 45
REMARK SMILES IDX 28 46 29 47 79 48 30 49 84 50 78 51 80 52 31 53 83 54 77 55
REMARK SMILES IDX 76 56 32 58 64 59 44 60 63 61 45 62 48 63 62 64 81 65 46 66
REMARK SMILES IDX 47 67 61 69 82 70 49 71 33 72 34 73 42 74 35 75 37 76 43 77
REMARK SMILES IDX 36 78 38 79 39 80 40 81 41 82 65 83 66 84 74 85 67 86 69 87
REMARK SMILES IDX 75 88 68 89 70 90 71 91 72 92 73 93 50 94 51 95 59 96 52 97
REMARK SMILES IDX 54 98 60 99 53 100 55 101 56 102 57 103 58 104
REMARK H PARENT 8 12 8 13 80 57 48 68
REMARK Flexibility Score: inf
ROOT
ATOM      1  C   UNL A   1      35.822  24.128  25.156  1.00  0.00     0.188 C 
ENDROOT
BRANCH   1   2
ATOM      2  O   UNL A   1      34.557  24.785  25.158  1.00  0.00    -0.376 OA
BRANCH   2   3
ATOM      3  C   UNL A   1      34.698  26.198  25.340  1.00  0.00     0.202 C 
BRANCH   3   4
ATOM      4  C   UNL A   1      33.383  27.007  25.336  1.00  0.00     0.261 C 
BRANCH   4   5
ATOM      5  O   UNL A   1      33.589  28.376  24.903  1.00  0.00    -0.459 OA
BRANCH   5   6
ATOM      6  C   UNL A   1      33.464  28.639  23.575  1.00  0.00     0.365 C 
ATOM      7  O   UNL A   1      34.402  28.960  22.852  1.00  0.00    -0.245 OA
BRANCH   6   8
ATOM      8  C   UNL A   1      32.022  28.531  23.033  1.00  0.00     0.304 C 
ATOM      9  C   UNL A   1      30.920  26.439  22.386  1.00  0.00     0.274 C 
ATOM     10  N   UNL A   1      31.816  27.519  21.947  1.00  0.00    -0.319 N 
ATOM     11  S   UNL A   1      29.792  27.187  23.588  1.00  0.00    -0.087 SA
ATOM     12  H   UNL A   1      31.406  27.983  21.136  1.00  0.00     0.348 HD
ATOM     13  H   UNL A   1      32.721  27.112  21.712  1.00  0.00     0.348 HD
ATOM     14  C   UNL A   1      31.025  28.383  24.171  1.00  0.00     0.153 C 
BRANCH   9  15
ATOM     15  C   UNL A   1      31.734  25.238  22.865  1.00  0.00     0.024 A 
ATOM     16  C   UNL A   1      31.722  23.089  24.058  1.00  0.00     0.161 A 
ATOM     17  C   UNL A   1      31.245  24.403  23.908  1.00  0.00     0.061 A 
ATOM     18  C   UNL A   1      32.664  22.609  23.137  1.00  0.00     0.161 A 
ATOM     19  C   UNL A   1      33.254  23.474  22.222  1.00  0.00     0.051 A 
ATOM     20  C   UNL A   1      32.828  24.786  22.117  1.00  0.00     0.015 A 
BRANCH  16  21
ATOM     21  O   UNL A   1      31.125  22.205  24.912  1.00  0.00    -0.490 OA
BRANCH  21  22
ATOM     22  C   UNL A   1      31.116  22.545  26.304  1.00  0.00     0.226 C 
ATOM     23  C   UNL A   1      32.567  22.530  26.792  1.00  0.00     0.049 C 
ENDBRANCH  21  22
ENDBRANCH  16  21
BRANCH  18  24
ATOM     24  O   UNL A   1      33.068  21.318  22.952  1.00  0.00    -0.485 OA
BRANCH  24  25
ATOM     25  C   UNL A   1      32.074  20.312  22.860  1.00  0.00     0.265 C 
BRANCH  25  26
ATOM     26  C   UNL A   1      32.460  19.003  23.519  1.00  0.00    -0.011 A 
ATOM     27  C   UNL A   1      32.948  17.900  22.796  1.00  0.00     0.009 A 
ATOM     28  C   UNL A   1      32.352  18.881  24.909  1.00  0.00     0.009 A 
ATOM     29  C   UNL A   1      33.303  16.711  23.427  1.00  0.00     0.021 A 
ATOM     30  C   UNL A   1      32.709  17.691  25.547  1.00  0.00     0.021 A 
ATOM     31  C   UNL A   1      33.182  16.611  24.804  1.00  0.00     0.041 A 
ATOM     32  Cl  UNL A   1      33.622  15.149  25.591  1.00  0.00    -0.084 Cl
ENDBRANCH  25  26
ENDBRANCH  24  25
ENDBRANCH  18  24
ENDBRANCH   9  15
ENDBRANCH   6   8
ENDBRANCH   5   6
ENDBRANCH   4   5
ENDBRANCH   3   4
ENDBRANCH   2   3
ENDBRANCH   1   2
BRANCH   1  33
ATOM     33  C   UNL A   1      36.262  23.654  23.794  1.00  0.00     0.188 C 
BRANCH  33  34
ATOM     34  O   UNL A   1      36.916  22.383  23.829  1.00  0.00    -0.376 OA
BRANCH  34  35
ATOM     35  C   UNL A   1      36.587  21.605  24.977  1.00  0.00     0.202 C 
BRANCH  35  36
ATOM     36  C   UNL A   1      37.735  20.692  25.409  1.00  0.00     0.261 C 
BRANCH  36  37
ATOM     37  O   UNL A   1      39.002  21.335  25.256  1.00  0.00    -0.460 OA
BRANCH  37  38
ATOM     38  C   UNL A   1      39.851  21.200  26.320  1.00  0.00     0.338 C 
ATOM     39  O   UNL A   1      40.430  20.211  26.682  1.00  0.00    -0.246 OA
BRANCH  38  40
ATOM     40  C   UNL A   1      40.120  22.567  26.829  1.00  0.00     0.060 A 
ATOM     41  C   UNL A   1      39.337  23.626  26.339  1.00  0.00     0.016 A 
ATOM     42  C   UNL A   1      41.067  22.786  27.832  1.00  0.00     0.016 A 
ATOM     43  C   UNL A   1      39.518  24.915  26.837  1.00  0.00     0.010 A 
ATOM     44  C   UNL A   1      41.269  24.075  28.308  1.00  0.00     0.010 A 
ATOM     45  C   UNL A   1      40.524  25.144  27.783  1.00  0.00    -0.014 A 
BRANCH  45  46
ATOM     46  C   UNL A   1      41.032  26.511  28.004  1.00  0.00     0.031 A 
ATOM     47  C   UNL A   1      42.457  26.771  27.602  1.00  0.00     0.074 A 
ATOM     48  C   UNL A   1      40.288  27.449  28.613  1.00  0.00     0.049 A 
ATOM     49  N   UNL A   1      43.200  27.822  27.811  1.00  0.00    -0.248 NA
ATOM     50  C   UNL A   1      43.141  25.681  26.879  1.00  0.00     0.031 C 
ATOM     51  C   UNL A   1      38.900  27.288  29.040  1.00  0.00     0.029 A 
ATOM     52  N   UNL A   1      40.623  28.715  29.018  1.00  0.00    -0.354 N 
ATOM     53  C   UNL A   1      44.445  27.506  27.280  1.00  0.00     0.074 A 
ATOM     54  C   UNL A   1      44.363  26.168  26.745  1.00  0.00     0.031 C 
ATOM     55  C   UNL A   1      38.513  28.402  29.687  1.00  0.00     0.029 A 
ATOM     56  C   UNL A   1      39.635  29.336  29.744  1.00  0.00     0.049 A 
ATOM     57  H   UNL A   1      41.488  29.138  28.809  1.00  0.00     0.167 HD
ATOM     58  C   UNL A   1      45.559  28.270  27.237  1.00  0.00     0.034 A 
ATOM     59  C   UNL A   1      39.660  30.512  30.403  1.00  0.00     0.034 A 
ATOM     60  C   UNL A   1      45.625  29.597  27.777  1.00  0.00     0.049 A 
ATOM     61  C   UNL A   1      40.921  31.339  30.356  1.00  0.00     0.074 A 
ATOM     62  C   UNL A   1      46.687  30.481  27.764  1.00  0.00     0.029 A 
ATOM     63  N   UNL A   1      44.582  30.225  28.441  1.00  0.00    -0.354 N 
ATOM     64  N   UNL A   1      42.058  31.082  29.752  1.00  0.00    -0.248 NA
ATOM     65  C   UNL A   1      40.895  32.632  31.054  1.00  0.00     0.031 C 
ATOM     66  C   UNL A   1      46.291  31.638  28.443  1.00  0.00     0.029 A 
ATOM     67  C   UNL A   1      44.974  31.484  28.850  1.00  0.00     0.049 A 
ATOM     68  H   UNL A   1      43.693  29.830  28.599  1.00  0.00     0.167 HD
ATOM     69  C   UNL A   1      42.867  32.193  29.965  1.00  0.00     0.074 A 
ATOM     70  C   UNL A   1      42.082  33.134  30.740  1.00  0.00     0.031 C 
ATOM     71  C   UNL A   1      44.145  32.417  29.569  1.00  0.00     0.034 A 
BRANCH  58  72
ATOM     72  C   UNL A   1      46.776  27.686  26.572  1.00  0.00     0.023 A 
ATOM     73  C   UNL A   1      47.672  26.900  27.326  1.00  0.00     0.012 A 
ATOM     74  C   UNL A   1      47.024  27.898  25.203  1.00  0.00     0.148 A 
ATOM     75  C   UNL A   1      48.812  26.359  26.735  1.00  0.00     0.002 A 
ATOM     76  C   UNL A   1      48.139  27.318  24.611  1.00  0.00     0.091 A 
ATOM     77  F   UNL A   1      46.178  28.676  24.513  1.00  0.00    -0.205 F 
ATOM     78  C   UNL A   1      49.040  26.559  25.376  1.00  0.00     0.022 A 
BRANCH  76  79
ATOM     79  S   UNL A   1      48.484  27.456  22.853  1.00  0.00     0.127 S 
ATOM     80  O   UNL A   1      48.514  26.052  22.447  1.00  0.00    -0.237 OA
ATOM     81  O   UNL A   1      47.322  28.205  22.373  1.00  0.00    -0.237 OA
ATOM     82  O   UNL A   1      49.751  28.164  22.746  1.00  0.00    -0.744 OA
ENDBRANCH  76  79
ENDBRANCH  58  72
BRANCH  59  83
ATOM     83  C   UNL A   1      38.450  30.995  31.129  1.00  0.00     0.023 A 
ATOM     84  C   UNL A   1      38.354  30.795  32.521  1.00  0.00     0.012 A 
ATOM     85  C   UNL A   1      37.402  31.655  30.458  1.00  0.00     0.148 A 
ATOM     86  C   UNL A   1      37.225  31.215  33.226  1.00  0.00     0.002 A 
ATOM     87  C   UNL A   1      36.302  32.116  31.175  1.00  0.00     0.091 A 
ATOM     88  F   UNL A   1      37.500  31.820  29.132  1.00  0.00    -0.205 F 
ATOM     89  C   UNL A   1      36.205  31.884  32.555  1.00  0.00     0.022 A 
BRANCH  87  90
ATOM     90  S   UNL A   1      34.994  33.088  30.417  1.00  0.00     0.127 S 
ATOM     91  O   UNL A   1      35.733  34.241  29.911  1.00  0.00    -0.237 OA
ATOM     92  O   UNL A   1      34.498  32.175  29.386  1.00  0.00    -0.237 OA
ATOM     93  O   UNL A   1      34.041  33.364  31.484  1.00  0.00    -0.744 OA
ENDBRANCH  87  90
ENDBRANCH  59  83
BRANCH  71  94
ATOM     94  C   UNL A   1      44.763  33.744  29.920  1.00  0.00     0.023 A 
ATOM     95  C   UNL A   1      44.614  34.840  29.050  1.00  0.00     0.012 A 
ATOM     96  C   UNL A   1      45.406  33.924  31.161  1.00  0.00     0.148 A 
ATOM     97  C   UNL A   1      45.122  36.091  29.396  1.00  0.00     0.002 A 
ATOM     98  C   UNL A   1      45.863  35.185  31.522  1.00  0.00     0.091 A 
ATOM     99  F   UNL A   1      45.548  32.862  31.967  1.00  0.00    -0.205 F 
ATOM    100  C   UNL A   1      45.734  36.266  30.635  1.00  0.00     0.022 A 
BRANCH  98 101
ATOM    101  S   UNL A   1      46.568  35.524  33.139  1.00  0.00     0.127 S 
ATOM    102  O   UNL A   1      46.876  36.949  33.035  1.00  0.00    -0.237 OA
ATOM    103  O   UNL A   1      45.457  35.204  34.035  1.00  0.00    -0.237 OA
ATOM    104  O   UNL A   1      47.721  34.643  33.267  1.00  0.00    -0.744 OA
ENDBRANCH  98 101
ENDBRANCH  71  94
ENDBRANCH  45  46
ENDBRANCH  38  40
ENDBRANCH  37  38
ENDBRANCH  36  37
ENDBRANCH  35  36
ENDBRANCH  34  35
ENDBRANCH  33  34
ENDBRANCH   1  33
TORSDOF 26
ENDMDL
MODEL 3
REMARK VINA RESULT:     -10.2      3.188      8.789
REMARK SMILES CCOc1cc([C@@H]2[NH2+][C@H](C(=O)OCCOCCOCCOC(=O)c3ccc(-c4c5nc(c(-c6cccc(S(=O)(=O)[O-])c6F)c6ccc([nH]6)c(-c6cccc(S(=O)(=O)[O-])c6F)c6nc(c(-c7cccc(S(=O)(=O)[O-])c7F)c7ccc4[nH]7)C=C6)C=C5)cc3)CS2)ccc1OCc1ccc(Cl)cc1
REMARK SMILES IDX 16 1 15 2 14 3 13 4 12 5 10 6 11 7 9 8 7 9 8 10 88 11 87 14
REMARK SMILES IDX 6 15 4 16 5 17 91 18 90 19 89 20 3 21 2 22 1 23 92 24 93 25
REMARK SMILES IDX 94 26 95 27 100 28 96 29 99 30 97 31 98 32 17 33 18 34 19 35
REMARK SMILES IDX 20 36 21 37 22 38 23 39 24 40 25 41 86 42 26 43 85 44 27 45
REMARK SMILES IDX 28 46 29 47 79 48 30 49 84 50 78 51 80 52 31 53 83 54 77 55
REMARK SMILES IDX 76 56 32 58 64 59 44 60 63 61 45 62 48 63 62 64 81 65 46 66
REMARK SMILES IDX 47 67 61 69 82 70 49 71 33 72 34 73 42 74 35 75 37 76 43 77
REMARK SMILES IDX 36 78 38 79 39 80 40 81 41 82 65 83 66 84 74 85 67 86 69 87
REMARK SMILES IDX 75 88 68 89 70 90 71 91 72 92 73 93 50 94 51 95 59 96 52 97
REMARK SMILES IDX 54 98 60 99 53 100 55 101 56 102 57 103 58 104
REMARK H PARENT 8 12 8 13 80 57 48 68
REMARK Flexibility Score: inf
ROOT
ATOM      1  C   UNL A   1      35.214  23.864  24.853  1.00  0.00     0.188 C 
ENDROOT
BRANCH   1   2
ATOM      2  O   UNL A   1      33.812  23.777  25.091  1.00  0.00    -0.376 OA
BRANCH   2   3
ATOM      3  C   UNL A   1      33.425  24.539  26.241  1.00  0.00     0.202 C 
BRANCH   3   4
ATOM      4  C   UNL A   1      31.932  24.456  26.626  1.00  0.00     0.261 C 
BRANCH   4   5
ATOM      5  O   UNL A   1      31.230  25.693  26.341  1.00  0.00    -0.459 OA
BRANCH   5   6
ATOM      6  C   UNL A   1      29.955  25.600  25.879  1.00  0.00     0.365 C 
ATOM      7  O   UNL A   1      29.000  25.267  26.574  1.00  0.00    -0.245 OA
BRANCH   6   8
ATOM      8  C   UNL A   1      29.793  25.921  24.377  1.00  0.00     0.304 C 
ATOM      9  C   UNL A   1      30.800  27.844  23.238  1.00  0.00     0.274 C 
ATOM     10  N   UNL A   1      29.660  27.375  24.040  1.00  0.00    -0.319 N 
ATOM     11  S   UNL A   1      31.352  26.413  22.276  1.00  0.00    -0.087 SA
ATOM     12  H   UNL A   1      28.800  27.516  23.511  1.00  0.00     0.348 HD
ATOM     13  H   UNL A   1      29.639  27.906  24.911  1.00  0.00     0.348 HD
ATOM     14  C   UNL A   1      30.863  25.223  23.555  1.00  0.00     0.153 C 
BRANCH   9  15
ATOM     15  C   UNL A   1      31.841  28.510  24.136  1.00  0.00     0.024 A 
ATOM     16  C   UNL A   1      32.256  29.966  26.072  1.00  0.00     0.161 A 
ATOM     17  C   UNL A   1      31.489  29.628  24.944  1.00  0.00     0.061 A 
ATOM     18  C   UNL A   1      33.355  29.160  26.403  1.00  0.00     0.161 A 
ATOM     19  C   UNL A   1      33.787  28.171  25.526  1.00  0.00     0.051 A 
ATOM     20  C   UNL A   1      33.066  27.878  24.382  1.00  0.00     0.015 A 
BRANCH  16  21
ATOM     21  O   UNL A   1      31.827  30.898  26.976  1.00  0.00    -0.490 OA
BRANCH  21  22
ATOM     22  C   UNL A   1      31.278  32.113  26.451  1.00  0.00     0.226 C 
ATOM     23  C   UNL A   1      32.009  33.278  27.123  1.00  0.00     0.049 C 
ENDBRANCH  21  22
ENDBRANCH  16  21
BRANCH  18  24
ATOM     24  O   UNL A   1      34.073  29.161  27.564  1.00  0.00    -0.485 OA
BRANCH  24  25
ATOM     25  C   UNL A   1      35.488  29.154  27.475  1.00  0.00     0.265 C 
BRANCH  25  26
ATOM     26  C   UNL A   1      36.140  30.437  27.953  1.00  0.00    -0.011 A 
ATOM     27  C   UNL A   1      37.409  30.467  28.558  1.00  0.00     0.009 A 
ATOM     28  C   UNL A   1      35.472  31.652  27.770  1.00  0.00     0.009 A 
ATOM     29  C   UNL A   1      37.990  31.659  28.982  1.00  0.00     0.021 A 
ATOM     30  C   UNL A   1      36.050  32.851  28.191  1.00  0.00     0.021 A 
ATOM     31  C   UNL A   1      37.305  32.850  28.796  1.00  0.00     0.041 A 
ATOM     32  Cl  UNL A   1      38.016  34.327  29.312  1.00  0.00    -0.084 Cl
ENDBRANCH  25  26
ENDBRANCH  24  25
ENDBRANCH  18  24
ENDBRANCH   9  15
ENDBRANCH   6   8
ENDBRANCH   5   6
ENDBRANCH   4   5
ENDBRANCH   3   4
ENDBRANCH   2   3
ENDBRANCH   1   2
BRANCH   1  33
ATOM     33  C   UNL A   1      35.630  23.409  23.477  1.00  0.00     0.188 C 
BRANCH  33  34
ATOM     34  O   UNL A   1      36.534  22.301  23.504  1.00  0.00    -0.376 OA
BRANCH  34  35
ATOM     35  C   UNL A   1      36.402  21.487  24.666  1.00  0.00     0.202 C 
BRANCH  35  36
ATOM     36  C   UNL A   1      37.748  20.958  25.161  1.00  0.00     0.261 C 
BRANCH  36  37
ATOM     37  O   UNL A   1      38.643  22.024  25.484  1.00  0.00    -0.460 OA
BRANCH  37  38
ATOM     38  C   UNL A   1      39.686  21.677  26.297  1.00  0.00     0.338 C 
ATOM     39  O   UNL A   1      40.250  20.617  26.366  1.00  0.00    -0.246 OA
BRANCH  38  40
ATOM     40  C   UNL A   1      40.163  22.928  26.937  1.00  0.00     0.060 A 
ATOM     41  C   UNL A   1      39.555  24.139  26.566  1.00  0.00     0.016 A 
ATOM     42  C   UNL A   1      41.131  22.895  27.943  1.00  0.00     0.016 A 
ATOM     43  C   UNL A   1      39.933  25.327  27.187  1.00  0.00     0.010 A 
ATOM     44  C   UNL A   1      41.530  24.083  28.543  1.00  0.00     0.010 A 
ATOM     45  C   UNL A   1      40.961  25.302  28.138  1.00  0.00    -0.014 A 
BRANCH  45  46
ATOM     46  C   UNL A   1      41.674  26.545  28.487  1.00  0.00     0.031 A 
ATOM     47  C   UNL A   1      43.050  26.715  27.907  1.00  0.00     0.074 A 
ATOM     48  C   UNL A   1      41.157  27.436  29.349  1.00  0.00     0.049 A 
ATOM     49  N   UNL A   1      43.951  27.624  28.157  1.00  0.00    -0.248 NA
ATOM     50  C   UNL A   1      43.474  25.701  26.920  1.00  0.00     0.031 C 
ATOM     51  C   UNL A   1      39.833  27.354  29.963  1.00  0.00     0.029 A 
ATOM     52  N   UNL A   1      41.713  28.566  29.889  1.00  0.00    -0.354 N 
ATOM     53  C   UNL A   1      45.055  27.273  27.389  1.00  0.00     0.074 A 
ATOM     54  C   UNL A   1      44.719  26.067  26.669  1.00  0.00     0.031 C 
ATOM     55  C   UNL A   1      39.695  28.372  30.832  1.00  0.00     0.029 A 
ATOM     56  C   UNL A   1      40.930  29.153  30.854  1.00  0.00     0.049 A 
ATOM     57  H   UNL A   1      42.589  28.922  29.613  1.00  0.00     0.167 HD
ATOM     58  C   UNL A   1      46.244  27.906  27.287  1.00  0.00     0.034 A 
ATOM     59  C   UNL A   1      41.205  30.184  31.677  1.00  0.00     0.034 A 
ATOM     60  C   UNL A   1      46.564  29.102  28.012  1.00  0.00     0.049 A 
ATOM     61  C   UNL A   1      42.548  30.864  31.559  1.00  0.00     0.074 A 
ATOM     62  C   UNL A   1      47.723  29.853  27.968  1.00  0.00     0.029 A 
ATOM     63  N   UNL A   1      45.719  29.712  28.927  1.00  0.00    -0.354 N 
ATOM     64  N   UNL A   1      43.543  30.595  30.746  1.00  0.00    -0.248 NA
ATOM     65  C   UNL A   1      42.794  32.008  32.447  1.00  0.00     0.031 C 
ATOM     66  C   UNL A   1      47.586  30.907  28.876  1.00  0.00     0.029 A 
ATOM     67  C   UNL A   1      46.330  30.829  29.461  1.00  0.00     0.049 A 
ATOM     68  H   UNL A   1      44.816  29.395  29.161  1.00  0.00     0.167 HD
ATOM     69  C   UNL A   1      44.516  31.556  30.998  1.00  0.00     0.074 A 
ATOM     70  C   UNL A   1      43.982  32.425  32.029  1.00  0.00     0.031 C 
ATOM     71  C   UNL A   1      45.744  31.705  30.443  1.00  0.00     0.034 A 
BRANCH  58  72
ATOM     72  C   UNL A   1      47.266  27.319  26.352  1.00  0.00     0.023 A 
ATOM     73  C   UNL A   1      48.112  26.285  26.803  1.00  0.00     0.012 A 
ATOM     74  C   UNL A   1      47.377  27.775  25.025  1.00  0.00     0.148 A 
ATOM     75  C   UNL A   1      49.073  25.735  25.958  1.00  0.00     0.002 A 
ATOM     76  C   UNL A   1      48.308  27.191  24.175  1.00  0.00     0.091 A 
ATOM     77  F   UNL A   1      46.586  28.782  24.626  1.00  0.00    -0.205 F 
ATOM     78  C   UNL A   1      49.165  26.180  24.642  1.00  0.00     0.022 A 
BRANCH  76  79
ATOM     79  S   UNL A   1      48.456  27.642  22.443  1.00  0.00     0.127 S 
ATOM     80  O   UNL A   1      48.607  26.334  21.808  1.00  0.00    -0.237 OA
ATOM     81  O   UNL A   1      47.173  28.298  22.189  1.00  0.00    -0.237 OA
ATOM     82  O   UNL A   1      49.616  28.517  22.352  1.00  0.00    -0.744 OA
ENDBRANCH  76  79
ENDBRANCH  58  72
BRANCH  59  83
ATOM     83  C   UNL A   1      40.186  30.660  32.656  1.00  0.00     0.023 A 
ATOM     84  C   UNL A   1      39.985  29.940  33.850  1.00  0.00     0.012 A 
ATOM     85  C   UNL A   1      39.423  31.821  32.420  1.00  0.00     0.148 A 
ATOM     86  C   UNL A   1      39.023  30.347  34.776  1.00  0.00     0.002 A 
ATOM     87  C   UNL A   1      38.501  32.250  33.370  1.00  0.00     0.091 A 
ATOM     88  F   UNL A   1      39.613  32.484  31.271  1.00  0.00    -0.205 F 
ATOM     89  C   UNL A   1      38.289  31.506  34.541  1.00  0.00     0.022 A 
BRANCH  87  90
ATOM     90  S   UNL A   1      37.593  33.792  33.207  1.00  0.00     0.127 S 
ATOM     91  O   UNL A   1      37.080  33.980  34.562  1.00  0.00    -0.237 OA
ATOM     92  O   UNL A   1      38.649  34.725  32.814  1.00  0.00    -0.237 OA
ATOM     93  O   UNL A   1      36.591  33.550  32.178  1.00  0.00    -0.744 OA
ENDBRANCH  87  90
ENDBRANCH  59  83
BRANCH  71  94
ATOM     94  C   UNL A   1      46.579  32.874  30.894  1.00  0.00     0.023 A 
ATOM     95  C   UNL A   1      47.445  32.734  31.994  1.00  0.00     0.012 A 
ATOM     96  C   UNL A   1      46.573  34.078  30.162  1.00  0.00     0.148 A 
ATOM     97  C   UNL A   1      48.274  33.788  32.379  1.00  0.00     0.002 A 
ATOM     98  C   UNL A   1      47.438  35.104  30.519  1.00  0.00     0.091 A 
ATOM     99  F   UNL A   1      45.728  34.193  29.127  1.00  0.00    -0.205 F 
ATOM    100  C   UNL A   1      48.279  34.965  31.635  1.00  0.00     0.022 A 
BRANCH  98 101
ATOM    101  S   UNL A   1      47.588  36.613  29.556  1.00  0.00     0.127 S 
ATOM    102  O   UNL A   1      48.864  37.143  30.031  1.00  0.00    -0.237 OA
ATOM    103  O   UNL A   1      47.610  36.104  28.184  1.00  0.00    -0.237 OA
ATOM    104  O   UNL A   1      46.417  37.415  29.883  1.00  0.00    -0.744 OA
ENDBRANCH  98 101
ENDBRANCH  71  94
ENDBRANCH  45  46
ENDBRANCH  38  40
ENDBRANCH  37  38
ENDBRANCH  36  37
ENDBRANCH  35  36
ENDBRANCH  34  35
ENDBRANCH  33  34
ENDBRANCH   1  33
TORSDOF 26
ENDMDL
