MODEL 1
REMARK VINA RESULT:     -10.4      0.000      0.000
REMARK SMILES CC(C)(C)N(CC(=O)OCCOCCOCCOC(=O)c1ccc(-c2c3nc(c(-c4cccc(S(=O)(=O)[O-])c4F)c4ccc([nH]4)c(-c4cccc(S(=O)(=O)[O-])c4F)c4nc(c(-c5cccc(S(=O)(=O)[O-])c5F)c5ccc2[nH]5)C=C4)C=C3)cc1)C(=O)c1cc2ccccc2o1
REMARK SMILES IDX 13 1 12 2 11 3 10 4 9 5 7 6 8 7 6 8 5 9 2 10 1 11 3 12 4 13
REMARK SMILES IDX 84 14 85 15 86 16 87 17 94 18 88 19 93 20 89 21 92 22 90 23
REMARK SMILES IDX 91 24 14 25 15 26 16 27 17 28 18 29 19 30 20 31 21 32 22 33
REMARK SMILES IDX 83 34 23 35 82 36 24 37 25 38 26 39 76 40 27 41 81 42 75 43
REMARK SMILES IDX 77 44 28 45 80 46 74 47 73 48 29 50 61 51 41 52 60 53 42 54
REMARK SMILES IDX 45 55 59 56 78 57 43 58 44 59 58 61 79 62 46 63 30 64 31 65
REMARK SMILES IDX 39 66 32 67 34 68 40 69 33 70 35 71 36 72 37 73 38 74 62 75
REMARK SMILES IDX 63 76 71 77 64 78 66 79 72 80 65 81 67 82 68 83 69 84 70 85
REMARK SMILES IDX 47 86 48 87 56 88 49 89 51 90 57 91 50 92 52 93 53 94 54 95
REMARK SMILES IDX 55 96
REMARK H PARENT 77 49 45 60
REMARK Flexibility Score: inf
ROOT
ATOM      1  C   UNL A   1      31.566  28.482  25.636  1.00  0.00     0.188 C 
ENDROOT
BRANCH   1   2
ATOM      2  O   UNL A   1      32.814  27.928  26.044  1.00  0.00    -0.376 OA
BRANCH   2   3
ATOM      3  C   UNL A   1      32.825  26.562  26.443  1.00  0.00     0.202 C 
BRANCH   3   4
ATOM      4  C   UNL A   1      31.579  25.762  26.041  1.00  0.00     0.261 C 
BRANCH   4   5
ATOM      5  O   UNL A   1      31.355  24.617  26.900  1.00  0.00    -0.462 OA
BRANCH   5   6
ATOM      6  C   UNL A   1      31.075  23.431  26.295  1.00  0.00     0.325 C 
ATOM      7  O   UNL A   1      30.154  22.692  26.622  1.00  0.00    -0.250 OA
BRANCH   6   8
ATOM      8  C   UNL A   1      31.940  23.153  25.046  1.00  0.00     0.243 C 
BRANCH   8   9
ATOM      9  N   UNL A   1      33.222  22.447  25.200  1.00  0.00    -0.320 N 
BRANCH   9  10
ATOM     10  C   UNL A   1      34.471  22.931  24.543  1.00  0.00     0.036 C 
ATOM     11  C   UNL A   1      35.541  21.836  24.363  1.00  0.00     0.034 C 
ATOM     12  C   UNL A   1      35.135  24.082  25.332  1.00  0.00     0.034 C 
ATOM     13  C   UNL A   1      34.096  23.457  23.142  1.00  0.00     0.034 C 
ENDBRANCH   9  10
BRANCH   9  14
ATOM     14  C   UNL A   1      33.260  21.241  25.890  1.00  0.00     0.290 C 
ATOM     15  O   UNL A   1      33.749  21.173  27.017  1.00  0.00    -0.265 OA
BRANCH  14  16
ATOM     16  C   UNL A   1      32.635  20.068  25.308  1.00  0.00     0.192 A 
ATOM     17  C   UNL A   1      32.690  19.669  23.986  1.00  0.00     0.065 A 
ATOM     18  O   UNL A   1      32.529  18.951  26.105  1.00  0.00    -0.451 OA
ATOM     19  C   UNL A   1      33.047  18.300  24.008  1.00  0.00     0.021 A 
ATOM     20  C   UNL A   1      32.895  17.892  25.324  1.00  0.00     0.135 A 
ATOM     21  C   UNL A   1      33.610  17.414  23.074  1.00  0.00     0.012 A 
ATOM     22  C   UNL A   1      33.217  16.619  25.784  1.00  0.00     0.048 A 
ATOM     23  C   UNL A   1      34.038  16.161  23.530  1.00  0.00     0.001 A 
ATOM     24  C   UNL A   1      33.834  15.769  24.856  1.00  0.00     0.004 A 
ENDBRANCH  14  16
ENDBRANCH   9  14
ENDBRANCH   8   9
ENDBRANCH   6   8
ENDBRANCH   5   6
ENDBRANCH   4   5
ENDBRANCH   3   4
ENDBRANCH   2   3
ENDBRANCH   1   2
BRANCH   1  25
ATOM     25  C   UNL A   1      31.579  29.941  25.168  1.00  0.00     0.188 C 
BRANCH  25  26
ATOM     26  O   UNL A   1      32.211  30.810  26.102  1.00  0.00    -0.376 OA
BRANCH  26  27
ATOM     27  C   UNL A   1      31.283  31.580  26.866  1.00  0.00     0.202 C 
BRANCH  27  28
ATOM     28  C   UNL A   1      31.735  33.035  26.877  1.00  0.00     0.261 C 
BRANCH  28  29
ATOM     29  O   UNL A   1      33.169  33.122  26.754  1.00  0.00    -0.460 OA
BRANCH  29  30
ATOM     30  C   UNL A   1      33.823  33.607  27.821  1.00  0.00     0.338 C 
ATOM     31  O   UNL A   1      33.569  34.650  28.428  1.00  0.00    -0.246 OA
BRANCH  30  32
ATOM     32  C   UNL A   1      34.915  32.702  28.214  1.00  0.00     0.060 A 
ATOM     33  C   UNL A   1      34.667  31.355  28.489  1.00  0.00     0.016 A 
ATOM     34  C   UNL A   1      36.180  33.233  28.451  1.00  0.00     0.016 A 
ATOM     35  C   UNL A   1      35.628  30.582  29.140  1.00  0.00     0.010 A 
ATOM     36  C   UNL A   1      37.180  32.421  28.987  1.00  0.00     0.010 A 
ATOM     37  C   UNL A   1      36.903  31.102  29.392  1.00  0.00    -0.014 A 
BRANCH  37  38
ATOM     38  C   UNL A   1      37.951  30.317  30.106  1.00  0.00     0.031 A 
ATOM     39  C   UNL A   1      38.279  30.649  31.541  1.00  0.00     0.074 A 
ATOM     40  C   UNL A   1      38.656  29.356  29.477  1.00  0.00     0.049 A 
ATOM     41  N   UNL A   1      39.340  30.347  32.240  1.00  0.00    -0.248 NA
ATOM     42  C   UNL A   1      37.284  31.447  32.278  1.00  0.00     0.031 C 
ATOM     43  C   UNL A   1      38.427  28.883  28.112  1.00  0.00     0.029 A 
ATOM     44  N   UNL A   1      39.744  28.628  29.900  1.00  0.00    -0.354 N 
ATOM     45  C   UNL A   1      39.187  30.992  33.462  1.00  0.00     0.074 A 
ATOM     46  C   UNL A   1      37.916  31.682  33.420  1.00  0.00     0.031 C 
ATOM     47  C   UNL A   1      39.345  27.956  27.805  1.00  0.00     0.029 A 
ATOM     48  C   UNL A   1      40.289  27.840  28.910  1.00  0.00     0.049 A 
ATOM     49  H   UNL A   1      40.098  28.667  30.818  1.00  0.00     0.167 HD
ATOM     50  C   UNL A   1      40.032  31.008  34.521  1.00  0.00     0.034 A 
ATOM     51  C   UNL A   1      41.451  27.160  28.861  1.00  0.00     0.034 A 
ATOM     52  C   UNL A   1      41.253  30.252  34.591  1.00  0.00     0.049 A 
ATOM     53  C   UNL A   1      42.379  27.204  30.041  1.00  0.00     0.074 A 
ATOM     54  C   UNL A   1      42.156  30.172  35.639  1.00  0.00     0.029 A 
ATOM     55  N   UNL A   1      41.735  29.433  33.584  1.00  0.00    -0.354 N 
ATOM     56  N   UNL A   1      42.223  27.811  31.193  1.00  0.00    -0.248 NA
ATOM     57  C   UNL A   1      43.645  26.465  29.917  1.00  0.00     0.031 C 
ATOM     58  C   UNL A   1      43.189  29.306  35.260  1.00  0.00     0.029 A 
ATOM     59  C   UNL A   1      42.922  28.841  33.982  1.00  0.00     0.049 A 
ATOM     60  H   UNL A   1      41.299  29.293  32.713  1.00  0.00     0.167 HD
ATOM     61  C   UNL A   1      43.359  27.515  31.936  1.00  0.00     0.074 A 
ATOM     62  C   UNL A   1      44.183  26.651  31.116  1.00  0.00     0.031 C 
ATOM     63  C   UNL A   1      43.704  27.941  33.176  1.00  0.00     0.034 A 
BRANCH  50  64
ATOM     64  C   UNL A   1      39.659  31.857  35.708  1.00  0.00     0.023 A 
ATOM     65  C   UNL A   1      40.208  33.145  35.850  1.00  0.00     0.012 A 
ATOM     66  C   UNL A   1      38.702  31.405  36.640  1.00  0.00     0.148 A 
ATOM     67  C   UNL A   1      39.828  33.964  36.914  1.00  0.00     0.002 A 
ATOM     68  C   UNL A   1      38.299  32.241  37.675  1.00  0.00     0.091 A 
ATOM     69  F   UNL A   1      38.210  30.165  36.502  1.00  0.00    -0.205 F 
ATOM     70  C   UNL A   1      38.866  33.517  37.818  1.00  0.00     0.022 A 
BRANCH  68  71
ATOM     71  S   UNL A   1      37.011  31.781  38.840  1.00  0.00     0.127 S 
ATOM     72  O   UNL A   1      36.754  30.392  38.463  1.00  0.00    -0.237 OA
ATOM     73  O   UNL A   1      37.682  31.949  40.129  1.00  0.00    -0.237 OA
ATOM     74  O   UNL A   1      35.912  32.708  38.606  1.00  0.00    -0.744 OA
ENDBRANCH  68  71
ENDBRANCH  50  64
BRANCH  51  75
ATOM     75  C   UNL A   1      41.805  26.396  27.632  1.00  0.00     0.023 A 
ATOM     76  C   UNL A   1      42.431  27.061  26.561  1.00  0.00     0.012 A 
ATOM     77  C   UNL A   1      41.578  25.008  27.540  1.00  0.00     0.148 A 
ATOM     78  C   UNL A   1      42.814  26.359  25.417  1.00  0.00     0.002 A 
ATOM     79  C   UNL A   1      42.023  24.305  26.427  1.00  0.00     0.091 A 
ATOM     80  F   UNL A   1      40.952  24.396  28.556  1.00  0.00    -0.205 F 
ATOM     81  C   UNL A   1      42.628  24.981  25.357  1.00  0.00     0.022 A 
BRANCH  79  82
ATOM     82  S   UNL A   1      41.964  22.511  26.354  1.00  0.00     0.127 S 
ATOM     83  O   UNL A   1      42.852  22.228  25.230  1.00  0.00    -0.237 OA
ATOM     84  O   UNL A   1      42.488  22.131  27.666  1.00  0.00    -0.237 OA
ATOM     85  O   UNL A   1      40.559  22.181  26.157  1.00  0.00    -0.744 OA
ENDBRANCH  79  82
ENDBRANCH  51  75
BRANCH  63  86
ATOM     86  C   UNL A   1      45.016  27.460  33.734  1.00  0.00     0.023 A 
ATOM     87  C   UNL A   1      46.175  28.240  33.552  1.00  0.00     0.012 A 
ATOM     88  C   UNL A   1      45.092  26.270  34.483  1.00  0.00     0.148 A 
ATOM     89  C   UNL A   1      47.396  27.828  34.083  1.00  0.00     0.002 A 
ATOM     90  C   UNL A   1      46.304  25.887  35.044  1.00  0.00     0.091 A 
ATOM     91  F   UNL A   1      43.982  25.531  34.626  1.00  0.00    -0.205 F 
ATOM     92  C   UNL A   1      47.459  26.659  34.838  1.00  0.00     0.022 A 
BRANCH  90  93
ATOM     93  S   UNL A   1      46.453  24.438  36.096  1.00  0.00     0.127 S 
ATOM     94  O   UNL A   1      45.495  24.742  37.158  1.00  0.00    -0.237 OA
ATOM     95  O   UNL A   1      46.045  23.354  35.200  1.00  0.00    -0.237 OA
ATOM     96  O   UNL A   1      47.851  24.386  36.503  1.00  0.00    -0.744 OA
ENDBRANCH  90  93
ENDBRANCH  63  86
ENDBRANCH  37  38
ENDBRANCH  30  32
ENDBRANCH  29  30
ENDBRANCH  28  29
ENDBRANCH  27  28
ENDBRANCH  26  27
ENDBRANCH  25  26
ENDBRANCH   1  25
TORSDOF 24
ENDMDL
MODEL 2
REMARK VINA RESULT:      -9.8      1.640      7.498
REMARK SMILES CC(C)(C)N(CC(=O)OCCOCCOCCOC(=O)c1ccc(-c2c3nc(c(-c4cccc(S(=O)(=O)[O-])c4F)c4ccc([nH]4)c(-c4cccc(S(=O)(=O)[O-])c4F)c4nc(c(-c5cccc(S(=O)(=O)[O-])c5F)c5ccc2[nH]5)C=C4)C=C3)cc1)C(=O)c1cc2ccccc2o1
REMARK SMILES IDX 13 1 12 2 11 3 10 4 9 5 7 6 8 7 6 8 5 9 2 10 1 11 3 12 4 13
REMARK SMILES IDX 84 14 85 15 86 16 87 17 94 18 88 19 93 20 89 21 92 22 90 23
REMARK SMILES IDX 91 24 14 25 15 26 16 27 17 28 18 29 19 30 20 31 21 32 22 33
REMARK SMILES IDX 83 34 23 35 82 36 24 37 25 38 26 39 76 40 27 41 81 42 75 43
REMARK SMILES IDX 77 44 28 45 80 46 74 47 73 48 29 50 61 51 41 52 60 53 42 54
REMARK SMILES IDX 45 55 59 56 78 57 43 58 44 59 58 61 79 62 46 63 30 64 31 65
REMARK SMILES IDX 39 66 32 67 34 68 40 69 33 70 35 71 36 72 37 73 38 74 62 75
REMARK SMILES IDX 63 76 71 77 64 78 66 79 72 80 65 81 67 82 68 83 69 84 70 85
REMARK SMILES IDX 47 86 48 87 56 88 49 89 51 90 57 91 50 92 52 93 53 94 54 95
REMARK SMILES IDX 55 96
REMARK H PARENT 77 49 45 60
REMARK Flexibility Score: inf
ROOT
ATOM      1  C   UNL A   1      31.328  28.434  25.319  1.00  0.00     0.188 C 
ENDROOT
BRANCH   1   2
ATOM      2  O   UNL A   1      32.155  28.293  24.168  1.00  0.00    -0.376 OA
BRANCH   2   3
ATOM      3  C   UNL A   1      33.296  27.450  24.281  1.00  0.00     0.202 C 
BRANCH   3   4
ATOM      4  C   UNL A   1      33.682  26.709  22.995  1.00  0.00     0.261 C 
BRANCH   4   5
ATOM      5  O   UNL A   1      33.919  25.298  23.219  1.00  0.00    -0.462 OA
BRANCH   5   6
ATOM      6  C   UNL A   1      33.350  24.425  22.343  1.00  0.00     0.325 C 
ATOM      7  O   UNL A   1      32.661  24.760  21.387  1.00  0.00    -0.250 OA
BRANCH   6   8
ATOM      8  C   UNL A   1      33.768  22.956  22.572  1.00  0.00     0.243 C 
BRANCH   8   9
ATOM      9  N   UNL A   1      33.922  22.457  23.949  1.00  0.00    -0.320 N 
BRANCH   9  10
ATOM     10  C   UNL A   1      35.264  22.283  24.577  1.00  0.00     0.036 C 
ATOM     11  C   UNL A   1      36.438  22.596  23.627  1.00  0.00     0.034 C 
ATOM     12  C   UNL A   1      35.480  20.844  25.098  1.00  0.00     0.034 C 
ATOM     13  C   UNL A   1      35.357  23.251  25.774  1.00  0.00     0.034 C 
ENDBRANCH   9  10
BRANCH   9  14
ATOM     14  C   UNL A   1      32.800  22.038  24.654  1.00  0.00     0.290 C 
ATOM     15  O   UNL A   1      32.256  22.778  25.473  1.00  0.00    -0.265 OA
BRANCH  14  16
ATOM     16  C   UNL A   1      32.211  20.747  24.353  1.00  0.00     0.192 A 
ATOM     17  C   UNL A   1      32.324  20.040  23.171  1.00  0.00     0.065 A 
ATOM     18  O   UNL A   1      32.086  19.855  25.393  1.00  0.00    -0.451 OA
ATOM     19  C   UNL A   1      32.694  18.725  23.538  1.00  0.00     0.021 A 
ATOM     20  C   UNL A   1      32.495  18.646  24.908  1.00  0.00     0.135 A 
ATOM     21  C   UNL A   1      33.304  17.650  22.869  1.00  0.00     0.012 A 
ATOM     22  C   UNL A   1      32.812  17.529  25.675  1.00  0.00     0.048 A 
ATOM     23  C   UNL A   1      33.728  16.555  23.631  1.00  0.00     0.001 A 
ATOM     24  C   UNL A   1      33.475  16.492  25.005  1.00  0.00     0.004 A 
ENDBRANCH  14  16
ENDBRANCH   9  14
ENDBRANCH   8   9
ENDBRANCH   6   8
ENDBRANCH   5   6
ENDBRANCH   4   5
ENDBRANCH   3   4
ENDBRANCH   2   3
ENDBRANCH   1   2
BRANCH   1  25
ATOM     25  C   UNL A   1      31.757  29.480  26.353  1.00  0.00     0.188 C 
BRANCH  25  26
ATOM     26  O   UNL A   1      31.672  30.810  25.853  1.00  0.00    -0.376 OA
BRANCH  26  27
ATOM     27  C   UNL A   1      31.686  31.797  26.885  1.00  0.00     0.202 C 
BRANCH  27  28
ATOM     28  C   UNL A   1      33.100  31.918  27.439  1.00  0.00     0.261 C 
BRANCH  28  29
ATOM     29  O   UNL A   1      33.487  33.303  27.543  1.00  0.00    -0.460 OA
BRANCH  29  30
ATOM     30  C   UNL A   1      33.470  33.828  28.778  1.00  0.00     0.338 C 
ATOM     31  O   UNL A   1      32.544  34.454  29.300  1.00  0.00    -0.246 OA
BRANCH  30  32
ATOM     32  C   UNL A   1      34.732  33.542  29.479  1.00  0.00     0.060 A 
ATOM     33  C   UNL A   1      35.902  34.239  29.165  1.00  0.00     0.016 A 
ATOM     34  C   UNL A   1      34.785  32.467  30.362  1.00  0.00     0.016 A 
ATOM     35  C   UNL A   1      37.139  33.770  29.607  1.00  0.00     0.010 A 
ATOM     36  C   UNL A   1      36.011  32.077  30.903  1.00  0.00     0.010 A 
ATOM     37  C   UNL A   1      37.211  32.685  30.489  1.00  0.00    -0.014 A 
BRANCH  37  38
ATOM     38  C   UNL A   1      38.514  32.139  30.966  1.00  0.00     0.031 A 
ATOM     39  C   UNL A   1      39.209  31.068  30.163  1.00  0.00     0.074 A 
ATOM     40  C   UNL A   1      39.055  32.538  32.135  1.00  0.00     0.049 A 
ATOM     41  N   UNL A   1      40.142  30.230  30.530  1.00  0.00    -0.248 NA
ATOM     42  C   UNL A   1      38.777  30.907  28.763  1.00  0.00     0.031 C 
ATOM     43  C   UNL A   1      38.535  33.597  33.000  1.00  0.00     0.029 A 
ATOM     44  N   UNL A   1      40.152  32.064  32.816  1.00  0.00    -0.354 N 
ATOM     45  C   UNL A   1      40.343  29.386  29.444  1.00  0.00     0.074 A 
ATOM     46  C   UNL A   1      39.453  29.828  28.393  1.00  0.00     0.031 C 
ATOM     47  C   UNL A   1      39.299  33.688  34.096  1.00  0.00     0.029 A 
ATOM     48  C   UNL A   1      40.303  32.630  34.062  1.00  0.00     0.049 A 
ATOM     49  H   UNL A   1      40.767  31.388  32.450  1.00  0.00     0.167 HD
ATOM     50  C   UNL A   1      41.193  28.335  29.335  1.00  0.00     0.034 A 
ATOM     51  C   UNL A   1      41.102  32.295  35.095  1.00  0.00     0.034 A 
ATOM     52  C   UNL A   1      42.136  27.952  30.351  1.00  0.00     0.049 A 
ATOM     53  C   UNL A   1      42.025  31.119  34.958  1.00  0.00     0.074 A 
ATOM     54  C   UNL A   1      43.067  26.928  30.317  1.00  0.00     0.029 A 
ATOM     55  N   UNL A   1      42.284  28.587  31.574  1.00  0.00    -0.354 N 
ATOM     56  N   UNL A   1      42.213  30.331  33.927  1.00  0.00    -0.248 NA
ATOM     57  C   UNL A   1      42.852  30.785  36.128  1.00  0.00     0.031 C 
ATOM     58  C   UNL A   1      43.774  26.939  31.525  1.00  0.00     0.029 A 
ATOM     59  C   UNL A   1      43.290  27.978  32.304  1.00  0.00     0.049 A 
ATOM     60  H   UNL A   1      41.751  29.356  31.878  1.00  0.00     0.167 HD
ATOM     61  C   UNL A   1      43.187  29.420  34.316  1.00  0.00     0.074 A 
ATOM     62  C   UNL A   1      43.574  29.771  35.667  1.00  0.00     0.031 C 
ATOM     63  C   UNL A   1      43.700  28.372  33.627  1.00  0.00     0.034 A 
BRANCH  50  64
ATOM     64  C   UNL A   1      41.160  27.530  28.064  1.00  0.00     0.023 A 
ATOM     65  C   UNL A   1      41.748  28.043  26.892  1.00  0.00     0.012 A 
ATOM     66  C   UNL A   1      40.613  26.230  28.052  1.00  0.00     0.148 A 
ATOM     67  C   UNL A   1      41.775  27.285  25.722  1.00  0.00     0.002 A 
ATOM     68  C   UNL A   1      40.679  25.465  26.893  1.00  0.00     0.091 A 
ATOM     69  F   UNL A   1      40.034  25.770  29.171  1.00  0.00    -0.205 F 
ATOM     70  C   UNL A   1      41.253  25.992  25.726  1.00  0.00     0.022 A 
BRANCH  68  71
ATOM     71  S   UNL A   1      40.103  23.765  26.827  1.00  0.00     0.127 S 
ATOM     72  O   UNL A   1      38.816  23.915  26.149  1.00  0.00    -0.237 OA
ATOM     73  O   UNL A   1      41.140  23.115  26.027  1.00  0.00    -0.237 OA
ATOM     74  O   UNL A   1      40.034  23.312  28.210  1.00  0.00    -0.744 OA
ENDBRANCH  68  71
ENDBRANCH  50  64
BRANCH  51  75
ATOM     75  C   UNL A   1      41.041  33.083  36.358  1.00  0.00     0.023 A 
ATOM     76  C   UNL A   1      41.904  34.182  36.530  1.00  0.00     0.012 A 
ATOM     77  C   UNL A   1      40.097  32.787  37.362  1.00  0.00     0.148 A 
ATOM     78  C   UNL A   1      41.835  34.964  37.684  1.00  0.00     0.002 A 
ATOM     79  C   UNL A   1      39.989  33.610  38.477  1.00  0.00     0.091 A 
ATOM     80  F   UNL A   1      39.304  31.718  37.197  1.00  0.00    -0.205 F 
ATOM     81  C   UNL A   1      40.867  34.691  38.648  1.00  0.00     0.022 A 
BRANCH  79  82
ATOM     82  S   UNL A   1      38.664  33.416  39.673  1.00  0.00     0.127 S 
ATOM     83  O   UNL A   1      37.487  33.360  38.811  1.00  0.00    -0.237 OA
ATOM     84  O   UNL A   1      39.015  32.152  40.321  1.00  0.00    -0.237 OA
ATOM     85  O   UNL A   1      38.763  34.578  40.547  1.00  0.00    -0.744 OA
ENDBRANCH  79  82
ENDBRANCH  51  75
BRANCH  63  86
ATOM     86  C   UNL A   1      44.752  27.540  34.311  1.00  0.00     0.023 A 
ATOM     87  C   UNL A   1      46.104  27.925  34.225  1.00  0.00     0.012 A 
ATOM     88  C   UNL A   1      44.397  26.417  35.082  1.00  0.00     0.148 A 
ATOM     89  C   UNL A   1      47.092  27.186  34.874  1.00  0.00     0.002 A 
ATOM     90  C   UNL A   1      45.384  25.708  35.758  1.00  0.00     0.091 A 
ATOM     91  F   UNL A   1      43.107  26.054  35.133  1.00  0.00    -0.205 F 
ATOM     92  C   UNL A   1      46.732  26.086  35.648  1.00  0.00     0.022 A 
BRANCH  90  93
ATOM     93  S   UNL A   1      44.995  24.329  36.842  1.00  0.00     0.127 S 
ATOM     94  O   UNL A   1      44.413  23.369  35.905  1.00  0.00    -0.237 OA
ATOM     95  O   UNL A   1      46.312  23.953  37.359  1.00  0.00    -0.237 OA
ATOM     96  O   UNL A   1      44.085  24.860  37.848  1.00  0.00    -0.744 OA
ENDBRANCH  90  93
ENDBRANCH  63  86
ENDBRANCH  37  38
ENDBRANCH  30  32
ENDBRANCH  29  30
ENDBRANCH  28  29
ENDBRANCH  27  28
ENDBRANCH  26  27
ENDBRANCH  25  26
ENDBRANCH   1  25
TORSDOF 24
ENDMDL
MODEL 3
REMARK VINA RESULT:      -9.8      2.719      7.831
REMARK SMILES CC(C)(C)N(CC(=O)OCCOCCOCCOC(=O)c1ccc(-c2c3nc(c(-c4cccc(S(=O)(=O)[O-])c4F)c4ccc([nH]4)c(-c4cccc(S(=O)(=O)[O-])c4F)c4nc(c(-c5cccc(S(=O)(=O)[O-])c5F)c5ccc2[nH]5)C=C4)C=C3)cc1)C(=O)c1cc2ccccc2o1
REMARK SMILES IDX 13 1 12 2 11 3 10 4 9 5 7 6 8 7 6 8 5 9 2 10 1 11 3 12 4 13
REMARK SMILES IDX 84 14 85 15 86 16 87 17 94 18 88 19 93 20 89 21 92 22 90 23
REMARK SMILES IDX 91 24 14 25 15 26 16 27 17 28 18 29 19 30 20 31 21 32 22 33
REMARK SMILES IDX 83 34 23 35 82 36 24 37 25 38 26 39 76 40 27 41 81 42 75 43
REMARK SMILES IDX 77 44 28 45 80 46 74 47 73 48 29 50 61 51 41 52 60 53 42 54
REMARK SMILES IDX 45 55 59 56 78 57 43 58 44 59 58 61 79 62 46 63 30 64 31 65
REMARK SMILES IDX 39 66 32 67 34 68 40 69 33 70 35 71 36 72 37 73 38 74 62 75
REMARK SMILES IDX 63 76 71 77 64 78 66 79 72 80 65 81 67 82 68 83 69 84 70 85
REMARK SMILES IDX 47 86 48 87 56 88 49 89 51 90 57 91 50 92 52 93 53 94 54 95
REMARK SMILES IDX 55 96
REMARK H PARENT 77 49 45 60
REMARK Flexibility Score: inf
ROOT
ATOM      1  C   UNL A   1      32.180  27.850  23.901  1.00  0.00     0.188 C 
ENDROOT
BRANCH   1   2
ATOM      2  O   UNL A   1      31.004  28.007  23.112  1.00  0.00    -0.376 OA
BRANCH   2   3
ATOM      3  C   UNL A   1      29.757  27.703  23.726  1.00  0.00     0.202 C 
BRANCH   3   4
ATOM      4  C   UNL A   1      29.307  26.243  23.587  1.00  0.00     0.261 C 
BRANCH   4   5
ATOM      5  O   UNL A   1      29.999  25.361  24.504  1.00  0.00    -0.462 OA
BRANCH   5   6
ATOM      6  C   UNL A   1      30.812  24.415  23.962  1.00  0.00     0.325 C 
ATOM      7  O   UNL A   1      31.462  24.571  22.934  1.00  0.00    -0.250 OA
BRANCH   6   8
ATOM      8  C   UNL A   1      30.965  23.153  24.839  1.00  0.00     0.243 C 
BRANCH   8   9
ATOM      9  N   UNL A   1      32.311  22.621  25.108  1.00  0.00    -0.320 N 
BRANCH   9  10
ATOM     10  C   UNL A   1      33.126  23.090  26.266  1.00  0.00     0.036 C 
ATOM     11  C   UNL A   1      33.948  24.361  25.971  1.00  0.00     0.034 C 
ATOM     12  C   UNL A   1      34.124  22.013  26.749  1.00  0.00     0.034 C 
ATOM     13  C   UNL A   1      32.161  23.412  27.425  1.00  0.00     0.034 C 
ENDBRANCH   9  10
BRANCH   9  14
ATOM     14  C   UNL A   1      32.888  21.732  24.207  1.00  0.00     0.290 C 
ATOM     15  O   UNL A   1      33.929  22.019  23.616  1.00  0.00    -0.265 OA
BRANCH  14  16
ATOM     16  C   UNL A   1      32.303  20.417  24.030  1.00  0.00     0.192 A 
ATOM     17  C   UNL A   1      32.500  19.558  22.965  1.00  0.00     0.065 A 
ATOM     18  O   UNL A   1      32.076  19.672  25.164  1.00  0.00    -0.451 OA
ATOM     19  C   UNL A   1      32.815  18.301  23.531  1.00  0.00     0.021 A 
ATOM     20  C   UNL A   1      32.502  18.406  24.878  1.00  0.00     0.135 A 
ATOM     21  C   UNL A   1      33.458  17.143  23.063  1.00  0.00     0.012 A 
ATOM     22  C   UNL A   1      32.735  17.398  25.809  1.00  0.00     0.048 A 
ATOM     23  C   UNL A   1      33.798  16.156  23.995  1.00  0.00     0.001 A 
ATOM     24  C   UNL A   1      33.432  16.277  25.339  1.00  0.00     0.004 A 
ENDBRANCH  14  16
ENDBRANCH   9  14
ENDBRANCH   8   9
ENDBRANCH   6   8
ENDBRANCH   5   6
ENDBRANCH   4   5
ENDBRANCH   3   4
ENDBRANCH   2   3
ENDBRANCH   1   2
BRANCH   1  25
ATOM     25  C   UNL A   1      33.010  29.111  24.161  1.00  0.00     0.188 C 
BRANCH  25  26
ATOM     26  O   UNL A   1      34.156  28.855  24.967  1.00  0.00    -0.376 OA
BRANCH  26  27
ATOM     27  C   UNL A   1      33.875  28.018  26.087  1.00  0.00     0.202 C 
BRANCH  27  28
ATOM     28  C   UNL A   1      33.610  28.891  27.307  1.00  0.00     0.261 C 
BRANCH  28  29
ATOM     29  O   UNL A   1      34.116  30.225  27.096  1.00  0.00    -0.460 OA
BRANCH  29  30
ATOM     30  C   UNL A   1      34.712  30.803  28.151  1.00  0.00     0.338 C 
ATOM     31  O   UNL A   1      34.254  31.709  28.850  1.00  0.00    -0.246 OA
BRANCH  30  32
ATOM     32  C   UNL A   1      36.027  30.190  28.402  1.00  0.00     0.060 A 
ATOM     33  C   UNL A   1      36.304  29.558  29.616  1.00  0.00     0.016 A 
ATOM     34  C   UNL A   1      37.045  30.371  27.469  1.00  0.00     0.016 A 
ATOM     35  C   UNL A   1      37.619  29.248  29.963  1.00  0.00     0.010 A 
ATOM     36  C   UNL A   1      38.339  29.944  27.769  1.00  0.00     0.010 A 
ATOM     37  C   UNL A   1      38.656  29.430  29.040  1.00  0.00    -0.014 A 
BRANCH  37  38
ATOM     38  C   UNL A   1      40.078  29.134  29.379  1.00  0.00     0.031 A 
ATOM     39  C   UNL A   1      40.779  27.983  28.701  1.00  0.00     0.074 A 
ATOM     40  C   UNL A   1      40.732  29.836  30.326  1.00  0.00     0.049 A 
ATOM     41  N   UNL A   1      41.861  27.345  29.060  1.00  0.00    -0.248 NA
ATOM     42  C   UNL A   1      40.164  27.471  27.464  1.00  0.00     0.031 C 
ATOM     43  C   UNL A   1      40.213  31.006  31.034  1.00  0.00     0.029 A 
ATOM     44  N   UNL A   1      41.974  29.636  30.884  1.00  0.00    -0.354 N 
ATOM     45  C   UNL A   1      42.005  26.302  28.152  1.00  0.00     0.074 A 
ATOM     46  C   UNL A   1      40.914  26.408  27.208  1.00  0.00     0.031 C 
ATOM     47  C   UNL A   1      41.117  31.415  31.935  1.00  0.00     0.029 A 
ATOM     48  C   UNL A   1      42.236  30.480  31.940  1.00  0.00     0.049 A 
ATOM     49  H   UNL A   1      42.611  28.959  30.561  1.00  0.00     0.167 HD
ATOM     50  C   UNL A   1      42.961  25.342  28.112  1.00  0.00     0.034 A 
ATOM     51  C   UNL A   1      43.221  30.464  32.860  1.00  0.00     0.034 A 
ATOM     52  C   UNL A   1      44.091  25.290  28.999  1.00  0.00     0.049 A 
ATOM     53  C   UNL A   1      44.262  29.383  32.806  1.00  0.00     0.074 A 
ATOM     54  C   UNL A   1      45.135  24.380  29.011  1.00  0.00     0.029 A 
ATOM     55  N   UNL A   1      44.338  26.194  30.020  1.00  0.00    -0.354 N 
ATOM     56  N   UNL A   1      44.393  28.406  31.941  1.00  0.00    -0.248 NA
ATOM     57  C   UNL A   1      45.294  29.402  33.852  1.00  0.00     0.031 C 
ATOM     58  C   UNL A   1      46.010  24.731  30.046  1.00  0.00     0.029 A 
ATOM     59  C   UNL A   1      45.515  25.866  30.669  1.00  0.00     0.049 A 
ATOM     60  H   UNL A   1      43.760  26.956  30.251  1.00  0.00     0.167 HD
ATOM     61  C   UNL A   1      45.529  27.705  32.328  1.00  0.00     0.074 A 
ATOM     62  C   UNL A   1      46.066  28.387  33.488  1.00  0.00     0.031 C 
ATOM     63  C   UNL A   1      46.066  26.584  31.789  1.00  0.00     0.034 A 
BRANCH  50  64
ATOM     64  C   UNL A   1      42.843  24.272  27.058  1.00  0.00     0.023 A 
ATOM     65  C   UNL A   1      43.491  24.433  25.818  1.00  0.00     0.012 A 
ATOM     66  C   UNL A   1      42.153  23.073  27.329  1.00  0.00     0.148 A 
ATOM     67  C   UNL A   1      43.437  23.426  24.855  1.00  0.00     0.002 A 
ATOM     68  C   UNL A   1      42.137  22.057  26.379  1.00  0.00     0.091 A 
ATOM     69  F   UNL A   1      41.520  22.950  28.505  1.00  0.00    -0.205 F 
ATOM     70  C   UNL A   1      42.771  22.235  25.140  1.00  0.00     0.022 A 
BRANCH  68  71
ATOM     71  S   UNL A   1      41.371  20.462  26.687  1.00  0.00     0.127 S 
ATOM     72  O   UNL A   1      41.614  19.768  25.423  1.00  0.00    -0.237 OA
ATOM     73  O   UNL A   1      42.149  19.957  27.819  1.00  0.00    -0.237 OA
ATOM     74  O   UNL A   1      39.974  20.742  26.991  1.00  0.00    -0.744 OA
ENDBRANCH  68  71
ENDBRANCH  50  64
BRANCH  51  75
ATOM     75  C   UNL A   1      43.248  31.505  33.926  1.00  0.00     0.023 A 
ATOM     76  C   UNL A   1      43.976  32.692  33.715  1.00  0.00     0.012 A 
ATOM     77  C   UNL A   1      42.513  31.354  35.119  1.00  0.00     0.148 A 
ATOM     78  C   UNL A   1      43.980  33.702  34.677  1.00  0.00     0.002 A 
ATOM     79  C   UNL A   1      42.468  32.391  36.042  1.00  0.00     0.091 A 
ATOM     80  F   UNL A   1      41.851  30.205  35.318  1.00  0.00    -0.205 F 
ATOM     81  C   UNL A   1      43.213  33.561  35.831  1.00  0.00     0.022 A 
BRANCH  79  82
ATOM     82  S   UNL A   1      41.375  32.345  37.467  1.00  0.00     0.127 S 
ATOM     83  O   UNL A   1      42.155  31.558  38.418  1.00  0.00    -0.237 OA
ATOM     84  O   UNL A   1      41.243  33.763  37.801  1.00  0.00    -0.237 OA
ATOM     85  O   UNL A   1      40.144  31.731  36.987  1.00  0.00    -0.744 OA
ENDBRANCH  79  82
ENDBRANCH  51  75
BRANCH  63  86
ATOM     86  C   UNL A   1      47.311  26.034  32.430  1.00  0.00     0.023 A 
ATOM     87  C   UNL A   1      47.197  25.129  33.503  1.00  0.00     0.012 A 
ATOM     88  C   UNL A   1      48.587  26.369  31.937  1.00  0.00     0.148 A 
ATOM     89  C   UNL A   1      48.337  24.586  34.094  1.00  0.00     0.002 A 
ATOM     90  C   UNL A   1      49.717  25.793  32.507  1.00  0.00     0.091 A 
ATOM     91  F   UNL A   1      48.675  27.250  30.930  1.00  0.00    -0.205 F 
ATOM     92  C   UNL A   1      49.595  24.908  33.590  1.00  0.00     0.022 A 
BRANCH  90  93
ATOM     93  S   UNL A   1      51.367  26.093  31.864  1.00  0.00     0.127 S 
ATOM     94  O   UNL A   1      52.177  25.197  32.689  1.00  0.00    -0.237 OA
ATOM     95  O   UNL A   1      51.240  25.682  30.464  1.00  0.00    -0.237 OA
ATOM     96  O   UNL A   1      51.612  27.517  32.051  1.00  0.00    -0.744 OA
ENDBRANCH  90  93
ENDBRANCH  63  86
ENDBRANCH  37  38
ENDBRANCH  30  32
ENDBRANCH  29  30
ENDBRANCH  28  29
ENDBRANCH  27  28
ENDBRANCH  26  27
ENDBRANCH  25  26
ENDBRANCH   1  25
TORSDOF 24
ENDMDL
