MODEL 1
REMARK VINA RESULT:     -10.9      0.000      0.000
REMARK SMILES C[C@H](C(=O)OCCOCCOCCOC(=O)c1ccc(-c2c3nc(c(-c4cccc(S(=O)(=O)[O-])c4F)c4ccc([nH]4)c(-c4cccc(S(=O)(=O)[O-])c4F)c4nc(c(-c5cccc(S(=O)(=O)[O-])c5F)c5ccc2[nH]5)C=C4)C=C3)cc1)c1ccc(C[C@@H]2CCC[C@H]2O)cc1
REMARK SMILES IDX 9 1 8 2 7 3 6 4 5 5 3 6 4 7 2 8 1 9 80 10 81 11 92 12 82 13
REMARK SMILES IDX 91 14 83 15 84 16 85 17 86 18 89 19 87 20 88 21 90 22 10 24
REMARK SMILES IDX 11 25 12 26 13 27 14 28 15 29 16 30 17 31 18 32 79 33 19 34
REMARK SMILES IDX 78 35 20 36 21 37 22 38 72 39 23 40 77 41 71 42 73 43 24 44
REMARK SMILES IDX 76 45 70 46 69 47 25 49 57 50 37 51 56 52 38 53 41 54 55 55
REMARK SMILES IDX 74 56 39 57 40 58 54 60 75 61 42 62 26 63 27 64 35 65 28 66
REMARK SMILES IDX 30 67 36 68 29 69 31 70 32 71 33 72 34 73 58 74 59 75 67 76
REMARK SMILES IDX 60 77 62 78 68 79 61 80 63 81 64 82 65 83 66 84 43 85 44 86
REMARK SMILES IDX 52 87 45 88 47 89 53 90 46 91 48 92 49 93 50 94 51 95
REMARK H PARENT 90 23 73 48 41 59
REMARK Flexibility Score: inf
ROOT
ATOM      1  C   UNL A   1      31.402  27.536  23.055  1.00  0.00     0.188 C 
ENDROOT
BRANCH   1   2
ATOM      2  O   UNL A   1      32.785  27.798  22.945  1.00  0.00    -0.376 OA
BRANCH   2   3
ATOM      3  C   UNL A   1      33.633  27.413  24.010  1.00  0.00     0.202 C 
BRANCH   3   4
ATOM      4  C   UNL A   1      33.625  25.975  24.553  1.00  0.00     0.261 C 
BRANCH   4   5
ATOM      5  O   UNL A   1      33.420  25.823  25.966  1.00  0.00    -0.463 OA
BRANCH   5   6
ATOM      6  C   UNL A   1      32.158  25.652  26.432  1.00  0.00     0.313 C 
ATOM      7  O   UNL A   1      31.373  26.575  26.614  1.00  0.00    -0.252 OA
BRANCH   6   8
ATOM      8  C   UNL A   1      31.784  24.176  26.619  1.00  0.00     0.126 C 
ATOM      9  C   UNL A   1      30.317  23.946  26.227  1.00  0.00     0.025 C 
BRANCH   8  10
ATOM     10  C   UNL A   1      32.738  23.109  26.068  1.00  0.00    -0.034 A 
ATOM     11  C   UNL A   1      32.640  22.720  24.719  1.00  0.00     0.005 A 
ATOM     12  C   UNL A   1      33.591  22.361  26.893  1.00  0.00     0.005 A 
ATOM     13  C   UNL A   1      33.271  21.569  24.245  1.00  0.00     0.004 A 
ATOM     14  C   UNL A   1      34.212  21.198  26.422  1.00  0.00     0.004 A 
ATOM     15  C   UNL A   1      33.979  20.747  25.120  1.00  0.00    -0.048 A 
BRANCH  15  16
ATOM     16  C   UNL A   1      34.348  19.342  24.717  1.00  0.00     0.041 C 
BRANCH  16  17
ATOM     17  C   UNL A   1      33.163  18.425  24.308  1.00  0.00     0.022 C 
ATOM     18  C   UNL A   1      32.732  17.411  25.379  1.00  0.00     0.007 C 
ATOM     19  C   UNL A   1      33.401  17.550  23.070  1.00  0.00     0.117 C 
ATOM     20  C   UNL A   1      33.304  16.049  24.977  1.00  0.00     0.003 C 
ATOM     21  C   UNL A   1      33.925  16.215  23.592  1.00  0.00     0.032 C 
BRANCH  19  22
ATOM     22  O   UNL A   1      32.154  17.328  22.403  1.00  0.00    -0.393 OA
ATOM     23  H   UNL A   1      31.455  17.188  23.062  1.00  0.00     0.210 HD
ENDBRANCH  19  22
ENDBRANCH  16  17
ENDBRANCH  15  16
ENDBRANCH   8  10
ENDBRANCH   6   8
ENDBRANCH   5   6
ENDBRANCH   4   5
ENDBRANCH   3   4
ENDBRANCH   2   3
ENDBRANCH   1   2
BRANCH   1  24
ATOM     24  C   UNL A   1      30.529  28.781  22.769  1.00  0.00     0.188 C 
BRANCH  24  25
ATOM     25  O   UNL A   1      30.376  29.778  23.774  1.00  0.00    -0.376 OA
BRANCH  25  26
ATOM     26  C   UNL A   1      31.108  29.657  24.983  1.00  0.00     0.202 C 
BRANCH  26  27
ATOM     27  C   UNL A   1      31.394  30.912  25.825  1.00  0.00     0.261 C 
BRANCH  27  28
ATOM     28  O   UNL A   1      32.338  30.754  26.900  1.00  0.00    -0.460 OA
BRANCH  28  29
ATOM     29  C   UNL A   1      33.037  31.862  27.248  1.00  0.00     0.338 C 
ATOM     30  O   UNL A   1      32.608  33.008  27.308  1.00  0.00    -0.246 OA
BRANCH  29  31
ATOM     31  C   UNL A   1      34.384  31.489  27.737  1.00  0.00     0.060 A 
ATOM     32  C   UNL A   1      34.651  30.137  28.001  1.00  0.00     0.016 A 
ATOM     33  C   UNL A   1      35.358  32.454  27.990  1.00  0.00     0.016 A 
ATOM     34  C   UNL A   1      35.880  29.751  28.544  1.00  0.00     0.010 A 
ATOM     35  C   UNL A   1      36.581  32.068  28.557  1.00  0.00     0.010 A 
ATOM     36  C   UNL A   1      36.839  30.720  28.866  1.00  0.00    -0.014 A 
BRANCH  36  37
ATOM     37  C   UNL A   1      38.028  30.353  29.681  1.00  0.00     0.031 A 
ATOM     38  C   UNL A   1      39.037  29.398  29.099  1.00  0.00     0.074 A 
ATOM     39  C   UNL A   1      38.211  30.842  30.922  1.00  0.00     0.049 A 
ATOM     40  N   UNL A   1      40.114  28.895  29.645  1.00  0.00    -0.248 NA
ATOM     41  C   UNL A   1      38.796  28.949  27.718  1.00  0.00     0.031 C 
ATOM     42  C   UNL A   1      37.328  31.788  31.600  1.00  0.00     0.029 A 
ATOM     43  N   UNL A   1      39.197  30.579  31.845  1.00  0.00    -0.354 N 
ATOM     44  C   UNL A   1      40.660  28.045  28.690  1.00  0.00     0.074 A 
ATOM     45  C   UNL A   1      39.795  28.099  27.532  1.00  0.00     0.031 C 
ATOM     46  C   UNL A   1      37.792  32.001  32.844  1.00  0.00     0.029 A 
ATOM     47  C   UNL A   1      38.986  31.186  33.062  1.00  0.00     0.049 A 
ATOM     48  H   UNL A   1      39.977  30.012  31.652  1.00  0.00     0.167 HD
ATOM     49  C   UNL A   1      41.782  27.290  28.764  1.00  0.00     0.034 A 
ATOM     50  C   UNL A   1      39.661  31.072  34.225  1.00  0.00     0.034 A 
ATOM     51  C   UNL A   1      42.650  27.234  29.910  1.00  0.00     0.049 A 
ATOM     52  C   UNL A   1      40.881  30.185  34.296  1.00  0.00     0.074 A 
ATOM     53  C   UNL A   1      43.834  26.532  30.058  1.00  0.00     0.029 A 
ATOM     54  N   UNL A   1      42.419  27.882  31.112  1.00  0.00    -0.354 N 
ATOM     55  N   UNL A   1      41.451  29.480  33.348  1.00  0.00    -0.248 NA
ATOM     56  C   UNL A   1      41.571  30.102  35.594  1.00  0.00     0.031 C 
ATOM     57  C   UNL A   1      44.295  26.721  31.364  1.00  0.00     0.029 A 
ATOM     58  C   UNL A   1      43.425  27.580  32.015  1.00  0.00     0.049 A 
ATOM     59  H   UNL A   1      41.651  28.470  31.299  1.00  0.00     0.167 HD
ATOM     60  C   UNL A   1      42.584  28.908  33.923  1.00  0.00     0.074 A 
ATOM     61  C   UNL A   1      42.630  29.363  35.296  1.00  0.00     0.031 C 
ATOM     62  C   UNL A   1      43.498  28.078  33.364  1.00  0.00     0.034 A 
BRANCH  49  63
ATOM     63  C   UNL A   1      42.143  26.453  27.564  1.00  0.00     0.023 A 
ATOM     64  C   UNL A   1      42.865  27.026  26.497  1.00  0.00     0.012 A 
ATOM     65  C   UNL A   1      41.818  25.083  27.522  1.00  0.00     0.148 A 
ATOM     66  C   UNL A   1      43.225  26.257  25.392  1.00  0.00     0.002 A 
ATOM     67  C   UNL A   1      42.222  24.312  26.440  1.00  0.00     0.091 A 
ATOM     68  F   UNL A   1      41.115  24.562  28.538  1.00  0.00    -0.205 F 
ATOM     69  C   UNL A   1      42.915  24.899  25.368  1.00  0.00     0.022 A 
BRANCH  67  70
ATOM     70  S   UNL A   1      41.943  22.541  26.353  1.00  0.00     0.127 S 
ATOM     71  O   UNL A   1      42.616  22.197  25.101  1.00  0.00    -0.237 OA
ATOM     72  O   UNL A   1      42.620  22.064  27.559  1.00  0.00    -0.237 OA
ATOM     73  O   UNL A   1      40.499  22.360  26.353  1.00  0.00    -0.744 OA
ENDBRANCH  67  70
ENDBRANCH  49  63
BRANCH  50  74
ATOM     74  C   UNL A   1      39.216  31.829  35.431  1.00  0.00     0.023 A 
ATOM     75  C   UNL A   1      38.283  31.247  36.312  1.00  0.00     0.012 A 
ATOM     76  C   UNL A   1      39.695  33.126  35.698  1.00  0.00     0.148 A 
ATOM     77  C   UNL A   1      37.807  31.957  37.416  1.00  0.00     0.002 A 
ATOM     78  C   UNL A   1      39.261  33.805  36.830  1.00  0.00     0.091 A 
ATOM     79  F   UNL A   1      40.568  33.669  34.839  1.00  0.00    -0.205 F 
ATOM     80  C   UNL A   1      38.302  33.232  37.679  1.00  0.00     0.022 A 
BRANCH  78  81
ATOM     81  S   UNL A   1      39.926  35.402  37.314  1.00  0.00     0.127 S 
ATOM     82  O   UNL A   1      39.182  35.676  38.541  1.00  0.00    -0.237 OA
ATOM     83  O   UNL A   1      41.342  35.089  37.506  1.00  0.00    -0.237 OA
ATOM     84  O   UNL A   1      39.652  36.298  36.199  1.00  0.00    -0.744 OA
ENDBRANCH  78  81
ENDBRANCH  50  74
BRANCH  62  85
ATOM     85  C   UNL A   1      44.670  27.639  34.209  1.00  0.00     0.023 A 
ATOM     86  C   UNL A   1      45.785  28.485  34.372  1.00  0.00     0.012 A 
ATOM     87  C   UNL A   1      44.626  26.415  34.908  1.00  0.00     0.148 A 
ATOM     88  C   UNL A   1      46.852  28.104  35.186  1.00  0.00     0.002 A 
ATOM     89  C   UNL A   1      45.667  26.067  35.760  1.00  0.00     0.091 A 
ATOM     90  F   UNL A   1      43.564  25.615  34.731  1.00  0.00    -0.205 F 
ATOM     91  C   UNL A   1      46.788  26.904  35.889  1.00  0.00     0.022 A 
BRANCH  89  92
ATOM     92  S   UNL A   1      45.627  24.589  36.782  1.00  0.00     0.127 S 
ATOM     93  O   UNL A   1      47.045  24.400  37.087  1.00  0.00    -0.237 OA
ATOM     94  O   UNL A   1      44.811  25.021  37.917  1.00  0.00    -0.237 OA
ATOM     95  O   UNL A   1      45.023  23.548  35.962  1.00  0.00    -0.744 OA
ENDBRANCH  89  92
ENDBRANCH  62  85
ENDBRANCH  36  37
ENDBRANCH  29  31
ENDBRANCH  28  29
ENDBRANCH  27  28
ENDBRANCH  26  27
ENDBRANCH  25  26
ENDBRANCH  24  25
ENDBRANCH   1  24
TORSDOF 24
ENDMDL
MODEL 2
REMARK VINA RESULT:     -10.6      1.335      2.027
REMARK SMILES C[C@H](C(=O)OCCOCCOCCOC(=O)c1ccc(-c2c3nc(c(-c4cccc(S(=O)(=O)[O-])c4F)c4ccc([nH]4)c(-c4cccc(S(=O)(=O)[O-])c4F)c4nc(c(-c5cccc(S(=O)(=O)[O-])c5F)c5ccc2[nH]5)C=C4)C=C3)cc1)c1ccc(C[C@@H]2CCC[C@H]2O)cc1
REMARK SMILES IDX 9 1 8 2 7 3 6 4 5 5 3 6 4 7 2 8 1 9 80 10 81 11 92 12 82 13
REMARK SMILES IDX 91 14 83 15 84 16 85 17 86 18 89 19 87 20 88 21 90 22 10 24
REMARK SMILES IDX 11 25 12 26 13 27 14 28 15 29 16 30 17 31 18 32 79 33 19 34
REMARK SMILES IDX 78 35 20 36 21 37 22 38 72 39 23 40 77 41 71 42 73 43 24 44
REMARK SMILES IDX 76 45 70 46 69 47 25 49 57 50 37 51 56 52 38 53 41 54 55 55
REMARK SMILES IDX 74 56 39 57 40 58 54 60 75 61 42 62 26 63 27 64 35 65 28 66
REMARK SMILES IDX 30 67 36 68 29 69 31 70 32 71 33 72 34 73 58 74 59 75 67 76
REMARK SMILES IDX 60 77 62 78 68 79 61 80 63 81 64 82 65 83 66 84 43 85 44 86
REMARK SMILES IDX 52 87 45 88 47 89 53 90 46 91 48 92 49 93 50 94 51 95
REMARK H PARENT 90 23 73 48 41 59
REMARK Flexibility Score: inf
ROOT
ATOM      1  C   UNL A   1      31.613  28.032  22.514  1.00  0.00     0.188 C 
ENDROOT
BRANCH   1   2
ATOM      2  O   UNL A   1      32.942  28.352  22.867  1.00  0.00    -0.376 OA
BRANCH   2   3
ATOM      3  C   UNL A   1      33.738  27.356  23.477  1.00  0.00     0.202 C 
BRANCH   3   4
ATOM      4  C   UNL A   1      33.148  25.988  23.856  1.00  0.00     0.261 C 
BRANCH   4   5
ATOM      5  O   UNL A   1      32.668  25.847  25.203  1.00  0.00    -0.463 OA
BRANCH   5   6
ATOM      6  C   UNL A   1      31.350  25.606  25.407  1.00  0.00     0.313 C 
ATOM      7  O   UNL A   1      30.588  26.408  25.932  1.00  0.00    -0.252 OA
BRANCH   6   8
ATOM      8  C   UNL A   1      30.892  24.259  24.831  1.00  0.00     0.126 C 
ATOM      9  C   UNL A   1      30.342  24.450  23.410  1.00  0.00     0.025 C 
BRANCH   8  10
ATOM     10  C   UNL A   1      31.830  23.054  24.967  1.00  0.00    -0.034 A 
ATOM     11  C   UNL A   1      32.587  22.891  26.142  1.00  0.00     0.005 A 
ATOM     12  C   UNL A   1      32.114  22.195  23.895  1.00  0.00     0.005 A 
ATOM     13  C   UNL A   1      33.654  21.994  26.203  1.00  0.00     0.004 A 
ATOM     14  C   UNL A   1      33.194  21.305  23.950  1.00  0.00     0.004 A 
ATOM     15  C   UNL A   1      34.025  21.268  25.073  1.00  0.00    -0.048 A 
BRANCH  15  16
ATOM     16  C   UNL A   1      35.370  20.587  25.011  1.00  0.00     0.041 C 
BRANCH  16  17
ATOM     17  C   UNL A   1      36.522  21.426  24.396  1.00  0.00     0.022 C 
ATOM     18  C   UNL A   1      37.563  21.932  25.408  1.00  0.00     0.007 C 
ATOM     19  C   UNL A   1      36.093  22.704  23.664  1.00  0.00     0.117 C 
ATOM     20  C   UNL A   1      37.264  23.410  25.670  1.00  0.00     0.003 C 
ATOM     21  C   UNL A   1      36.165  23.825  24.697  1.00  0.00     0.032 C 
BRANCH  19  22
ATOM     22  O   UNL A   1      37.025  22.983  22.614  1.00  0.00    -0.393 OA
ATOM     23  H   UNL A   1      37.103  23.943  22.497  1.00  0.00     0.210 HD
ENDBRANCH  19  22
ENDBRANCH  16  17
ENDBRANCH  15  16
ENDBRANCH   8  10
ENDBRANCH   6   8
ENDBRANCH   5   6
ENDBRANCH   4   5
ENDBRANCH   3   4
ENDBRANCH   2   3
ENDBRANCH   1   2
BRANCH   1  24
ATOM     24  C   UNL A   1      30.636  29.215  22.710  1.00  0.00     0.188 C 
BRANCH  24  25
ATOM     25  O   UNL A   1      30.320  29.654  24.028  1.00  0.00    -0.376 OA
BRANCH  25  26
ATOM     26  C   UNL A   1      31.356  29.738  24.994  1.00  0.00     0.202 C 
BRANCH  26  27
ATOM     27  C   UNL A   1      31.395  30.933  25.962  1.00  0.00     0.261 C 
BRANCH  27  28
ATOM     28  O   UNL A   1      32.342  30.845  27.041  1.00  0.00    -0.460 OA
BRANCH  28  29
ATOM     29  C   UNL A   1      33.113  31.940  27.251  1.00  0.00     0.338 C 
ATOM     30  O   UNL A   1      32.753  33.109  27.193  1.00  0.00    -0.246 OA
BRANCH  29  31
ATOM     31  C   UNL A   1      34.449  31.542  27.751  1.00  0.00     0.060 A 
ATOM     32  C   UNL A   1      34.675  30.191  28.058  1.00  0.00     0.016 A 
ATOM     33  C   UNL A   1      35.453  32.484  27.971  1.00  0.00     0.016 A 
ATOM     34  C   UNL A   1      35.893  29.785  28.612  1.00  0.00     0.010 A 
ATOM     35  C   UNL A   1      36.664  32.079  28.549  1.00  0.00     0.010 A 
ATOM     36  C   UNL A   1      36.881  30.734  28.902  1.00  0.00    -0.014 A 
BRANCH  36  37
ATOM     37  C   UNL A   1      38.060  30.358  29.726  1.00  0.00     0.031 A 
ATOM     38  C   UNL A   1      39.053  29.376  29.164  1.00  0.00     0.074 A 
ATOM     39  C   UNL A   1      38.248  30.862  30.961  1.00  0.00     0.049 A 
ATOM     40  N   UNL A   1      40.119  28.861  29.721  1.00  0.00    -0.248 NA
ATOM     41  C   UNL A   1      38.810  28.911  27.788  1.00  0.00     0.031 C 
ATOM     42  C   UNL A   1      37.379  31.834  31.621  1.00  0.00     0.029 A 
ATOM     43  N   UNL A   1      39.224  30.595  31.892  1.00  0.00    -0.354 N 
ATOM     44  C   UNL A   1      40.654  27.988  28.780  1.00  0.00     0.074 A 
ATOM     45  C   UNL A   1      39.794  28.041  27.618  1.00  0.00     0.031 C 
ATOM     46  C   UNL A   1      37.842  32.056  32.864  1.00  0.00     0.029 A 
ATOM     47  C   UNL A   1      39.020  31.223  33.099  1.00  0.00     0.049 A 
ATOM     48  H   UNL A   1      39.995  30.010  31.711  1.00  0.00     0.167 HD
ATOM     49  C   UNL A   1      41.761  27.213  28.870  1.00  0.00     0.034 A 
ATOM     50  C   UNL A   1      39.688  31.113  34.266  1.00  0.00     0.034 A 
ATOM     51  C   UNL A   1      42.623  27.159  30.021  1.00  0.00     0.049 A 
ATOM     52  C   UNL A   1      40.892  30.206  34.356  1.00  0.00     0.074 A 
ATOM     53  C   UNL A   1      43.793  26.438  30.184  1.00  0.00     0.029 A 
ATOM     54  N   UNL A   1      42.399  27.829  31.213  1.00  0.00    -0.354 N 
ATOM     55  N   UNL A   1      41.452  29.477  33.421  1.00  0.00    -0.248 NA
ATOM     56  C   UNL A   1      41.574  30.129  35.658  1.00  0.00     0.031 C 
ATOM     57  C   UNL A   1      44.252  26.637  31.489  1.00  0.00     0.029 A 
ATOM     58  C   UNL A   1      43.396  27.521  32.124  1.00  0.00     0.049 A 
ATOM     59  H   UNL A   1      41.642  28.433  31.387  1.00  0.00     0.167 HD
ATOM     60  C   UNL A   1      42.572  28.893  34.008  1.00  0.00     0.074 A 
ATOM     61  C   UNL A   1      42.621  29.366  35.375  1.00  0.00     0.031 C 
ATOM     62  C   UNL A   1      43.473  28.037  33.466  1.00  0.00     0.034 A 
BRANCH  49  63
ATOM     63  C   UNL A   1      42.111  26.352  27.685  1.00  0.00     0.023 A 
ATOM     64  C   UNL A   1      42.762  26.920  26.570  1.00  0.00     0.012 A 
ATOM     65  C   UNL A   1      41.848  24.969  27.701  1.00  0.00     0.148 A 
ATOM     66  C   UNL A   1      43.113  26.130  25.477  1.00  0.00     0.002 A 
ATOM     67  C   UNL A   1      42.243  24.180  26.629  1.00  0.00     0.091 A 
ATOM     68  F   UNL A   1      41.211  24.452  28.762  1.00  0.00    -0.205 F 
ATOM     69  C   UNL A   1      42.865  24.760  25.510  1.00  0.00     0.022 A 
BRANCH  67  70
ATOM     70  S   UNL A   1      42.043  22.396  26.611  1.00  0.00     0.127 S 
ATOM     71  O   UNL A   1      42.722  22.011  27.848  1.00  0.00    -0.237 OA
ATOM     72  O   UNL A   1      40.587  22.251  26.645  1.00  0.00    -0.237 OA
ATOM     73  O   UNL A   1      42.673  21.931  25.385  1.00  0.00    -0.744 OA
ENDBRANCH  67  70
ENDBRANCH  49  63
BRANCH  50  74
ATOM     74  C   UNL A   1      39.252  31.896  35.460  1.00  0.00     0.023 A 
ATOM     75  C   UNL A   1      38.329  31.332  36.362  1.00  0.00     0.012 A 
ATOM     76  C   UNL A   1      39.730  33.200  35.693  1.00  0.00     0.148 A 
ATOM     77  C   UNL A   1      37.862  32.066  37.454  1.00  0.00     0.002 A 
ATOM     78  C   UNL A   1      39.304  33.904  36.813  1.00  0.00     0.091 A 
ATOM     79  F   UNL A   1      40.593  33.726  34.814  1.00  0.00    -0.205 F 
ATOM     80  C   UNL A   1      38.356  33.347  37.684  1.00  0.00     0.022 A 
BRANCH  78  81
ATOM     81  S   UNL A   1      39.969  35.513  37.255  1.00  0.00     0.127 S 
ATOM     82  O   UNL A   1      39.261  35.798  38.501  1.00  0.00    -0.237 OA
ATOM     83  O   UNL A   1      41.393  35.215  37.409  1.00  0.00    -0.237 OA
ATOM     84  O   UNL A   1      39.654  36.390  36.136  1.00  0.00    -0.744 OA
ENDBRANCH  78  81
ENDBRANCH  50  74
BRANCH  62  85
ATOM     85  C   UNL A   1      44.633  27.590  34.322  1.00  0.00     0.023 A 
ATOM     86  C   UNL A   1      45.825  28.341  34.353  1.00  0.00     0.012 A 
ATOM     87  C   UNL A   1      44.507  26.462  35.160  1.00  0.00     0.148 A 
ATOM     88  C   UNL A   1      46.885  27.957  35.175  1.00  0.00     0.002 A 
ATOM     89  C   UNL A   1      45.546  26.118  36.016  1.00  0.00     0.091 A 
ATOM     90  F   UNL A   1      43.372  25.751  35.108  1.00  0.00    -0.205 F 
ATOM     91  C   UNL A   1      46.741  26.855  36.015  1.00  0.00     0.022 A 
BRANCH  89  92
ATOM     92  S   UNL A   1      45.414  24.775  37.205  1.00  0.00     0.127 S 
ATOM     93  O   UNL A   1      44.292  25.219  38.031  1.00  0.00    -0.237 OA
ATOM     94  O   UNL A   1      45.122  23.629  36.344  1.00  0.00    -0.237 OA
ATOM     95  O   UNL A   1      46.700  24.711  37.884  1.00  0.00    -0.744 OA
ENDBRANCH  89  92
ENDBRANCH  62  85
ENDBRANCH  36  37
ENDBRANCH  29  31
ENDBRANCH  28  29
ENDBRANCH  27  28
ENDBRANCH  26  27
ENDBRANCH  25  26
ENDBRANCH  24  25
ENDBRANCH   1  24
TORSDOF 24
ENDMDL
MODEL 3
REMARK VINA RESULT:     -10.1      2.334      7.931
REMARK SMILES C[C@H](C(=O)OCCOCCOCCOC(=O)c1ccc(-c2c3nc(c(-c4cccc(S(=O)(=O)[O-])c4F)c4ccc([nH]4)c(-c4cccc(S(=O)(=O)[O-])c4F)c4nc(c(-c5cccc(S(=O)(=O)[O-])c5F)c5ccc2[nH]5)C=C4)C=C3)cc1)c1ccc(C[C@@H]2CCC[C@H]2O)cc1
REMARK SMILES IDX 9 1 8 2 7 3 6 4 5 5 3 6 4 7 2 8 1 9 80 10 81 11 92 12 82 13
REMARK SMILES IDX 91 14 83 15 84 16 85 17 86 18 89 19 87 20 88 21 90 22 10 24
REMARK SMILES IDX 11 25 12 26 13 27 14 28 15 29 16 30 17 31 18 32 79 33 19 34
REMARK SMILES IDX 78 35 20 36 21 37 22 38 72 39 23 40 77 41 71 42 73 43 24 44
REMARK SMILES IDX 76 45 70 46 69 47 25 49 57 50 37 51 56 52 38 53 41 54 55 55
REMARK SMILES IDX 74 56 39 57 40 58 54 60 75 61 42 62 26 63 27 64 35 65 28 66
REMARK SMILES IDX 30 67 36 68 29 69 31 70 32 71 33 72 34 73 58 74 59 75 67 76
REMARK SMILES IDX 60 77 62 78 68 79 61 80 63 81 64 82 65 83 66 84 43 85 44 86
REMARK SMILES IDX 52 87 45 88 47 89 53 90 46 91 48 92 49 93 50 94 51 95
REMARK H PARENT 90 23 73 48 41 59
REMARK Flexibility Score: inf
ROOT
ATOM      1  C   UNL A   1      30.886  27.569  22.412  1.00  0.00     0.188 C 
ENDROOT
BRANCH   1   2
ATOM      2  O   UNL A   1      32.047  26.839  22.744  1.00  0.00    -0.376 OA
BRANCH   2   3
ATOM      3  C   UNL A   1      32.110  25.471  22.391  1.00  0.00     0.202 C 
BRANCH   3   4
ATOM      4  C   UNL A   1      32.141  24.372  23.466  1.00  0.00     0.261 C 
BRANCH   4   5
ATOM      5  O   UNL A   1      32.311  24.807  24.824  1.00  0.00    -0.463 OA
BRANCH   5   6
ATOM      6  C   UNL A   1      31.255  24.743  25.671  1.00  0.00     0.313 C 
ATOM      7  O   UNL A   1      30.288  25.492  25.606  1.00  0.00    -0.252 OA
BRANCH   6   8
ATOM      8  C   UNL A   1      31.354  23.577  26.663  1.00  0.00     0.126 C 
ATOM      9  C   UNL A   1      29.962  22.984  26.926  1.00  0.00     0.025 C 
BRANCH   8  10
ATOM     10  C   UNL A   1      32.436  22.515  26.432  1.00  0.00    -0.034 A 
ATOM     11  C   UNL A   1      33.585  22.506  27.244  1.00  0.00     0.005 A 
ATOM     12  C   UNL A   1      32.425  21.656  25.322  1.00  0.00     0.005 A 
ATOM     13  C   UNL A   1      34.715  21.763  26.899  1.00  0.00     0.004 A 
ATOM     14  C   UNL A   1      33.564  20.923  24.968  1.00  0.00     0.004 A 
ATOM     15  C   UNL A   1      34.745  21.046  25.704  1.00  0.00    -0.048 A 
BRANCH  15  16
ATOM     16  C   UNL A   1      36.054  20.549  25.144  1.00  0.00     0.041 C 
BRANCH  16  17
ATOM     17  C   UNL A   1      36.941  21.620  24.453  1.00  0.00     0.022 C 
ATOM     18  C   UNL A   1      37.819  22.446  25.407  1.00  0.00     0.007 C 
ATOM     19  C   UNL A   1      36.185  22.690  23.655  1.00  0.00     0.117 C 
ATOM     20  C   UNL A   1      37.142  23.807  25.586  1.00  0.00     0.003 C 
ATOM     21  C   UNL A   1      35.966  23.855  24.615  1.00  0.00     0.032 C 
BRANCH  19  22
ATOM     22  O   UNL A   1      37.005  23.134  22.568  1.00  0.00    -0.393 OA
ATOM     23  H   UNL A   1      36.736  24.029  22.305  1.00  0.00     0.210 HD
ENDBRANCH  19  22
ENDBRANCH  16  17
ENDBRANCH  15  16
ENDBRANCH   8  10
ENDBRANCH   6   8
ENDBRANCH   5   6
ENDBRANCH   4   5
ENDBRANCH   3   4
ENDBRANCH   2   3
ENDBRANCH   1   2
BRANCH   1  24
ATOM     24  C   UNL A   1      31.009  29.077  22.735  1.00  0.00     0.188 C 
BRANCH  24  25
ATOM     25  O   UNL A   1      30.659  29.548  24.033  1.00  0.00    -0.376 OA
BRANCH  25  26
ATOM     26  C   UNL A   1      31.680  29.717  25.005  1.00  0.00     0.202 C 
BRANCH  26  27
ATOM     27  C   UNL A   1      31.582  30.873  26.013  1.00  0.00     0.261 C 
BRANCH  27  28
ATOM     28  O   UNL A   1      32.406  30.762  27.188  1.00  0.00    -0.460 OA
BRANCH  28  29
ATOM     29  C   UNL A   1      33.263  31.787  27.415  1.00  0.00     0.338 C 
ATOM     30  O   UNL A   1      32.985  32.980  27.449  1.00  0.00    -0.246 OA
BRANCH  29  31
ATOM     31  C   UNL A   1      34.594  31.269  27.807  1.00  0.00     0.060 A 
ATOM     32  C   UNL A   1      34.715  29.910  28.135  1.00  0.00     0.016 A 
ATOM     33  C   UNL A   1      35.701  32.112  27.909  1.00  0.00     0.016 A 
ATOM     34  C   UNL A   1      35.932  29.397  28.592  1.00  0.00     0.010 A 
ATOM     35  C   UNL A   1      36.914  31.601  28.390  1.00  0.00     0.010 A 
ATOM     36  C   UNL A   1      37.030  30.249  28.764  1.00  0.00    -0.014 A 
BRANCH  36  37
ATOM     37  C   UNL A   1      38.237  29.775  29.493  1.00  0.00     0.031 A 
ATOM     38  C   UNL A   1      38.527  30.342  30.858  1.00  0.00     0.074 A 
ATOM     39  C   UNL A   1      39.076  28.869  28.956  1.00  0.00     0.049 A 
ATOM     40  N   UNL A   1      39.545  30.121  31.649  1.00  0.00    -0.248 NA
ATOM     41  C   UNL A   1      37.536  31.286  31.400  1.00  0.00     0.031 C 
ATOM     42  C   UNL A   1      38.908  28.224  27.655  1.00  0.00     0.029 A 
ATOM     43  N   UNL A   1      40.260  28.359  29.435  1.00  0.00    -0.354 N 
ATOM     44  C   UNL A   1      39.336  30.922  32.766  1.00  0.00     0.074 A 
ATOM     45  C   UNL A   1      38.096  31.635  32.549  1.00  0.00     0.031 C 
ATOM     46  C   UNL A   1      39.968  27.429  27.424  1.00  0.00     0.029 A 
ATOM     47  C   UNL A   1      40.903  27.531  28.544  1.00  0.00     0.049 A 
ATOM     48  H   UNL A   1      40.613  28.567  30.330  1.00  0.00     0.167 HD
ATOM     49  C   UNL A   1      40.102  31.053  33.876  1.00  0.00     0.034 A 
ATOM     50  C   UNL A   1      42.118  26.948  28.612  1.00  0.00     0.034 A 
ATOM     51  C   UNL A   1      41.333  30.344  34.101  1.00  0.00     0.049 A 
ATOM     52  C   UNL A   1      42.975  27.147  29.839  1.00  0.00     0.074 A 
ATOM     53  C   UNL A   1      42.152  30.378  35.216  1.00  0.00     0.029 A 
ATOM     54  N   UNL A   1      41.938  29.494  33.189  1.00  0.00    -0.354 N 
ATOM     55  N   UNL A   1      42.709  27.815  30.936  1.00  0.00    -0.248 NA
ATOM     56  C   UNL A   1      44.290  26.486  29.849  1.00  0.00     0.031 C 
ATOM     57  C   UNL A   1      43.274  29.584  34.960  1.00  0.00     0.029 A 
ATOM     58  C   UNL A   1      43.130  29.016  33.705  1.00  0.00     0.049 A 
ATOM     59  H   UNL A   1      41.575  29.266  32.303  1.00  0.00     0.167 HD
ATOM     60  C   UNL A   1      43.801  27.618  31.779  1.00  0.00     0.074 A 
ATOM     61  C   UNL A   1      44.724  26.755  31.073  1.00  0.00     0.031 C 
ATOM     62  C   UNL A   1      44.020  28.113  33.022  1.00  0.00     0.034 A 
BRANCH  49  63
ATOM     63  C   UNL A   1      39.630  32.005  34.944  1.00  0.00     0.023 A 
ATOM     64  C   UNL A   1      39.836  33.391  34.792  1.00  0.00     0.012 A 
ATOM     65  C   UNL A   1      38.930  31.529  36.070  1.00  0.00     0.148 A 
ATOM     66  C   UNL A   1      39.384  34.285  35.761  1.00  0.00     0.002 A 
ATOM     67  C   UNL A   1      38.441  32.429  37.008  1.00  0.00     0.091 A 
ATOM     68  F   UNL A   1      38.762  30.206  36.205  1.00  0.00    -0.205 F 
ATOM     69  C   UNL A   1      38.677  33.806  36.862  1.00  0.00     0.022 A 
BRANCH  67  70
ATOM     70  S   UNL A   1      37.450  31.919  38.415  1.00  0.00     0.127 S 
ATOM     71  O   UNL A   1      37.050  30.569  38.021  1.00  0.00    -0.237 OA
ATOM     72  O   UNL A   1      38.420  31.973  39.509  1.00  0.00    -0.237 OA
ATOM     73  O   UNL A   1      36.365  32.885  38.515  1.00  0.00    -0.744 OA
ENDBRANCH  67  70
ENDBRANCH  49  63
BRANCH  50  74
ATOM     74  C   UNL A   1      42.608  26.097  27.488  1.00  0.00     0.023 A 
ATOM     75  C   UNL A   1      43.319  26.690  26.426  1.00  0.00     0.012 A 
ATOM     76  C   UNL A   1      42.358  24.712  27.458  1.00  0.00     0.148 A 
ATOM     77  C   UNL A   1      43.738  25.925  25.336  1.00  0.00     0.002 A 
ATOM     78  C   UNL A   1      42.827  23.946  26.397  1.00  0.00     0.091 A 
ATOM     79  F   UNL A   1      41.665  24.169  28.468  1.00  0.00    -0.205 F 
ATOM     80  C   UNL A   1      43.500  24.553  25.325  1.00  0.00     0.022 A 
BRANCH  78  81
ATOM     81  S   UNL A   1      42.669  22.157  26.350  1.00  0.00     0.127 S 
ATOM     82  O   UNL A   1      43.757  21.784  25.449  1.00  0.00    -0.237 OA
ATOM     83  O   UNL A   1      42.881  21.803  27.754  1.00  0.00    -0.237 OA
ATOM     84  O   UNL A   1      41.324  21.893  25.858  1.00  0.00    -0.744 OA
ENDBRANCH  78  81
ENDBRANCH  50  74
BRANCH  62  85
ATOM     85  C   UNL A   1      45.282  27.697  33.740  1.00  0.00     0.023 A 
ATOM     86  C   UNL A   1      45.296  26.536  34.538  1.00  0.00     0.012 A 
ATOM     87  C   UNL A   1      46.479  28.420  33.555  1.00  0.00     0.148 A 
ATOM     88  C   UNL A   1      46.469  26.122  35.169  1.00  0.00     0.002 A 
ATOM     89  C   UNL A   1      47.655  27.971  34.143  1.00  0.00     0.091 A 
ATOM     90  F   UNL A   1      46.445  29.531  32.804  1.00  0.00    -0.205 F 
ATOM     91  C   UNL A   1      47.650  26.831  34.962  1.00  0.00     0.022 A 
BRANCH  89  92
ATOM     92  S   UNL A   1      49.243  28.762  33.851  1.00  0.00     0.127 S 
ATOM     93  O   UNL A   1      48.837  30.034  33.254  1.00  0.00    -0.237 OA
ATOM     94  O   UNL A   1      49.788  28.871  35.205  1.00  0.00    -0.237 OA
ATOM     95  O   UNL A   1      49.983  27.868  32.971  1.00  0.00    -0.744 OA
ENDBRANCH  89  92
ENDBRANCH  62  85
ENDBRANCH  36  37
ENDBRANCH  29  31
ENDBRANCH  28  29
ENDBRANCH  27  28
ENDBRANCH  26  27
ENDBRANCH  25  26
ENDBRANCH  24  25
ENDBRANCH   1  24
TORSDOF 24
ENDMDL
