MODEL 1
REMARK VINA RESULT:     -10.2      0.000      0.000
REMARK SMILES O=C(COC1(Cc2ccccc2)CCCCC1)OCCOCCOCCOC(=O)c1ccc(-c2c3nc(c(-c4cccc(S(=O)(=O)[O-])c4F)c4ccc([nH]4)c(-c4cccc(S(=O)(=O)[O-])c4F)c4nc(c(-c5cccc(S(=O)(=O)[O-])c5F)c5ccc2[nH]5)C=C4)C=C3)cc1
REMARK SMILES IDX 22 1 21 2 20 3 19 4 18 5 2 6 1 7 3 8 4 9 5 10 13 11 17 12
REMARK SMILES IDX 14 13 16 14 15 15 6 16 7 17 8 18 12 19 9 20 11 21 10 22
REMARK SMILES IDX 23 23 24 24 25 25 26 26 27 27 28 28 29 29 30 30 31 31 92 32
REMARK SMILES IDX 32 33 91 34 33 35 34 36 35 37 85 38 36 39 90 40 84 41 86 42
REMARK SMILES IDX 37 43 89 44 83 45 82 46 38 48 70 49 50 50 69 51 51 52 54 53
REMARK SMILES IDX 68 54 87 55 52 56 53 57 67 59 88 60 55 61 39 62 40 63 48 64
REMARK SMILES IDX 41 65 43 66 49 67 42 68 44 69 45 70 46 71 47 72 71 73 72 74
REMARK SMILES IDX 80 75 73 76 75 77 81 78 74 79 76 80 77 81 78 82 79 83 56 84
REMARK SMILES IDX 57 85 65 86 58 87 60 88 66 89 59 90 61 91 62 92 63 93 64 94
REMARK H PARENT 86 47 54 58
REMARK Flexibility Score: inf
ROOT
ATOM      1  C   UNL A   1      40.115  19.895  26.149  1.00  0.00     0.188 C 
ENDROOT
BRANCH   1   2
ATOM      2  O   UNL A   1      39.519  21.001  26.814  1.00  0.00    -0.376 OA
BRANCH   2   3
ATOM      3  C   UNL A   1      38.959  22.053  26.030  1.00  0.00     0.202 C 
BRANCH   3   4
ATOM      4  C   UNL A   1      37.496  21.930  25.613  1.00  0.00     0.261 C 
BRANCH   4   5
ATOM      5  O   UNL A   1      37.365  21.874  24.186  1.00  0.00    -0.462 OA
BRANCH   5   6
ATOM      6  C   UNL A   1      36.470  22.607  23.484  1.00  0.00     0.332 C 
ATOM      7  O   UNL A   1      36.882  23.310  22.564  1.00  0.00    -0.250 OA
BRANCH   6   8
ATOM      8  C   UNL A   1      35.003  22.610  23.939  1.00  0.00     0.283 C 
BRANCH   8   9
ATOM      9  O   UNL A   1      34.348  23.842  23.886  1.00  0.00    -0.363 OA
BRANCH   9  10
ATOM     10  C   UNL A   1      33.051  24.042  24.464  1.00  0.00     0.073 C 
ATOM     11  C   UNL A   1      32.638  22.552  24.680  1.00  0.00     0.036 C 
ATOM     12  C   UNL A   1      33.240  24.678  25.856  1.00  0.00     0.036 C 
ATOM     13  C   UNL A   1      31.440  22.339  25.591  1.00  0.00     0.003 C 
ATOM     14  C   UNL A   1      32.017  24.517  26.758  1.00  0.00     0.003 C 
ATOM     15  C   UNL A   1      31.627  23.049  26.926  1.00  0.00     0.000 C 
BRANCH  10  16
ATOM     16  C   UNL A   1      31.920  24.736  23.626  1.00  0.00     0.071 C 
BRANCH  16  17
ATOM     17  C   UNL A   1      31.668  26.229  23.464  1.00  0.00    -0.045 A 
ATOM     18  C   UNL A   1      30.314  26.622  23.419  1.00  0.00     0.004 A 
ATOM     19  C   UNL A   1      32.627  27.241  23.351  1.00  0.00     0.004 A 
ATOM     20  C   UNL A   1      29.934  27.952  23.223  1.00  0.00     0.000 A 
ATOM     21  C   UNL A   1      32.251  28.570  23.110  1.00  0.00     0.000 A 
ATOM     22  C   UNL A   1      30.907  28.925  23.044  1.00  0.00     0.000 A 
ENDBRANCH  16  17
ENDBRANCH  10  16
ENDBRANCH   9  10
ENDBRANCH   8   9
ENDBRANCH   6   8
ENDBRANCH   5   6
ENDBRANCH   4   5
ENDBRANCH   3   4
ENDBRANCH   2   3
ENDBRANCH   1   2
BRANCH   1  23
ATOM     23  C   UNL A   1      41.593  19.532  26.348  1.00  0.00     0.188 C 
BRANCH  23  24
ATOM     24  O   UNL A   1      42.443  19.448  25.223  1.00  0.00    -0.376 OA
BRANCH  24  25
ATOM     25  C   UNL A   1      43.802  19.849  25.383  1.00  0.00     0.202 C 
BRANCH  25  26
ATOM     26  C   UNL A   1      44.246  21.197  24.815  1.00  0.00     0.261 C 
BRANCH  26  27
ATOM     27  O   UNL A   1      43.325  22.267  25.112  1.00  0.00    -0.460 OA
BRANCH  27  28
ATOM     28  C   UNL A   1      43.834  23.509  24.965  1.00  0.00     0.338 C 
ATOM     29  O   UNL A   1      44.784  23.831  24.248  1.00  0.00    -0.246 OA
BRANCH  28  30
ATOM     30  C   UNL A   1      43.054  24.521  25.691  1.00  0.00     0.060 A 
ATOM     31  C   UNL A   1      43.486  25.852  25.628  1.00  0.00     0.016 A 
ATOM     32  C   UNL A   1      42.053  24.144  26.589  1.00  0.00     0.016 A 
ATOM     33  C   UNL A   1      42.971  26.798  26.517  1.00  0.00     0.010 A 
ATOM     34  C   UNL A   1      41.542  25.094  27.483  1.00  0.00     0.010 A 
ATOM     35  C   UNL A   1      42.036  26.412  27.487  1.00  0.00    -0.014 A 
BRANCH  35  36
ATOM     36  C   UNL A   1      41.713  27.332  28.610  1.00  0.00     0.031 A 
ATOM     37  C   UNL A   1      42.547  27.278  29.866  1.00  0.00     0.074 A 
ATOM     38  C   UNL A   1      40.708  28.221  28.519  1.00  0.00     0.049 A 
ATOM     39  N   UNL A   1      42.415  27.954  30.978  1.00  0.00    -0.248 NA
ATOM     40  C   UNL A   1      43.680  26.337  29.865  1.00  0.00     0.031 C 
ATOM     41  C   UNL A   1      39.837  28.398  27.359  1.00  0.00     0.029 A 
ATOM     42  N   UNL A   1      40.238  29.130  29.436  1.00  0.00    -0.354 N 
ATOM     43  C   UNL A   1      43.430  27.507  31.818  1.00  0.00     0.074 A 
ATOM     44  C   UNL A   1      44.162  26.492  31.090  1.00  0.00     0.031 C 
ATOM     45  C   UNL A   1      38.921  29.339  27.643  1.00  0.00     0.029 A 
ATOM     46  C   UNL A   1      39.123  29.814  29.011  1.00  0.00     0.049 A 
ATOM     47  H   UNL A   1      40.658  29.277  30.313  1.00  0.00     0.167 HD
ATOM     48  C   UNL A   1      43.740  27.914  33.072  1.00  0.00     0.034 A 
ATOM     49  C   UNL A   1      38.343  30.702  29.660  1.00  0.00     0.034 A 
ATOM     50  C   UNL A   1      43.036  28.937  33.796  1.00  0.00     0.049 A 
ATOM     51  C   UNL A   1      38.688  31.111  31.071  1.00  0.00     0.074 A 
ATOM     52  C   UNL A   1      43.290  29.421  35.068  1.00  0.00     0.029 A 
ATOM     53  N   UNL A   1      41.939  29.633  33.317  1.00  0.00    -0.354 N 
ATOM     54  N   UNL A   1      39.706  30.748  31.812  1.00  0.00    -0.248 NA
ATOM     55  C   UNL A   1      37.790  32.079  31.722  1.00  0.00     0.031 C 
ATOM     56  C   UNL A   1      42.340  30.404  35.362  1.00  0.00     0.029 A 
ATOM     57  C   UNL A   1      41.504  30.542  34.267  1.00  0.00     0.049 A 
ATOM     58  H   UNL A   1      41.530  29.502  32.431  1.00  0.00     0.167 HD
ATOM     59  C   UNL A   1      39.591  31.467  32.999  1.00  0.00     0.074 A 
ATOM     60  C   UNL A   1      38.417  32.303  32.869  1.00  0.00     0.031 C 
ATOM     61  C   UNL A   1      40.374  31.422  34.105  1.00  0.00     0.034 A 
BRANCH  48  62
ATOM     62  C   UNL A   1      44.932  27.274  33.733  1.00  0.00     0.023 A 
ATOM     63  C   UNL A   1      46.199  27.877  33.604  1.00  0.00     0.012 A 
ATOM     64  C   UNL A   1      44.792  26.114  34.520  1.00  0.00     0.148 A 
ATOM     65  C   UNL A   1      47.315  27.321  34.228  1.00  0.00     0.002 A 
ATOM     66  C   UNL A   1      45.903  25.586  35.168  1.00  0.00     0.091 A 
ATOM     67  F   UNL A   1      43.584  25.543  34.609  1.00  0.00    -0.205 F 
ATOM     68  C   UNL A   1      47.166  26.183  35.017  1.00  0.00     0.022 A 
BRANCH  66  69
ATOM     69  S   UNL A   1      45.798  24.163  36.260  1.00  0.00     0.127 S 
ATOM     70  O   UNL A   1      47.199  23.974  36.633  1.00  0.00    -0.237 OA
ATOM     71  O   UNL A   1      44.942  24.660  37.337  1.00  0.00    -0.237 OA
ATOM     72  O   UNL A   1      45.211  23.093  35.465  1.00  0.00    -0.744 OA
ENDBRANCH  66  69
ENDBRANCH  48  62
BRANCH  49  73
ATOM     73  C   UNL A   1      37.161  31.298  28.974  1.00  0.00     0.023 A 
ATOM     74  C   UNL A   1      37.092  32.694  28.795  1.00  0.00     0.012 A 
ATOM     75  C   UNL A   1      36.106  30.494  28.502  1.00  0.00     0.148 A 
ATOM     76  C   UNL A   1      35.980  33.280  28.191  1.00  0.00     0.002 A 
ATOM     77  C   UNL A   1      35.026  31.079  27.850  1.00  0.00     0.091 A 
ATOM     78  F   UNL A   1      36.174  29.170  28.705  1.00  0.00    -0.205 F 
ATOM     79  C   UNL A   1      34.953  32.474  27.709  1.00  0.00     0.022 A 
BRANCH  77  80
ATOM     80  S   UNL A   1      33.728  30.100  27.088  1.00  0.00     0.127 S 
ATOM     81  O   UNL A   1      32.846  31.133  26.555  1.00  0.00    -0.237 OA
ATOM     82  O   UNL A   1      34.469  29.340  26.080  1.00  0.00    -0.237 OA
ATOM     83  O   UNL A   1      33.180  29.284  28.164  1.00  0.00    -0.744 OA
ENDBRANCH  77  80
ENDBRANCH  49  73
BRANCH  61  84
ATOM     84  C   UNL A   1      40.019  32.324  35.259  1.00  0.00     0.023 A 
ATOM     85  C   UNL A   1      40.648  33.580  35.381  1.00  0.00     0.012 A 
ATOM     86  C   UNL A   1      39.012  31.965  36.177  1.00  0.00     0.148 A 
ATOM     87  C   UNL A   1      40.302  34.450  36.414  1.00  0.00     0.002 A 
ATOM     88  C   UNL A   1      38.642  32.856  37.180  1.00  0.00     0.091 A 
ATOM     89  F   UNL A   1      38.438  30.759  36.060  1.00  0.00    -0.205 F 
ATOM     90  C   UNL A   1      39.293  34.094  37.306  1.00  0.00     0.022 A 
BRANCH  88  91
ATOM     91  S   UNL A   1      37.292  32.514  38.315  1.00  0.00     0.127 S 
ATOM     92  O   UNL A   1      36.160  33.137  37.629  1.00  0.00    -0.237 OA
ATOM     93  O   UNL A   1      37.260  31.051  38.335  1.00  0.00    -0.237 OA
ATOM     94  O   UNL A   1      37.673  33.124  39.581  1.00  0.00    -0.744 OA
ENDBRANCH  88  91
ENDBRANCH  61  84
ENDBRANCH  35  36
ENDBRANCH  28  30
ENDBRANCH  27  28
ENDBRANCH  26  27
ENDBRANCH  25  26
ENDBRANCH  24  25
ENDBRANCH  23  24
ENDBRANCH   1  23
TORSDOF 24
ENDMDL
MODEL 2
REMARK VINA RESULT:      -9.7      2.427      8.961
REMARK SMILES O=C(COC1(Cc2ccccc2)CCCCC1)OCCOCCOCCOC(=O)c1ccc(-c2c3nc(c(-c4cccc(S(=O)(=O)[O-])c4F)c4ccc([nH]4)c(-c4cccc(S(=O)(=O)[O-])c4F)c4nc(c(-c5cccc(S(=O)(=O)[O-])c5F)c5ccc2[nH]5)C=C4)C=C3)cc1
REMARK SMILES IDX 22 1 21 2 20 3 19 4 18 5 2 6 1 7 3 8 4 9 5 10 13 11 17 12
REMARK SMILES IDX 14 13 16 14 15 15 6 16 7 17 8 18 12 19 9 20 11 21 10 22
REMARK SMILES IDX 23 23 24 24 25 25 26 26 27 27 28 28 29 29 30 30 31 31 92 32
REMARK SMILES IDX 32 33 91 34 33 35 34 36 35 37 85 38 36 39 90 40 84 41 86 42
REMARK SMILES IDX 37 43 89 44 83 45 82 46 38 48 70 49 50 50 69 51 51 52 54 53
REMARK SMILES IDX 68 54 87 55 52 56 53 57 67 59 88 60 55 61 39 62 40 63 48 64
REMARK SMILES IDX 41 65 43 66 49 67 42 68 44 69 45 70 46 71 47 72 71 73 72 74
REMARK SMILES IDX 80 75 73 76 75 77 81 78 74 79 76 80 77 81 78 82 79 83 56 84
REMARK SMILES IDX 57 85 65 86 58 87 60 88 66 89 59 90 61 91 62 92 63 93 64 94
REMARK H PARENT 86 47 54 58
REMARK Flexibility Score: inf
ROOT
ATOM      1  C   UNL A   1      31.480  28.552  24.893  1.00  0.00     0.188 C 
ENDROOT
BRANCH   1   2
ATOM      2  O   UNL A   1      31.964  27.315  24.387  1.00  0.00    -0.376 OA
BRANCH   2   3
ATOM      3  C   UNL A   1      33.300  26.922  24.697  1.00  0.00     0.202 C 
BRANCH   3   4
ATOM      4  C   UNL A   1      33.877  25.717  23.960  1.00  0.00     0.261 C 
BRANCH   4   5
ATOM      5  O   UNL A   1      32.919  25.153  23.054  1.00  0.00    -0.462 OA
BRANCH   5   6
ATOM      6  C   UNL A   1      32.959  23.872  22.621  1.00  0.00     0.332 C 
ATOM      7  O   UNL A   1      33.719  23.590  21.697  1.00  0.00    -0.250 OA
BRANCH   6   8
ATOM      8  C   UNL A   1      31.976  22.859  23.226  1.00  0.00     0.283 C 
BRANCH   8   9
ATOM      9  O   UNL A   1      32.518  21.627  23.598  1.00  0.00    -0.363 OA
BRANCH   9  10
ATOM     10  C   UNL A   1      32.902  21.339  24.949  1.00  0.00     0.073 C 
ATOM     11  C   UNL A   1      34.451  21.462  24.803  1.00  0.00     0.036 C 
ATOM     12  C   UNL A   1      32.426  22.504  25.840  1.00  0.00     0.036 C 
ATOM     13  C   UNL A   1      35.219  21.552  26.112  1.00  0.00     0.003 C 
ATOM     14  C   UNL A   1      33.154  22.566  27.183  1.00  0.00     0.003 C 
ATOM     15  C   UNL A   1      34.668  22.659  27.001  1.00  0.00     0.000 C 
BRANCH  10  16
ATOM     16  C   UNL A   1      32.588  19.932  25.568  1.00  0.00     0.071 C 
BRANCH  16  17
ATOM     17  C   UNL A   1      33.167  18.585  25.156  1.00  0.00    -0.045 A 
ATOM     18  C   UNL A   1      32.457  17.449  25.599  1.00  0.00     0.004 A 
ATOM     19  C   UNL A   1      34.319  18.358  24.397  1.00  0.00     0.004 A 
ATOM     20  C   UNL A   1      32.900  16.151  25.338  1.00  0.00     0.000 A 
ATOM     21  C   UNL A   1      34.792  17.057  24.171  1.00  0.00     0.000 A 
ATOM     22  C   UNL A   1      34.085  15.955  24.642  1.00  0.00     0.000 A 
ENDBRANCH  16  17
ENDBRANCH  10  16
ENDBRANCH   9  10
ENDBRANCH   8   9
ENDBRANCH   6   8
ENDBRANCH   5   6
ENDBRANCH   4   5
ENDBRANCH   3   4
ENDBRANCH   2   3
ENDBRANCH   1   2
BRANCH   1  23
ATOM     23  C   UNL A   1      32.422  29.723  25.205  1.00  0.00     0.188 C 
BRANCH  23  24
ATOM     24  O   UNL A   1      32.822  29.952  26.540  1.00  0.00    -0.376 OA
BRANCH  24  25
ATOM     25  C   UNL A   1      32.448  31.188  27.145  1.00  0.00     0.202 C 
BRANCH  25  26
ATOM     26  C   UNL A   1      33.544  32.106  27.688  1.00  0.00     0.261 C 
BRANCH  26  27
ATOM     27  O   UNL A   1      33.305  33.500  27.401  1.00  0.00    -0.460 OA
BRANCH  27  28
ATOM     28  C   UNL A   1      33.351  34.316  28.476  1.00  0.00     0.338 C 
ATOM     29  O   UNL A   1      32.529  35.186  28.769  1.00  0.00    -0.246 OA
BRANCH  28  30
ATOM     30  C   UNL A   1      34.469  33.994  29.374  1.00  0.00     0.060 A 
ATOM     31  C   UNL A   1      35.766  34.301  28.944  1.00  0.00     0.016 A 
ATOM     32  C   UNL A   1      34.268  33.212  30.514  1.00  0.00     0.016 A 
ATOM     33  C   UNL A   1      36.870  33.763  29.610  1.00  0.00     0.010 A 
ATOM     34  C   UNL A   1      35.377  32.670  31.176  1.00  0.00     0.010 A 
ATOM     35  C   UNL A   1      36.680  32.899  30.697  1.00  0.00    -0.014 A 
BRANCH  35  36
ATOM     36  C   UNL A   1      37.822  32.100  31.214  1.00  0.00     0.031 A 
ATOM     37  C   UNL A   1      38.318  32.350  32.616  1.00  0.00     0.074 A 
ATOM     38  C   UNL A   1      38.406  31.147  30.464  1.00  0.00     0.049 A 
ATOM     39  N   UNL A   1      39.322  31.801  33.251  1.00  0.00    -0.248 NA
ATOM     40  C   UNL A   1      37.582  33.350  33.407  1.00  0.00     0.031 C 
ATOM     41  C   UNL A   1      38.015  30.784  29.103  1.00  0.00     0.029 A 
ATOM     42  N   UNL A   1      39.472  30.325  30.740  1.00  0.00    -0.354 N 
ATOM     43  C   UNL A   1      39.355  32.404  34.504  1.00  0.00     0.074 A 
ATOM     44  C   UNL A   1      38.276  33.368  34.536  1.00  0.00     0.031 C 
ATOM     45  C   UNL A   1      38.847  29.830  28.652  1.00  0.00     0.029 A 
ATOM     46  C   UNL A   1      39.844  29.531  29.681  1.00  0.00     0.049 A 
ATOM     47  H   UNL A   1      39.926  30.307  31.613  1.00  0.00     0.167 HD
ATOM     48  C   UNL A   1      40.191  32.166  35.543  1.00  0.00     0.034 A 
ATOM     49  C   UNL A   1      40.881  28.680  29.549  1.00  0.00     0.034 A 
ATOM     50  C   UNL A   1      41.251  31.194  35.532  1.00  0.00     0.049 A 
ATOM     51  C   UNL A   1      41.821  28.460  30.709  1.00  0.00     0.074 A 
ATOM     52  C   UNL A   1      42.139  30.878  36.546  1.00  0.00     0.029 A 
ATOM     53  N   UNL A   1      41.569  30.382  34.456  1.00  0.00    -0.354 N 
ATOM     54  N   UNL A   1      41.777  28.967  31.917  1.00  0.00    -0.248 NA
ATOM     55  C   UNL A   1      42.936  27.523  30.494  1.00  0.00     0.031 C 
ATOM     56  C   UNL A   1      43.001  29.881  36.079  1.00  0.00     0.029 A 
ATOM     57  C   UNL A   1      42.640  29.566  34.780  1.00  0.00     0.049 A 
ATOM     58  H   UNL A   1      41.102  30.384  33.589  1.00  0.00     0.167 HD
ATOM     59  C   UNL A   1      42.834  28.387  32.613  1.00  0.00     0.074 A 
ATOM     60  C   UNL A   1      43.485  27.472  31.700  1.00  0.00     0.031 C 
ATOM     61  C   UNL A   1      43.241  28.608  33.888  1.00  0.00     0.034 A 
BRANCH  48  62
ATOM     62  C   UNL A   1      39.964  32.949  36.808  1.00  0.00     0.023 A 
ATOM     63  C   UNL A   1      40.670  34.152  37.011  1.00  0.00     0.012 A 
ATOM     64  C   UNL A   1      39.023  32.527  37.767  1.00  0.00     0.148 A 
ATOM     65  C   UNL A   1      40.460  34.912  38.161  1.00  0.00     0.002 A 
ATOM     66  C   UNL A   1      38.793  33.309  38.894  1.00  0.00     0.091 A 
ATOM     67  F   UNL A   1      38.381  31.368  37.567  1.00  0.00    -0.205 F 
ATOM     68  C   UNL A   1      39.516  34.496  39.096  1.00  0.00     0.022 A 
BRANCH  66  69
ATOM     69  S   UNL A   1      37.549  32.891  40.121  1.00  0.00     0.127 S 
ATOM     70  O   UNL A   1      36.346  32.783  39.297  1.00  0.00    -0.237 OA
ATOM     71  O   UNL A   1      38.045  31.617  40.644  1.00  0.00    -0.237 OA
ATOM     72  O   UNL A   1      37.555  33.983  41.084  1.00  0.00    -0.744 OA
ENDBRANCH  66  69
ENDBRANCH  48  62
BRANCH  49  73
ATOM     73  C   UNL A   1      41.080  27.938  28.272  1.00  0.00     0.023 A 
ATOM     74  C   UNL A   1      41.615  28.608  27.155  1.00  0.00     0.012 A 
ATOM     75  C   UNL A   1      40.738  26.576  28.155  1.00  0.00     0.148 A 
ATOM     76  C   UNL A   1      41.775  27.947  25.937  1.00  0.00     0.002 A 
ATOM     77  C   UNL A   1      40.953  25.908  26.954  1.00  0.00     0.091 A 
ATOM     78  F   UNL A   1      40.203  25.960  29.219  1.00  0.00    -0.205 F 
ATOM     79  C   UNL A   1      41.455  26.597  25.839  1.00  0.00     0.022 A 
BRANCH  77  80
ATOM     80  S   UNL A   1      40.687  24.140  26.787  1.00  0.00     0.127 S 
ATOM     81  O   UNL A   1      41.073  23.652  28.106  1.00  0.00    -0.237 OA
ATOM     82  O   UNL A   1      39.254  24.072  26.497  1.00  0.00    -0.237 OA
ATOM     83  O   UNL A   1      41.537  23.727  25.678  1.00  0.00    -0.744 OA
ENDBRANCH  77  80
ENDBRANCH  49  73
BRANCH  61  84
ATOM     84  C   UNL A   1      44.426  27.827  34.396  1.00  0.00     0.023 A 
ATOM     85  C   UNL A   1      45.726  28.346  34.229  1.00  0.00     0.012 A 
ATOM     86  C   UNL A   1      44.251  26.620  35.103  1.00  0.00     0.148 A 
ATOM     87  C   UNL A   1      46.834  27.663  34.731  1.00  0.00     0.002 A 
ATOM     88  C   UNL A   1      45.357  25.966  35.638  1.00  0.00     0.091 A 
ATOM     89  F   UNL A   1      43.010  26.130  35.236  1.00  0.00    -0.205 F 
ATOM     90  C   UNL A   1      46.649  26.481  35.444  1.00  0.00     0.022 A 
BRANCH  88  91
ATOM     91  S   UNL A   1      45.200  24.488  36.647  1.00  0.00     0.127 S 
ATOM     92  O   UNL A   1      44.548  23.562  35.721  1.00  0.00    -0.237 OA
ATOM     93  O   UNL A   1      46.594  24.164  36.951  1.00  0.00    -0.237 OA
ATOM     94  O   UNL A   1      44.408  24.880  37.805  1.00  0.00    -0.744 OA
ENDBRANCH  88  91
ENDBRANCH  61  84
ENDBRANCH  35  36
ENDBRANCH  28  30
ENDBRANCH  27  28
ENDBRANCH  26  27
ENDBRANCH  25  26
ENDBRANCH  24  25
ENDBRANCH  23  24
ENDBRANCH   1  23
TORSDOF 24
ENDMDL
MODEL 3
REMARK VINA RESULT:      -9.3      5.190     12.274
REMARK SMILES O=C(COC1(Cc2ccccc2)CCCCC1)OCCOCCOCCOC(=O)c1ccc(-c2c3nc(c(-c4cccc(S(=O)(=O)[O-])c4F)c4ccc([nH]4)c(-c4cccc(S(=O)(=O)[O-])c4F)c4nc(c(-c5cccc(S(=O)(=O)[O-])c5F)c5ccc2[nH]5)C=C4)C=C3)cc1
REMARK SMILES IDX 22 1 21 2 20 3 19 4 18 5 2 6 1 7 3 8 4 9 5 10 13 11 17 12
REMARK SMILES IDX 14 13 16 14 15 15 6 16 7 17 8 18 12 19 9 20 11 21 10 22
REMARK SMILES IDX 23 23 24 24 25 25 26 26 27 27 28 28 29 29 30 30 31 31 92 32
REMARK SMILES IDX 32 33 91 34 33 35 34 36 35 37 85 38 36 39 90 40 84 41 86 42
REMARK SMILES IDX 37 43 89 44 83 45 82 46 38 48 70 49 50 50 69 51 51 52 54 53
REMARK SMILES IDX 68 54 87 55 52 56 53 57 67 59 88 60 55 61 39 62 40 63 48 64
REMARK SMILES IDX 41 65 43 66 49 67 42 68 44 69 45 70 46 71 47 72 71 73 72 74
REMARK SMILES IDX 80 75 73 76 75 77 81 78 74 79 76 80 77 81 78 82 79 83 56 84
REMARK SMILES IDX 57 85 65 86 58 87 60 88 66 89 59 90 61 91 62 92 63 93 64 94
REMARK H PARENT 86 47 54 58
REMARK Flexibility Score: inf
ROOT
ATOM      1  C   UNL A   1      34.385  35.736  28.544  1.00  0.00     0.188 C 
ENDROOT
BRANCH   1   2
ATOM      2  O   UNL A   1      35.253  34.642  28.812  1.00  0.00    -0.376 OA
BRANCH   2   3
ATOM      3  C   UNL A   1      34.742  33.315  28.694  1.00  0.00     0.202 C 
BRANCH   3   4
ATOM      4  C   UNL A   1      35.622  32.271  28.013  1.00  0.00     0.261 C 
BRANCH   4   5
ATOM      5  O   UNL A   1      35.003  30.977  28.031  1.00  0.00    -0.462 OA
BRANCH   5   6
ATOM      6  C   UNL A   1      35.695  29.814  28.058  1.00  0.00     0.332 C 
ATOM      7  O   UNL A   1      35.396  28.937  27.250  1.00  0.00    -0.250 OA
BRANCH   6   8
ATOM      8  C   UNL A   1      36.740  29.604  29.163  1.00  0.00     0.283 C 
BRANCH   8   9
ATOM      9  O   UNL A   1      38.038  30.024  28.866  1.00  0.00    -0.363 OA
BRANCH   9  10
ATOM     10  C   UNL A   1      39.157  29.127  28.901  1.00  0.00     0.073 C 
ATOM     11  C   UNL A   1      38.483  27.910  29.610  1.00  0.00     0.036 C 
ATOM     12  C   UNL A   1      39.476  28.703  27.454  1.00  0.00     0.036 C 
ATOM     13  C   UNL A   1      39.264  26.607  29.537  1.00  0.00     0.003 C 
ATOM     14  C   UNL A   1      40.309  27.424  27.375  1.00  0.00     0.003 C 
ATOM     15  C   UNL A   1      39.632  26.263  28.100  1.00  0.00     0.000 C 
BRANCH  10  16
ATOM     16  C   UNL A   1      40.440  29.510  29.720  1.00  0.00     0.071 C 
BRANCH  16  17
ATOM     17  C   UNL A   1      41.893  29.252  29.345  1.00  0.00    -0.045 A 
ATOM     18  C   UNL A   1      42.475  28.094  29.902  1.00  0.00     0.004 A 
ATOM     19  C   UNL A   1      42.704  30.036  28.519  1.00  0.00     0.004 A 
ATOM     20  C   UNL A   1      43.813  27.760  29.685  1.00  0.00     0.000 A 
ATOM     21  C   UNL A   1      44.059  29.729  28.334  1.00  0.00     0.000 A 
ATOM     22  C   UNL A   1      44.614  28.594  28.918  1.00  0.00     0.000 A 
ENDBRANCH  16  17
ENDBRANCH  10  16
ENDBRANCH   9  10
ENDBRANCH   8   9
ENDBRANCH   6   8
ENDBRANCH   5   6
ENDBRANCH   4   5
ENDBRANCH   3   4
ENDBRANCH   2   3
ENDBRANCH   1   2
BRANCH   1  23
ATOM     23  C   UNL A   1      32.902  35.707  28.940  1.00  0.00     0.188 C 
BRANCH  23  24
ATOM     24  O   UNL A   1      32.549  35.468  30.287  1.00  0.00    -0.376 OA
BRANCH  24  25
ATOM     25  C   UNL A   1      32.919  36.447  31.256  1.00  0.00     0.202 C 
BRANCH  25  26
ATOM     26  C   UNL A   1      33.734  36.010  32.473  1.00  0.00     0.261 C 
BRANCH  26  27
ATOM     27  O   UNL A   1      34.756  35.043  32.152  1.00  0.00    -0.460 OA
BRANCH  27  28
ATOM     28  C   UNL A   1      34.652  33.869  32.811  1.00  0.00     0.338 C 
ATOM     29  O   UNL A   1      33.612  33.345  33.213  1.00  0.00    -0.246 OA
BRANCH  28  30
ATOM     30  C   UNL A   1      35.944  33.178  32.927  1.00  0.00     0.060 A 
ATOM     31  C   UNL A   1      36.918  33.741  33.762  1.00  0.00     0.016 A 
ATOM     32  C   UNL A   1      36.270  32.124  32.070  1.00  0.00     0.016 A 
ATOM     33  C   UNL A   1      38.242  33.302  33.687  1.00  0.00     0.010 A 
ATOM     34  C   UNL A   1      37.600  31.690  31.995  1.00  0.00     0.010 A 
ATOM     35  C   UNL A   1      38.601  32.312  32.764  1.00  0.00    -0.014 A 
BRANCH  35  36
ATOM     36  C   UNL A   1      40.037  32.057  32.475  1.00  0.00     0.031 A 
ATOM     37  C   UNL A   1      40.762  32.955  31.504  1.00  0.00     0.074 A 
ATOM     38  C   UNL A   1      40.704  31.055  33.077  1.00  0.00     0.049 A 
ATOM     39  N   UNL A   1      41.996  32.888  31.075  1.00  0.00    -0.248 NA
ATOM     40  C   UNL A   1      39.992  34.078  30.944  1.00  0.00     0.031 C 
ATOM     41  C   UNL A   1      40.137  30.126  34.052  1.00  0.00     0.029 A 
ATOM     42  N   UNL A   1      42.007  30.642  32.935  1.00  0.00    -0.354 N 
ATOM     43  C   UNL A   1      42.146  33.941  30.179  1.00  0.00     0.074 A 
ATOM     44  C   UNL A   1      40.872  34.625  30.118  1.00  0.00     0.031 C 
ATOM     45  C   UNL A   1      41.079  29.234  34.401  1.00  0.00     0.029 A 
ATOM     46  C   UNL A   1      42.308  29.512  33.659  1.00  0.00     0.049 A 
ATOM     47  H   UNL A   1      42.662  31.109  32.369  1.00  0.00     0.167 HD
ATOM     48  C   UNL A   1      43.245  34.321  29.485  1.00  0.00     0.034 A 
ATOM     49  C   UNL A   1      43.437  28.775  33.699  1.00  0.00     0.034 A 
ATOM     50  C   UNL A   1      44.522  33.664  29.556  1.00  0.00     0.049 A 
ATOM     51  C   UNL A   1      44.636  29.198  32.887  1.00  0.00     0.074 A 
ATOM     52  C   UNL A   1      45.695  33.989  28.895  1.00  0.00     0.029 A 
ATOM     53  N   UNL A   1      44.798  32.549  30.330  1.00  0.00    -0.354 N 
ATOM     54  N   UNL A   1      44.787  30.250  32.121  1.00  0.00    -0.248 NA
ATOM     55  C   UNL A   1      45.832  28.343  32.971  1.00  0.00     0.031 C 
ATOM     56  C   UNL A   1      46.677  33.064  29.263  1.00  0.00     0.029 A 
ATOM     57  C   UNL A   1      46.120  32.173  30.164  1.00  0.00     0.049 A 
ATOM     58  H   UNL A   1      44.149  32.093  30.914  1.00  0.00     0.167 HD
ATOM     59  C   UNL A   1      46.101  30.204  31.662  1.00  0.00     0.074 A 
ATOM     60  C   UNL A   1      46.710  29.032  32.255  1.00  0.00     0.031 C 
ATOM     61  C   UNL A   1      46.739  31.044  30.810  1.00  0.00     0.034 A 
BRANCH  48  62
ATOM     62  C   UNL A   1      43.126  35.540  28.610  1.00  0.00     0.023 A 
ATOM     63  C   UNL A   1      42.664  35.395  27.285  1.00  0.00     0.012 A 
ATOM     64  C   UNL A   1      43.417  36.825  29.107  1.00  0.00     0.148 A 
ATOM     65  C   UNL A   1      42.518  36.510  26.461  1.00  0.00     0.002 A 
ATOM     66  C   UNL A   1      43.234  37.935  28.290  1.00  0.00     0.091 A 
ATOM     67  F   UNL A   1      43.877  36.937  30.360  1.00  0.00    -0.205 F 
ATOM     68  C   UNL A   1      42.793  37.779  26.965  1.00  0.00     0.022 A 
BRANCH  66  69
ATOM     69  S   UNL A   1      43.497  39.615  28.870  1.00  0.00     0.127 S 
ATOM     70  O   UNL A   1      42.567  39.686  29.996  1.00  0.00    -0.237 OA
ATOM     71  O   UNL A   1      44.910  39.595  29.248  1.00  0.00    -0.237 OA
ATOM     72  O   UNL A   1      43.185  40.480  27.742  1.00  0.00    -0.744 OA
ENDBRANCH  66  69
ENDBRANCH  48  62
BRANCH  49  73
ATOM     73  C   UNL A   1      43.506  27.564  34.566  1.00  0.00     0.023 A 
ATOM     74  C   UNL A   1      42.970  26.347  34.103  1.00  0.00     0.012 A 
ATOM     75  C   UNL A   1      44.095  27.611  35.845  1.00  0.00     0.148 A 
ATOM     76  C   UNL A   1      42.988  25.209  34.909  1.00  0.00     0.002 A 
ATOM     77  C   UNL A   1      44.160  26.460  36.621  1.00  0.00     0.091 A 
ATOM     78  F   UNL A   1      44.576  28.784  36.281  1.00  0.00    -0.205 F 
ATOM     79  C   UNL A   1      43.592  25.261  36.162  1.00  0.00     0.022 A 
BRANCH  77  80
ATOM     80  S   UNL A   1      45.035  26.416  38.189  1.00  0.00     0.127 S 
ATOM     81  O   UNL A   1      44.557  27.634  38.833  1.00  0.00    -0.237 OA
ATOM     82  O   UNL A   1      44.541  25.170  38.779  1.00  0.00    -0.237 OA
ATOM     83  O   UNL A   1      46.449  26.389  37.840  1.00  0.00    -0.744 OA
ENDBRANCH  77  80
ENDBRANCH  49  73
BRANCH  61  84
ATOM     84  C   UNL A   1      48.183  30.758  30.486  1.00  0.00     0.023 A 
ATOM     85  C   UNL A   1      49.201  31.305  31.293  1.00  0.00     0.012 A 
ATOM     86  C   UNL A   1      48.531  29.889  29.432  1.00  0.00     0.148 A 
ATOM     87  C   UNL A   1      50.541  31.017  31.039  1.00  0.00     0.002 A 
ATOM     88  C   UNL A   1      49.868  29.572  29.211  1.00  0.00     0.091 A 
ATOM     89  F   UNL A   1      47.553  29.393  28.660  1.00  0.00    -0.205 F 
ATOM     90  C   UNL A   1      50.874  30.143  30.007  1.00  0.00     0.022 A 
BRANCH  88  91
ATOM     91  S   UNL A   1      50.378  28.386  27.961  1.00  0.00     0.127 S 
ATOM     92  O   UNL A   1      49.901  29.022  26.734  1.00  0.00    -0.237 OA
ATOM     93  O   UNL A   1      51.833  28.373  28.114  1.00  0.00    -0.237 OA
ATOM     94  O   UNL A   1      49.726  27.133  28.315  1.00  0.00    -0.744 OA
ENDBRANCH  88  91
ENDBRANCH  61  84
ENDBRANCH  35  36
ENDBRANCH  28  30
ENDBRANCH  27  28
ENDBRANCH  26  27
ENDBRANCH  25  26
ENDBRANCH  24  25
ENDBRANCH  23  24
ENDBRANCH   1  23
TORSDOF 24
ENDMDL
