MODEL 1
REMARK VINA RESULT:     -10.4      0.000      0.000
REMARK SMILES Cc1cc2c(cc1S(=O)(=O)N(C)CC(=O)OCCOCCOCCOC(=O)c1ccc(-c3c4nc(c(-c5cccc(S(=O)(=O)[O-])c5F)c5ccc([nH]5)c(-c5cccc(S(=O)(=O)[O-])c5F)c5nc(c(-c6cccc(S(=O)(=O)[O-])c6F)c6ccc3[nH]6)C=C5)C=C4)cc1)OCC(=O)N2
REMARK SMILES IDX 20 1 19 2 18 3 17 4 16 5 14 6 15 7 13 8 11 9 12 10 8 11 9 12
REMARK SMILES IDX 10 13 7 14 1 15 2 16 3 17 4 18 6 19 5 20 95 21 91 22 93 23
REMARK SMILES IDX 92 25 94 26 21 27 22 28 23 29 24 30 25 31 26 32 27 33 28 34
REMARK SMILES IDX 29 35 90 36 30 37 89 38 31 39 32 40 33 41 83 42 34 43 88 44
REMARK SMILES IDX 82 45 84 46 35 47 87 48 81 49 80 50 36 52 68 53 48 54 67 55
REMARK SMILES IDX 49 56 52 57 66 58 85 59 50 60 51 61 65 63 86 64 53 65 37 66
REMARK SMILES IDX 38 67 46 68 39 69 41 70 47 71 40 72 42 73 43 74 44 75 45 76
REMARK SMILES IDX 69 77 70 78 78 79 71 80 73 81 79 82 72 83 74 84 75 85 76 86
REMARK SMILES IDX 77 87 54 88 55 89 63 90 56 91 58 92 64 93 57 94 59 95 60 96
REMARK SMILES IDX 61 97 62 98
REMARK H PARENT 95 24 84 51 52 62
REMARK Flexibility Score: inf
ROOT
ATOM      1  C   UNL A   1      32.862  20.516  24.432  1.00  0.00     0.188 C 
ENDROOT
BRANCH   1   2
ATOM      2  O   UNL A   1      32.930  21.374  23.294  1.00  0.00    -0.376 OA
BRANCH   2   3
ATOM      3  C   UNL A   1      31.780  22.125  22.927  1.00  0.00     0.202 C 
BRANCH   3   4
ATOM      4  C   UNL A   1      31.927  23.644  23.016  1.00  0.00     0.261 C 
BRANCH   4   5
ATOM      5  O   UNL A   1      32.896  24.141  22.073  1.00  0.00    -0.462 OA
BRANCH   5   6
ATOM      6  C   UNL A   1      32.669  25.378  21.560  1.00  0.00     0.321 C 
ATOM      7  O   UNL A   1      33.278  25.838  20.601  1.00  0.00    -0.251 OA
BRANCH   6   8
ATOM      8  C   UNL A   1      31.595  26.163  22.284  1.00  0.00     0.224 C 
BRANCH   8   9
ATOM      9  N   UNL A   1      31.650  27.674  22.382  1.00  0.00    -0.190 NA
ATOM     10  C   UNL A   1      30.305  28.261  22.495  1.00  0.00     0.125 C 
BRANCH   9  11
ATOM     11  S   UNL A   1      32.838  28.150  23.529  1.00  0.00     0.243 S 
ATOM     12  O   UNL A   1      32.294  29.310  24.186  1.00  0.00    -0.207 OA
ATOM     13  O   UNL A   1      34.103  28.257  22.821  1.00  0.00    -0.207 OA
BRANCH  11  14
ATOM     14  C   UNL A   1      32.989  26.836  24.750  1.00  0.00     0.089 A 
ATOM     15  C   UNL A   1      30.618  27.184  25.763  1.00  0.00     0.046 C 
ATOM     16  C   UNL A   1      31.918  26.449  25.587  1.00  0.00    -0.029 A 
ATOM     17  C   UNL A   1      32.062  25.285  26.374  1.00  0.00     0.035 A 
ATOM     18  C   UNL A   1      33.215  24.508  26.312  1.00  0.00     0.084 A 
ATOM     19  C   UNL A   1      34.159  26.050  24.714  1.00  0.00     0.070 A 
ATOM     20  C   UNL A   1      34.273  24.894  25.496  1.00  0.00     0.144 A 
ATOM     21  N   UNL A   1      33.269  23.314  27.029  1.00  0.00    -0.320 N 
ATOM     22  O   UNL A   1      35.412  24.153  25.350  1.00  0.00    -0.482 OA
ATOM     23  C   UNL A   1      34.384  22.524  27.023  1.00  0.00     0.262 C 
ATOM     24  H   UNL A   1      32.484  23.034  27.554  1.00  0.00     0.170 HD
ATOM     25  C   UNL A   1      35.596  23.124  26.313  1.00  0.00     0.329 C 
ATOM     26  O   UNL A   1      34.404  21.453  27.626  1.00  0.00    -0.271 OA
ENDBRANCH  11  14
ENDBRANCH   9  11
ENDBRANCH   8   9
ENDBRANCH   6   8
ENDBRANCH   5   6
ENDBRANCH   4   5
ENDBRANCH   3   4
ENDBRANCH   2   3
ENDBRANCH   1   2
BRANCH   1  27
ATOM     27  C   UNL A   1      33.974  19.477  24.627  1.00  0.00     0.188 C 
BRANCH  27  28
ATOM     28  O   UNL A   1      35.267  20.066  24.659  1.00  0.00    -0.376 OA
BRANCH  28  29
ATOM     29  C   UNL A   1      36.306  19.161  24.984  1.00  0.00     0.202 C 
BRANCH  29  30
ATOM     30  C   UNL A   1      37.672  19.830  24.818  1.00  0.00     0.261 C 
BRANCH  30  31
ATOM     31  O   UNL A   1      38.327  20.173  26.055  1.00  0.00    -0.460 OA
BRANCH  31  32
ATOM     32  C   UNL A   1      39.680  20.156  26.047  1.00  0.00     0.338 C 
ATOM     33  O   UNL A   1      40.388  19.183  25.861  1.00  0.00    -0.246 OA
BRANCH  32  34
ATOM     34  C   UNL A   1      40.158  21.552  26.149  1.00  0.00     0.060 A 
ATOM     35  C   UNL A   1      39.254  22.603  26.280  1.00  0.00     0.016 A 
ATOM     36  C   UNL A   1      41.531  21.811  26.128  1.00  0.00     0.016 A 
ATOM     37  C   UNL A   1      39.736  23.912  26.399  1.00  0.00     0.010 A 
ATOM     38  C   UNL A   1      42.013  23.118  26.259  1.00  0.00     0.010 A 
ATOM     39  C   UNL A   1      41.120  24.184  26.404  1.00  0.00    -0.014 A 
BRANCH  39  40
ATOM     40  C   UNL A   1      41.597  25.564  26.701  1.00  0.00     0.031 A 
ATOM     41  C   UNL A   1      40.779  26.553  27.483  1.00  0.00     0.074 A 
ATOM     42  C   UNL A   1      42.810  25.928  26.239  1.00  0.00     0.049 A 
ATOM     43  N   UNL A   1      41.160  27.695  28.001  1.00  0.00    -0.248 NA
ATOM     44  C   UNL A   1      39.357  26.246  27.700  1.00  0.00     0.031 C 
ATOM     45  C   UNL A   1      43.642  25.118  25.347  1.00  0.00     0.029 A 
ATOM     46  N   UNL A   1      43.562  27.055  26.462  1.00  0.00    -0.354 N 
ATOM     47  C   UNL A   1      40.031  28.243  28.599  1.00  0.00     0.074 A 
ATOM     48  C   UNL A   1      38.940  27.326  28.352  1.00  0.00     0.031 C 
ATOM     49  C   UNL A   1      44.811  25.745  25.145  1.00  0.00     0.029 A 
ATOM     50  C   UNL A   1      44.812  27.001  25.891  1.00  0.00     0.049 A 
ATOM     51  H   UNL A   1      43.237  27.826  26.980  1.00  0.00     0.167 HD
ATOM     52  C   UNL A   1      39.926  29.389  29.315  1.00  0.00     0.034 A 
ATOM     53  C   UNL A   1      45.861  27.841  25.987  1.00  0.00     0.034 A 
ATOM     54  C   UNL A   1      41.027  30.278  29.582  1.00  0.00     0.049 A 
ATOM     55  C   UNL A   1      45.755  29.053  26.866  1.00  0.00     0.074 A 
ATOM     56  C   UNL A   1      41.047  31.396  30.398  1.00  0.00     0.029 A 
ATOM     57  N   UNL A   1      42.293  30.159  29.033  1.00  0.00    -0.354 N 
ATOM     58  N   UNL A   1      44.742  29.446  27.598  1.00  0.00    -0.248 NA
ATOM     59  C   UNL A   1      46.940  29.918  26.962  1.00  0.00     0.031 C 
ATOM     60  C   UNL A   1      42.324  31.962  30.329  1.00  0.00     0.029 A 
ATOM     61  C   UNL A   1      43.100  31.188  29.482  1.00  0.00     0.049 A 
ATOM     62  H   UNL A   1      42.576  29.447  28.415  1.00  0.00     0.167 HD
ATOM     63  C   UNL A   1      45.167  30.595  28.252  1.00  0.00     0.074 A 
ATOM     64  C   UNL A   1      46.539  30.826  27.845  1.00  0.00     0.031 C 
ATOM     65  C   UNL A   1      44.474  31.390  29.101  1.00  0.00     0.034 A 
BRANCH  52  66
ATOM     66  C   UNL A   1      38.604  29.719  29.955  1.00  0.00     0.023 A 
ATOM     67  C   UNL A   1      38.331  29.215  31.243  1.00  0.00     0.012 A 
ATOM     68  C   UNL A   1      37.705  30.629  29.364  1.00  0.00     0.148 A 
ATOM     69  C   UNL A   1      37.180  29.602  31.929  1.00  0.00     0.002 A 
ATOM     70  C   UNL A   1      36.573  31.032  30.065  1.00  0.00     0.091 A 
ATOM     71  F   UNL A   1      37.984  31.098  28.139  1.00  0.00    -0.205 F 
ATOM     72  C   UNL A   1      36.308  30.517  31.345  1.00  0.00     0.022 A 
BRANCH  70  73
ATOM     73  S   UNL A   1      35.411  32.250  29.437  1.00  0.00     0.127 S 
ATOM     74  O   UNL A   1      34.486  32.384  30.563  1.00  0.00    -0.237 OA
ATOM     75  O   UNL A   1      36.273  33.412  29.216  1.00  0.00    -0.237 OA
ATOM     76  O   UNL A   1      34.833  31.676  28.229  1.00  0.00    -0.744 OA
ENDBRANCH  70  73
ENDBRANCH  52  66
BRANCH  53  77
ATOM     77  C   UNL A   1      47.138  27.474  25.316  1.00  0.00     0.023 A 
ATOM     78  C   UNL A   1      48.066  26.668  26.001  1.00  0.00     0.012 A 
ATOM     79  C   UNL A   1      47.381  27.824  23.974  1.00  0.00     0.148 A 
ATOM     80  C   UNL A   1      49.219  26.215  25.360  1.00  0.00     0.002 A 
ATOM     81  C   UNL A   1      48.512  27.337  23.330  1.00  0.00     0.091 A 
ATOM     82  F   UNL A   1      46.478  28.590  23.347  1.00  0.00    -0.205 F 
ATOM     83  C   UNL A   1      49.437  26.539  24.023  1.00  0.00     0.022 A 
BRANCH  81  84
ATOM     84  S   UNL A   1      48.826  27.608  21.583  1.00  0.00     0.127 S 
ATOM     85  O   UNL A   1      49.446  28.932  21.593  1.00  0.00    -0.237 OA
ATOM     86  O   UNL A   1      49.734  26.506  21.268  1.00  0.00    -0.237 OA
ATOM     87  O   UNL A   1      47.528  27.532  20.928  1.00  0.00    -0.744 OA
ENDBRANCH  81  84
ENDBRANCH  53  77
BRANCH  65  88
ATOM     88  C   UNL A   1      45.161  32.606  29.659  1.00  0.00     0.023 A 
ATOM     89  C   UNL A   1      45.911  32.486  30.844  1.00  0.00     0.012 A 
ATOM     90  C   UNL A   1      45.188  33.813  28.934  1.00  0.00     0.148 A 
ATOM     91  C   UNL A   1      46.682  33.554  31.301  1.00  0.00     0.002 A 
ATOM     92  C   UNL A   1      45.984  34.862  29.378  1.00  0.00     0.091 A 
ATOM     93  F   UNL A   1      44.460  33.899  27.811  1.00  0.00    -0.205 F 
ATOM     94  C   UNL A   1      46.729  34.735  30.562  1.00  0.00     0.022 A 
BRANCH  92  95
ATOM     95  S   UNL A   1      46.173  36.395  28.460  1.00  0.00     0.127 S 
ATOM     96  O   UNL A   1      44.782  36.806  28.280  1.00  0.00    -0.237 OA
ATOM     97  O   UNL A   1      46.939  37.220  29.392  1.00  0.00    -0.237 OA
ATOM     98  O   UNL A   1      46.875  36.048  27.231  1.00  0.00    -0.744 OA
ENDBRANCH  92  95
ENDBRANCH  65  88
ENDBRANCH  39  40
ENDBRANCH  32  34
ENDBRANCH  31  32
ENDBRANCH  30  31
ENDBRANCH  29  30
ENDBRANCH  28  29
ENDBRANCH  27  28
ENDBRANCH   1  27
TORSDOF 23
ENDMDL
MODEL 2
REMARK VINA RESULT:     -10.1      6.589     11.899
REMARK SMILES Cc1cc2c(cc1S(=O)(=O)N(C)CC(=O)OCCOCCOCCOC(=O)c1ccc(-c3c4nc(c(-c5cccc(S(=O)(=O)[O-])c5F)c5ccc([nH]5)c(-c5cccc(S(=O)(=O)[O-])c5F)c5nc(c(-c6cccc(S(=O)(=O)[O-])c6F)c6ccc3[nH]6)C=C5)C=C4)cc1)OCC(=O)N2
REMARK SMILES IDX 20 1 19 2 18 3 17 4 16 5 14 6 15 7 13 8 11 9 12 10 8 11 9 12
REMARK SMILES IDX 10 13 7 14 1 15 2 16 3 17 4 18 6 19 5 20 95 21 91 22 93 23
REMARK SMILES IDX 92 25 94 26 21 27 22 28 23 29 24 30 25 31 26 32 27 33 28 34
REMARK SMILES IDX 29 35 90 36 30 37 89 38 31 39 32 40 33 41 83 42 34 43 88 44
REMARK SMILES IDX 82 45 84 46 35 47 87 48 81 49 80 50 36 52 68 53 48 54 67 55
REMARK SMILES IDX 49 56 52 57 66 58 85 59 50 60 51 61 65 63 86 64 53 65 37 66
REMARK SMILES IDX 38 67 46 68 39 69 41 70 47 71 40 72 42 73 43 74 44 75 45 76
REMARK SMILES IDX 69 77 70 78 78 79 71 80 73 81 79 82 72 83 74 84 75 85 76 86
REMARK SMILES IDX 77 87 54 88 55 89 63 90 56 91 58 92 64 93 57 94 59 95 60 96
REMARK SMILES IDX 61 97 62 98
REMARK H PARENT 95 24 84 51 52 62
REMARK Flexibility Score: inf
ROOT
ATOM      1  C   UNL A   1      34.862  31.520  27.988  1.00  0.00     0.188 C 
ENDROOT
BRANCH   1   2
ATOM      2  O   UNL A   1      33.558  30.958  27.849  1.00  0.00    -0.376 OA
BRANCH   2   3
ATOM      3  C   UNL A   1      33.375  29.849  26.978  1.00  0.00     0.202 C 
BRANCH   3   4
ATOM      4  C   UNL A   1      32.027  29.136  27.093  1.00  0.00     0.261 C 
BRANCH   4   5
ATOM      5  O   UNL A   1      32.183  27.704  27.117  1.00  0.00    -0.462 OA
BRANCH   5   6
ATOM      6  C   UNL A   1      31.937  27.044  25.956  1.00  0.00     0.321 C 
ATOM      7  O   UNL A   1      32.046  27.554  24.847  1.00  0.00    -0.251 OA
BRANCH   6   8
ATOM      8  C   UNL A   1      31.498  25.605  26.140  1.00  0.00     0.224 C 
BRANCH   8   9
ATOM      9  N   UNL A   1      32.453  24.451  25.916  1.00  0.00    -0.190 NA
ATOM     10  C   UNL A   1      32.554  23.589  27.104  1.00  0.00     0.125 C 
BRANCH   9  11
ATOM     11  S   UNL A   1      32.135  23.706  24.400  1.00  0.00     0.243 S 
ATOM     12  O   UNL A   1      32.730  24.572  23.415  1.00  0.00    -0.207 OA
ATOM     13  O   UNL A   1      30.708  23.434  24.344  1.00  0.00    -0.207 OA
BRANCH  11  14
ATOM     14  C   UNL A   1      33.007  22.133  24.361  1.00  0.00     0.089 A 
ATOM     15  C   UNL A   1      35.386  23.181  24.433  1.00  0.00     0.046 C 
ATOM     16  C   UNL A   1      34.412  22.037  24.486  1.00  0.00    -0.029 A 
ATOM     17  C   UNL A   1      34.991  20.760  24.642  1.00  0.00     0.035 A 
ATOM     18  C   UNL A   1      34.207  19.611  24.707  1.00  0.00     0.084 A 
ATOM     19  C   UNL A   1      32.227  20.958  24.407  1.00  0.00     0.070 A 
ATOM     20  C   UNL A   1      32.825  19.703  24.573  1.00  0.00     0.144 A 
ATOM     21  N   UNL A   1      34.817  18.386  24.964  1.00  0.00    -0.320 N 
ATOM     22  O   UNL A   1      31.992  18.625  24.676  1.00  0.00    -0.482 OA
ATOM     23  C   UNL A   1      34.098  17.224  25.016  1.00  0.00     0.262 C 
ATOM     24  H   UNL A   1      35.790  18.355  25.113  1.00  0.00     0.170 HD
ATOM     25  C   UNL A   1      32.629  17.356  24.614  1.00  0.00     0.329 C 
ATOM     26  O   UNL A   1      34.641  16.155  25.285  1.00  0.00    -0.271 OA
ENDBRANCH  11  14
ENDBRANCH   9  11
ENDBRANCH   8   9
ENDBRANCH   6   8
ENDBRANCH   5   6
ENDBRANCH   4   5
ENDBRANCH   3   4
ENDBRANCH   2   3
ENDBRANCH   1   2
BRANCH   1  27
ATOM     27  C   UNL A   1      34.982  32.960  28.503  1.00  0.00     0.188 C 
BRANCH  27  28
ATOM     28  O   UNL A   1      34.375  33.902  27.627  1.00  0.00    -0.376 OA
BRANCH  28  29
ATOM     29  C   UNL A   1      33.296  34.613  28.203  1.00  0.00     0.202 C 
BRANCH  29  30
ATOM     30  C   UNL A   1      33.399  34.601  29.730  1.00  0.00     0.261 C 
BRANCH  30  31
ATOM     31  O   UNL A   1      33.053  35.846  30.366  1.00  0.00    -0.460 OA
BRANCH  31  32
ATOM     32  C   UNL A   1      32.803  35.798  31.695  1.00  0.00     0.338 C 
ATOM     33  O   UNL A   1      31.786  36.171  32.251  1.00  0.00    -0.246 OA
BRANCH  32  34
ATOM     34  C   UNL A   1      33.914  35.069  32.346  1.00  0.00     0.060 A 
ATOM     35  C   UNL A   1      33.667  33.915  33.084  1.00  0.00     0.016 A 
ATOM     36  C   UNL A   1      35.222  35.539  32.201  1.00  0.00     0.016 A 
ATOM     37  C   UNL A   1      34.741  33.232  33.668  1.00  0.00     0.010 A 
ATOM     38  C   UNL A   1      36.296  34.851  32.775  1.00  0.00     0.010 A 
ATOM     39  C   UNL A   1      36.069  33.683  33.509  1.00  0.00    -0.014 A 
BRANCH  39  40
ATOM     40  C   UNL A   1      37.195  32.841  34.000  1.00  0.00     0.031 A 
ATOM     41  C   UNL A   1      37.776  31.714  33.193  1.00  0.00     0.074 A 
ATOM     42  C   UNL A   1      37.700  33.108  35.222  1.00  0.00     0.049 A 
ATOM     43  N   UNL A   1      38.890  31.055  33.399  1.00  0.00    -0.248 NA
ATOM     44  C   UNL A   1      37.016  31.248  32.023  1.00  0.00     0.031 C 
ATOM     45  C   UNL A   1      37.137  34.075  36.166  1.00  0.00     0.029 A 
ATOM     46  N   UNL A   1      38.801  32.610  35.874  1.00  0.00    -0.354 N 
ATOM     47  C   UNL A   1      38.964  30.099  32.394  1.00  0.00     0.074 A 
ATOM     48  C   UNL A   1      37.766  30.238  31.594  1.00  0.00     0.031 C 
ATOM     49  C   UNL A   1      37.925  34.144  37.249  1.00  0.00     0.029 A 
ATOM     50  C   UNL A   1      39.048  33.226  37.079  1.00  0.00     0.049 A 
ATOM     51  H   UNL A   1      39.358  31.883  35.514  1.00  0.00     0.167 HD
ATOM     52  C   UNL A   1      39.957  29.211  32.143  1.00  0.00     0.034 A 
ATOM     53  C   UNL A   1      40.082  33.103  37.934  1.00  0.00     0.034 A 
ATOM     54  C   UNL A   1      41.160  29.103  32.927  1.00  0.00     0.049 A 
ATOM     55  C   UNL A   1      41.219  32.186  37.588  1.00  0.00     0.074 A 
ATOM     56  C   UNL A   1      42.276  28.322  32.681  1.00  0.00     0.029 A 
ATOM     57  N   UNL A   1      41.400  29.785  34.108  1.00  0.00    -0.354 N 
ATOM     58  N   UNL A   1      41.373  31.442  36.520  1.00  0.00    -0.248 NA
ATOM     59  C   UNL A   1      42.338  32.116  38.539  1.00  0.00     0.031 C 
ATOM     60  C   UNL A   1      43.185  28.520  33.725  1.00  0.00     0.029 A 
ATOM     61  C   UNL A   1      42.640  29.435  34.611  1.00  0.00     0.049 A 
ATOM     62  H   UNL A   1      40.780  30.424  34.528  1.00  0.00     0.167 HD
ATOM     63  C   UNL A   1      42.609  30.824  36.662  1.00  0.00     0.074 A 
ATOM     64  C   UNL A   1      43.173  31.294  37.912  1.00  0.00     0.031 C 
ATOM     65  C   UNL A   1      43.210  29.935  35.835  1.00  0.00     0.034 A 
BRANCH  52  66
ATOM     66  C   UNL A   1      39.852  28.338  30.920  1.00  0.00     0.023 A 
ATOM     67  C   UNL A   1      39.035  27.190  30.977  1.00  0.00     0.012 A 
ATOM     68  C   UNL A   1      40.428  28.717  29.692  1.00  0.00     0.148 A 
ATOM     69  C   UNL A   1      38.802  26.427  29.834  1.00  0.00     0.002 A 
ATOM     70  C   UNL A   1      40.168  27.966  28.550  1.00  0.00     0.091 A 
ATOM     71  F   UNL A   1      41.199  29.813  29.659  1.00  0.00    -0.205 F 
ATOM     72  C   UNL A   1      39.359  26.820  28.621  1.00  0.00     0.022 A 
BRANCH  70  73
ATOM     73  S   UNL A   1      40.783  28.412  26.921  1.00  0.00     0.127 S 
ATOM     74  O   UNL A   1      40.769  27.119  26.236  1.00  0.00    -0.237 OA
ATOM     75  O   UNL A   1      39.768  29.358  26.457  1.00  0.00    -0.237 OA
ATOM     76  O   UNL A   1      42.106  28.985  27.129  1.00  0.00    -0.744 OA
ENDBRANCH  70  73
ENDBRANCH  52  66
BRANCH  53  77
ATOM     77  C   UNL A   1      40.123  33.976  39.139  1.00  0.00     0.023 A 
ATOM     78  C   UNL A   1      40.953  35.113  39.134  1.00  0.00     0.012 A 
ATOM     79  C   UNL A   1      39.267  33.747  40.232  1.00  0.00     0.148 A 
ATOM     80  C   UNL A   1      40.931  36.011  40.201  1.00  0.00     0.002 A 
ATOM     81  C   UNL A   1      39.221  34.666  41.274  1.00  0.00     0.091 A 
ATOM     82  F   UNL A   1      38.487  32.658  40.208  1.00  0.00    -0.205 F 
ATOM     83  C   UNL A   1      40.058  35.794  41.265  1.00  0.00     0.022 A 
BRANCH  81  84
ATOM     84  S   UNL A   1      38.055  34.533  42.634  1.00  0.00     0.127 S 
ATOM     85  O   UNL A   1      36.774  34.548  41.930  1.00  0.00    -0.237 OA
ATOM     86  O   UNL A   1      38.422  33.243  43.216  1.00  0.00    -0.237 OA
ATOM     87  O   UNL A   1      38.311  35.682  43.491  1.00  0.00    -0.744 OA
ENDBRANCH  81  84
ENDBRANCH  53  77
BRANCH  65  88
ATOM     88  C   UNL A   1      44.550  29.385  36.235  1.00  0.00     0.023 A 
ATOM     89  C   UNL A   1      45.711  30.126  35.942  1.00  0.00     0.012 A 
ATOM     90  C   UNL A   1      44.644  28.224  37.026  1.00  0.00     0.148 A 
ATOM     91  C   UNL A   1      46.950  29.718  36.433  1.00  0.00     0.002 A 
ATOM     92  C   UNL A   1      45.878  27.841  37.539  1.00  0.00     0.091 A 
ATOM     93  F   UNL A   1      43.523  27.536  37.285  1.00  0.00    -0.205 F 
ATOM     94  C   UNL A   1      47.031  28.585  37.242  1.00  0.00     0.022 A 
BRANCH  92  95
ATOM     95  S   UNL A   1      46.077  26.444  38.651  1.00  0.00     0.127 S 
ATOM     96  O   UNL A   1      45.919  25.313  37.738  1.00  0.00    -0.237 OA
ATOM     97  O   UNL A   1      47.437  26.640  39.151  1.00  0.00    -0.237 OA
ATOM     98  O   UNL A   1      45.031  26.573  39.657  1.00  0.00    -0.744 OA
ENDBRANCH  92  95
ENDBRANCH  65  88
ENDBRANCH  39  40
ENDBRANCH  32  34
ENDBRANCH  31  32
ENDBRANCH  30  31
ENDBRANCH  29  30
ENDBRANCH  28  29
ENDBRANCH  27  28
ENDBRANCH   1  27
TORSDOF 23
ENDMDL
MODEL 3
REMARK VINA RESULT:      -9.6      6.628     12.105
REMARK SMILES Cc1cc2c(cc1S(=O)(=O)N(C)CC(=O)OCCOCCOCCOC(=O)c1ccc(-c3c4nc(c(-c5cccc(S(=O)(=O)[O-])c5F)c5ccc([nH]5)c(-c5cccc(S(=O)(=O)[O-])c5F)c5nc(c(-c6cccc(S(=O)(=O)[O-])c6F)c6ccc3[nH]6)C=C5)C=C4)cc1)OCC(=O)N2
REMARK SMILES IDX 20 1 19 2 18 3 17 4 16 5 14 6 15 7 13 8 11 9 12 10 8 11 9 12
REMARK SMILES IDX 10 13 7 14 1 15 2 16 3 17 4 18 6 19 5 20 95 21 91 22 93 23
REMARK SMILES IDX 92 25 94 26 21 27 22 28 23 29 24 30 25 31 26 32 27 33 28 34
REMARK SMILES IDX 29 35 90 36 30 37 89 38 31 39 32 40 33 41 83 42 34 43 88 44
REMARK SMILES IDX 82 45 84 46 35 47 87 48 81 49 80 50 36 52 68 53 48 54 67 55
REMARK SMILES IDX 49 56 52 57 66 58 85 59 50 60 51 61 65 63 86 64 53 65 37 66
REMARK SMILES IDX 38 67 46 68 39 69 41 70 47 71 40 72 42 73 43 74 44 75 45 76
REMARK SMILES IDX 69 77 70 78 78 79 71 80 73 81 79 82 72 83 74 84 75 85 76 86
REMARK SMILES IDX 77 87 54 88 55 89 63 90 56 91 58 92 64 93 57 94 59 95 60 96
REMARK SMILES IDX 61 97 62 98
REMARK H PARENT 95 24 84 51 52 62
REMARK Flexibility Score: inf
ROOT
ATOM      1  C   UNL A   1      34.790  32.187  28.126  1.00  0.00     0.188 C 
ENDROOT
BRANCH   1   2
ATOM      2  O   UNL A   1      33.597  31.415  27.991  1.00  0.00    -0.376 OA
BRANCH   2   3
ATOM      3  C   UNL A   1      33.545  30.395  27.001  1.00  0.00     0.202 C 
BRANCH   3   4
ATOM      4  C   UNL A   1      34.641  29.333  27.089  1.00  0.00     0.261 C 
BRANCH   4   5
ATOM      5  O   UNL A   1      34.767  28.593  25.859  1.00  0.00    -0.462 OA
BRANCH   5   6
ATOM      6  C   UNL A   1      33.631  28.409  25.139  1.00  0.00     0.321 C 
ATOM      7  O   UNL A   1      33.025  29.316  24.581  1.00  0.00    -0.251 OA
BRANCH   6   8
ATOM      8  C   UNL A   1      33.155  26.971  25.087  1.00  0.00     0.224 C 
BRANCH   8   9
ATOM      9  N   UNL A   1      33.920  25.912  24.321  1.00  0.00    -0.190 NA
ATOM     10  C   UNL A   1      34.343  24.806  25.195  1.00  0.00     0.125 C 
BRANCH   9  11
ATOM     11  S   UNL A   1      33.093  25.521  22.866  1.00  0.00     0.243 S 
ATOM     12  O   UNL A   1      32.879  24.098  22.917  1.00  0.00    -0.207 OA
ATOM     13  O   UNL A   1      33.858  26.089  21.768  1.00  0.00    -0.207 OA
BRANCH  11  14
ATOM     14  C   UNL A   1      31.487  26.330  22.906  1.00  0.00     0.089 A 
ATOM     15  C   UNL A   1      30.427  24.662  24.598  1.00  0.00     0.046 C 
ATOM     16  C   UNL A   1      30.450  25.921  23.776  1.00  0.00    -0.029 A 
ATOM     17  C   UNL A   1      29.298  26.730  23.882  1.00  0.00     0.035 A 
ATOM     18  C   UNL A   1      29.184  27.924  23.176  1.00  0.00     0.084 A 
ATOM     19  C   UNL A   1      31.348  27.532  22.181  1.00  0.00     0.070 A 
ATOM     20  C   UNL A   1      30.199  28.322  22.311  1.00  0.00     0.144 A 
ATOM     21  N   UNL A   1      28.074  28.738  23.392  1.00  0.00    -0.320 N 
ATOM     22  O   UNL A   1      30.175  29.504  21.627  1.00  0.00    -0.482 OA
ATOM     23  C   UNL A   1      27.900  29.910  22.709  1.00  0.00     0.262 C 
ATOM     24  H   UNL A   1      27.397  28.462  24.051  1.00  0.00     0.170 HD
ATOM     25  C   UNL A   1      28.918  30.166  21.598  1.00  0.00     0.329 C 
ATOM     26  O   UNL A   1      26.939  30.639  22.938  1.00  0.00    -0.271 OA
ENDBRANCH  11  14
ENDBRANCH   9  11
ENDBRANCH   8   9
ENDBRANCH   6   8
ENDBRANCH   5   6
ENDBRANCH   4   5
ENDBRANCH   3   4
ENDBRANCH   2   3
ENDBRANCH   1   2
BRANCH   1  27
ATOM     27  C   UNL A   1      34.655  33.677  28.466  1.00  0.00     0.188 C 
BRANCH  27  28
ATOM     28  O   UNL A   1      33.486  34.259  27.904  1.00  0.00    -0.376 OA
BRANCH  28  29
ATOM     29  C   UNL A   1      32.943  35.319  28.669  1.00  0.00     0.202 C 
BRANCH  29  30
ATOM     30  C   UNL A   1      33.694  35.461  29.996  1.00  0.00     0.261 C 
BRANCH  30  31
ATOM     31  O   UNL A   1      33.081  36.361  30.939  1.00  0.00    -0.460 OA
BRANCH  31  32
ATOM     32  C   UNL A   1      32.629  35.813  32.091  1.00  0.00     0.338 C 
ATOM     33  O   UNL A   1      31.479  35.822  32.492  1.00  0.00    -0.246 OA
BRANCH  32  34
ATOM     34  C   UNL A   1      33.742  35.061  32.710  1.00  0.00     0.060 A 
ATOM     35  C   UNL A   1      33.567  33.740  33.115  1.00  0.00     0.016 A 
ATOM     36  C   UNL A   1      34.983  35.682  32.873  1.00  0.00     0.016 A 
ATOM     37  C   UNL A   1      34.646  33.046  33.675  1.00  0.00     0.010 A 
ATOM     38  C   UNL A   1      36.065  34.984  33.422  1.00  0.00     0.010 A 
ATOM     39  C   UNL A   1      35.910  33.653  33.823  1.00  0.00    -0.014 A 
BRANCH  39  40
ATOM     40  C   UNL A   1      37.073  32.834  34.265  1.00  0.00     0.031 A 
ATOM     41  C   UNL A   1      37.659  31.737  33.419  1.00  0.00     0.074 A 
ATOM     42  C   UNL A   1      37.607  33.092  35.475  1.00  0.00     0.049 A 
ATOM     43  N   UNL A   1      38.796  31.105  33.580  1.00  0.00    -0.248 NA
ATOM     44  C   UNL A   1      36.877  31.272  32.264  1.00  0.00     0.031 C 
ATOM     45  C   UNL A   1      37.047  34.027  36.453  1.00  0.00     0.029 A 
ATOM     46  N   UNL A   1      38.740  32.613  36.085  1.00  0.00    -0.354 N 
ATOM     47  C   UNL A   1      38.865  30.169  32.555  1.00  0.00     0.074 A 
ATOM     48  C   UNL A   1      37.640  30.290  31.795  1.00  0.00     0.031 C 
ATOM     49  C   UNL A   1      37.866  34.098  37.513  1.00  0.00     0.029 A 
ATOM     50  C   UNL A   1      39.007  33.214  37.293  1.00  0.00     0.049 A 
ATOM     51  H   UNL A   1      39.305  31.908  35.695  1.00  0.00     0.167 HD
ATOM     52  C   UNL A   1      39.873  29.313  32.259  1.00  0.00     0.034 A 
ATOM     53  C   UNL A   1      40.069  33.104  38.115  1.00  0.00     0.034 A 
ATOM     54  C   UNL A   1      41.102  29.224  33.005  1.00  0.00     0.049 A 
ATOM     55  C   UNL A   1      41.219  32.225  37.718  1.00  0.00     0.074 A 
ATOM     56  C   UNL A   1      42.230  28.478  32.712  1.00  0.00     0.029 A 
ATOM     57  N   UNL A   1      41.359  29.891  34.191  1.00  0.00    -0.354 N 
ATOM     58  N   UNL A   1      41.361  31.504  36.633  1.00  0.00    -0.248 NA
ATOM     59  C   UNL A   1      42.368  32.168  38.635  1.00  0.00     0.031 C 
ATOM     60  C   UNL A   1      43.165  28.682  33.731  1.00  0.00     0.029 A 
ATOM     61  C   UNL A   1      42.623  29.566  34.651  1.00  0.00     0.049 A 
ATOM     62  H   UNL A   1      40.735  30.506  34.641  1.00  0.00     0.167 HD
ATOM     63  C   UNL A   1      42.616  30.917  36.727  1.00  0.00     0.074 A 
ATOM     64  C   UNL A   1      43.205  31.381  37.967  1.00  0.00     0.031 C 
ATOM     65  C   UNL A   1      43.215  30.060  35.866  1.00  0.00     0.034 A 
BRANCH  52  66
ATOM     66  C   UNL A   1      39.754  28.460  31.024  1.00  0.00     0.023 A 
ATOM     67  C   UNL A   1      38.961  27.295  31.081  1.00  0.00     0.012 A 
ATOM     68  C   UNL A   1      40.292  28.871  29.789  1.00  0.00     0.148 A 
ATOM     69  C   UNL A   1      38.714  26.547  29.931  1.00  0.00     0.002 A 
ATOM     70  C   UNL A   1      40.019  28.135  28.640  1.00  0.00     0.091 A 
ATOM     71  F   UNL A   1      41.041  29.983  29.757  1.00  0.00    -0.205 F 
ATOM     72  C   UNL A   1      39.233  26.972  28.711  1.00  0.00     0.022 A 
BRANCH  70  73
ATOM     73  S   UNL A   1      40.584  28.621  27.005  1.00  0.00     0.127 S 
ATOM     74  O   UNL A   1      40.777  27.321  26.361  1.00  0.00    -0.237 OA
ATOM     75  O   UNL A   1      39.444  29.386  26.500  1.00  0.00    -0.237 OA
ATOM     76  O   UNL A   1      41.801  29.394  27.210  1.00  0.00    -0.744 OA
ENDBRANCH  70  73
ENDBRANCH  52  66
BRANCH  53  77
ATOM     77  C   UNL A   1      40.124  33.956  39.334  1.00  0.00     0.023 A 
ATOM     78  C   UNL A   1      41.010  35.049  39.368  1.00  0.00     0.012 A 
ATOM     79  C   UNL A   1      39.228  33.756  40.402  1.00  0.00     0.148 A 
ATOM     80  C   UNL A   1      41.006  35.931  40.448  1.00  0.00     0.002 A 
ATOM     81  C   UNL A   1      39.202  34.661  41.456  1.00  0.00     0.091 A 
ATOM     82  F   UNL A   1      38.395  32.709  40.341  1.00  0.00    -0.205 F 
ATOM     83  C   UNL A   1      40.095  35.745  41.486  1.00  0.00     0.022 A 
BRANCH  81  84
ATOM     84  S   UNL A   1      37.997  34.569  42.784  1.00  0.00     0.127 S 
ATOM     85  O   UNL A   1      36.737  34.676  42.051  1.00  0.00    -0.237 OA
ATOM     86  O   UNL A   1      38.271  33.246  43.344  1.00  0.00    -0.237 OA
ATOM     87  O   UNL A   1      38.298  35.680  43.674  1.00  0.00    -0.744 OA
ENDBRANCH  81  84
ENDBRANCH  53  77
BRANCH  65  88
ATOM     88  C   UNL A   1      44.581  29.539  36.215  1.00  0.00     0.023 A 
ATOM     89  C   UNL A   1      45.714  30.301  35.872  1.00  0.00     0.012 A 
ATOM     90  C   UNL A   1      44.730  28.386  37.010  1.00  0.00     0.148 A 
ATOM     91  C   UNL A   1      46.980  29.921  36.316  1.00  0.00     0.002 A 
ATOM     92  C   UNL A   1      45.990  28.032  37.476  1.00  0.00     0.091 A 
ATOM     93  F   UNL A   1      43.634  27.678  37.317  1.00  0.00    -0.205 F 
ATOM     94  C   UNL A   1      47.116  28.796  37.128  1.00  0.00     0.022 A 
BRANCH  92  95
ATOM     95  S   UNL A   1      46.262  26.646  38.588  1.00  0.00     0.127 S 
ATOM     96  O   UNL A   1      45.522  27.070  39.776  1.00  0.00    -0.237 OA
ATOM     97  O   UNL A   1      45.655  25.538  37.853  1.00  0.00    -0.237 OA
ATOM     98  O   UNL A   1      47.704  26.545  38.765  1.00  0.00    -0.744 OA
ENDBRANCH  92  95
ENDBRANCH  65  88
ENDBRANCH  39  40
ENDBRANCH  32  34
ENDBRANCH  31  32
ENDBRANCH  30  31
ENDBRANCH  29  30
ENDBRANCH  28  29
ENDBRANCH  27  28
ENDBRANCH   1  27
TORSDOF 23
ENDMDL
