MODEL 1
REMARK VINA RESULT:      -8.8      0.000      0.000
REMARK SMILES Cc1c(C(=O)OCCOCCOCCOC(=O)c2ccc(-c3c4nc(c(-c5cccc(S(=O)(=O)[O-])c5F)c5ccc([nH]5)c(-c5cccc(S(=O)(=O)[O-])c5F)c5nc(c(-c6cccc(S(=O)(=O)[O-])c6F)c6ccc3[nH]6)C=C5)C=C4)cc2)oc2c1/C(=N/NC(=O)C(c1ccccc1)c1ccccc1)CCC2
REMARK SMILES IDX 10 1 9 2 8 3 7 4 6 5 4 6 5 7 3 8 1 9 2 10 83 11 81 12 82 13
REMARK SMILES IDX 84 14 104 15 85 16 102 17 103 18 86 19 87 20 88 22 89 23
REMARK SMILES IDX 90 24 91 25 95 26 92 27 94 28 93 29 96 30 97 31 101 32 98 33
REMARK SMILES IDX 100 34 99 35 11 36 12 37 13 38 14 39 15 40 16 41 17 42 18 43
REMARK SMILES IDX 19 44 80 45 20 46 79 47 21 48 22 49 23 50 73 51 24 52 78 53
REMARK SMILES IDX 72 54 74 55 25 56 77 57 71 58 70 59 26 61 58 62 38 63 57 64
REMARK SMILES IDX 39 65 42 66 56 67 75 68 40 69 41 70 55 72 76 73 43 74 27 75
REMARK SMILES IDX 28 76 36 77 29 78 31 79 37 80 30 81 32 82 33 83 34 84 35 85
REMARK SMILES IDX 59 86 60 87 68 88 61 89 63 90 69 91 62 92 64 93 65 94 66 95
REMARK SMILES IDX 67 96 44 97 45 98 53 99 46 100 48 101 54 102 47 103 49 104
REMARK SMILES IDX 50 105 51 106 52 107
REMARK H PARENT 86 21 74 60 42 71
REMARK Flexibility Score: inf
ROOT
ATOM      1  C   UNL A   1      35.116  34.436  33.914  1.00  0.00     0.188 C 
ENDROOT
BRANCH   1   2
ATOM      2  O   UNL A   1      36.339  33.709  33.912  1.00  0.00    -0.376 OA
BRANCH   2   3
ATOM      3  C   UNL A   1      37.251  33.814  34.988  1.00  0.00     0.202 C 
BRANCH   3   4
ATOM      4  C   UNL A   1      38.679  34.286  34.676  1.00  0.00     0.261 C 
BRANCH   4   5
ATOM      5  O   UNL A   1      39.676  33.262  34.672  1.00  0.00    -0.457 OA
BRANCH   5   6
ATOM      6  C   UNL A   1      40.983  33.640  34.774  1.00  0.00     0.374 C 
ATOM      7  O   UNL A   1      41.696  33.472  35.760  1.00  0.00    -0.242 OA
BRANCH   6   8
ATOM      8  C   UNL A   1      41.402  34.161  33.489  1.00  0.00     0.215 A 
ATOM      9  C   UNL A   1      43.296  35.843  33.996  1.00  0.00     0.049 C 
ATOM     10  C   UNL A   1      42.370  35.097  33.100  1.00  0.00     0.012 A 
ATOM     11  C   UNL A   1      42.441  35.012  31.671  1.00  0.00     0.043 A 
ATOM     12  O   UNL A   1      40.895  33.534  32.382  1.00  0.00    -0.453 OA
ATOM     13  C   UNL A   1      41.569  34.005  31.327  1.00  0.00     0.114 A 
ATOM     14  C   UNL A   1      43.293  35.577  30.631  1.00  0.00     0.072 C 
ATOM     15  C   UNL A   1      41.441  33.308  30.037  1.00  0.00     0.076 C 
ATOM     16  N   UNL A   1      43.790  36.763  30.815  1.00  0.00    -0.177 NA
ATOM     17  C   UNL A   1      43.482  34.699  29.414  1.00  0.00     0.059 C 
ATOM     18  C   UNL A   1      42.832  33.310  29.396  1.00  0.00     0.014 C 
BRANCH  16  19
ATOM     19  N   UNL A   1      44.662  37.406  29.962  1.00  0.00    -0.246 N 
ATOM     20  C   UNL A   1      44.519  38.094  28.771  1.00  0.00     0.252 C 
ATOM     21  H   UNL A   1      45.596  37.367  30.269  1.00  0.00     0.193 HD
ATOM     22  O   UNL A   1      45.378  38.967  28.545  1.00  0.00    -0.272 OA
BRANCH  20  23
ATOM     23  C   UNL A   1      43.447  37.816  27.662  1.00  0.00     0.140 C 
BRANCH  23  24
ATOM     24  C   UNL A   1      42.967  39.188  27.086  1.00  0.00    -0.031 A 
ATOM     25  C   UNL A   1      41.663  39.692  27.184  1.00  0.00     0.005 A 
ATOM     26  C   UNL A   1      43.879  39.984  26.345  1.00  0.00     0.005 A 
ATOM     27  C   UNL A   1      41.228  40.739  26.351  1.00  0.00     0.000 A 
ATOM     28  C   UNL A   1      43.456  41.038  25.531  1.00  0.00     0.000 A 
ATOM     29  C   UNL A   1      42.114  41.377  25.488  1.00  0.00     0.000 A 
ENDBRANCH  23  24
BRANCH  23  30
ATOM     30  C   UNL A   1      43.931  36.608  26.815  1.00  0.00    -0.031 A 
ATOM     31  C   UNL A   1      42.938  35.852  26.144  1.00  0.00     0.005 A 
ATOM     32  C   UNL A   1      45.245  36.142  26.692  1.00  0.00     0.005 A 
ATOM     33  C   UNL A   1      43.209  34.601  25.586  1.00  0.00     0.000 A 
ATOM     34  C   UNL A   1      45.526  34.896  26.111  1.00  0.00     0.000 A 
ATOM     35  C   UNL A   1      44.503  34.106  25.604  1.00  0.00     0.000 A 
ENDBRANCH  23  30
ENDBRANCH  20  23
ENDBRANCH  16  19
ENDBRANCH   6   8
ENDBRANCH   5   6
ENDBRANCH   4   5
ENDBRANCH   3   4
ENDBRANCH   2   3
ENDBRANCH   1   2
BRANCH   1  36
ATOM     36  C   UNL A   1      34.190  34.547  32.678  1.00  0.00     0.188 C 
BRANCH  36  37
ATOM     37  O   UNL A   1      33.998  33.346  31.944  1.00  0.00    -0.376 OA
BRANCH  37  38
ATOM     38  C   UNL A   1      34.540  33.319  30.630  1.00  0.00     0.202 C 
BRANCH  38  39
ATOM     39  C   UNL A   1      35.941  32.732  30.506  1.00  0.00     0.261 C 
BRANCH  39  40
ATOM     40  O   UNL A   1      35.970  31.361  30.139  1.00  0.00    -0.460 OA
BRANCH  40  41
ATOM     41  C   UNL A   1      36.439  30.501  31.062  1.00  0.00     0.338 C 
ATOM     42  O   UNL A   1      36.091  30.415  32.226  1.00  0.00    -0.246 OA
BRANCH  41  43
ATOM     43  C   UNL A   1      37.518  29.721  30.438  1.00  0.00     0.060 A 
ATOM     44  C   UNL A   1      37.885  28.523  31.050  1.00  0.00     0.016 A 
ATOM     45  C   UNL A   1      38.288  30.298  29.413  1.00  0.00     0.016 A 
ATOM     46  C   UNL A   1      39.139  28.017  30.787  1.00  0.00     0.010 A 
ATOM     47  C   UNL A   1      39.542  29.803  29.162  1.00  0.00     0.010 A 
ATOM     48  C   UNL A   1      39.984  28.727  29.927  1.00  0.00    -0.014 A 
BRANCH  48  49
ATOM     49  C   UNL A   1      41.379  28.348  29.891  1.00  0.00     0.031 A 
ATOM     50  C   UNL A   1      41.696  27.322  28.887  1.00  0.00     0.074 A 
ATOM     51  C   UNL A   1      42.288  28.961  30.674  1.00  0.00     0.049 A 
ATOM     52  N   UNL A   1      42.053  26.099  29.096  1.00  0.00    -0.248 NA
ATOM     53  C   UNL A   1      41.444  27.653  27.477  1.00  0.00     0.031 C 
ATOM     54  C   UNL A   1      42.076  30.200  31.436  1.00  0.00     0.029 A 
ATOM     55  N   UNL A   1      43.618  28.711  30.841  1.00  0.00    -0.354 N 
ATOM     56  C   UNL A   1      42.356  25.609  27.831  1.00  0.00     0.074 A 
ATOM     57  C   UNL A   1      41.735  26.496  26.883  1.00  0.00     0.031 C 
ATOM     58  C   UNL A   1      43.276  30.723  31.765  1.00  0.00     0.029 A 
ATOM     59  C   UNL A   1      44.316  29.791  31.368  1.00  0.00     0.049 A 
ATOM     60  H   UNL A   1      44.041  27.852  30.611  1.00  0.00     0.167 HD
ATOM     61  C   UNL A   1      43.396  24.752  27.663  1.00  0.00     0.034 A 
ATOM     62  C   UNL A   1      45.658  29.951  31.405  1.00  0.00     0.034 A 
ATOM     63  C   UNL A   1      43.822  24.175  28.911  1.00  0.00     0.049 A 
ATOM     64  C   UNL A   1      46.294  28.621  31.298  1.00  0.00     0.074 A 
ATOM     65  C   UNL A   1      43.410  23.176  29.763  1.00  0.00     0.029 A 
ATOM     66  N   UNL A   1      44.744  24.933  29.578  1.00  0.00    -0.354 N 
ATOM     67  N   UNL A   1      46.190  27.696  32.212  1.00  0.00    -0.248 NA
ATOM     68  C   UNL A   1      46.831  28.177  30.016  1.00  0.00     0.031 C 
ATOM     69  C   UNL A   1      44.062  23.416  31.009  1.00  0.00     0.029 A 
ATOM     70  C   UNL A   1      44.852  24.557  30.889  1.00  0.00     0.049 A 
ATOM     71  H   UNL A   1      45.265  25.660  29.166  1.00  0.00     0.167 HD
ATOM     72  C   UNL A   1      46.229  26.514  31.496  1.00  0.00     0.074 A 
ATOM     73  C   UNL A   1      46.810  26.856  30.207  1.00  0.00     0.031 C 
ATOM     74  C   UNL A   1      45.464  25.445  31.856  1.00  0.00     0.034 A 
BRANCH  61  75
ATOM     75  C   UNL A   1      44.357  24.791  26.492  1.00  0.00     0.023 A 
ATOM     76  C   UNL A   1      44.717  23.548  25.926  1.00  0.00     0.012 A 
ATOM     77  C   UNL A   1      45.142  25.909  26.125  1.00  0.00     0.148 A 
ATOM     78  C   UNL A   1      45.820  23.418  25.076  1.00  0.00     0.002 A 
ATOM     79  C   UNL A   1      46.186  25.789  25.216  1.00  0.00     0.091 A 
ATOM     80  F   UNL A   1      44.994  27.076  26.759  1.00  0.00    -0.205 F 
ATOM     81  C   UNL A   1      46.550  24.542  24.711  1.00  0.00     0.022 A 
BRANCH  79  82
ATOM     82  S   UNL A   1      47.128  27.226  24.689  1.00  0.00     0.127 S 
ATOM     83  O   UNL A   1      47.902  27.524  25.890  1.00  0.00    -0.237 OA
ATOM     84  O   UNL A   1      47.900  26.687  23.569  1.00  0.00    -0.237 OA
ATOM     85  O   UNL A   1      46.131  28.216  24.299  1.00  0.00    -0.744 OA
ENDBRANCH  79  82
ENDBRANCH  61  75
BRANCH  62  86
ATOM     86  C   UNL A   1      46.437  31.206  31.341  1.00  0.00     0.023 A 
ATOM     87  C   UNL A   1      46.256  32.086  30.258  1.00  0.00     0.012 A 
ATOM     88  C   UNL A   1      47.171  31.660  32.461  1.00  0.00     0.148 A 
ATOM     89  C   UNL A   1      46.765  33.389  30.300  1.00  0.00     0.002 A 
ATOM     90  C   UNL A   1      47.688  32.951  32.492  1.00  0.00     0.091 A 
ATOM     91  F   UNL A   1      47.291  30.855  33.525  1.00  0.00    -0.205 F 
ATOM     92  C   UNL A   1      47.473  33.823  31.417  1.00  0.00     0.022 A 
BRANCH  90  93
ATOM     93  S   UNL A   1      48.612  33.585  33.898  1.00  0.00     0.127 S 
ATOM     94  O   UNL A   1      48.942  34.940  33.455  1.00  0.00    -0.237 OA
ATOM     95  O   UNL A   1      47.619  33.516  34.967  1.00  0.00    -0.237 OA
ATOM     96  O   UNL A   1      49.766  32.707  34.046  1.00  0.00    -0.744 OA
ENDBRANCH  90  93
ENDBRANCH  62  86
BRANCH  74  97
ATOM     97  C   UNL A   1      45.050  25.320  33.290  1.00  0.00     0.023 A 
ATOM     98  C   UNL A   1      45.840  24.663  34.253  1.00  0.00     0.012 A 
ATOM     99  C   UNL A   1      43.872  25.969  33.699  1.00  0.00     0.148 A 
ATOM    100  C   UNL A   1      45.451  24.639  35.595  1.00  0.00     0.002 A 
ATOM    101  C   UNL A   1      43.512  25.981  35.040  1.00  0.00     0.091 A 
ATOM    102  F   UNL A   1      43.125  26.578  32.766  1.00  0.00    -0.205 F 
ATOM    103  C   UNL A   1      44.294  25.309  35.991  1.00  0.00     0.022 A 
BRANCH 101 104
ATOM    104  S   UNL A   1      42.102  26.928  35.618  1.00  0.00     0.127 S 
ATOM    105  O   UNL A   1      42.380  27.053  37.047  1.00  0.00    -0.237 OA
ATOM    106  O   UNL A   1      42.223  28.175  34.860  1.00  0.00    -0.237 OA
ATOM    107  O   UNL A   1      40.926  26.138  35.271  1.00  0.00    -0.744 OA
ENDBRANCH 101 104
ENDBRANCH  74  97
ENDBRANCH  48  49
ENDBRANCH  41  43
ENDBRANCH  40  41
ENDBRANCH  39  40
ENDBRANCH  38  39
ENDBRANCH  37  38
ENDBRANCH  36  37
ENDBRANCH   1  36
TORSDOF 24
ENDMDL
MODEL 2
REMARK VINA RESULT:      -8.6      2.201      2.777
REMARK SMILES Cc1c(C(=O)OCCOCCOCCOC(=O)c2ccc(-c3c4nc(c(-c5cccc(S(=O)(=O)[O-])c5F)c5ccc([nH]5)c(-c5cccc(S(=O)(=O)[O-])c5F)c5nc(c(-c6cccc(S(=O)(=O)[O-])c6F)c6ccc3[nH]6)C=C5)C=C4)cc2)oc2c1/C(=N/NC(=O)C(c1ccccc1)c1ccccc1)CCC2
REMARK SMILES IDX 10 1 9 2 8 3 7 4 6 5 4 6 5 7 3 8 1 9 2 10 83 11 81 12 82 13
REMARK SMILES IDX 84 14 104 15 85 16 102 17 103 18 86 19 87 20 88 22 89 23
REMARK SMILES IDX 90 24 91 25 95 26 92 27 94 28 93 29 96 30 97 31 101 32 98 33
REMARK SMILES IDX 100 34 99 35 11 36 12 37 13 38 14 39 15 40 16 41 17 42 18 43
REMARK SMILES IDX 19 44 80 45 20 46 79 47 21 48 22 49 23 50 73 51 24 52 78 53
REMARK SMILES IDX 72 54 74 55 25 56 77 57 71 58 70 59 26 61 58 62 38 63 57 64
REMARK SMILES IDX 39 65 42 66 56 67 75 68 40 69 41 70 55 72 76 73 43 74 27 75
REMARK SMILES IDX 28 76 36 77 29 78 31 79 37 80 30 81 32 82 33 83 34 84 35 85
REMARK SMILES IDX 59 86 60 87 68 88 61 89 63 90 69 91 62 92 64 93 65 94 66 95
REMARK SMILES IDX 67 96 44 97 45 98 53 99 46 100 48 101 54 102 47 103 49 104
REMARK SMILES IDX 50 105 51 106 52 107
REMARK H PARENT 86 21 74 60 42 71
REMARK Flexibility Score: inf
ROOT
ATOM      1  C   UNL A   1      35.190  33.921  34.123  1.00  0.00     0.188 C 
ENDROOT
BRANCH   1   2
ATOM      2  O   UNL A   1      36.531  33.552  33.825  1.00  0.00    -0.376 OA
BRANCH   2   3
ATOM      3  C   UNL A   1      37.280  32.745  34.712  1.00  0.00     0.202 C 
BRANCH   3   4
ATOM      4  C   UNL A   1      37.545  33.286  36.125  1.00  0.00     0.261 C 
BRANCH   4   5
ATOM      5  O   UNL A   1      38.650  34.184  36.241  1.00  0.00    -0.457 OA
BRANCH   5   6
ATOM      6  C   UNL A   1      39.909  33.671  36.130  1.00  0.00     0.374 C 
ATOM      7  O   UNL A   1      40.314  32.656  36.691  1.00  0.00    -0.242 OA
BRANCH   6   8
ATOM      8  C   UNL A   1      40.632  34.462  35.156  1.00  0.00     0.215 A 
ATOM      9  C   UNL A   1      41.875  36.279  36.508  1.00  0.00     0.049 C 
ATOM     10  C   UNL A   1      41.474  35.578  35.257  1.00  0.00     0.012 A 
ATOM     11  C   UNL A   1      42.044  35.754  33.953  1.00  0.00     0.043 A 
ATOM     12  O   UNL A   1      40.665  33.972  33.877  1.00  0.00    -0.453 OA
ATOM     13  C   UNL A   1      41.555  34.710  33.203  1.00  0.00     0.114 A 
ATOM     14  C   UNL A   1      43.073  36.606  33.369  1.00  0.00     0.072 C 
ATOM     15  C   UNL A   1      42.012  34.238  31.886  1.00  0.00     0.076 C 
ATOM     16  N   UNL A   1      43.238  37.799  33.855  1.00  0.00    -0.177 NA
ATOM     17  C   UNL A   1      43.833  35.988  32.215  1.00  0.00     0.059 C 
ATOM     18  C   UNL A   1      43.510  34.547  31.804  1.00  0.00     0.014 C 
BRANCH  16  19
ATOM     19  N   UNL A   1      44.207  38.697  33.458  1.00  0.00    -0.246 N 
ATOM     20  C   UNL A   1      44.203  40.037  33.117  1.00  0.00     0.252 C 
ATOM     21  H   UNL A   1      45.103  38.293  33.406  1.00  0.00     0.193 HD
ATOM     22  O   UNL A   1      45.270  40.649  33.316  1.00  0.00    -0.272 OA
BRANCH  20  23
ATOM     23  C   UNL A   1      43.029  40.816  32.431  1.00  0.00     0.140 C 
BRANCH  23  24
ATOM     24  C   UNL A   1      43.044  42.289  32.955  1.00  0.00    -0.031 A 
ATOM     25  C   UNL A   1      42.294  42.768  34.038  1.00  0.00     0.005 A 
ATOM     26  C   UNL A   1      43.815  43.260  32.264  1.00  0.00     0.005 A 
ATOM     27  C   UNL A   1      42.088  44.148  34.220  1.00  0.00     0.000 A 
ATOM     28  C   UNL A   1      43.629  44.632  32.456  1.00  0.00     0.000 A 
ATOM     29  C   UNL A   1      42.716  45.077  33.396  1.00  0.00     0.000 A 
ENDBRANCH  23  24
BRANCH  23  30
ATOM     30  C   UNL A   1      42.976  40.395  30.938  1.00  0.00    -0.031 A 
ATOM     31  C   UNL A   1      41.944  40.955  30.146  1.00  0.00     0.005 A 
ATOM     32  C   UNL A   1      43.807  39.467  30.298  1.00  0.00     0.005 A 
ATOM     33  C   UNL A   1      41.625  40.454  28.882  1.00  0.00     0.000 A 
ATOM     34  C   UNL A   1      43.505  38.978  29.018  1.00  0.00     0.000 A 
ATOM     35  C   UNL A   1      42.387  39.435  28.333  1.00  0.00     0.000 A 
ENDBRANCH  23  30
ENDBRANCH  20  23
ENDBRANCH  16  19
ENDBRANCH   6   8
ENDBRANCH   5   6
ENDBRANCH   4   5
ENDBRANCH   3   4
ENDBRANCH   2   3
ENDBRANCH   1   2
BRANCH   1  36
ATOM     36  C   UNL A   1      34.031  33.815  33.102  1.00  0.00     0.188 C 
BRANCH  36  37
ATOM     37  O   UNL A   1      34.081  32.697  32.228  1.00  0.00    -0.376 OA
BRANCH  37  38
ATOM     38  C   UNL A   1      34.479  32.962  30.889  1.00  0.00     0.202 C 
BRANCH  38  39
ATOM     39  C   UNL A   1      35.903  32.553  30.531  1.00  0.00     0.261 C 
BRANCH  39  40
ATOM     40  O   UNL A   1      36.024  31.228  30.039  1.00  0.00    -0.460 OA
BRANCH  40  41
ATOM     41  C   UNL A   1      36.473  30.302  30.908  1.00  0.00     0.338 C 
ATOM     42  O   UNL A   1      36.103  30.135  32.056  1.00  0.00    -0.246 OA
BRANCH  41  43
ATOM     43  C   UNL A   1      37.562  29.565  30.251  1.00  0.00     0.060 A 
ATOM     44  C   UNL A   1      37.935  28.338  30.801  1.00  0.00     0.016 A 
ATOM     45  C   UNL A   1      38.334  30.201  29.263  1.00  0.00     0.016 A 
ATOM     46  C   UNL A   1      39.194  27.856  30.520  1.00  0.00     0.010 A 
ATOM     47  C   UNL A   1      39.595  29.729  28.995  1.00  0.00     0.010 A 
ATOM     48  C   UNL A   1      40.039  28.618  29.706  1.00  0.00    -0.014 A 
BRANCH  48  49
ATOM     49  C   UNL A   1      41.437  28.251  29.660  1.00  0.00     0.031 A 
ATOM     50  C   UNL A   1      41.734  27.129  28.755  1.00  0.00     0.074 A 
ATOM     51  C   UNL A   1      42.364  28.951  30.342  1.00  0.00     0.049 A 
ATOM     52  N   UNL A   1      42.115  25.939  29.076  1.00  0.00    -0.248 NA
ATOM     53  C   UNL A   1      41.429  27.311  27.329  1.00  0.00     0.031 C 
ATOM     54  C   UNL A   1      42.161  30.259  30.980  1.00  0.00     0.029 A 
ATOM     55  N   UNL A   1      43.703  28.733  30.487  1.00  0.00    -0.354 N 
ATOM     56  C   UNL A   1      42.381  25.323  27.859  1.00  0.00     0.074 A 
ATOM     57  C   UNL A   1      41.715  26.101  26.847  1.00  0.00     0.031 C 
ATOM     58  C   UNL A   1      43.364  30.826  31.210  1.00  0.00     0.029 A 
ATOM     59  C   UNL A   1      44.403  29.868  30.875  1.00  0.00     0.049 A 
ATOM     60  H   UNL A   1      44.129  27.859  30.331  1.00  0.00     0.167 HD
ATOM     61  C   UNL A   1      43.427  24.464  27.743  1.00  0.00     0.034 A 
ATOM     62  C   UNL A   1      45.743  30.045  30.847  1.00  0.00     0.034 A 
ATOM     63  C   UNL A   1      43.903  24.024  29.028  1.00  0.00     0.049 A 
ATOM     64  C   UNL A   1      46.393  28.718  30.855  1.00  0.00     0.074 A 
ATOM     65  C   UNL A   1      43.534  23.114  29.993  1.00  0.00     0.029 A 
ATOM     66  N   UNL A   1      44.836  24.856  29.581  1.00  0.00    -0.354 N 
ATOM     67  N   UNL A   1      46.334  27.891  31.863  1.00  0.00    -0.248 NA
ATOM     68  C   UNL A   1      46.892  28.149  29.608  1.00  0.00     0.031 C 
ATOM     69  C   UNL A   1      44.225  23.488  31.183  1.00  0.00     0.029 A 
ATOM     70  C   UNL A   1      44.995  24.619  30.919  1.00  0.00     0.049 A 
ATOM     71  H   UNL A   1      45.333  25.542  29.077  1.00  0.00     0.167 HD
ATOM     72  C   UNL A   1      46.365  26.643  31.271  1.00  0.00     0.074 A 
ATOM     73  C   UNL A   1      46.896  26.855  29.934  1.00  0.00     0.031 C 
ATOM     74  C   UNL A   1      45.627  25.608  31.766  1.00  0.00     0.034 A 
BRANCH  61  75
ATOM     75  C   UNL A   1      44.346  24.392  26.541  1.00  0.00     0.023 A 
ATOM     76  C   UNL A   1      44.556  23.113  25.980  1.00  0.00     0.012 A 
ATOM     77  C   UNL A   1      45.230  25.419  26.134  1.00  0.00     0.148 A 
ATOM     78  C   UNL A   1      45.610  22.861  25.097  1.00  0.00     0.002 A 
ATOM     79  C   UNL A   1      46.224  25.182  25.193  1.00  0.00     0.091 A 
ATOM     80  F   UNL A   1      45.225  26.601  26.756  1.00  0.00    -0.205 F 
ATOM     81  C   UNL A   1      46.440  23.900  24.693  1.00  0.00     0.022 A 
BRANCH  79  82
ATOM     82  S   UNL A   1      47.292  26.509  24.616  1.00  0.00     0.127 S 
ATOM     83  O   UNL A   1      48.054  26.815  25.823  1.00  0.00    -0.237 OA
ATOM     84  O   UNL A   1      48.049  25.847  23.554  1.00  0.00    -0.237 OA
ATOM     85  O   UNL A   1      46.387  27.548  24.140  1.00  0.00    -0.744 OA
ENDBRANCH  79  82
ENDBRANCH  61  75
BRANCH  62  86
ATOM     86  C   UNL A   1      46.502  31.295  30.627  1.00  0.00     0.023 A 
ATOM     87  C   UNL A   1      46.262  32.064  29.474  1.00  0.00     0.012 A 
ATOM     88  C   UNL A   1      47.280  31.862  31.663  1.00  0.00     0.148 A 
ATOM     89  C   UNL A   1      46.755  33.369  29.366  1.00  0.00     0.002 A 
ATOM     90  C   UNL A   1      47.780  33.154  31.546  1.00  0.00     0.091 A 
ATOM     91  F   UNL A   1      47.457  31.165  32.794  1.00  0.00    -0.205 F 
ATOM     92  C   UNL A   1      47.506  33.916  30.403  1.00  0.00     0.022 A 
BRANCH  90  93
ATOM     93  S   UNL A   1      48.757  33.930  32.841  1.00  0.00     0.127 S 
ATOM     94  O   UNL A   1      49.783  32.917  33.091  1.00  0.00    -0.237 OA
ATOM     95  O   UNL A   1      49.239  35.136  32.174  1.00  0.00    -0.237 OA
ATOM     96  O   UNL A   1      47.844  34.143  33.956  1.00  0.00    -0.744 OA
ENDBRANCH  90  93
ENDBRANCH  62  86
BRANCH  74  97
ATOM     97  C   UNL A   1      45.264  25.628  33.220  1.00  0.00     0.023 A 
ATOM     98  C   UNL A   1      46.121  25.135  34.222  1.00  0.00     0.012 A 
ATOM     99  C   UNL A   1      44.061  26.251  33.594  1.00  0.00     0.148 A 
ATOM    100  C   UNL A   1      45.774  25.246  35.571  1.00  0.00     0.002 A 
ATOM    101  C   UNL A   1      43.740  26.399  34.937  1.00  0.00     0.091 A 
ATOM    102  F   UNL A   1      43.250  26.702  32.625  1.00  0.00    -0.205 F 
ATOM    103  C   UNL A   1      44.591  25.889  35.930  1.00  0.00     0.022 A 
BRANCH 101 104
ATOM    104  S   UNL A   1      42.292  27.322  35.454  1.00  0.00     0.127 S 
ATOM    105  O   UNL A   1      42.599  27.620  36.851  1.00  0.00    -0.237 OA
ATOM    106  O   UNL A   1      42.320  28.483  34.562  1.00  0.00    -0.237 OA
ATOM    107  O   UNL A   1      41.156  26.435  35.232  1.00  0.00    -0.744 OA
ENDBRANCH 101 104
ENDBRANCH  74  97
ENDBRANCH  48  49
ENDBRANCH  41  43
ENDBRANCH  40  41
ENDBRANCH  39  40
ENDBRANCH  38  39
ENDBRANCH  37  38
ENDBRANCH  36  37
ENDBRANCH   1  36
TORSDOF 24
ENDMDL
MODEL 3
REMARK VINA RESULT:      -8.5      6.200     11.634
REMARK SMILES Cc1c(C(=O)OCCOCCOCCOC(=O)c2ccc(-c3c4nc(c(-c5cccc(S(=O)(=O)[O-])c5F)c5ccc([nH]5)c(-c5cccc(S(=O)(=O)[O-])c5F)c5nc(c(-c6cccc(S(=O)(=O)[O-])c6F)c6ccc3[nH]6)C=C5)C=C4)cc2)oc2c1/C(=N/NC(=O)C(c1ccccc1)c1ccccc1)CCC2
REMARK SMILES IDX 10 1 9 2 8 3 7 4 6 5 4 6 5 7 3 8 1 9 2 10 83 11 81 12 82 13
REMARK SMILES IDX 84 14 104 15 85 16 102 17 103 18 86 19 87 20 88 22 89 23
REMARK SMILES IDX 90 24 91 25 95 26 92 27 94 28 93 29 96 30 97 31 101 32 98 33
REMARK SMILES IDX 100 34 99 35 11 36 12 37 13 38 14 39 15 40 16 41 17 42 18 43
REMARK SMILES IDX 19 44 80 45 20 46 79 47 21 48 22 49 23 50 73 51 24 52 78 53
REMARK SMILES IDX 72 54 74 55 25 56 77 57 71 58 70 59 26 61 58 62 38 63 57 64
REMARK SMILES IDX 39 65 42 66 56 67 75 68 40 69 41 70 55 72 76 73 43 74 27 75
REMARK SMILES IDX 28 76 36 77 29 78 31 79 37 80 30 81 32 82 33 83 34 84 35 85
REMARK SMILES IDX 59 86 60 87 68 88 61 89 63 90 69 91 62 92 64 93 65 94 66 95
REMARK SMILES IDX 67 96 44 97 45 98 53 99 46 100 48 101 54 102 47 103 49 104
REMARK SMILES IDX 50 105 51 106 52 107
REMARK H PARENT 86 21 74 60 42 71
REMARK Flexibility Score: inf
ROOT
ATOM      1  C   UNL A   1      44.570  40.245  26.192  1.00  0.00     0.188 C 
ENDROOT
BRANCH   1   2
ATOM      2  O   UNL A   1      44.334  40.940  24.974  1.00  0.00    -0.376 OA
BRANCH   2   3
ATOM      3  C   UNL A   1      43.236  41.822  24.839  1.00  0.00     0.202 C 
BRANCH   3   4
ATOM      4  C   UNL A   1      43.312  42.903  23.751  1.00  0.00     0.261 C 
BRANCH   4   5
ATOM      5  O   UNL A   1      44.202  42.623  22.668  1.00  0.00    -0.457 OA
BRANCH   5   6
ATOM      6  C   UNL A   1      43.663  42.426  21.430  1.00  0.00     0.374 C 
ATOM      7  O   UNL A   1      42.953  41.478  21.107  1.00  0.00    -0.242 OA
BRANCH   6   8
ATOM      8  C   UNL A   1      43.982  43.580  20.613  1.00  0.00     0.215 A 
ATOM      9  C   UNL A   1      46.558  43.616  20.422  1.00  0.00     0.049 C 
ATOM     10  C   UNL A   1      45.187  44.133  20.160  1.00  0.00     0.012 A 
ATOM     11  C   UNL A   1      44.817  45.145  19.213  1.00  0.00     0.043 A 
ATOM     12  O   UNL A   1      42.927  44.202  20.001  1.00  0.00    -0.453 OA
ATOM     13  C   UNL A   1      43.446  45.076  19.131  1.00  0.00     0.114 A 
ATOM     14  C   UNL A   1      45.526  46.010  18.278  1.00  0.00     0.072 C 
ATOM     15  C   UNL A   1      42.559  45.686  18.126  1.00  0.00     0.076 C 
ATOM     16  N   UNL A   1      46.720  46.414  18.592  1.00  0.00    -0.177 NA
ATOM     17  C   UNL A   1      44.754  46.365  17.026  1.00  0.00     0.059 C 
ATOM     18  C   UNL A   1      43.359  45.761  16.822  1.00  0.00     0.014 C 
BRANCH  16  19
ATOM     19  N   UNL A   1      47.542  47.178  17.790  1.00  0.00    -0.246 N 
ATOM     20  C   UNL A   1      48.233  48.364  17.963  1.00  0.00     0.252 C 
ATOM     21  H   UNL A   1      47.665  46.793  16.893  1.00  0.00     0.193 HD
ATOM     22  O   UNL A   1      49.257  48.499  17.267  1.00  0.00    -0.272 OA
BRANCH  20  23
ATOM     23  C   UNL A   1      47.800  49.565  18.871  1.00  0.00     0.140 C 
BRANCH  23  24
ATOM     24  C   UNL A   1      46.260  49.779  18.704  1.00  0.00    -0.031 A 
ATOM     25  C   UNL A   1      45.301  49.556  19.702  1.00  0.00     0.005 A 
ATOM     26  C   UNL A   1      45.750  50.167  17.437  1.00  0.00     0.005 A 
ATOM     27  C   UNL A   1      43.938  49.426  19.378  1.00  0.00     0.000 A 
ATOM     28  C   UNL A   1      44.394  50.058  17.116  1.00  0.00     0.000 A 
ATOM     29  C   UNL A   1      43.493  49.626  18.075  1.00  0.00     0.000 A 
ENDBRANCH  23  24
BRANCH  23  30
ATOM     30  C   UNL A   1      48.545  49.438  20.227  1.00  0.00    -0.031 A 
ATOM     31  C   UNL A   1      49.623  50.329  20.456  1.00  0.00     0.005 A 
ATOM     32  C   UNL A   1      48.307  48.491  21.230  1.00  0.00     0.005 A 
ATOM     33  C   UNL A   1      50.534  50.138  21.497  1.00  0.00     0.000 A 
ATOM     34  C   UNL A   1      49.206  48.312  22.292  1.00  0.00     0.000 A 
ATOM     35  C   UNL A   1      50.343  49.102  22.397  1.00  0.00     0.000 A 
ENDBRANCH  23  30
ENDBRANCH  20  23
ENDBRANCH  16  19
ENDBRANCH   6   8
ENDBRANCH   5   6
ENDBRANCH   4   5
ENDBRANCH   3   4
ENDBRANCH   2   3
ENDBRANCH   1   2
BRANCH   1  36
ATOM     36  C   UNL A   1      43.558  39.253  26.816  1.00  0.00     0.188 C 
BRANCH  36  37
ATOM     37  O   UNL A   1      43.467  39.278  28.233  1.00  0.00    -0.376 OA
BRANCH  37  38
ATOM     38  C   UNL A   1      44.632  39.699  28.931  1.00  0.00     0.202 C 
BRANCH  38  39
ATOM     39  C   UNL A   1      44.522  39.705  30.451  1.00  0.00     0.261 C 
BRANCH  39  40
ATOM     40  O   UNL A   1      44.504  38.415  31.041  1.00  0.00    -0.460 OA
BRANCH  40  41
ATOM     41  C   UNL A   1      45.649  37.708  30.978  1.00  0.00     0.338 C 
ATOM     42  O   UNL A   1      46.784  38.149  31.002  1.00  0.00    -0.246 OA
BRANCH  41  43
ATOM     43  C   UNL A   1      45.291  36.295  30.792  1.00  0.00     0.060 A 
ATOM     44  C   UNL A   1      44.702  35.932  29.580  1.00  0.00     0.016 A 
ATOM     45  C   UNL A   1      45.329  35.418  31.890  1.00  0.00     0.016 A 
ATOM     46  C   UNL A   1      43.958  34.774  29.541  1.00  0.00     0.010 A 
ATOM     47  C   UNL A   1      44.575  34.272  31.855  1.00  0.00     0.010 A 
ATOM     48  C   UNL A   1      43.823  34.022  30.712  1.00  0.00    -0.014 A 
BRANCH  48  49
ATOM     49  C   UNL A   1      42.815  32.985  30.731  1.00  0.00     0.031 A 
ATOM     50  C   UNL A   1      41.489  33.444  31.170  1.00  0.00     0.074 A 
ATOM     51  C   UNL A   1      43.091  31.737  30.304  1.00  0.00     0.049 A 
ATOM     52  N   UNL A   1      40.872  33.143  32.263  1.00  0.00    -0.248 NA
ATOM     53  C   UNL A   1      40.830  34.481  30.362  1.00  0.00     0.031 C 
ATOM     54  C   UNL A   1      44.287  31.326  29.556  1.00  0.00     0.029 A 
ATOM     55  N   UNL A   1      42.317  30.614  30.303  1.00  0.00    -0.354 N 
ATOM     56  C   UNL A   1      39.619  33.727  32.123  1.00  0.00     0.074 A 
ATOM     57  C   UNL A   1      39.738  34.720  31.088  1.00  0.00     0.031 C 
ATOM     58  C   UNL A   1      44.046  30.138  28.962  1.00  0.00     0.029 A 
ATOM     59  C   UNL A   1      42.753  29.649  29.404  1.00  0.00     0.049 A 
ATOM     60  H   UNL A   1      41.528  30.500  30.882  1.00  0.00     0.167 HD
ATOM     61  C   UNL A   1      38.514  33.090  32.591  1.00  0.00     0.034 A 
ATOM     62  C   UNL A   1      42.068  28.561  28.984  1.00  0.00     0.034 A 
ATOM     63  C   UNL A   1      38.851  32.039  33.514  1.00  0.00     0.049 A 
ATOM     64  C   UNL A   1      41.027  28.245  29.985  1.00  0.00     0.074 A 
ATOM     65  C   UNL A   1      39.219  31.924  34.835  1.00  0.00     0.029 A 
ATOM     66  N   UNL A   1      39.107  30.840  32.908  1.00  0.00    -0.354 N 
ATOM     67  N   UNL A   1      41.291  27.844  31.199  1.00  0.00    -0.248 NA
ATOM     68  C   UNL A   1      39.646  28.653  29.746  1.00  0.00     0.031 C 
ATOM     69  C   UNL A   1      39.791  30.626  34.981  1.00  0.00     0.029 A 
ATOM     70  C   UNL A   1      39.763  29.981  33.747  1.00  0.00     0.049 A 
ATOM     71  H   UNL A   1      38.852  30.622  31.982  1.00  0.00     0.167 HD
ATOM     72  C   UNL A   1      40.252  28.358  31.952  1.00  0.00     0.074 A 
ATOM     73  C   UNL A   1      39.194  28.667  31.002  1.00  0.00     0.031 C 
ATOM     74  C   UNL A   1      40.460  28.829  33.214  1.00  0.00     0.034 A 
BRANCH  61  75
ATOM     75  C   UNL A   1      37.179  33.056  31.875  1.00  0.00     0.023 A 
ATOM     76  C   UNL A   1      36.024  33.111  32.685  1.00  0.00     0.012 A 
ATOM     77  C   UNL A   1      36.992  32.672  30.526  1.00  0.00     0.148 A 
ATOM     78  C   UNL A   1      34.762  32.765  32.193  1.00  0.00     0.002 A 
ATOM     79  C   UNL A   1      35.726  32.409  30.020  1.00  0.00     0.091 A 
ATOM     80  F   UNL A   1      38.045  32.407  29.747  1.00  0.00    -0.205 F 
ATOM     81  C   UNL A   1      34.609  32.424  30.855  1.00  0.00     0.022 A 
BRANCH  79  82
ATOM     82  S   UNL A   1      35.484  32.003  28.286  1.00  0.00     0.127 S 
ATOM     83  O   UNL A   1      36.275  30.783  28.159  1.00  0.00    -0.237 OA
ATOM     84  O   UNL A   1      34.035  31.814  28.220  1.00  0.00    -0.237 OA
ATOM     85  O   UNL A   1      35.964  33.166  27.550  1.00  0.00    -0.744 OA
ENDBRANCH  79  82
ENDBRANCH  61  75
BRANCH  62  86
ATOM     86  C   UNL A   1      42.136  27.881  27.674  1.00  0.00     0.023 A 
ATOM     87  C   UNL A   1      41.844  28.598  26.499  1.00  0.00     0.012 A 
ATOM     88  C   UNL A   1      42.724  26.601  27.551  1.00  0.00     0.148 A 
ATOM     89  C   UNL A   1      42.157  28.071  25.241  1.00  0.00     0.002 A 
ATOM     90  C   UNL A   1      43.019  26.075  26.299  1.00  0.00     0.091 A 
ATOM     91  F   UNL A   1      43.068  25.939  28.664  1.00  0.00    -0.205 F 
ATOM     92  C   UNL A   1      42.750  26.815  25.141  1.00  0.00     0.022 A 
BRANCH  90  93
ATOM     93  S   UNL A   1      43.786  24.462  26.088  1.00  0.00     0.127 S 
ATOM     94  O   UNL A   1      42.765  23.570  26.638  1.00  0.00    -0.237 OA
ATOM     95  O   UNL A   1      43.943  24.390  24.638  1.00  0.00    -0.237 OA
ATOM     96  O   UNL A   1      45.022  24.504  26.859  1.00  0.00    -0.744 OA
ENDBRANCH  90  93
ENDBRANCH  62  86
BRANCH  74  97
ATOM     97  C   UNL A   1      41.616  28.281  33.993  1.00  0.00     0.023 A 
ATOM     98  C   UNL A   1      41.551  27.059  34.689  1.00  0.00     0.012 A 
ATOM     99  C   UNL A   1      42.838  28.975  33.944  1.00  0.00     0.148 A 
ATOM    100  C   UNL A   1      42.679  26.549  35.337  1.00  0.00     0.002 A 
ATOM    101  C   UNL A   1      43.967  28.444  34.551  1.00  0.00     0.091 A 
ATOM    102  F   UNL A   1      42.878  30.145  33.288  1.00  0.00    -0.205 F 
ATOM    103  C   UNL A   1      43.890  27.234  35.257  1.00  0.00     0.022 A 
BRANCH 101 104
ATOM    104  S   UNL A   1      45.574  29.223  34.378  1.00  0.00     0.127 S 
ATOM    105  O   UNL A   1      46.476  28.178  34.855  1.00  0.00    -0.237 OA
ATOM    106  O   UNL A   1      45.648  29.483  32.938  1.00  0.00    -0.237 OA
ATOM    107  O   UNL A   1      45.518  30.431  35.193  1.00  0.00    -0.744 OA
ENDBRANCH 101 104
ENDBRANCH  74  97
ENDBRANCH  48  49
ENDBRANCH  41  43
ENDBRANCH  40  41
ENDBRANCH  39  40
ENDBRANCH  38  39
ENDBRANCH  37  38
ENDBRANCH  36  37
ENDBRANCH   1  36
TORSDOF 24
ENDMDL
