MODEL 1
REMARK VINA RESULT:     -12.1      0.000      0.000
REMARK SMILES CC[C@@H](C)[C@@H](NC(=O)Cn1nc(-c2ccc3ccccc3c2)ccc1=O)C(=O)OCCOCCOCCOC(=O)c1ccc(-c2c3nc(c(-c4cccc(S(=O)(=O)[O-])c4F)c4ccc([nH]4)c(-c4cccc(S(=O)(=O)[O-])c4F)c4nc(c(-c5cccc(S(=O)(=O)[O-])c5F)c5ccc2[nH]5)C=C4)C=C3)cc1
REMARK SMILES IDX 33 1 32 2 31 3 30 4 29 5 27 6 28 7 5 8 3 9 4 10 2 11 1 12
REMARK SMILES IDX 6 13 7 14 8 16 9 17 10 18 11 19 25 20 12 21 24 22 26 23
REMARK SMILES IDX 23 24 13 25 14 26 22 27 15 28 21 29 16 30 20 31 17 32 19 33
REMARK SMILES IDX 18 34 34 35 35 36 36 37 37 38 38 39 39 40 40 41 41 42 42 43
REMARK SMILES IDX 103 44 43 45 102 46 44 47 45 48 46 49 96 50 47 51 101 52
REMARK SMILES IDX 95 53 97 54 48 55 100 56 94 57 93 58 49 60 81 61 61 62 80 63
REMARK SMILES IDX 62 64 65 65 79 66 98 67 63 68 64 69 78 71 99 72 66 73 50 74
REMARK SMILES IDX 51 75 59 76 52 77 54 78 60 79 53 80 55 81 56 82 57 83 58 84
REMARK SMILES IDX 82 85 83 86 91 87 84 88 86 89 92 90 85 91 87 92 88 93 89 94
REMARK SMILES IDX 90 95 67 96 68 97 76 98 69 99 71 100 77 101 70 102 72 103
REMARK SMILES IDX 73 104 74 105 75 106
REMARK H PARENT 6 15 97 59 65 70
REMARK Flexibility Score: inf
ROOT
ATOM      1  C   UNL A   1      39.721  21.873  26.483  1.00  0.00     0.188 C 
ENDROOT
BRANCH   1   2
ATOM      2  O   UNL A   1      38.775  21.303  25.449  1.00  0.00    -0.376 OA
BRANCH   2   3
ATOM      3  C   UNL A   1      37.425  21.678  25.006  1.00  0.00     0.202 C 
BRANCH   3   4
ATOM      4  C   UNL A   1      36.479  22.515  25.868  1.00  0.00     0.261 C 
BRANCH   4   5
ATOM      5  O   UNL A   1      36.311  23.845  25.411  1.00  0.00    -0.462 OA
BRANCH   5   6
ATOM      6  C   UNL A   1      35.046  24.290  25.257  1.00  0.00     0.328 C 
ATOM      7  O   UNL A   1      34.670  25.408  25.574  1.00  0.00    -0.250 OA
BRANCH   6   8
ATOM      8  C   UNL A   1      34.194  23.191  24.564  1.00  0.00     0.195 C 
BRANCH   8   9
ATOM      9  C   UNL A   1      32.763  22.874  25.144  1.00  0.00     0.019 C 
ATOM     10  C   UNL A   1      32.432  23.517  26.507  1.00  0.00     0.010 C 
BRANCH   9  11
ATOM     11  C   UNL A   1      32.449  21.369  25.241  1.00  0.00     0.002 C 
ATOM     12  C   UNL A   1      33.568  20.523  24.625  1.00  0.00     0.004 C 
ENDBRANCH   9  11
ENDBRANCH   8   9
BRANCH   8  13
ATOM     13  N   UNL A   1      34.115  23.339  23.067  1.00  0.00    -0.341 N 
ATOM     14  C   UNL A   1      33.306  23.988  22.171  1.00  0.00     0.242 C 
ATOM     15  H   UNL A   1      34.831  22.838  22.614  1.00  0.00     0.164 HD
ATOM     16  O   UNL A   1      33.105  23.334  21.133  1.00  0.00    -0.273 OA
BRANCH  14  17
ATOM     17  C   UNL A   1      32.791  25.482  22.242  1.00  0.00     0.248 C 
BRANCH  17  18
ATOM     18  N   UNL A   1      32.117  26.172  23.385  1.00  0.00    -0.220 N 
ATOM     19  N   UNL A   1      32.646  27.392  23.928  1.00  0.00    -0.169 NA
ATOM     20  C   UNL A   1      30.954  25.565  23.827  1.00  0.00     0.267 A 
ATOM     21  C   UNL A   1      32.391  28.064  25.100  1.00  0.00     0.091 A 
ATOM     22  C   UNL A   1      30.440  26.132  25.054  1.00  0.00     0.075 A 
ATOM     23  O   UNL A   1      30.396  24.607  23.357  1.00  0.00    -0.268 OA
ATOM     24  C   UNL A   1      31.056  27.145  25.653  1.00  0.00     0.036 A 
BRANCH  21  25
ATOM     25  C   UNL A   1      33.634  29.259  26.172  1.00  0.00     0.003 A 
ATOM     26  C   UNL A   1      33.353  30.529  26.958  1.00  0.00     0.011 A 
ATOM     27  C   UNL A   1      34.956  29.013  26.816  1.00  0.00     0.019 A 
ATOM     28  C   UNL A   1      34.048  31.328  27.922  1.00  0.00     0.009 A 
ATOM     29  C   UNL A   1      35.785  29.801  27.776  1.00  0.00    -0.018 A 
ATOM     30  C   UNL A   1      35.303  30.994  28.297  1.00  0.00    -0.018 A 
ATOM     31  C   UNL A   1      37.065  29.426  28.239  1.00  0.00     0.009 A 
ATOM     32  C   UNL A   1      36.032  31.828  29.160  1.00  0.00     0.009 A 
ATOM     33  C   UNL A   1      37.830  30.260  29.074  1.00  0.00     0.001 A 
ATOM     34  C   UNL A   1      37.321  31.474  29.519  1.00  0.00     0.001 A 
ENDBRANCH  21  25
ENDBRANCH  17  18
ENDBRANCH  14  17
ENDBRANCH   8  13
ENDBRANCH   6   8
ENDBRANCH   5   6
ENDBRANCH   4   5
ENDBRANCH   3   4
ENDBRANCH   2   3
ENDBRANCH   1   2
BRANCH   1  35
ATOM     35  C   UNL A   1      41.522  22.532  26.342  1.00  0.00     0.188 C 
BRANCH  35  36
ATOM     36  O   UNL A   1      42.831  21.966  25.254  1.00  0.00    -0.376 OA
BRANCH  36  37
ATOM     37  C   UNL A   1      44.024  22.882  24.241  1.00  0.00     0.202 C 
BRANCH  37  38
ATOM     38  C   UNL A   1      45.403  24.088  24.829  1.00  0.00     0.261 C 
BRANCH  38  39
ATOM     39  O   UNL A   1      45.084  25.499  25.750  1.00  0.00    -0.460 OA
BRANCH  39  40
ATOM     40  C   UNL A   1      44.012  26.433  25.740  1.00  0.00     0.338 C 
ATOM     41  O   UNL A   1      43.037  26.191  25.023  1.00  0.00    -0.246 OA
BRANCH  40  42
ATOM     42  C   UNL A   1      43.909  27.777  26.687  1.00  0.00     0.060 A 
ATOM     43  C   UNL A   1      42.936  28.743  26.339  1.00  0.00     0.016 A 
ATOM     44  C   UNL A   1      44.558  28.145  27.886  1.00  0.00     0.016 A 
ATOM     45  C   UNL A   1      42.737  29.995  27.037  1.00  0.00     0.010 A 
ATOM     46  C   UNL A   1      44.365  29.390  28.604  1.00  0.00     0.010 A 
ATOM     47  C   UNL A   1      43.487  30.375  28.158  1.00  0.00    -0.014 A 
BRANCH  47  48
ATOM     48  C   UNL A   1      43.433  31.796  28.710  1.00  0.00     0.031 A 
ATOM     49  C   UNL A   1      42.502  32.112  29.875  1.00  0.00     0.074 A 
ATOM     50  C   UNL A   1      44.246  32.800  28.290  1.00  0.00     0.049 A 
ATOM     51  N   UNL A   1      42.539  33.113  30.725  1.00  0.00    -0.248 NA
ATOM     52  C   UNL A   1      41.392  31.179  30.121  1.00  0.00     0.031 C 
ATOM     53  C   UNL A   1      45.114  32.751  27.116  1.00  0.00     0.029 A 
ATOM     54  N   UNL A   1      44.490  34.062  28.814  1.00  0.00    -0.354 N 
ATOM     55  C   UNL A   1      41.493  32.899  31.623  1.00  0.00     0.074 A 
ATOM     56  C   UNL A   1      40.802  31.710  31.183  1.00  0.00     0.031 C 
ATOM     57  C   UNL A   1      45.821  33.896  27.032  1.00  0.00     0.029 A 
ATOM     58  C   UNL A   1      45.483  34.767  28.159  1.00  0.00     0.049 A 
ATOM     59  H   UNL A   1      43.999  34.425  29.587  1.00  0.00     0.167 HD
ATOM     60  C   UNL A   1      41.157  33.591  32.740  1.00  0.00     0.034 A 
ATOM     61  C   UNL A   1      46.089  35.947  28.442  1.00  0.00     0.034 A 
ATOM     62  C   UNL A   1      41.826  34.779  33.193  1.00  0.00     0.049 A 
ATOM     63  C   UNL A   1      45.735  36.693  29.708  1.00  0.00     0.074 A 
ATOM     64  C   UNL A   1      41.597  35.507  34.347  1.00  0.00     0.029 A 
ATOM     65  N   UNL A   1      42.836  35.425  32.503  1.00  0.00    -0.354 N 
ATOM     66  N   UNL A   1      44.875  36.360  30.640  1.00  0.00    -0.248 NA
ATOM     67  C   UNL A   1      46.457  37.949  29.987  1.00  0.00     0.031 C 
ATOM     68  C   UNL A   1      42.455  36.609  34.344  1.00  0.00     0.029 A 
ATOM     69  C   UNL A   1      43.234  36.550  33.199  1.00  0.00     0.049 A 
ATOM     70  H   UNL A   1      43.215  35.127  31.644  1.00  0.00     0.167 HD
ATOM     71  C   UNL A   1      44.963  37.348  31.617  1.00  0.00     0.074 A 
ATOM     72  C   UNL A   1      45.970  38.288  31.176  1.00  0.00     0.031 C 
ATOM     73  C   UNL A   1      44.261  37.463  32.770  1.00  0.00     0.034 A 
BRANCH  60  74
ATOM     74  C   UNL A   1      40.057  33.043  33.614  1.00  0.00     0.023 A 
ATOM     75  C   UNL A   1      40.385  32.091  34.601  1.00  0.00     0.012 A 
ATOM     76  C   UNL A   1      38.742  33.542  33.543  1.00  0.00     0.148 A 
ATOM     77  C   UNL A   1      39.419  31.633  35.498  1.00  0.00     0.002 A 
ATOM     78  C   UNL A   1      37.790  33.101  34.457  1.00  0.00     0.091 A 
ATOM     79  F   UNL A   1      38.453  34.446  32.596  1.00  0.00    -0.205 F 
ATOM     80  C   UNL A   1      38.126  32.144  35.431  1.00  0.00     0.022 A 
BRANCH  78  81
ATOM     81  S   UNL A   1      36.104  33.720  34.490  1.00  0.00     0.127 S 
ATOM     82  O   UNL A   1      35.399  32.702  33.711  1.00  0.00    -0.237 OA
ATOM     83  O   UNL A   1      35.803  33.710  35.921  1.00  0.00    -0.237 OA
ATOM     84  O   UNL A   1      36.145  35.041  33.878  1.00  0.00    -0.744 OA
ENDBRANCH  78  81
ENDBRANCH  60  74
BRANCH  61  85
ATOM     85  C   UNL A   1      47.176  36.460  27.545  1.00  0.00     0.023 A 
ATOM     86  C   UNL A   1      46.860  37.305  26.462  1.00  0.00     0.012 A 
ATOM     87  C   UNL A   1      48.529  36.157  27.800  1.00  0.00     0.148 A 
ATOM     88  C   UNL A   1      47.870  37.849  25.661  1.00  0.00     0.002 A 
ATOM     89  C   UNL A   1      49.532  36.733  27.023  1.00  0.00     0.091 A 
ATOM     90  F   UNL A   1      48.809  35.324  28.811  1.00  0.00    -0.205 F 
ATOM     91  C   UNL A   1      49.204  37.577  25.951  1.00  0.00     0.022 A 
BRANCH  89  92
ATOM     92  S   UNL A   1      51.281  36.518  27.379  1.00  0.00     0.127 S 
ATOM     93  O   UNL A   1      51.379  37.045  28.738  1.00  0.00    -0.237 OA
ATOM     94  O   UNL A   1      51.431  35.066  27.269  1.00  0.00    -0.237 OA
ATOM     95  O   UNL A   1      51.989  37.280  26.361  1.00  0.00    -0.744 OA
ENDBRANCH  89  92
ENDBRANCH  61  85
BRANCH  73  96
ATOM     96  C   UNL A   1      44.527  38.642  33.665  1.00  0.00     0.023 A 
ATOM     97  C   UNL A   1      45.612  38.598  34.561  1.00  0.00     0.012 A 
ATOM     98  C   UNL A   1      43.814  39.846  33.493  1.00  0.00     0.148 A 
ATOM     99  C   UNL A   1      45.983  39.736  35.276  1.00  0.00     0.002 A 
ATOM    100  C   UNL A   1      44.211  40.984  34.183  1.00  0.00     0.091 A 
ATOM    101  F   UNL A   1      42.787  39.860  32.631  1.00  0.00    -0.205 F 
ATOM    102  C   UNL A   1      45.293  40.930  35.077  1.00  0.00     0.022 A 
BRANCH 100 103
ATOM    103  S   UNL A   1      43.435  42.586  33.940  1.00  0.00     0.127 S 
ATOM    104  O   UNL A   1      44.153  43.414  34.908  1.00  0.00    -0.237 OA
ATOM    105  O   UNL A   1      43.749  42.871  32.540  1.00  0.00    -0.237 OA
ATOM    106  O   UNL A   1      42.018  42.398  34.220  1.00  0.00    -0.744 OA
ENDBRANCH 100 103
ENDBRANCH  73  96
ENDBRANCH  47  48
ENDBRANCH  40  42
ENDBRANCH  39  40
ENDBRANCH  38  39
ENDBRANCH  37  38
ENDBRANCH  36  37
ENDBRANCH  35  36
ENDBRANCH   1  35
TORSDOF 26
ENDMDL
MODEL 2
REMARK VINA RESULT:     -11.5      4.530      9.465
REMARK SMILES CC[C@@H](C)[C@@H](NC(=O)Cn1nc(-c2ccc3ccccc3c2)ccc1=O)C(=O)OCCOCCOCCOC(=O)c1ccc(-c2c3nc(c(-c4cccc(S(=O)(=O)[O-])c4F)c4ccc([nH]4)c(-c4cccc(S(=O)(=O)[O-])c4F)c4nc(c(-c5cccc(S(=O)(=O)[O-])c5F)c5ccc2[nH]5)C=C4)C=C3)cc1
REMARK SMILES IDX 33 1 32 2 31 3 30 4 29 5 27 6 28 7 5 8 3 9 4 10 2 11 1 12
REMARK SMILES IDX 6 13 7 14 8 16 9 17 10 18 11 19 25 20 12 21 24 22 26 23
REMARK SMILES IDX 23 24 13 25 14 26 22 27 15 28 21 29 16 30 20 31 17 32 19 33
REMARK SMILES IDX 18 34 34 35 35 36 36 37 37 38 38 39 39 40 40 41 41 42 42 43
REMARK SMILES IDX 103 44 43 45 102 46 44 47 45 48 46 49 96 50 47 51 101 52
REMARK SMILES IDX 95 53 97 54 48 55 100 56 94 57 93 58 49 60 81 61 61 62 80 63
REMARK SMILES IDX 62 64 65 65 79 66 98 67 63 68 64 69 78 71 99 72 66 73 50 74
REMARK SMILES IDX 51 75 59 76 52 77 54 78 60 79 53 80 55 81 56 82 57 83 58 84
REMARK SMILES IDX 82 85 83 86 91 87 84 88 86 89 92 90 85 91 87 92 88 93 89 94
REMARK SMILES IDX 90 95 67 96 68 97 76 98 69 99 71 100 77 101 70 102 72 103
REMARK SMILES IDX 73 104 74 105 75 106
REMARK H PARENT 6 15 97 59 65 70
REMARK Flexibility Score: inf
ROOT
ATOM      1  C   UNL A   1      40.216  21.528  26.662  1.00  0.00     0.188 C 
ENDROOT
BRANCH   1   2
ATOM      2  O   UNL A   1      39.434  22.805  26.442  1.00  0.00    -0.376 OA
BRANCH   2   3
ATOM      3  C   UNL A   1      39.192  23.991  27.275  1.00  0.00     0.202 C 
BRANCH   3   4
ATOM      4  C   UNL A   1      39.759  25.369  26.931  1.00  0.00     0.261 C 
BRANCH   4   5
ATOM      5  O   UNL A   1      39.526  26.351  27.924  1.00  0.00    -0.462 OA
BRANCH   5   6
ATOM      6  C   UNL A   1      40.560  26.669  28.733  1.00  0.00     0.328 C 
ATOM      7  O   UNL A   1      41.580  26.004  28.832  1.00  0.00    -0.250 OA
BRANCH   6   8
ATOM      8  C   UNL A   1      40.266  28.022  29.438  1.00  0.00     0.195 C 
BRANCH   8   9
ATOM      9  C   UNL A   1      40.707  29.353  28.720  1.00  0.00     0.019 C 
ATOM     10  C   UNL A   1      41.632  29.183  27.497  1.00  0.00     0.010 C 
BRANCH   9  11
ATOM     11  C   UNL A   1      41.354  30.386  29.664  1.00  0.00     0.002 C 
ATOM     12  C   UNL A   1      41.264  29.940  31.127  1.00  0.00     0.004 C 
ENDBRANCH   9  11
ENDBRANCH   8   9
BRANCH   8  13
ATOM     13  N   UNL A   1      38.849  28.154  29.930  1.00  0.00    -0.341 N 
ATOM     14  C   UNL A   1      37.821  29.049  29.781  1.00  0.00     0.242 C 
ATOM     15  H   UNL A   1      38.593  27.401  30.511  1.00  0.00     0.164 HD
ATOM     16  O   UNL A   1      37.158  29.207  30.820  1.00  0.00    -0.273 OA
BRANCH  14  17
ATOM     17  C   UNL A   1      37.309  29.716  28.441  1.00  0.00     0.248 C 
BRANCH  17  18
ATOM     18  N   UNL A   1      35.901  29.831  27.947  1.00  0.00    -0.220 N 
ATOM     19  N   UNL A   1      35.213  28.694  27.405  1.00  0.00    -0.169 NA
ATOM     20  C   UNL A   1      35.334  31.086  28.094  1.00  0.00     0.267 A 
ATOM     21  C   UNL A   1      34.060  28.583  26.663  1.00  0.00     0.091 A 
ATOM     22  C   UNL A   1      34.058  31.221  27.427  1.00  0.00     0.075 A 
ATOM     23  O   UNL A   1      35.809  32.053  28.631  1.00  0.00    -0.268 OA
ATOM     24  C   UNL A   1      33.521  30.206  26.760  1.00  0.00     0.036 A 
BRANCH  21  25
ATOM     25  C   UNL A   1      33.562  27.164  25.299  1.00  0.00     0.003 A 
ATOM     26  C   UNL A   1      33.556  27.209  23.780  1.00  0.00     0.011 A 
ATOM     27  C   UNL A   1      33.505  25.677  25.373  1.00  0.00     0.019 A 
ATOM     28  C   UNL A   1      33.458  26.259  22.714  1.00  0.00     0.009 A 
ATOM     29  C   UNL A   1      33.347  24.610  24.339  1.00  0.00    -0.018 A 
ATOM     30  C   UNL A   1      33.296  24.946  22.993  1.00  0.00    -0.018 A 
ATOM     31  C   UNL A   1      33.255  23.227  24.609  1.00  0.00     0.009 A 
ATOM     32  C   UNL A   1      33.093  24.020  21.958  1.00  0.00     0.009 A 
ATOM     33  C   UNL A   1      33.016  22.283  23.594  1.00  0.00     0.001 A 
ATOM     34  C   UNL A   1      32.914  22.683  22.268  1.00  0.00     0.001 A 
ENDBRANCH  21  25
ENDBRANCH  17  18
ENDBRANCH  14  17
ENDBRANCH   8  13
ENDBRANCH   6   8
ENDBRANCH   5   6
ENDBRANCH   4   5
ENDBRANCH   3   4
ENDBRANCH   2   3
ENDBRANCH   1   2
BRANCH   1  35
ATOM     35  C   UNL A   1      40.186  19.838  25.743  1.00  0.00     0.188 C 
BRANCH  35  36
ATOM     36  O   UNL A   1      41.441  18.557  25.732  1.00  0.00    -0.376 OA
BRANCH  36  37
ATOM     37  C   UNL A   1      43.211  18.613  26.125  1.00  0.00     0.202 C 
BRANCH  37  38
ATOM     38  C   UNL A   1      44.551  19.788  25.402  1.00  0.00     0.261 C 
BRANCH  38  39
ATOM     39  O   UNL A   1      44.365  20.619  23.914  1.00  0.00    -0.460 OA
BRANCH  39  40
ATOM     40  C   UNL A   1      44.328  22.002  23.581  1.00  0.00     0.338 C 
ATOM     41  O   UNL A   1      44.167  22.310  22.398  1.00  0.00    -0.246 OA
BRANCH  40  42
ATOM     42  C   UNL A   1      44.381  23.244  24.661  1.00  0.00     0.060 A 
ATOM     43  C   UNL A   1      45.655  23.644  25.128  1.00  0.00     0.016 A 
ATOM     44  C   UNL A   1      43.381  24.097  25.178  1.00  0.00     0.016 A 
ATOM     45  C   UNL A   1      45.881  24.688  26.105  1.00  0.00     0.010 A 
ATOM     46  C   UNL A   1      43.588  25.153  26.149  1.00  0.00     0.010 A 
ATOM     47  C   UNL A   1      44.845  25.434  26.682  1.00  0.00    -0.014 A 
BRANCH  47  48
ATOM     48  C   UNL A   1      45.088  26.339  27.886  1.00  0.00     0.031 A 
ATOM     49  C   UNL A   1      45.233  27.842  27.675  1.00  0.00     0.074 A 
ATOM     50  C   UNL A   1      45.086  25.902  29.172  1.00  0.00     0.049 A 
ATOM     51  N   UNL A   1      45.089  28.823  28.536  1.00  0.00    -0.248 NA
ATOM     52  C   UNL A   1      45.579  28.300  26.320  1.00  0.00     0.031 C 
ATOM     53  C   UNL A   1      45.089  24.502  29.589  1.00  0.00     0.029 A 
ATOM     54  N   UNL A   1      45.066  26.593  30.375  1.00  0.00    -0.354 N 
ATOM     55  C   UNL A   1      45.278  30.003  27.815  1.00  0.00     0.074 A 
ATOM     56  C   UNL A   1      45.609  29.618  26.464  1.00  0.00     0.031 C 
ATOM     57  C   UNL A   1      45.027  24.434  30.934  1.00  0.00     0.029 A 
ATOM     58  C   UNL A   1      44.956  25.786  31.492  1.00  0.00     0.049 A 
ATOM     59  H   UNL A   1      45.126  27.574  30.429  1.00  0.00     0.167 HD
ATOM     60  C   UNL A   1      45.147  31.292  28.217  1.00  0.00     0.034 A 
ATOM     61  C   UNL A   1      44.775  26.079  32.804  1.00  0.00     0.034 A 
ATOM     62  C   UNL A   1      44.826  31.697  29.557  1.00  0.00     0.049 A 
ATOM     63  C   UNL A   1      44.592  27.515  33.237  1.00  0.00     0.074 A 
ATOM     64  C   UNL A   1      44.607  32.976  30.038  1.00  0.00     0.029 A 
ATOM     65  N   UNL A   1      44.702  30.835  30.631  1.00  0.00    -0.354 N 
ATOM     66  N   UNL A   1      44.582  28.598  32.498  1.00  0.00    -0.248 NA
ATOM     67  C   UNL A   1      44.355  27.774  34.670  1.00  0.00     0.031 C 
ATOM     68  C   UNL A   1      44.373  32.889  31.412  1.00  0.00     0.029 A 
ATOM     69  C   UNL A   1      44.421  31.553  31.779  1.00  0.00     0.049 A 
ATOM     70  H   UNL A   1      44.799  29.856  30.586  1.00  0.00     0.167 HD
ATOM     71  C   UNL A   1      44.323  29.656  33.365  1.00  0.00     0.074 A 
ATOM     72  C   UNL A   1      44.166  29.088  34.686  1.00  0.00     0.031 C 
ATOM     73  C   UNL A   1      44.233  30.978  33.084  1.00  0.00     0.034 A 
BRANCH  60  74
ATOM     74  C   UNL A   1      45.270  32.378  27.178  1.00  0.00     0.023 A 
ATOM     75  C   UNL A   1      44.150  32.679  26.375  1.00  0.00     0.012 A 
ATOM     76  C   UNL A   1      46.430  33.168  27.072  1.00  0.00     0.148 A 
ATOM     77  C   UNL A   1      44.186  33.742  25.473  1.00  0.00     0.002 A 
ATOM     78  C   UNL A   1      46.451  34.243  26.188  1.00  0.00     0.091 A 
ATOM     79  F   UNL A   1      47.483  32.863  27.844  1.00  0.00    -0.205 F 
ATOM     80  C   UNL A   1      45.332  34.529  25.386  1.00  0.00     0.022 A 
BRANCH  78  81
ATOM     81  S   UNL A   1      47.857  35.348  26.023  1.00  0.00     0.127 S 
ATOM     82  O   UNL A   1      48.587  34.734  24.912  1.00  0.00    -0.237 OA
ATOM     83  O   UNL A   1      47.212  36.619  25.700  1.00  0.00    -0.237 OA
ATOM     84  O   UNL A   1      48.552  35.315  27.303  1.00  0.00    -0.744 OA
ENDBRANCH  78  81
ENDBRANCH  60  74
BRANCH  61  85
ATOM     85  C   UNL A   1      44.662  24.970  33.807  1.00  0.00     0.023 A 
ATOM     86  C   UNL A   1      43.393  24.515  34.218  1.00  0.00     0.012 A 
ATOM     87  C   UNL A   1      45.811  24.328  34.311  1.00  0.00     0.148 A 
ATOM     88  C   UNL A   1      43.271  23.434  35.098  1.00  0.00     0.002 A 
ATOM     89  C   UNL A   1      45.683  23.228  35.155  1.00  0.00     0.091 A 
ATOM     90  F   UNL A   1      47.010  24.797  33.937  1.00  0.00    -0.205 F 
ATOM     91  C   UNL A   1      44.413  22.781  35.553  1.00  0.00     0.022 A 
BRANCH  89  92
ATOM     92  S   UNL A   1      47.093  22.264  35.717  1.00  0.00     0.127 S 
ATOM     93  O   UNL A   1      47.423  22.921  36.980  1.00  0.00    -0.237 OA
ATOM     94  O   UNL A   1      46.507  20.930  35.852  1.00  0.00    -0.237 OA
ATOM     95  O   UNL A   1      48.097  22.383  34.670  1.00  0.00    -0.744 OA
ENDBRANCH  89  92
ENDBRANCH  61  85
BRANCH  73  96
ATOM     96  C   UNL A   1      43.957  31.940  34.207  1.00  0.00     0.023 A 
ATOM     97  C   UNL A   1      45.034  32.589  34.841  1.00  0.00     0.012 A 
ATOM     98  C   UNL A   1      42.636  32.326  34.509  1.00  0.00     0.148 A 
ATOM     99  C   UNL A   1      44.799  33.609  35.763  1.00  0.00     0.002 A 
ATOM    100  C   UNL A   1      42.411  33.366  35.403  1.00  0.00     0.091 A 
ATOM    101  F   UNL A   1      41.630  31.694  33.888  1.00  0.00    -0.205 F 
ATOM    102  C   UNL A   1      43.491  34.006  36.033  1.00  0.00     0.022 A 
BRANCH 100 103
ATOM    103  S   UNL A   1      40.768  33.999  35.761  1.00  0.00     0.127 S 
ATOM    104  O   UNL A   1      41.064  35.364  36.194  1.00  0.00    -0.237 OA
ATOM    105  O   UNL A   1      40.110  33.901  34.458  1.00  0.00    -0.237 OA
ATOM    106  O   UNL A   1      40.213  33.132  36.791  1.00  0.00    -0.744 OA
ENDBRANCH 100 103
ENDBRANCH  73  96
ENDBRANCH  47  48
ENDBRANCH  40  42
ENDBRANCH  39  40
ENDBRANCH  38  39
ENDBRANCH  37  38
ENDBRANCH  36  37
ENDBRANCH  35  36
ENDBRANCH   1  35
TORSDOF 26
ENDMDL
MODEL 3
REMARK VINA RESULT:     -11.1      4.434      9.375
REMARK SMILES CC[C@@H](C)[C@@H](NC(=O)Cn1nc(-c2ccc3ccccc3c2)ccc1=O)C(=O)OCCOCCOCCOC(=O)c1ccc(-c2c3nc(c(-c4cccc(S(=O)(=O)[O-])c4F)c4ccc([nH]4)c(-c4cccc(S(=O)(=O)[O-])c4F)c4nc(c(-c5cccc(S(=O)(=O)[O-])c5F)c5ccc2[nH]5)C=C4)C=C3)cc1
REMARK SMILES IDX 33 1 32 2 31 3 30 4 29 5 27 6 28 7 5 8 3 9 4 10 2 11 1 12
REMARK SMILES IDX 6 13 7 14 8 16 9 17 10 18 11 19 25 20 12 21 24 22 26 23
REMARK SMILES IDX 23 24 13 25 14 26 22 27 15 28 21 29 16 30 20 31 17 32 19 33
REMARK SMILES IDX 18 34 34 35 35 36 36 37 37 38 38 39 39 40 40 41 41 42 42 43
REMARK SMILES IDX 103 44 43 45 102 46 44 47 45 48 46 49 96 50 47 51 101 52
REMARK SMILES IDX 95 53 97 54 48 55 100 56 94 57 93 58 49 60 81 61 61 62 80 63
REMARK SMILES IDX 62 64 65 65 79 66 98 67 63 68 64 69 78 71 99 72 66 73 50 74
REMARK SMILES IDX 51 75 59 76 52 77 54 78 60 79 53 80 55 81 56 82 57 83 58 84
REMARK SMILES IDX 82 85 83 86 91 87 84 88 86 89 92 90 85 91 87 92 88 93 89 94
REMARK SMILES IDX 90 95 67 96 68 97 76 98 69 99 71 100 77 101 70 102 72 103
REMARK SMILES IDX 73 104 74 105 75 106
REMARK H PARENT 6 15 97 59 65 70
REMARK Flexibility Score: inf
ROOT
ATOM      1  C   UNL A   1      40.041  21.261  26.763  1.00  0.00     0.188 C 
ENDROOT
BRANCH   1   2
ATOM      2  O   UNL A   1      39.197  22.501  26.557  1.00  0.00    -0.376 OA
BRANCH   2   3
ATOM      3  C   UNL A   1      38.963  23.704  27.369  1.00  0.00     0.202 C 
BRANCH   3   4
ATOM      4  C   UNL A   1      39.624  25.048  27.058  1.00  0.00     0.261 C 
BRANCH   4   5
ATOM      5  O   UNL A   1      39.688  25.927  28.166  1.00  0.00    -0.462 OA
BRANCH   5   6
ATOM      6  C   UNL A   1      40.915  26.250  28.627  1.00  0.00     0.328 C 
ATOM      7  O   UNL A   1      41.940  25.665  28.313  1.00  0.00    -0.250 OA
BRANCH   6   8
ATOM      8  C   UNL A   1      40.809  27.502  29.542  1.00  0.00     0.195 C 
BRANCH   8   9
ATOM      9  C   UNL A   1      41.397  28.866  29.016  1.00  0.00     0.019 C 
ATOM     10  C   UNL A   1      41.156  30.095  29.918  1.00  0.00     0.010 C 
BRANCH   9  11
ATOM     11  C   UNL A   1      40.948  29.231  27.588  1.00  0.00     0.002 C 
ATOM     12  C   UNL A   1      42.049  28.935  26.564  1.00  0.00     0.004 C 
ENDBRANCH   9  11
ENDBRANCH   8   9
BRANCH   8  13
ATOM     13  N   UNL A   1      39.431  27.726  30.106  1.00  0.00    -0.341 N 
ATOM     14  C   UNL A   1      38.408  28.620  29.915  1.00  0.00     0.242 C 
ATOM     15  H   UNL A   1      39.204  27.056  30.791  1.00  0.00     0.164 HD
ATOM     16  O   UNL A   1      37.820  28.919  30.969  1.00  0.00    -0.273 OA
BRANCH  14  17
ATOM     17  C   UNL A   1      37.816  29.130  28.540  1.00  0.00     0.248 C 
BRANCH  17  18
ATOM     18  N   UNL A   1      36.670  30.067  28.320  1.00  0.00    -0.220 N 
ATOM     19  N   UNL A   1      35.413  29.591  27.815  1.00  0.00    -0.169 NA
ATOM     20  C   UNL A   1      36.918  31.382  28.674  1.00  0.00     0.267 A 
ATOM     21  C   UNL A   1      34.326  30.247  27.286  1.00  0.00     0.091 A 
ATOM     22  C   UNL A   1      35.875  32.294  28.262  1.00  0.00     0.075 A 
ATOM     23  O   UNL A   1      37.905  31.833  29.198  1.00  0.00    -0.268 OA
ATOM     24  C   UNL A   1      34.798  31.859  27.618  1.00  0.00     0.036 A 
BRANCH  21  25
ATOM     25  C   UNL A   1      32.984  29.578  25.918  1.00  0.00     0.003 A 
ATOM     26  C   UNL A   1      32.588  28.163  25.528  1.00  0.00     0.011 A 
ATOM     27  C   UNL A   1      31.789  30.211  25.291  1.00  0.00     0.019 A 
ATOM     28  C   UNL A   1      31.535  27.549  24.779  1.00  0.00     0.009 A 
ATOM     29  C   UNL A   1      30.676  29.677  24.450  1.00  0.00    -0.018 A 
ATOM     30  C   UNL A   1      30.594  28.317  24.183  1.00  0.00    -0.018 A 
ATOM     31  C   UNL A   1      29.641  30.455  23.887  1.00  0.00     0.009 A 
ATOM     32  C   UNL A   1      29.618  27.734  23.360  1.00  0.00     0.009 A 
ATOM     33  C   UNL A   1      28.673  29.901  23.029  1.00  0.00     0.001 A 
ATOM     34  C   UNL A   1      28.674  28.541  22.748  1.00  0.00     0.001 A 
ENDBRANCH  21  25
ENDBRANCH  17  18
ENDBRANCH  14  17
ENDBRANCH   8  13
ENDBRANCH   6   8
ENDBRANCH   5   6
ENDBRANCH   4   5
ENDBRANCH   3   4
ENDBRANCH   2   3
ENDBRANCH   1   2
BRANCH   1  35
ATOM     35  C   UNL A   1      40.149  19.613  25.778  1.00  0.00     0.188 C 
BRANCH  35  36
ATOM     36  O   UNL A   1      41.493  18.426  25.742  1.00  0.00    -0.376 OA
BRANCH  36  37
ATOM     37  C   UNL A   1      43.278  18.632  25.993  1.00  0.00     0.202 C 
BRANCH  37  38
ATOM     38  C   UNL A   1      44.356  20.184  25.635  1.00  0.00     0.261 C 
BRANCH  38  39
ATOM     39  O   UNL A   1      44.418  20.949  24.101  1.00  0.00    -0.460 OA
BRANCH  39  40
ATOM     40  C   UNL A   1      44.486  22.315  23.708  1.00  0.00     0.338 C 
ATOM     41  O   UNL A   1      44.397  22.578  22.506  1.00  0.00    -0.246 OA
BRANCH  40  42
ATOM     42  C   UNL A   1      44.572  23.600  24.735  1.00  0.00     0.060 A 
ATOM     43  C   UNL A   1      45.742  23.726  25.519  1.00  0.00     0.016 A 
ATOM     44  C   UNL A   1      43.720  24.707  24.944  1.00  0.00     0.016 A 
ATOM     45  C   UNL A   1      45.966  24.770  26.497  1.00  0.00     0.010 A 
ATOM     46  C   UNL A   1      43.931  25.765  25.912  1.00  0.00     0.010 A 
ATOM     47  C   UNL A   1      45.038  25.787  26.758  1.00  0.00    -0.014 A 
BRANCH  47  48
ATOM     48  C   UNL A   1      45.185  26.712  27.962  1.00  0.00     0.031 A 
ATOM     49  C   UNL A   1      45.359  28.210  27.739  1.00  0.00     0.074 A 
ATOM     50  C   UNL A   1      45.071  26.297  29.250  1.00  0.00     0.049 A 
ATOM     51  N   UNL A   1      45.149  29.207  28.567  1.00  0.00    -0.248 NA
ATOM     52  C   UNL A   1      45.821  28.643  26.411  1.00  0.00     0.031 C 
ATOM     53  C   UNL A   1      45.028  24.905  29.690  1.00  0.00     0.029 A 
ATOM     54  N   UNL A   1      44.954  27.009  30.436  1.00  0.00    -0.354 N 
ATOM     55  C   UNL A   1      45.407  30.373  27.846  1.00  0.00     0.074 A 
ATOM     56  C   UNL A   1      45.848  29.963  26.534  1.00  0.00     0.031 C 
ATOM     57  C   UNL A   1      44.852  24.861  31.026  1.00  0.00     0.029 A 
ATOM     58  C   UNL A   1      44.744  26.223  31.553  1.00  0.00     0.049 A 
ATOM     59  H   UNL A   1      45.016  27.991  30.478  1.00  0.00     0.167 HD
ATOM     60  C   UNL A   1      45.252  31.669  28.213  1.00  0.00     0.034 A 
ATOM     61  C   UNL A   1      44.455  26.540  32.839  1.00  0.00     0.034 A 
ATOM     62  C   UNL A   1      44.822  32.100  29.514  1.00  0.00     0.049 A 
ATOM     63  C   UNL A   1      44.246  27.985  33.232  1.00  0.00     0.074 A 
ATOM     64  C   UNL A   1      44.572  33.389  29.953  1.00  0.00     0.029 A 
ATOM     65  N   UNL A   1      44.600  31.258  30.588  1.00  0.00    -0.354 N 
ATOM     66  N   UNL A   1      44.307  29.054  32.475  1.00  0.00    -0.248 NA
ATOM     67  C   UNL A   1      43.890  28.269  34.635  1.00  0.00     0.031 C 
ATOM     68  C   UNL A   1      44.221  33.327  31.303  1.00  0.00     0.029 A 
ATOM     69  C   UNL A   1      44.229  31.998  31.695  1.00  0.00     0.049 A 
ATOM     70  H   UNL A   1      44.694  30.278  30.568  1.00  0.00     0.167 HD
ATOM     71  C   UNL A   1      43.983  30.128  33.299  1.00  0.00     0.074 A 
ATOM     72  C   UNL A   1      43.711  29.586  34.612  1.00  0.00     0.031 C 
ATOM     73  C   UNL A   1      43.927  31.447  32.990  1.00  0.00     0.034 A 
BRANCH  60  74
ATOM     74  C   UNL A   1      45.470  32.737  27.170  1.00  0.00     0.023 A 
ATOM     75  C   UNL A   1      44.383  33.127  26.361  1.00  0.00     0.012 A 
ATOM     76  C   UNL A   1      46.694  33.425  27.065  1.00  0.00     0.148 A 
ATOM     77  C   UNL A   1      44.513  34.179  25.454  1.00  0.00     0.002 A 
ATOM     78  C   UNL A   1      46.809  34.490  26.178  1.00  0.00     0.091 A 
ATOM     79  F   UNL A   1      47.714  33.036  27.844  1.00  0.00    -0.205 F 
ATOM     80  C   UNL A   1      45.721  34.866  25.369  1.00  0.00     0.022 A 
BRANCH  78  81
ATOM     81  S   UNL A   1      48.304  35.472  26.014  1.00  0.00     0.127 S 
ATOM     82  O   UNL A   1      48.796  35.494  27.392  1.00  0.00    -0.237 OA
ATOM     83  O   UNL A   1      49.102  34.662  25.095  1.00  0.00    -0.237 OA
ATOM     84  O   UNL A   1      47.886  36.766  25.493  1.00  0.00    -0.744 OA
ENDBRANCH  78  81
ENDBRANCH  60  74
BRANCH  61  85
ATOM     85  C   UNL A   1      44.249  25.450  33.848  1.00  0.00     0.023 A 
ATOM     86  C   UNL A   1      42.944  25.060  34.213  1.00  0.00     0.012 A 
ATOM     87  C   UNL A   1      45.345  24.760  34.403  1.00  0.00     0.148 A 
ATOM     88  C   UNL A   1      42.735  23.997  35.098  1.00  0.00     0.002 A 
ATOM     89  C   UNL A   1      45.131  23.677  35.253  1.00  0.00     0.091 A 
ATOM     90  F   UNL A   1      46.579  25.166  34.074  1.00  0.00    -0.205 F 
ATOM     91  C   UNL A   1      43.827  23.296  35.604  1.00  0.00     0.022 A 
BRANCH  89  92
ATOM     92  S   UNL A   1      46.470  22.653  35.880  1.00  0.00     0.127 S 
ATOM     93  O   UNL A   1      45.743  21.507  36.423  1.00  0.00    -0.237 OA
ATOM     94  O   UNL A   1      47.230  22.377  34.660  1.00  0.00    -0.237 OA
ATOM     95  O   UNL A   1      47.170  23.471  36.859  1.00  0.00    -0.744 OA
ENDBRANCH  89  92
ENDBRANCH  61  85
BRANCH  73  96
ATOM     96  C   UNL A   1      43.564  32.430  34.069  1.00  0.00     0.023 A 
ATOM     97  C   UNL A   1      44.588  33.102  34.764  1.00  0.00     0.012 A 
ATOM     98  C   UNL A   1      42.221  32.810  34.267  1.00  0.00     0.148 A 
ATOM     99  C   UNL A   1      44.279  34.139  35.644  1.00  0.00     0.002 A 
ATOM    100  C   UNL A   1      41.925  33.866  35.120  1.00  0.00     0.091 A 
ATOM    101  F   UNL A   1      41.267  32.155  33.590  1.00  0.00    -0.205 F 
ATOM    102  C   UNL A   1      42.952  34.529  35.811  1.00  0.00     0.022 A 
BRANCH 100 103
ATOM    103  S   UNL A   1      40.256  34.492  35.345  1.00  0.00     0.127 S 
ATOM    104  O   UNL A   1      39.563  33.311  35.859  1.00  0.00    -0.237 OA
ATOM    105  O   UNL A   1      40.456  35.558  36.326  1.00  0.00    -0.237 OA
ATOM    106  O   UNL A   1      39.812  34.946  34.034  1.00  0.00    -0.744 OA
ENDBRANCH 100 103
ENDBRANCH  73  96
ENDBRANCH  47  48
ENDBRANCH  40  42
ENDBRANCH  39  40
ENDBRANCH  38  39
ENDBRANCH  37  38
ENDBRANCH  36  37
ENDBRANCH  35  36
ENDBRANCH   1  35
TORSDOF 26
ENDMDL
