MODEL 1
REMARK VINA RESULT:     -11.1      0.000      0.000
REMARK SMILES O=C(OCCOCCOCCOC(=O)c1ccc2c(c1)[C@@H]1C=CC[C@@H]1[C@H](c1ccncc1)N2)c1ccc(-c2c3nc(c(-c4cccc(S(=O)(=O)[O-])c4F)c4ccc([nH]4)c(-c4cccc(S(=O)(=O)[O-])c4F)c4nc(c(-c5cccc(S(=O)(=O)[O-])c5F)c5ccc2[nH]5)C=C4)C=C3)cc1
REMARK SMILES IDX 7 1 6 2 5 3 4 4 3 5 2 6 1 7 34 8 35 9 96 10 36 11 95 12
REMARK SMILES IDX 37 13 38 14 39 15 89 16 40 17 94 18 88 19 90 20 41 21 93 22
REMARK SMILES IDX 87 23 86 24 42 26 74 27 54 28 73 29 55 30 58 31 72 32 91 33
REMARK SMILES IDX 56 34 57 35 71 37 92 38 59 39 43 40 44 41 52 42 45 43 47 44
REMARK SMILES IDX 53 45 46 46 48 47 49 48 50 49 51 50 75 51 76 52 84 53 77 54
REMARK SMILES IDX 79 55 85 56 78 57 80 58 81 59 82 60 83 61 60 62 61 63 69 64
REMARK SMILES IDX 62 65 64 66 70 67 63 68 65 69 66 70 67 71 68 72 8 73 9 74
REMARK SMILES IDX 10 75 11 76 12 77 13 78 14 79 15 80 16 81 20 82 17 83 19 84
REMARK SMILES IDX 18 85 21 86 33 87 22 88 25 89 26 90 23 92 24 93 27 94 28 95
REMARK SMILES IDX 32 96 29 97 31 98 30 99
REMARK H PARENT 90 25 58 36 33 91
REMARK Flexibility Score: inf
ROOT
ATOM      1  C   UNL A   1      38.824  22.826  26.486  1.00  0.00     0.188 C 
ENDROOT
BRANCH   1   2
ATOM      2  O   UNL A   1      39.524  21.605  26.764  1.00  0.00    -0.376 OA
BRANCH   2   3
ATOM      3  C   UNL A   1      39.425  20.642  25.710  1.00  0.00     0.202 C 
BRANCH   3   4
ATOM      4  C   UNL A   1      40.068  19.284  26.030  1.00  0.00     0.261 C 
BRANCH   4   5
ATOM      5  O   UNL A   1      41.411  19.187  25.529  1.00  0.00    -0.460 OA
BRANCH   5   6
ATOM      6  C   UNL A   1      42.507  19.878  25.936  1.00  0.00     0.338 C 
ATOM      7  O   UNL A   1      43.589  19.293  25.956  1.00  0.00    -0.246 OA
BRANCH   6   8
ATOM      8  C   UNL A   1      42.489  21.330  26.303  1.00  0.00     0.060 A 
ATOM      9  C   UNL A   1      42.363  22.389  25.403  1.00  0.00     0.016 A 
ATOM     10  C   UNL A   1      42.579  21.645  27.670  1.00  0.00     0.016 A 
ATOM     11  C   UNL A   1      42.501  23.711  25.816  1.00  0.00     0.010 A 
ATOM     12  C   UNL A   1      42.635  22.976  28.103  1.00  0.00     0.010 A 
ATOM     13  C   UNL A   1      42.663  24.016  27.167  1.00  0.00    -0.014 A 
BRANCH  13  14
ATOM     14  C   UNL A   1      43.007  25.405  27.556  1.00  0.00     0.031 A 
ATOM     15  C   UNL A   1      44.352  25.949  27.157  1.00  0.00     0.074 A 
ATOM     16  C   UNL A   1      42.091  26.215  28.120  1.00  0.00     0.049 A 
ATOM     17  N   UNL A   1      44.849  27.140  27.353  1.00  0.00    -0.248 NA
ATOM     18  C   UNL A   1      45.237  25.046  26.400  1.00  0.00     0.031 C 
ATOM     19  C   UNL A   1      40.698  25.856  28.384  1.00  0.00     0.029 A 
ATOM     20  N   UNL A   1      42.180  27.521  28.533  1.00  0.00    -0.354 N 
ATOM     21  C   UNL A   1      46.099  27.131  26.749  1.00  0.00     0.074 A 
ATOM     22  C   UNL A   1      46.302  25.808  26.204  1.00  0.00     0.031 C 
ATOM     23  C   UNL A   1      40.066  26.928  28.890  1.00  0.00     0.029 A 
ATOM     24  C   UNL A   1      41.020  28.002  29.097  1.00  0.00     0.049 A 
ATOM     25  H   UNL A   1      42.997  28.062  28.437  1.00  0.00     0.167 HD
ATOM     26  C   UNL A   1      46.986  28.145  26.627  1.00  0.00     0.034 A 
ATOM     27  C   UNL A   1      40.771  29.163  29.734  1.00  0.00     0.034 A 
ATOM     28  C   UNL A   1      46.773  29.461  27.156  1.00  0.00     0.049 A 
ATOM     29  C   UNL A   1      41.856  30.193  29.775  1.00  0.00     0.074 A 
ATOM     30  C   UNL A   1      47.603  30.566  27.089  1.00  0.00     0.029 A 
ATOM     31  N   UNL A   1      45.646  29.849  27.867  1.00  0.00    -0.354 N 
ATOM     32  N   UNL A   1      43.035  30.160  29.206  1.00  0.00    -0.248 NA
ATOM     33  C   UNL A   1      41.550  31.439  30.487  1.00  0.00     0.031 C 
ATOM     34  C   UNL A   1      46.989  31.613  27.785  1.00  0.00     0.029 A 
ATOM     35  C   UNL A   1      45.767  31.168  28.263  1.00  0.00     0.049 A 
ATOM     36  H   UNL A   1      44.874  29.270  28.060  1.00  0.00     0.167 HD
ATOM     37  C   UNL A   1      43.596  31.404  29.445  1.00  0.00     0.074 A 
ATOM     38  C   UNL A   1      42.633  32.157  30.227  1.00  0.00     0.031 C 
ATOM     39  C   UNL A   1      44.790  31.892  29.032  1.00  0.00     0.034 A 
BRANCH  26  40
ATOM     40  C   UNL A   1      48.263  27.850  25.892  1.00  0.00     0.023 A 
ATOM     41  C   UNL A   1      49.453  27.621  26.614  1.00  0.00     0.012 A 
ATOM     42  C   UNL A   1      48.286  27.811  24.485  1.00  0.00     0.148 A 
ATOM     43  C   UNL A   1      50.653  27.388  25.945  1.00  0.00     0.002 A 
ATOM     44  C   UNL A   1      49.480  27.544  23.826  1.00  0.00     0.091 A 
ATOM     45  F   UNL A   1      47.151  28.067  23.820  1.00  0.00    -0.205 F 
ATOM     46  C   UNL A   1      50.666  27.342  24.551  1.00  0.00     0.022 A 
BRANCH  44  47
ATOM     47  S   UNL A   1      49.583  27.420  22.038  1.00  0.00     0.127 S 
ATOM     48  O   UNL A   1      50.993  27.087  21.847  1.00  0.00    -0.237 OA
ATOM     49  O   UNL A   1      48.652  26.328  21.751  1.00  0.00    -0.237 OA
ATOM     50  O   UNL A   1      49.169  28.718  21.523  1.00  0.00    -0.744 OA
ENDBRANCH  44  47
ENDBRANCH  26  40
BRANCH  27  51
ATOM     51  C   UNL A   1      39.457  29.453  30.372  1.00  0.00     0.023 A 
ATOM     52  C   UNL A   1      39.177  28.935  31.648  1.00  0.00     0.012 A 
ATOM     53  C   UNL A   1      38.472  30.211  29.702  1.00  0.00     0.148 A 
ATOM     54  C   UNL A   1      37.945  29.181  32.258  1.00  0.00     0.002 A 
ATOM     55  C   UNL A   1      37.257  30.485  30.331  1.00  0.00     0.091 A 
ATOM     56  F   UNL A   1      38.754  30.669  28.475  1.00  0.00    -0.205 F 
ATOM     57  C   UNL A   1      36.991  29.962  31.608  1.00  0.00     0.022 A 
BRANCH  55  58
ATOM     58  S   UNL A   1      36.013  31.591  29.642  1.00  0.00     0.127 S 
ATOM     59  O   UNL A   1      35.118  31.783  30.782  1.00  0.00    -0.237 OA
ATOM     60  O   UNL A   1      36.808  32.766  29.285  1.00  0.00    -0.237 OA
ATOM     61  O   UNL A   1      35.430  30.888  28.509  1.00  0.00    -0.744 OA
ENDBRANCH  55  58
ENDBRANCH  27  51
BRANCH  39  62
ATOM     62  C   UNL A   1      45.088  33.317  29.387  1.00  0.00     0.023 A 
ATOM     63  C   UNL A   1      45.825  33.613  30.550  1.00  0.00     0.012 A 
ATOM     64  C   UNL A   1      44.645  34.360  28.553  1.00  0.00     0.148 A 
ATOM     65  C   UNL A   1      46.089  34.936  30.894  1.00  0.00     0.002 A 
ATOM     66  C   UNL A   1      44.952  35.673  28.878  1.00  0.00     0.091 A 
ATOM     67  F   UNL A   1      43.916  34.050  27.471  1.00  0.00    -0.205 F 
ATOM     68  C   UNL A   1      45.663  35.964  30.054  1.00  0.00     0.022 A 
BRANCH  66  69
ATOM     69  S   UNL A   1      44.517  37.042  27.804  1.00  0.00     0.127 S 
ATOM     70  O   UNL A   1      43.067  37.110  27.978  1.00  0.00    -0.237 OA
ATOM     71  O   UNL A   1      45.257  38.155  28.402  1.00  0.00    -0.237 OA
ATOM     72  O   UNL A   1      44.974  36.665  26.473  1.00  0.00    -0.744 OA
ENDBRANCH  66  69
ENDBRANCH  39  62
ENDBRANCH  13  14
ENDBRANCH   6   8
ENDBRANCH   5   6
ENDBRANCH   4   5
ENDBRANCH   3   4
ENDBRANCH   2   3
ENDBRANCH   1   2
BRANCH   1  73
ATOM     73  C   UNL A   1      37.678  22.614  25.496  1.00  0.00     0.188 C 
BRANCH  73  74
ATOM     74  O   UNL A   1      36.371  22.941  25.968  1.00  0.00    -0.376 OA
BRANCH  74  75
ATOM     75  C   UNL A   1      35.266  22.414  25.241  1.00  0.00     0.202 C 
BRANCH  75  76
ATOM     76  C   UNL A   1      33.854  22.810  25.693  1.00  0.00     0.261 C 
BRANCH  76  77
ATOM     77  O   UNL A   1      32.811  22.593  24.730  1.00  0.00    -0.460 OA
BRANCH  77  78
ATOM     78  C   UNL A   1      31.563  22.744  25.233  1.00  0.00     0.338 C 
ATOM     79  O   UNL A   1      30.840  21.862  25.690  1.00  0.00    -0.246 OA
BRANCH  78  80
ATOM     80  C   UNL A   1      31.075  24.116  25.051  1.00  0.00     0.060 A 
ATOM     81  C   UNL A   1      30.199  24.750  25.930  1.00  0.00     0.018 A 
ATOM     82  C   UNL A   1      31.435  24.733  23.859  1.00  0.00     0.022 A 
ATOM     83  C   UNL A   1      29.648  25.994  25.574  1.00  0.00     0.027 A 
ATOM     84  C   UNL A   1      30.915  25.991  23.524  1.00  0.00    -0.017 A 
ATOM     85  C   UNL A   1      29.962  26.611  24.351  1.00  0.00     0.038 A 
ATOM     86  C   UNL A   1      31.405  26.658  22.263  1.00  0.00     0.049 C 
ATOM     87  N   UNL A   1      29.407  27.845  24.022  1.00  0.00    -0.378 N 
ATOM     88  C   UNL A   1      32.902  26.761  22.230  1.00  0.00    -0.023 C 
ATOM     89  C   UNL A   1      31.032  28.141  22.195  1.00  0.00     0.031 C 
ATOM     90  C   UNL A   1      29.606  28.384  22.673  1.00  0.00     0.114 C 
ATOM     91  H   UNL A   1      28.885  28.349  24.688  1.00  0.00     0.161 HD
ATOM     92  C   UNL A   1      33.298  27.975  22.620  1.00  0.00    -0.030 C 
ATOM     93  C   UNL A   1      32.140  28.859  22.967  1.00  0.00     0.034 C 
BRANCH  90  94
ATOM     94  C   UNL A   1      29.189  29.839  22.499  1.00  0.00    -0.022 A 
ATOM     95  C   UNL A   1      29.155  30.672  23.632  1.00  0.00     0.026 A 
ATOM     96  C   UNL A   1      28.799  30.407  21.284  1.00  0.00     0.026 A 
ATOM     97  C   UNL A   1      28.762  31.995  23.504  1.00  0.00     0.111 A 
ATOM     98  C   UNL A   1      28.448  31.753  21.253  1.00  0.00     0.111 A 
ATOM     99  N   UNL A   1      28.454  32.571  22.327  1.00  0.00    -0.265 NA
ENDBRANCH  90  94
ENDBRANCH  78  80
ENDBRANCH  77  78
ENDBRANCH  76  77
ENDBRANCH  75  76
ENDBRANCH  74  75
ENDBRANCH  73  74
ENDBRANCH   1  73
TORSDOF 21
ENDMDL
MODEL 2
REMARK VINA RESULT:     -11.0      6.279     11.958
REMARK SMILES O=C(OCCOCCOCCOC(=O)c1ccc2c(c1)[C@@H]1C=CC[C@@H]1[C@H](c1ccncc1)N2)c1ccc(-c2c3nc(c(-c4cccc(S(=O)(=O)[O-])c4F)c4ccc([nH]4)c(-c4cccc(S(=O)(=O)[O-])c4F)c4nc(c(-c5cccc(S(=O)(=O)[O-])c5F)c5ccc2[nH]5)C=C4)C=C3)cc1
REMARK SMILES IDX 7 1 6 2 5 3 4 4 3 5 2 6 1 7 34 8 35 9 96 10 36 11 95 12
REMARK SMILES IDX 37 13 38 14 39 15 89 16 40 17 94 18 88 19 90 20 41 21 93 22
REMARK SMILES IDX 87 23 86 24 42 26 74 27 54 28 73 29 55 30 58 31 72 32 91 33
REMARK SMILES IDX 56 34 57 35 71 37 92 38 59 39 43 40 44 41 52 42 45 43 47 44
REMARK SMILES IDX 53 45 46 46 48 47 49 48 50 49 51 50 75 51 76 52 84 53 77 54
REMARK SMILES IDX 79 55 85 56 78 57 80 58 81 59 82 60 83 61 60 62 61 63 69 64
REMARK SMILES IDX 62 65 64 66 70 67 63 68 65 69 66 70 67 71 68 72 8 73 9 74
REMARK SMILES IDX 10 75 11 76 12 77 13 78 14 79 15 80 16 81 20 82 17 83 19 84
REMARK SMILES IDX 18 85 21 86 33 87 22 88 25 89 26 90 23 92 24 93 27 94 28 95
REMARK SMILES IDX 32 96 29 97 31 98 30 99
REMARK H PARENT 90 25 58 36 33 91
REMARK Flexibility Score: inf
ROOT
ATOM      1  C   UNL A   1      34.981  31.059  28.062  1.00  0.00     0.188 C 
ENDROOT
BRANCH   1   2
ATOM      2  O   UNL A   1      34.679  32.376  27.582  1.00  0.00    -0.376 OA
BRANCH   2   3
ATOM      3  C   UNL A   1      33.534  32.961  28.210  1.00  0.00     0.202 C 
BRANCH   3   4
ATOM      4  C   UNL A   1      33.651  34.472  28.459  1.00  0.00     0.261 C 
BRANCH   4   5
ATOM      5  O   UNL A   1      32.773  34.919  29.506  1.00  0.00    -0.460 OA
BRANCH   5   6
ATOM      6  C   UNL A   1      33.040  35.024  30.833  1.00  0.00     0.338 C 
ATOM      7  O   UNL A   1      32.192  35.545  31.557  1.00  0.00    -0.246 OA
BRANCH   6   8
ATOM      8  C   UNL A   1      34.278  34.485  31.480  1.00  0.00     0.060 A 
ATOM      9  C   UNL A   1      35.515  35.131  31.521  1.00  0.00     0.016 A 
ATOM     10  C   UNL A   1      34.173  33.239  32.122  1.00  0.00     0.016 A 
ATOM     11  C   UNL A   1      36.648  34.494  32.017  1.00  0.00     0.010 A 
ATOM     12  C   UNL A   1      35.293  32.626  32.699  1.00  0.00     0.010 A 
ATOM     13  C   UNL A   1      36.553  33.226  32.589  1.00  0.00    -0.014 A 
BRANCH  13  14
ATOM     14  C   UNL A   1      37.796  32.491  32.924  1.00  0.00     0.031 A 
ATOM     15  C   UNL A   1      38.500  32.821  34.212  1.00  0.00     0.074 A 
ATOM     16  C   UNL A   1      38.211  31.451  32.175  1.00  0.00     0.049 A 
ATOM     17  N   UNL A   1      39.573  32.283  34.726  1.00  0.00    -0.248 NA
ATOM     18  C   UNL A   1      37.890  33.866  35.053  1.00  0.00     0.031 C 
ATOM     19  C   UNL A   1      37.509  30.920  31.007  1.00  0.00     0.029 A 
ATOM     20  N   UNL A   1      39.300  30.625  32.310  1.00  0.00    -0.354 N 
ATOM     21  C   UNL A   1      39.768  32.920  35.944  1.00  0.00     0.074 A 
ATOM     22  C   UNL A   1      38.722  33.908  36.083  1.00  0.00     0.031 C 
ATOM     23  C   UNL A   1      38.176  29.846  30.555  1.00  0.00     0.029 A 
ATOM     24  C   UNL A   1      39.403  29.681  31.313  1.00  0.00     0.049 A 
ATOM     25  H   UNL A   1      39.947  30.703  33.047  1.00  0.00     0.167 HD
ATOM     26  C   UNL A   1      40.714  32.681  36.880  1.00  0.00     0.034 A 
ATOM     27  C   UNL A   1      40.390  28.808  31.032  1.00  0.00     0.034 A 
ATOM     28  C   UNL A   1      41.741  31.688  36.744  1.00  0.00     0.049 A 
ATOM     29  C   UNL A   1      41.544  28.718  31.979  1.00  0.00     0.074 A 
ATOM     30  C   UNL A   1      42.749  31.359  37.632  1.00  0.00     0.029 A 
ATOM     31  N   UNL A   1      41.898  30.869  35.635  1.00  0.00    -0.354 N 
ATOM     32  N   UNL A   1      41.715  29.337  33.120  1.00  0.00    -0.248 NA
ATOM     33  C   UNL A   1      42.604  27.764  31.632  1.00  0.00     0.031 C 
ATOM     34  C   UNL A   1      43.534  30.359  37.046  1.00  0.00     0.029 A 
ATOM     35  C   UNL A   1      43.000  30.050  35.805  1.00  0.00     0.049 A 
ATOM     36  H   UNL A   1      41.312  30.871  34.845  1.00  0.00     0.167 HD
ATOM     37  C   UNL A   1      42.878  28.809  33.658  1.00  0.00     0.074 A 
ATOM     38  C   UNL A   1      43.377  27.835  32.706  1.00  0.00     0.031 C 
ATOM     39  C   UNL A   1      43.466  29.085  34.846  1.00  0.00     0.034 A 
BRANCH  26  40
ATOM     40  C   UNL A   1      40.667  33.518  38.127  1.00  0.00     0.023 A 
ATOM     41  C   UNL A   1      41.558  34.599  38.282  1.00  0.00     0.012 A 
ATOM     42  C   UNL A   1      39.745  33.226  39.150  1.00  0.00     0.148 A 
ATOM     43  C   UNL A   1      41.555  35.358  39.452  1.00  0.00     0.002 A 
ATOM     44  C   UNL A   1      39.725  34.009  40.298  1.00  0.00     0.091 A 
ATOM     45  F   UNL A   1      38.932  32.173  38.996  1.00  0.00    -0.205 F 
ATOM     46  C   UNL A   1      40.633  35.068  40.456  1.00  0.00     0.022 A 
BRANCH  44  47
ATOM     47  S   UNL A   1      38.544  33.739  41.624  1.00  0.00     0.127 S 
ATOM     48  O   UNL A   1      38.978  32.444  42.144  1.00  0.00    -0.237 OA
ATOM     49  O   UNL A   1      38.811  34.874  42.509  1.00  0.00    -0.237 OA
ATOM     50  O   UNL A   1      37.229  33.756  40.998  1.00  0.00    -0.744 OA
ENDBRANCH  44  47
ENDBRANCH  26  40
BRANCH  27  51
ATOM     51  C   UNL A   1      40.353  27.929  29.830  1.00  0.00     0.023 A 
ATOM     52  C   UNL A   1      39.509  26.805  29.819  1.00  0.00     0.012 A 
ATOM     53  C   UNL A   1      41.178  28.185  28.713  1.00  0.00     0.148 A 
ATOM     54  C   UNL A   1      39.471  25.958  28.709  1.00  0.00     0.002 A 
ATOM     55  C   UNL A   1      41.109  27.358  27.592  1.00  0.00     0.091 A 
ATOM     56  F   UNL A   1      41.994  29.246  28.761  1.00  0.00    -0.205 F 
ATOM     57  C   UNL A   1      40.260  26.238  27.594  1.00  0.00     0.022 A 
BRANCH  55  58
ATOM     58  S   UNL A   1      41.979  27.701  26.052  1.00  0.00     0.127 S 
ATOM     59  O   UNL A   1      41.558  26.581  25.213  1.00  0.00    -0.237 OA
ATOM     60  O   UNL A   1      41.420  28.997  25.664  1.00  0.00    -0.237 OA
ATOM     61  O   UNL A   1      43.395  27.729  26.385  1.00  0.00    -0.744 OA
ENDBRANCH  55  58
ENDBRANCH  27  51
BRANCH  39  62
ATOM     62  C   UNL A   1      44.688  28.286  35.187  1.00  0.00     0.023 A 
ATOM     63  C   UNL A   1      45.964  28.777  34.854  1.00  0.00     0.012 A 
ATOM     64  C   UNL A   1      44.561  27.053  35.853  1.00  0.00     0.148 A 
ATOM     65  C   UNL A   1      47.102  28.030  35.152  1.00  0.00     0.002 A 
ATOM     66  C   UNL A   1      45.701  26.338  36.188  1.00  0.00     0.091 A 
ATOM     67  F   UNL A   1      43.331  26.595  36.126  1.00  0.00    -0.205 F 
ATOM     68  C   UNL A   1      46.971  26.818  35.828  1.00  0.00     0.022 A 
BRANCH  66  69
ATOM     69  S   UNL A   1      45.620  24.815  37.135  1.00  0.00     0.127 S 
ATOM     70  O   UNL A   1      47.033  24.551  37.397  1.00  0.00    -0.237 OA
ATOM     71  O   UNL A   1      44.846  25.220  38.310  1.00  0.00    -0.237 OA
ATOM     72  O   UNL A   1      44.946  23.849  36.278  1.00  0.00    -0.744 OA
ENDBRANCH  66  69
ENDBRANCH  39  62
ENDBRANCH  13  14
ENDBRANCH   6   8
ENDBRANCH   5   6
ENDBRANCH   4   5
ENDBRANCH   3   4
ENDBRANCH   2   3
ENDBRANCH   1   2
BRANCH   1  73
ATOM     73  C   UNL A   1      34.278  29.977  27.240  1.00  0.00     0.188 C 
BRANCH  73  74
ATOM     74  O   UNL A   1      33.372  30.439  26.238  1.00  0.00    -0.376 OA
BRANCH  74  75
ATOM     75  C   UNL A   1      32.926  29.486  25.278  1.00  0.00     0.202 C 
BRANCH  75  76
ATOM     76  C   UNL A   1      32.790  28.025  25.726  1.00  0.00     0.261 C 
BRANCH  76  77
ATOM     77  O   UNL A   1      31.873  27.226  24.963  1.00  0.00    -0.460 OA
BRANCH  77  78
ATOM     78  C   UNL A   1      31.219  26.293  25.697  1.00  0.00     0.338 C 
ATOM     79  O   UNL A   1      30.550  26.487  26.708  1.00  0.00    -0.246 OA
BRANCH  78  80
ATOM     80  C   UNL A   1      31.508  24.937  25.218  1.00  0.00     0.060 A 
ATOM     81  C   UNL A   1      31.026  24.420  24.016  1.00  0.00     0.018 A 
ATOM     82  C   UNL A   1      32.202  24.118  26.100  1.00  0.00     0.022 A 
ATOM     83  C   UNL A   1      31.207  23.055  23.733  1.00  0.00     0.027 A 
ATOM     84  C   UNL A   1      32.415  22.766  25.798  1.00  0.00    -0.017 A 
ATOM     85  C   UNL A   1      31.863  22.201  24.636  1.00  0.00     0.038 A 
ATOM     86  C   UNL A   1      33.250  21.942  26.747  1.00  0.00     0.049 C 
ATOM     87  N   UNL A   1      32.033  20.851  24.333  1.00  0.00    -0.378 N 
ATOM     88  C   UNL A   1      34.590  22.567  27.001  1.00  0.00    -0.023 C 
ATOM     89  C   UNL A   1      33.687  20.606  26.140  1.00  0.00     0.031 C 
ATOM     90  C   UNL A   1      32.558  19.946  25.360  1.00  0.00     0.114 C 
ATOM     91  H   UNL A   1      31.802  20.510  23.438  1.00  0.00     0.161 HD
ATOM     92  C   UNL A   1      35.524  22.006  26.230  1.00  0.00    -0.030 C 
ATOM     93  C   UNL A   1      34.959  20.931  25.354  1.00  0.00     0.034 C 
BRANCH  90  94
ATOM     94  C   UNL A   1      32.949  18.565  24.852  1.00  0.00    -0.022 A 
ATOM     95  C   UNL A   1      32.823  17.465  25.720  1.00  0.00     0.026 A 
ATOM     96  C   UNL A   1      33.463  18.310  23.578  1.00  0.00     0.026 A 
ATOM     97  C   UNL A   1      33.189  16.199  25.288  1.00  0.00     0.111 A 
ATOM     98  C   UNL A   1      33.775  16.999  23.229  1.00  0.00     0.111 A 
ATOM     99  N   UNL A   1      33.617  15.932  24.040  1.00  0.00    -0.265 NA
ENDBRANCH  90  94
ENDBRANCH  78  80
ENDBRANCH  77  78
ENDBRANCH  76  77
ENDBRANCH  75  76
ENDBRANCH  74  75
ENDBRANCH  73  74
ENDBRANCH   1  73
TORSDOF 21
ENDMDL
MODEL 3
REMARK VINA RESULT:     -10.8      5.547     11.330
REMARK SMILES O=C(OCCOCCOCCOC(=O)c1ccc2c(c1)[C@@H]1C=CC[C@@H]1[C@H](c1ccncc1)N2)c1ccc(-c2c3nc(c(-c4cccc(S(=O)(=O)[O-])c4F)c4ccc([nH]4)c(-c4cccc(S(=O)(=O)[O-])c4F)c4nc(c(-c5cccc(S(=O)(=O)[O-])c5F)c5ccc2[nH]5)C=C4)C=C3)cc1
REMARK SMILES IDX 7 1 6 2 5 3 4 4 3 5 2 6 1 7 34 8 35 9 96 10 36 11 95 12
REMARK SMILES IDX 37 13 38 14 39 15 89 16 40 17 94 18 88 19 90 20 41 21 93 22
REMARK SMILES IDX 87 23 86 24 42 26 74 27 54 28 73 29 55 30 58 31 72 32 91 33
REMARK SMILES IDX 56 34 57 35 71 37 92 38 59 39 43 40 44 41 52 42 45 43 47 44
REMARK SMILES IDX 53 45 46 46 48 47 49 48 50 49 51 50 75 51 76 52 84 53 77 54
REMARK SMILES IDX 79 55 85 56 78 57 80 58 81 59 82 60 83 61 60 62 61 63 69 64
REMARK SMILES IDX 62 65 64 66 70 67 63 68 65 69 66 70 67 71 68 72 8 73 9 74
REMARK SMILES IDX 10 75 11 76 12 77 13 78 14 79 15 80 16 81 20 82 17 83 19 84
REMARK SMILES IDX 18 85 21 86 33 87 22 88 25 89 26 90 23 92 24 93 27 94 28 95
REMARK SMILES IDX 32 96 29 97 31 98 30 99
REMARK H PARENT 90 25 58 36 33 91
REMARK Flexibility Score: inf
ROOT
ATOM      1  C   UNL A   1      33.047  28.857  25.875  1.00  0.00     0.188 C 
ENDROOT
BRANCH   1   2
ATOM      2  O   UNL A   1      32.534  29.701  26.916  1.00  0.00    -0.376 OA
BRANCH   2   3
ATOM      3  C   UNL A   1      33.063  31.030  26.881  1.00  0.00     0.202 C 
BRANCH   3   4
ATOM      4  C   UNL A   1      31.997  32.136  26.887  1.00  0.00     0.261 C 
BRANCH   4   5
ATOM      5  O   UNL A   1      32.275  33.154  27.862  1.00  0.00    -0.460 OA
BRANCH   5   6
ATOM      6  C   UNL A   1      33.406  33.894  27.999  1.00  0.00     0.338 C 
ATOM      7  O   UNL A   1      33.427  35.020  27.503  1.00  0.00    -0.246 OA
BRANCH   6   8
ATOM      8  C   UNL A   1      34.607  33.447  28.774  1.00  0.00     0.060 A 
ATOM      9  C   UNL A   1      35.910  33.909  28.581  1.00  0.00     0.016 A 
ATOM     10  C   UNL A   1      34.394  32.506  29.795  1.00  0.00     0.016 A 
ATOM     11  C   UNL A   1      36.988  33.333  29.247  1.00  0.00     0.010 A 
ATOM     12  C   UNL A   1      35.466  31.981  30.530  1.00  0.00     0.010 A 
ATOM     13  C   UNL A   1      36.779  32.346  30.210  1.00  0.00    -0.014 A 
BRANCH  13  14
ATOM     14  C   UNL A   1      37.946  31.612  30.755  1.00  0.00     0.031 A 
ATOM     15  C   UNL A   1      38.376  31.898  32.168  1.00  0.00     0.074 A 
ATOM     16  C   UNL A   1      38.518  30.608  30.064  1.00  0.00     0.049 A 
ATOM     17  N   UNL A   1      39.338  31.351  32.863  1.00  0.00    -0.248 NA
ATOM     18  C   UNL A   1      37.594  32.900  32.912  1.00  0.00     0.031 C 
ATOM     19  C   UNL A   1      38.069  30.117  28.762  1.00  0.00     0.029 A 
ATOM     20  N   UNL A   1      39.575  29.790  30.379  1.00  0.00    -0.354 N 
ATOM     21  C   UNL A   1      39.278  31.940  34.118  1.00  0.00     0.074 A 
ATOM     22  C   UNL A   1      38.207  32.910  34.085  1.00  0.00     0.031 C 
ATOM     23  C   UNL A   1      38.831  29.070  28.409  1.00  0.00     0.029 A 
ATOM     24  C   UNL A   1      39.889  28.888  29.387  1.00  0.00     0.049 A 
ATOM     25  H   UNL A   1      40.064  29.844  31.232  1.00  0.00     0.167 HD
ATOM     26  C   UNL A   1      40.026  31.674  35.213  1.00  0.00     0.034 A 
ATOM     27  C   UNL A   1      40.928  28.038  29.273  1.00  0.00     0.034 A 
ATOM     28  C   UNL A   1      41.079  30.698  35.243  1.00  0.00     0.049 A 
ATOM     29  C   UNL A   1      41.876  27.922  30.425  1.00  0.00     0.074 A 
ATOM     30  C   UNL A   1      41.899  30.345  36.300  1.00  0.00     0.029 A 
ATOM     31  N   UNL A   1      41.466  29.927  34.158  1.00  0.00    -0.354 N 
ATOM     32  N   UNL A   1      41.808  28.496  31.600  1.00  0.00    -0.248 NA
ATOM     33  C   UNL A   1      43.001  26.995  30.258  1.00  0.00     0.031 C 
ATOM     34  C   UNL A   1      42.802  29.378  35.842  1.00  0.00     0.029 A 
ATOM     35  C   UNL A   1      42.527  29.113  34.510  1.00  0.00     0.049 A 
ATOM     36  H   UNL A   1      41.046  29.954  33.268  1.00  0.00     0.167 HD
ATOM     37  C   UNL A   1      42.852  27.960  32.336  1.00  0.00     0.074 A 
ATOM     38  C   UNL A   1      43.547  27.030  31.465  1.00  0.00     0.031 C 
ATOM     39  C   UNL A   1      43.191  28.193  33.625  1.00  0.00     0.034 A 
BRANCH  26  40
ATOM     40  C   UNL A   1      39.720  32.459  36.457  1.00  0.00     0.023 A 
ATOM     41  C   UNL A   1      38.734  31.998  37.353  1.00  0.00     0.012 A 
ATOM     42  C   UNL A   1      40.403  33.658  36.733  1.00  0.00     0.148 A 
ATOM     43  C   UNL A   1      38.409  32.736  38.490  1.00  0.00     0.002 A 
ATOM     44  C   UNL A   1      40.097  34.371  37.886  1.00  0.00     0.091 A 
ATOM     45  F   UNL A   1      41.310  34.094  35.849  1.00  0.00    -0.205 F 
ATOM     46  C   UNL A   1      39.096  33.919  38.760  1.00  0.00     0.022 A 
BRANCH  44  47
ATOM     47  S   UNL A   1      40.960  35.878  38.339  1.00  0.00     0.127 S 
ATOM     48  O   UNL A   1      40.829  35.867  39.795  1.00  0.00    -0.237 OA
ATOM     49  O   UNL A   1      42.314  35.618  37.846  1.00  0.00    -0.237 OA
ATOM     50  O   UNL A   1      40.264  36.959  37.654  1.00  0.00    -0.744 OA
ENDBRANCH  44  47
ENDBRANCH  26  40
BRANCH  27  51
ATOM     51  C   UNL A   1      41.145  27.207  28.055  1.00  0.00     0.023 A 
ATOM     52  C   UNL A   1      41.702  27.795  26.907  1.00  0.00     0.012 A 
ATOM     53  C   UNL A   1      40.768  25.847  28.023  1.00  0.00     0.148 A 
ATOM     54  C   UNL A   1      41.899  27.039  25.749  1.00  0.00     0.002 A 
ATOM     55  C   UNL A   1      41.000  25.087  26.877  1.00  0.00     0.091 A 
ATOM     56  F   UNL A   1      40.212  25.320  29.122  1.00  0.00    -0.205 F 
ATOM     57  C   UNL A   1      41.559  25.686  25.736  1.00  0.00     0.022 A 
BRANCH  55  58
ATOM     58  S   UNL A   1      40.727  23.308  26.796  1.00  0.00     0.127 S 
ATOM     59  O   UNL A   1      41.142  22.879  28.130  1.00  0.00    -0.237 OA
ATOM     60  O   UNL A   1      39.286  23.228  26.550  1.00  0.00    -0.237 OA
ATOM     61  O   UNL A   1      41.555  22.821  25.703  1.00  0.00    -0.744 OA
ENDBRANCH  55  58
ENDBRANCH  27  51
BRANCH  39  62
ATOM     62  C   UNL A   1      44.336  27.395  34.170  1.00  0.00     0.023 A 
ATOM     63  C   UNL A   1      45.660  27.815  33.939  1.00  0.00     0.012 A 
ATOM     64  C   UNL A   1      44.091  26.233  34.924  1.00  0.00     0.148 A 
ATOM     65  C   UNL A   1      46.728  27.067  34.427  1.00  0.00     0.002 A 
ATOM     66  C   UNL A   1      45.159  25.519  35.447  1.00  0.00     0.091 A 
ATOM     67  F   UNL A   1      42.821  25.838  35.099  1.00  0.00    -0.205 F 
ATOM     68  C   UNL A   1      46.479  25.927  35.190  1.00  0.00     0.022 A 
BRANCH  66  69
ATOM     69  S   UNL A   1      44.917  24.094  36.510  1.00  0.00     0.127 S 
ATOM     70  O   UNL A   1      44.230  23.165  35.614  1.00  0.00    -0.237 OA
ATOM     71  O   UNL A   1      46.292  23.717  36.843  1.00  0.00    -0.237 OA
ATOM     72  O   UNL A   1      44.136  24.571  37.643  1.00  0.00    -0.744 OA
ENDBRANCH  66  69
ENDBRANCH  39  62
ENDBRANCH  13  14
ENDBRANCH   6   8
ENDBRANCH   5   6
ENDBRANCH   4   5
ENDBRANCH   3   4
ENDBRANCH   2   3
ENDBRANCH   1   2
BRANCH   1  73
ATOM     73  C   UNL A   1      32.886  29.493  24.493  1.00  0.00     0.188 C 
BRANCH  73  74
ATOM     74  O   UNL A   1      31.550  29.591  23.999  1.00  0.00    -0.376 OA
BRANCH  74  75
ATOM     75  C   UNL A   1      31.238  28.853  22.821  1.00  0.00     0.202 C 
BRANCH  75  76
ATOM     76  C   UNL A   1      30.862  27.374  22.980  1.00  0.00     0.261 C 
BRANCH  76  77
ATOM     77  O   UNL A   1      31.411  26.714  24.131  1.00  0.00    -0.460 OA
BRANCH  77  78
ATOM     78  C   UNL A   1      30.600  25.766  24.657  1.00  0.00     0.338 C 
ATOM     79  O   UNL A   1      29.630  25.948  25.387  1.00  0.00    -0.246 OA
BRANCH  78  80
ATOM     80  C   UNL A   1      31.095  24.416  24.362  1.00  0.00     0.060 A 
ATOM     81  C   UNL A   1      30.876  23.757  23.154  1.00  0.00     0.018 A 
ATOM     82  C   UNL A   1      31.702  23.750  25.419  1.00  0.00     0.022 A 
ATOM     83  C   UNL A   1      31.232  22.402  23.035  1.00  0.00     0.027 A 
ATOM     84  C   UNL A   1      32.092  22.410  25.286  1.00  0.00    -0.017 A 
ATOM     85  C   UNL A   1      31.802  21.698  24.109  1.00  0.00     0.038 A 
ATOM     86  C   UNL A   1      32.827  21.758  26.431  1.00  0.00     0.049 C 
ATOM     87  N   UNL A   1      32.149  20.356  23.967  1.00  0.00    -0.378 N 
ATOM     88  C   UNL A   1      34.039  22.546  26.838  1.00  0.00    -0.023 C 
ATOM     89  C   UNL A   1      33.487  20.436  26.033  1.00  0.00     0.031 C 
ATOM     90  C   UNL A   1      32.575  19.597  25.147  1.00  0.00     0.114 C 
ATOM     91  H   UNL A   1      32.108  19.923  23.083  1.00  0.00     0.161 HD
ATOM     92  C   UNL A   1      35.140  22.032  26.285  1.00  0.00    -0.030 C 
ATOM     93  C   UNL A   1      34.837  20.836  25.435  1.00  0.00     0.034 C 
BRANCH  90  94
ATOM     94  C   UNL A   1      33.178  18.231  24.843  1.00  0.00    -0.022 A 
ATOM     95  C   UNL A   1      33.697  17.993  23.557  1.00  0.00     0.026 A 
ATOM     96  C   UNL A   1      33.223  17.171  25.750  1.00  0.00     0.026 A 
ATOM     97  C   UNL A   1      34.235  16.753  23.249  1.00  0.00     0.111 A 
ATOM     98  C   UNL A   1      33.810  15.972  25.355  1.00  0.00     0.111 A 
ATOM     99  N   UNL A   1      34.349  15.748  24.138  1.00  0.00    -0.265 NA
ENDBRANCH  90  94
ENDBRANCH  78  80
ENDBRANCH  77  78
ENDBRANCH  76  77
ENDBRANCH  75  76
ENDBRANCH  74  75
ENDBRANCH  73  74
ENDBRANCH   1  73
TORSDOF 21
ENDMDL
