MODEL 1
REMARK VINA RESULT:      -9.1      0.000      0.000
REMARK SMILES C[C@@H](O)CN(C)C(=O)N[C@H]1C=C[C@@H](C(=O)OCCOCCOCCOC(=O)c2ccc(-c3c4nc(c(-c5cccc(S(=O)(=O)[O-])c5F)c5ccc([nH]5)c(-c5cccc(S(=O)(=O)[O-])c5F)c5nc(c(-c6cccc(S(=O)(=O)[O-])c6F)c6ccc3[nH]6)C=C5)C=C4)cc2)C1
REMARK SMILES IDX 20 1 19 2 18 3 17 4 16 5 14 6 15 7 13 8 10 9 11 10 91 11
REMARK SMILES IDX 12 12 9 13 7 14 8 15 5 17 6 18 4 19 2 20 1 21 3 22 21 24
REMARK SMILES IDX 22 25 23 26 24 27 25 28 26 29 27 30 28 31 29 32 90 33 30 34
REMARK SMILES IDX 89 35 31 36 32 37 33 38 83 39 34 40 88 41 82 42 84 43 35 44
REMARK SMILES IDX 87 45 81 46 80 47 36 49 68 50 48 51 67 52 49 53 52 54 66 55
REMARK SMILES IDX 85 56 50 57 51 58 65 60 86 61 53 62 37 63 38 64 46 65 39 66
REMARK SMILES IDX 41 67 47 68 40 69 42 70 43 71 44 72 45 73 69 74 70 75 78 76
REMARK SMILES IDX 71 77 73 78 79 79 72 80 74 81 75 82 76 83 77 84 54 85 55 86
REMARK SMILES IDX 63 87 56 88 58 89 64 90 57 91 59 92 60 93 61 94 62 95
REMARK H PARENT 9 16 3 23 84 48 52 59
REMARK Flexibility Score: inf
ROOT
ATOM      1  C   UNL A   1      31.982  29.359  27.232  1.00  0.00     0.188 C 
ENDROOT
BRANCH   1   2
ATOM      2  O   UNL A   1      32.238  28.340  26.276  1.00  0.00    -0.376 OA
BRANCH   2   3
ATOM      3  C   UNL A   1      31.411  28.234  25.125  1.00  0.00     0.202 C 
BRANCH   3   4
ATOM      4  C   UNL A   1      31.989  28.510  23.726  1.00  0.00     0.261 C 
BRANCH   4   5
ATOM      5  O   UNL A   1      33.376  28.162  23.558  1.00  0.00    -0.463 OA
BRANCH   5   6
ATOM      6  C   UNL A   1      33.678  27.428  22.459  1.00  0.00     0.312 C 
ATOM      7  O   UNL A   1      34.036  27.909  21.387  1.00  0.00    -0.252 OA
BRANCH   6   8
ATOM      8  C   UNL A   1      33.566  25.915  22.658  1.00  0.00     0.124 C 
ATOM      9  C   UNL A   1      32.681  24.223  24.207  1.00  0.00     0.107 C 
ATOM     10  C   UNL A   1      31.655  24.663  23.222  1.00  0.00    -0.006 C 
ATOM     11  C   UNL A   1      33.759  25.300  24.053  1.00  0.00     0.048 C 
ATOM     12  C   UNL A   1      32.149  25.538  22.344  1.00  0.00    -0.014 C 
BRANCH   9  13
ATOM     13  N   UNL A   1      32.121  24.195  25.531  1.00  0.00    -0.332 N 
ATOM     14  C   UNL A   1      32.429  23.516  26.649  1.00  0.00     0.317 C 
ATOM     15  O   UNL A   1      31.576  23.547  27.539  1.00  0.00    -0.249 OA
ATOM     16  H   UNL A   1      31.352  24.800  25.642  1.00  0.00     0.165 HD
BRANCH  14  17
ATOM     17  N   UNL A   1      33.598  22.815  26.783  1.00  0.00    -0.325 N 
ATOM     18  C   UNL A   1      34.948  23.359  26.821  1.00  0.00     0.148 C 
BRANCH  17  19
ATOM     19  C   UNL A   1      33.487  21.384  27.070  1.00  0.00     0.152 C 
BRANCH  19  20
ATOM     20  C   UNL A   1      33.081  20.545  25.844  1.00  0.00     0.130 C 
ATOM     21  C   UNL A   1      34.052  20.676  24.676  1.00  0.00     0.040 C 
BRANCH  20  22
ATOM     22  O   UNL A   1      33.015  19.170  26.236  1.00  0.00    -0.392 OA
ATOM     23  H   UNL A   1      32.135  18.818  26.035  1.00  0.00     0.211 HD
ENDBRANCH  20  22
ENDBRANCH  19  20
ENDBRANCH  17  19
ENDBRANCH  14  17
ENDBRANCH   9  13
ENDBRANCH   6   8
ENDBRANCH   5   6
ENDBRANCH   4   5
ENDBRANCH   3   4
ENDBRANCH   2   3
ENDBRANCH   1   2
BRANCH   1  24
ATOM     24  C   UNL A   1      32.135  30.828  26.808  1.00  0.00     0.188 C 
BRANCH  24  25
ATOM     25  O   UNL A   1      33.001  31.607  27.594  1.00  0.00    -0.376 OA
BRANCH  25  26
ATOM     26  C   UNL A   1      32.818  33.010  27.638  1.00  0.00     0.202 C 
BRANCH  26  27
ATOM     27  C   UNL A   1      33.977  34.027  27.701  1.00  0.00     0.261 C 
BRANCH  27  28
ATOM     28  O   UNL A   1      33.830  35.183  28.535  1.00  0.00    -0.460 OA
BRANCH  28  29
ATOM     29  C   UNL A   1      33.678  34.982  29.866  1.00  0.00     0.338 C 
ATOM     30  O   UNL A   1      32.721  35.312  30.552  1.00  0.00    -0.246 OA
BRANCH  29  31
ATOM     31  C   UNL A   1      34.759  34.070  30.304  1.00  0.00     0.060 A 
ATOM     32  C   UNL A   1      34.434  32.937  31.068  1.00  0.00     0.016 A 
ATOM     33  C   UNL A   1      36.081  34.308  29.927  1.00  0.00     0.016 A 
ATOM     34  C   UNL A   1      35.432  32.040  31.457  1.00  0.00     0.010 A 
ATOM     35  C   UNL A   1      37.081  33.426  30.344  1.00  0.00     0.010 A 
ATOM     36  C   UNL A   1      36.767  32.297  31.124  1.00  0.00    -0.014 A 
BRANCH  36  37
ATOM     37  C   UNL A   1      37.867  31.492  31.711  1.00  0.00     0.031 A 
ATOM     38  C   UNL A   1      38.412  31.898  33.052  1.00  0.00     0.074 A 
ATOM     39  C   UNL A   1      38.415  30.460  31.045  1.00  0.00     0.049 A 
ATOM     40  N   UNL A   1      39.456  31.450  33.693  1.00  0.00    -0.248 NA
ATOM     41  C   UNL A   1      37.679  32.963  33.759  1.00  0.00     0.031 C 
ATOM     42  C   UNL A   1      37.966  29.952  29.750  1.00  0.00     0.029 A 
ATOM     43  N   UNL A   1      39.505  29.680  31.354  1.00  0.00    -0.354 N 
ATOM     44  C   UNL A   1      39.537  32.204  34.857  1.00  0.00     0.074 A 
ATOM     45  C   UNL A   1      38.431  33.137  34.835  1.00  0.00     0.031 C 
ATOM     46  C   UNL A   1      38.802  28.977  29.352  1.00  0.00     0.029 A 
ATOM     47  C   UNL A   1      39.867  28.821  30.344  1.00  0.00     0.049 A 
ATOM     48  H   UNL A   1      39.980  29.734  32.214  1.00  0.00     0.167 HD
ATOM     49  C   UNL A   1      40.447  32.127  35.856  1.00  0.00     0.034 A 
ATOM     50  C   UNL A   1      40.955  28.034  30.212  1.00  0.00     0.034 A 
ATOM     51  C   UNL A   1      41.542  31.195  35.879  1.00  0.00     0.049 A 
ATOM     52  C   UNL A   1      41.987  28.005  31.313  1.00  0.00     0.074 A 
ATOM     53  C   UNL A   1      42.486  31.006  36.872  1.00  0.00     0.029 A 
ATOM     54  N   UNL A   1      41.854  30.315  34.856  1.00  0.00    -0.354 N 
ATOM     55  N   UNL A   1      41.990  28.642  32.460  1.00  0.00    -0.248 NA
ATOM     56  C   UNL A   1      43.155  27.134  31.112  1.00  0.00     0.031 C 
ATOM     57  C   UNL A   1      43.396  30.041  36.430  1.00  0.00     0.029 A 
ATOM     58  C   UNL A   1      42.991  29.597  35.182  1.00  0.00     0.049 A 
ATOM     59  H   UNL A   1      41.342  30.214  34.021  1.00  0.00     0.167 HD
ATOM     60  C   UNL A   1      43.138  28.222  33.128  1.00  0.00     0.074 A 
ATOM     61  C   UNL A   1      43.795  27.263  32.266  1.00  0.00     0.031 C 
ATOM     62  C   UNL A   1      43.611  28.606  34.339  1.00  0.00     0.034 A 
BRANCH  49  63
ATOM     63  C   UNL A   1      40.300  33.080  37.012  1.00  0.00     0.023 A 
ATOM     64  C   UNL A   1      39.400  32.785  38.056  1.00  0.00     0.012 A 
ATOM     65  C   UNL A   1      41.094  34.241  37.089  1.00  0.00     0.148 A 
ATOM     66  C   UNL A   1      39.269  33.647  39.144  1.00  0.00     0.002 A 
ATOM     67  C   UNL A   1      40.992  35.070  38.199  1.00  0.00     0.091 A 
ATOM     68  F   UNL A   1      41.927  34.515  36.075  1.00  0.00    -0.205 F 
ATOM     69  C   UNL A   1      40.073  34.783  39.220  1.00  0.00     0.022 A 
BRANCH  67  70
ATOM     70  S   UNL A   1      42.038  36.512  38.430  1.00  0.00     0.127 S 
ATOM     71  O   UNL A   1      41.140  37.413  39.152  1.00  0.00    -0.237 OA
ATOM     72  O   UNL A   1      43.133  35.970  39.234  1.00  0.00    -0.237 OA
ATOM     73  O   UNL A   1      42.420  36.952  37.096  1.00  0.00    -0.744 OA
ENDBRANCH  67  70
ENDBRANCH  49  63
BRANCH  50  74
ATOM     74  C   UNL A   1      41.137  27.203  28.987  1.00  0.00     0.023 A 
ATOM     75  C   UNL A   1      40.390  26.019  28.832  1.00  0.00     0.012 A 
ATOM     76  C   UNL A   1      42.046  27.577  27.978  1.00  0.00     0.148 A 
ATOM     77  C   UNL A   1      40.567  25.207  27.711  1.00  0.00     0.002 A 
ATOM     78  C   UNL A   1      42.177  26.794  26.838  1.00  0.00     0.091 A 
ATOM     79  F   UNL A   1      42.762  28.697  28.152  1.00  0.00    -0.205 F 
ATOM     80  C   UNL A   1      41.451  25.598  26.711  1.00  0.00     0.022 A 
BRANCH  78  81
ATOM     81  S   UNL A   1      43.204  27.274  25.445  1.00  0.00     0.127 S 
ATOM     82  O   UNL A   1      43.463  25.987  24.806  1.00  0.00    -0.237 OA
ATOM     83  O   UNL A   1      42.306  28.162  24.705  1.00  0.00    -0.237 OA
ATOM     84  O   UNL A   1      44.366  27.937  26.022  1.00  0.00    -0.744 OA
ENDBRANCH  78  81
ENDBRANCH  50  74
BRANCH  62  85
ATOM     85  C   UNL A   1      44.882  27.968  34.842  1.00  0.00     0.023 A 
ATOM     86  C   UNL A   1      46.122  28.599  34.628  1.00  0.00     0.012 A 
ATOM     87  C   UNL A   1      44.832  26.789  35.615  1.00  0.00     0.148 A 
ATOM     88  C   UNL A   1      47.295  28.057  35.154  1.00  0.00     0.002 A 
ATOM     89  C   UNL A   1      45.996  26.284  36.180  1.00  0.00     0.091 A 
ATOM     90  F   UNL A   1      43.642  26.197  35.799  1.00  0.00    -0.205 F 
ATOM     91  C   UNL A   1      47.231  26.909  35.939  1.00  0.00     0.022 A 
BRANCH  89  92
ATOM     92  S   UNL A   1      46.001  24.867  37.286  1.00  0.00     0.127 S 
ATOM     93  O   UNL A   1      46.319  23.775  36.369  1.00  0.00    -0.237 OA
ATOM     94  O   UNL A   1      47.073  25.211  38.220  1.00  0.00    -0.237 OA
ATOM     95  O   UNL A   1      44.672  24.812  37.879  1.00  0.00    -0.744 OA
ENDBRANCH  89  92
ENDBRANCH  62  85
ENDBRANCH  36  37
ENDBRANCH  29  31
ENDBRANCH  28  29
ENDBRANCH  27  28
ENDBRANCH  26  27
ENDBRANCH  25  26
ENDBRANCH  24  25
ENDBRANCH   1  24
TORSDOF 25
ENDMDL
MODEL 2
REMARK VINA RESULT:      -9.0      1.706      7.701
REMARK SMILES C[C@@H](O)CN(C)C(=O)N[C@H]1C=C[C@@H](C(=O)OCCOCCOCCOC(=O)c2ccc(-c3c4nc(c(-c5cccc(S(=O)(=O)[O-])c5F)c5ccc([nH]5)c(-c5cccc(S(=O)(=O)[O-])c5F)c5nc(c(-c6cccc(S(=O)(=O)[O-])c6F)c6ccc3[nH]6)C=C5)C=C4)cc2)C1
REMARK SMILES IDX 20 1 19 2 18 3 17 4 16 5 14 6 15 7 13 8 10 9 11 10 91 11
REMARK SMILES IDX 12 12 9 13 7 14 8 15 5 17 6 18 4 19 2 20 1 21 3 22 21 24
REMARK SMILES IDX 22 25 23 26 24 27 25 28 26 29 27 30 28 31 29 32 90 33 30 34
REMARK SMILES IDX 89 35 31 36 32 37 33 38 83 39 34 40 88 41 82 42 84 43 35 44
REMARK SMILES IDX 87 45 81 46 80 47 36 49 68 50 48 51 67 52 49 53 52 54 66 55
REMARK SMILES IDX 85 56 50 57 51 58 65 60 86 61 53 62 37 63 38 64 46 65 39 66
REMARK SMILES IDX 41 67 47 68 40 69 42 70 43 71 44 72 45 73 69 74 70 75 78 76
REMARK SMILES IDX 71 77 73 78 79 79 72 80 74 81 75 82 76 83 77 84 54 85 55 86
REMARK SMILES IDX 63 87 56 88 58 89 64 90 57 91 59 92 60 93 61 94 62 95
REMARK H PARENT 9 16 3 23 84 48 52 59
REMARK Flexibility Score: inf
ROOT
ATOM      1  C   UNL A   1      31.282  28.701  25.584  1.00  0.00     0.188 C 
ENDROOT
BRANCH   1   2
ATOM      2  O   UNL A   1      32.026  27.666  24.958  1.00  0.00    -0.376 OA
BRANCH   2   3
ATOM      3  C   UNL A   1      32.462  27.828  23.615  1.00  0.00     0.202 C 
BRANCH   3   4
ATOM      4  C   UNL A   1      33.810  27.244  23.160  1.00  0.00     0.261 C 
BRANCH   4   5
ATOM      5  O   UNL A   1      33.840  25.810  23.021  1.00  0.00    -0.463 OA
BRANCH   5   6
ATOM      6  C   UNL A   1      33.238  25.306  21.916  1.00  0.00     0.312 C 
ATOM      7  O   UNL A   1      33.316  25.811  20.799  1.00  0.00    -0.252 OA
BRANCH   6   8
ATOM      8  C   UNL A   1      32.456  24.013  22.155  1.00  0.00     0.124 C 
ATOM      9  C   UNL A   1      32.165  22.196  23.786  1.00  0.00     0.107 C 
ATOM     10  C   UNL A   1      31.289  23.361  24.092  1.00  0.00    -0.006 C 
ATOM     11  C   UNL A   1      33.150  22.790  22.775  1.00  0.00     0.048 C 
ATOM     12  C   UNL A   1      31.403  24.324  23.176  1.00  0.00    -0.014 C 
BRANCH   9  13
ATOM     13  N   UNL A   1      32.819  21.736  24.981  1.00  0.00    -0.332 N 
ATOM     14  C   UNL A   1      33.893  22.162  25.667  1.00  0.00     0.317 C 
ATOM     15  O   UNL A   1      34.327  21.375  26.513  1.00  0.00    -0.249 OA
ATOM     16  H   UNL A   1      32.390  20.944  25.380  1.00  0.00     0.165 HD
BRANCH  14  17
ATOM     17  N   UNL A   1      34.482  23.375  25.429  1.00  0.00    -0.325 N 
ATOM     18  C   UNL A   1      34.105  24.661  25.999  1.00  0.00     0.148 C 
BRANCH  17  19
ATOM     19  C   UNL A   1      35.714  23.373  24.639  1.00  0.00     0.152 C 
BRANCH  19  20
ATOM     20  C   UNL A   1      36.873  22.620  25.318  1.00  0.00     0.130 C 
ATOM     21  C   UNL A   1      37.266  21.338  24.591  1.00  0.00     0.040 C 
BRANCH  20  22
ATOM     22  O   UNL A   1      38.010  23.487  25.369  1.00  0.00    -0.392 OA
ATOM     23  H   UNL A   1      37.722  24.388  25.583  1.00  0.00     0.211 HD
ENDBRANCH  20  22
ENDBRANCH  19  20
ENDBRANCH  17  19
ENDBRANCH  14  17
ENDBRANCH   9  13
ENDBRANCH   6   8
ENDBRANCH   5   6
ENDBRANCH   4   5
ENDBRANCH   3   4
ENDBRANCH   2   3
ENDBRANCH   1   2
BRANCH   1  24
ATOM     24  C   UNL A   1      31.884  30.113  25.650  1.00  0.00     0.188 C 
BRANCH  24  25
ATOM     25  O   UNL A   1      32.359  30.519  26.908  1.00  0.00    -0.376 OA
BRANCH  25  26
ATOM     26  C   UNL A   1      32.444  31.901  27.200  1.00  0.00     0.202 C 
BRANCH  26  27
ATOM     27  C   UNL A   1      33.770  32.642  27.477  1.00  0.00     0.261 C 
BRANCH  27  28
ATOM     28  O   UNL A   1      33.725  34.046  27.758  1.00  0.00    -0.460 OA
BRANCH  28  29
ATOM     29  C   UNL A   1      33.614  34.423  29.054  1.00  0.00     0.338 C 
ATOM     30  O   UNL A   1      32.611  34.846  29.612  1.00  0.00    -0.246 OA
BRANCH  29  31
ATOM     31  C   UNL A   1      34.852  34.000  29.748  1.00  0.00     0.060 A 
ATOM     32  C   UNL A   1      36.095  34.442  29.265  1.00  0.00     0.016 A 
ATOM     33  C   UNL A   1      34.785  33.207  30.894  1.00  0.00     0.016 A 
ATOM     34  C   UNL A   1      37.273  34.089  29.928  1.00  0.00     0.010 A 
ATOM     35  C   UNL A   1      35.967  32.831  31.537  1.00  0.00     0.010 A 
ATOM     36  C   UNL A   1      37.218  33.255  31.050  1.00  0.00    -0.014 A 
BRANCH  36  37
ATOM     37  C   UNL A   1      38.456  32.683  31.635  1.00  0.00     0.031 A 
ATOM     38  C   UNL A   1      39.065  31.475  30.978  1.00  0.00     0.074 A 
ATOM     39  C   UNL A   1      38.997  33.182  32.762  1.00  0.00     0.049 A 
ATOM     40  N   UNL A   1      40.046  30.716  31.383  1.00  0.00    -0.248 NA
ATOM     41  C   UNL A   1      38.477  31.067  29.690  1.00  0.00     0.031 C 
ATOM     42  C   UNL A   1      38.517  34.359  33.483  1.00  0.00     0.029 A 
ATOM     43  N   UNL A   1      40.049  32.726  33.520  1.00  0.00    -0.354 N 
ATOM     44  C   UNL A   1      40.167  29.714  30.429  1.00  0.00     0.074 A 
ATOM     45  C   UNL A   1      39.161  29.965  29.420  1.00  0.00     0.031 C 
ATOM     46  C   UNL A   1      39.243  34.506  34.605  1.00  0.00     0.029 A 
ATOM     47  C   UNL A   1      40.209  33.412  34.701  1.00  0.00     0.049 A 
ATOM     48  H   UNL A   1      40.630  31.981  33.245  1.00  0.00     0.167 HD
ATOM     49  C   UNL A   1      41.038  28.679  30.392  1.00  0.00     0.034 A 
ATOM     50  C   UNL A   1      41.008  33.159  35.758  1.00  0.00     0.034 A 
ATOM     51  C   UNL A   1      42.042  28.434  31.392  1.00  0.00     0.049 A 
ATOM     52  C   UNL A   1      41.933  31.966  35.721  1.00  0.00     0.074 A 
ATOM     53  C   UNL A   1      43.004  27.441  31.416  1.00  0.00     0.029 A 
ATOM     54  N   UNL A   1      42.198  29.172  32.555  1.00  0.00    -0.354 N 
ATOM     55  N   UNL A   1      42.115  31.092  34.760  1.00  0.00    -0.248 NA
ATOM     56  C   UNL A   1      42.776  31.736  36.905  1.00  0.00     0.031 C 
ATOM     57  C   UNL A   1      43.714  27.551  32.615  1.00  0.00     0.029 A 
ATOM     58  C   UNL A   1      43.224  28.641  33.316  1.00  0.00     0.049 A 
ATOM     59  H   UNL A   1      41.659  29.957  32.803  1.00  0.00     0.167 HD
ATOM     60  C   UNL A   1      43.116  30.233  35.209  1.00  0.00     0.074 A 
ATOM     61  C   UNL A   1      43.512  30.703  36.520  1.00  0.00     0.031 C 
ATOM     62  C   UNL A   1      43.647  29.146  34.598  1.00  0.00     0.034 A 
BRANCH  49  63
ATOM     63  C   UNL A   1      40.945  27.726  29.230  1.00  0.00     0.023 A 
ATOM     64  C   UNL A   1      39.996  26.684  29.249  1.00  0.00     0.012 A 
ATOM     65  C   UNL A   1      41.763  27.899  28.096  1.00  0.00     0.148 A 
ATOM     66  C   UNL A   1      39.885  25.808  28.171  1.00  0.00     0.002 A 
ATOM     67  C   UNL A   1      41.613  27.051  27.006  1.00  0.00     0.091 A 
ATOM     68  F   UNL A   1      42.675  28.882  28.108  1.00  0.00    -0.205 F 
ATOM     69  C   UNL A   1      40.685  25.998  27.046  1.00  0.00     0.022 A 
BRANCH  67  70
ATOM     70  S   UNL A   1      42.539  27.260  25.481  1.00  0.00     0.127 S 
ATOM     71  O   UNL A   1      41.992  28.520  24.976  1.00  0.00    -0.237 OA
ATOM     72  O   UNL A   1      43.916  27.347  25.970  1.00  0.00    -0.237 OA
ATOM     73  O   UNL A   1      42.252  26.087  24.670  1.00  0.00    -0.744 OA
ENDBRANCH  67  70
ENDBRANCH  49  63
BRANCH  50  74
ATOM     74  C   UNL A   1      40.975  34.049  36.954  1.00  0.00     0.023 A 
ATOM     75  C   UNL A   1      41.725  35.242  36.955  1.00  0.00     0.012 A 
ATOM     76  C   UNL A   1      40.209  33.720  38.091  1.00  0.00     0.148 A 
ATOM     77  C   UNL A   1      41.737  36.074  38.075  1.00  0.00     0.002 A 
ATOM     78  C   UNL A   1      40.181  34.581  39.180  1.00  0.00     0.091 A 
ATOM     79  F   UNL A   1      39.518  32.572  38.078  1.00  0.00    -0.205 F 
ATOM     80  C   UNL A   1      40.959  35.750  39.182  1.00  0.00     0.022 A 
BRANCH  78  81
ATOM     81  S   UNL A   1      39.120  34.307  40.604  1.00  0.00     0.127 S 
ATOM     82  O   UNL A   1      37.815  34.127  39.974  1.00  0.00    -0.237 OA
ATOM     83  O   UNL A   1      39.701  33.094  41.179  1.00  0.00    -0.237 OA
ATOM     84  O   UNL A   1      39.261  35.495  41.434  1.00  0.00    -0.744 OA
ENDBRANCH  78  81
ENDBRANCH  50  74
BRANCH  62  85
ATOM     85  C   UNL A   1      44.750  28.399  35.306  1.00  0.00     0.023 A 
ATOM     86  C   UNL A   1      46.094  28.765  35.103  1.00  0.00     0.012 A 
ATOM     87  C   UNL A   1      44.442  27.399  36.252  1.00  0.00     0.148 A 
ATOM     88  C   UNL A   1      47.117  28.132  35.810  1.00  0.00     0.002 A 
ATOM     89  C   UNL A   1      45.460  26.810  36.991  1.00  0.00     0.091 A 
ATOM     90  F   UNL A   1      43.156  27.057  36.423  1.00  0.00    -0.205 F 
ATOM     91  C   UNL A   1      46.800  27.166  36.762  1.00  0.00     0.022 A 
BRANCH  89  92
ATOM     92  S   UNL A   1      45.145  25.628  38.306  1.00  0.00     0.127 S 
ATOM     93  O   UNL A   1      46.489  25.405  38.835  1.00  0.00    -0.237 OA
ATOM     94  O   UNL A   1      44.258  26.382  39.192  1.00  0.00    -0.237 OA
ATOM     95  O   UNL A   1      44.529  24.471  37.672  1.00  0.00    -0.744 OA
ENDBRANCH  89  92
ENDBRANCH  62  85
ENDBRANCH  36  37
ENDBRANCH  29  31
ENDBRANCH  28  29
ENDBRANCH  27  28
ENDBRANCH  26  27
ENDBRANCH  25  26
ENDBRANCH  24  25
ENDBRANCH   1  24
TORSDOF 25
ENDMDL
MODEL 3
REMARK VINA RESULT:      -9.0      1.864      2.161
REMARK SMILES C[C@@H](O)CN(C)C(=O)N[C@H]1C=C[C@@H](C(=O)OCCOCCOCCOC(=O)c2ccc(-c3c4nc(c(-c5cccc(S(=O)(=O)[O-])c5F)c5ccc([nH]5)c(-c5cccc(S(=O)(=O)[O-])c5F)c5nc(c(-c6cccc(S(=O)(=O)[O-])c6F)c6ccc3[nH]6)C=C5)C=C4)cc2)C1
REMARK SMILES IDX 20 1 19 2 18 3 17 4 16 5 14 6 15 7 13 8 10 9 11 10 91 11
REMARK SMILES IDX 12 12 9 13 7 14 8 15 5 17 6 18 4 19 2 20 1 21 3 22 21 24
REMARK SMILES IDX 22 25 23 26 24 27 25 28 26 29 27 30 28 31 29 32 90 33 30 34
REMARK SMILES IDX 89 35 31 36 32 37 33 38 83 39 34 40 88 41 82 42 84 43 35 44
REMARK SMILES IDX 87 45 81 46 80 47 36 49 68 50 48 51 67 52 49 53 52 54 66 55
REMARK SMILES IDX 85 56 50 57 51 58 65 60 86 61 53 62 37 63 38 64 46 65 39 66
REMARK SMILES IDX 41 67 47 68 40 69 42 70 43 71 44 72 45 73 69 74 70 75 78 76
REMARK SMILES IDX 71 77 73 78 79 79 72 80 74 81 75 82 76 83 77 84 54 85 55 86
REMARK SMILES IDX 63 87 56 88 58 89 64 90 57 91 59 92 60 93 61 94 62 95
REMARK H PARENT 9 16 3 23 84 48 52 59
REMARK Flexibility Score: inf
ROOT
ATOM      1  C   UNL A   1      32.041  29.279  27.102  1.00  0.00     0.188 C 
ENDROOT
BRANCH   1   2
ATOM      2  O   UNL A   1      32.336  28.264  26.154  1.00  0.00    -0.376 OA
BRANCH   2   3
ATOM      3  C   UNL A   1      31.517  28.119  25.001  1.00  0.00     0.202 C 
BRANCH   3   4
ATOM      4  C   UNL A   1      32.151  28.049  23.601  1.00  0.00     0.261 C 
BRANCH   4   5
ATOM      5  O   UNL A   1      33.308  27.198  23.497  1.00  0.00    -0.463 OA
BRANCH   5   6
ATOM      6  C   UNL A   1      33.370  26.409  22.395  1.00  0.00     0.312 C 
ATOM      7  O   UNL A   1      33.738  26.798  21.290  1.00  0.00    -0.252 OA
BRANCH   6   8
ATOM      8  C   UNL A   1      32.968  24.953  22.636  1.00  0.00     0.124 C 
ATOM      9  C   UNL A   1      32.086  23.445  24.367  1.00  0.00     0.107 C 
ATOM     10  C   UNL A   1      30.994  24.138  23.627  1.00  0.00    -0.006 C 
ATOM     11  C   UNL A   1      33.318  24.261  23.962  1.00  0.00     0.048 C 
ATOM     12  C   UNL A   1      31.469  24.912  22.649  1.00  0.00    -0.014 C 
BRANCH   9  13
ATOM     13  N   UNL A   1      31.838  23.494  25.782  1.00  0.00    -0.332 N 
ATOM     14  C   UNL A   1      32.449  22.946  26.846  1.00  0.00     0.317 C 
ATOM     15  O   UNL A   1      31.815  22.992  27.903  1.00  0.00    -0.249 OA
ATOM     16  H   UNL A   1      31.057  24.046  26.023  1.00  0.00     0.165 HD
BRANCH  14  17
ATOM     17  N   UNL A   1      33.681  22.354  26.759  1.00  0.00    -0.325 N 
ATOM     18  C   UNL A   1      34.964  23.017  26.573  1.00  0.00     0.148 C 
BRANCH  17  19
ATOM     19  C   UNL A   1      33.749  20.917  27.029  1.00  0.00     0.152 C 
BRANCH  19  20
ATOM     20  C   UNL A   1      33.171  20.054  25.892  1.00  0.00     0.130 C 
ATOM     21  C   UNL A   1      34.124  19.895  24.712  1.00  0.00     0.040 C 
BRANCH  20  22
ATOM     22  O   UNL A   1      32.866  18.757  26.415  1.00  0.00    -0.392 OA
ATOM     23  H   UNL A   1      33.142  18.709  27.344  1.00  0.00     0.211 HD
ENDBRANCH  20  22
ENDBRANCH  19  20
ENDBRANCH  17  19
ENDBRANCH  14  17
ENDBRANCH   9  13
ENDBRANCH   6   8
ENDBRANCH   5   6
ENDBRANCH   4   5
ENDBRANCH   3   4
ENDBRANCH   2   3
ENDBRANCH   1   2
BRANCH   1  24
ATOM     24  C   UNL A   1      32.187  30.750  26.683  1.00  0.00     0.188 C 
BRANCH  24  25
ATOM     25  O   UNL A   1      32.969  31.554  27.528  1.00  0.00    -0.376 OA
BRANCH  25  26
ATOM     26  C   UNL A   1      32.702  32.942  27.601  1.00  0.00     0.202 C 
BRANCH  26  27
ATOM     27  C   UNL A   1      33.798  34.026  27.689  1.00  0.00     0.261 C 
BRANCH  27  28
ATOM     28  O   UNL A   1      33.565  35.171  28.518  1.00  0.00    -0.460 OA
BRANCH  28  29
ATOM     29  C   UNL A   1      33.428  34.964  29.849  1.00  0.00     0.338 C 
ATOM     30  O   UNL A   1      32.464  35.258  30.541  1.00  0.00    -0.246 OA
BRANCH  29  31
ATOM     31  C   UNL A   1      34.545  34.093  30.281  1.00  0.00     0.060 A 
ATOM     32  C   UNL A   1      34.278  32.999  31.121  1.00  0.00     0.016 A 
ATOM     33  C   UNL A   1      35.842  34.328  29.825  1.00  0.00     0.016 A 
ATOM     34  C   UNL A   1      35.308  32.139  31.507  1.00  0.00     0.010 A 
ATOM     35  C   UNL A   1      36.877  33.484  30.237  1.00  0.00     0.010 A 
ATOM     36  C   UNL A   1      36.620  32.395  31.093  1.00  0.00    -0.014 A 
BRANCH  36  37
ATOM     37  C   UNL A   1      37.761  31.639  31.666  1.00  0.00     0.031 A 
ATOM     38  C   UNL A   1      38.359  32.119  32.959  1.00  0.00     0.074 A 
ATOM     39  C   UNL A   1      38.299  30.584  31.025  1.00  0.00     0.049 A 
ATOM     40  N   UNL A   1      39.440  31.721  33.572  1.00  0.00    -0.248 NA
ATOM     41  C   UNL A   1      37.639  33.204  33.647  1.00  0.00     0.031 C 
ATOM     42  C   UNL A   1      37.801  30.006  29.779  1.00  0.00     0.029 A 
ATOM     43  N   UNL A   1      39.417  29.840  31.321  1.00  0.00    -0.354 N 
ATOM     44  C   UNL A   1      39.560  32.533  34.693  1.00  0.00     0.074 A 
ATOM     45  C   UNL A   1      38.436  33.444  34.678  1.00  0.00     0.031 C 
ATOM     46  C   UNL A   1      38.637  29.027  29.390  1.00  0.00     0.029 A 
ATOM     47  C   UNL A   1      39.748  28.938  30.337  1.00  0.00     0.049 A 
ATOM     48  H   UNL A   1      39.930  29.944  32.154  1.00  0.00     0.167 HD
ATOM     49  C   UNL A   1      40.516  32.520  35.651  1.00  0.00     0.034 A 
ATOM     50  C   UNL A   1      40.844  28.165  30.193  1.00  0.00     0.034 A 
ATOM     51  C   UNL A   1      41.628  31.609  35.668  1.00  0.00     0.049 A 
ATOM     52  C   UNL A   1      41.926  28.207  31.245  1.00  0.00     0.074 A 
ATOM     53  C   UNL A   1      42.620  31.485  36.624  1.00  0.00     0.029 A 
ATOM     54  N   UNL A   1      41.910  30.685  34.674  1.00  0.00    -0.354 N 
ATOM     55  N   UNL A   1      41.969  28.899  32.358  1.00  0.00    -0.248 NA
ATOM     56  C   UNL A   1      43.101  27.347  31.031  1.00  0.00     0.031 C 
ATOM     57  C   UNL A   1      43.528  30.516  36.187  1.00  0.00     0.029 A 
ATOM     58  C   UNL A   1      43.075  30.004  34.981  1.00  0.00     0.049 A 
ATOM     59  H   UNL A   1      41.363  30.535  33.871  1.00  0.00     0.167 HD
ATOM     60  C   UNL A   1      43.155  28.533  32.991  1.00  0.00     0.074 A 
ATOM     61  C   UNL A   1      43.790  27.544  32.146  1.00  0.00     0.031 C 
ATOM     62  C   UNL A   1      43.675  28.984  34.159  1.00  0.00     0.034 A 
BRANCH  49  63
ATOM     63  C   UNL A   1      40.403  33.526  36.765  1.00  0.00     0.023 A 
ATOM     64  C   UNL A   1      40.989  34.800  36.625  1.00  0.00     0.012 A 
ATOM     65  C   UNL A   1      39.670  33.225  37.930  1.00  0.00     0.148 A 
ATOM     66  C   UNL A   1      40.875  35.749  37.640  1.00  0.00     0.002 A 
ATOM     67  C   UNL A   1      39.520  34.192  38.916  1.00  0.00     0.091 A 
ATOM     68  F   UNL A   1      39.140  32.000  38.054  1.00  0.00    -0.205 F 
ATOM     69  C   UNL A   1      40.132  35.448  38.779  1.00  0.00     0.022 A 
BRANCH  67  70
ATOM     70  S   UNL A   1      38.518  33.932  40.383  1.00  0.00     0.127 S 
ATOM     71  O   UNL A   1      37.265  33.451  39.801  1.00  0.00    -0.237 OA
ATOM     72  O   UNL A   1      39.286  32.914  41.101  1.00  0.00    -0.237 OA
ATOM     73  O   UNL A   1      38.439  35.222  41.053  1.00  0.00    -0.744 OA
ENDBRANCH  67  70
ENDBRANCH  49  63
BRANCH  50  74
ATOM     74  C   UNL A   1      40.986  27.278  29.002  1.00  0.00     0.023 A 
ATOM     75  C   UNL A   1      40.238  26.087  28.928  1.00  0.00     0.012 A 
ATOM     76  C   UNL A   1      41.859  27.606  27.946  1.00  0.00     0.148 A 
ATOM     77  C   UNL A   1      40.378  25.224  27.841  1.00  0.00     0.002 A 
ATOM     78  C   UNL A   1      41.952  26.771  26.839  1.00  0.00     0.091 A 
ATOM     79  F   UNL A   1      42.577  28.734  28.043  1.00  0.00    -0.205 F 
ATOM     80  C   UNL A   1      41.226  25.570  26.793  1.00  0.00     0.022 A 
BRANCH  78  81
ATOM     81  S   UNL A   1      42.929  27.188  25.391  1.00  0.00     0.127 S 
ATOM     82  O   UNL A   1      44.217  27.530  25.987  1.00  0.00    -0.237 OA
ATOM     83  O   UNL A   1      42.908  25.929  24.645  1.00  0.00    -0.237 OA
ATOM     84  O   UNL A   1      42.223  28.284  24.742  1.00  0.00    -0.744 OA
ENDBRANCH  78  81
ENDBRANCH  50  74
BRANCH  62  85
ATOM     85  C   UNL A   1      44.979  28.393  34.632  1.00  0.00     0.023 A 
ATOM     86  C   UNL A   1      44.980  27.244  35.446  1.00  0.00     0.012 A 
ATOM     87  C   UNL A   1      46.208  28.921  34.183  1.00  0.00     0.148 A 
ATOM     88  C   UNL A   1      46.180  26.644  35.827  1.00  0.00     0.002 A 
ATOM     89  C   UNL A   1      47.397  28.288  34.522  1.00  0.00     0.091 A 
ATOM     90  F   UNL A   1      46.187  30.022  33.417  1.00  0.00    -0.205 F 
ATOM     91  C   UNL A   1      47.386  27.157  35.355  1.00  0.00     0.022 A 
BRANCH  89  92
ATOM     92  S   UNL A   1      48.992  28.815  33.885  1.00  0.00     0.127 S 
ATOM     93  O   UNL A   1      49.158  30.113  34.535  1.00  0.00    -0.237 OA
ATOM     94  O   UNL A   1      49.883  27.766  34.380  1.00  0.00    -0.237 OA
ATOM     95  O   UNL A   1      48.854  28.861  32.436  1.00  0.00    -0.744 OA
ENDBRANCH  89  92
ENDBRANCH  62  85
ENDBRANCH  36  37
ENDBRANCH  29  31
ENDBRANCH  28  29
ENDBRANCH  27  28
ENDBRANCH  26  27
ENDBRANCH  25  26
ENDBRANCH  24  25
ENDBRANCH   1  24
TORSDOF 25
ENDMDL
