MODEL 1
REMARK VINA RESULT:     -10.7      0.000      0.000
REMARK SMILES O=C(C[NH+]1CCN(c2ncc(C(F)(F)F)cc2Cl)CC1)OCCOCCOCCOC(=O)c1ccc(-c2c3nc(c(-c4cccc(S(=O)(=O)[O-])c4F)c4ccc([nH]4)c(-c4cccc(S(=O)(=O)[O-])c4F)c4nc(c(-c5cccc(S(=O)(=O)[O-])c5F)c5ccc2[nH]5)C=C4)C=C3)cc1
REMARK SMILES IDX 25 1 24 2 23 3 22 4 21 5 2 6 1 7 3 8 4 9 5 10 20 11 6 13
REMARK SMILES IDX 19 14 7 15 8 16 9 17 17 18 10 19 16 20 18 21 11 22 12 23
REMARK SMILES IDX 13 24 14 25 15 26 26 27 27 28 28 29 29 30 30 31 31 32 32 33
REMARK SMILES IDX 33 34 34 35 95 36 35 37 94 38 36 39 37 40 38 41 88 42 39 43
REMARK SMILES IDX 93 44 87 45 89 46 40 47 92 48 86 49 85 50 41 52 73 53 53 54
REMARK SMILES IDX 72 55 54 56 57 57 71 58 90 59 55 60 56 61 70 63 91 64 58 65
REMARK SMILES IDX 42 66 43 67 51 68 44 69 46 70 52 71 45 72 47 73 48 74 49 75
REMARK SMILES IDX 50 76 74 77 75 78 83 79 76 80 78 81 84 82 77 83 79 84 80 85
REMARK SMILES IDX 81 86 82 87 59 88 60 89 68 90 61 91 63 92 69 93 62 94 64 95
REMARK SMILES IDX 65 96 66 97 67 98
REMARK H PARENT 4 12 89 51 57 62
REMARK Flexibility Score: inf
ROOT
ATOM      1  C   UNL A   1      33.719  28.094  26.071  1.00  0.00     0.188 C 
ENDROOT
BRANCH   1   2
ATOM      2  O   UNL A   1      33.330  27.179  25.049  1.00  0.00    -0.376 OA
BRANCH   2   3
ATOM      3  C   UNL A   1      33.358  27.694  23.726  1.00  0.00     0.202 C 
BRANCH   3   4
ATOM      4  C   UNL A   1      32.000  27.529  23.063  1.00  0.00     0.261 C 
BRANCH   4   5
ATOM      5  O   UNL A   1      30.931  27.817  23.976  1.00  0.00    -0.459 OA
BRANCH   5   6
ATOM      6  C   UNL A   1      29.977  26.873  24.223  1.00  0.00     0.361 C 
ATOM      7  O   UNL A   1      28.982  26.819  23.506  1.00  0.00    -0.245 OA
BRANCH   6   8
ATOM      8  C   UNL A   1      30.129  26.062  25.520  1.00  0.00     0.386 C 
BRANCH   8   9
ATOM      9  N   UNL A   1      29.908  24.615  25.317  1.00  0.00    -0.323 N 
ATOM     10  C   UNL A   1      30.660  24.075  24.162  1.00  0.00     0.284 C 
ATOM     11  C   UNL A   1      30.298  23.835  26.530  1.00  0.00     0.284 C 
ATOM     12  H   UNL A   1      28.910  24.513  25.134  1.00  0.00     0.348 HD
ATOM     13  C   UNL A   1      32.198  24.030  24.352  1.00  0.00     0.179 C 
ATOM     14  C   UNL A   1      31.825  23.659  26.780  1.00  0.00     0.179 C 
ATOM     15  N   UNL A   1      32.483  23.251  25.539  1.00  0.00    -0.344 N 
BRANCH  15  16
ATOM     16  C   UNL A   1      33.638  22.506  25.552  1.00  0.00     0.147 A 
ATOM     17  N   UNL A   1      34.807  23.150  25.798  1.00  0.00    -0.237 NA
ATOM     18  C   UNL A   1      33.622  21.159  25.156  1.00  0.00     0.084 A 
ATOM     19  C   UNL A   1      35.962  22.457  25.654  1.00  0.00     0.126 A 
ATOM     20  C   UNL A   1      34.826  20.480  24.986  1.00  0.00     0.039 A 
ATOM     21  Cl  UNL A   1      32.162  20.340  24.731  1.00  0.00    -0.080 Cl
ATOM     22  C   UNL A   1      36.031  21.139  25.227  1.00  0.00     0.075 A 
BRANCH  22  23
ATOM     23  C   UNL A   1      37.360  20.491  25.006  1.00  0.00     0.417 C 
ATOM     24  F   UNL A   1      37.261  19.137  24.883  1.00  0.00    -0.166 F 
ATOM     25  F   UNL A   1      37.977  20.922  23.873  1.00  0.00    -0.166 F 
ATOM     26  F   UNL A   1      38.244  20.701  26.021  1.00  0.00    -0.166 F 
ENDBRANCH  22  23
ENDBRANCH  15  16
ENDBRANCH   8   9
ENDBRANCH   6   8
ENDBRANCH   5   6
ENDBRANCH   4   5
ENDBRANCH   3   4
ENDBRANCH   2   3
ENDBRANCH   1   2
BRANCH   1  27
ATOM     27  C   UNL A   1      33.607  29.575  25.690  1.00  0.00     0.188 C 
BRANCH  27  28
ATOM     28  O   UNL A   1      32.300  30.140  25.627  1.00  0.00    -0.376 OA
BRANCH  28  29
ATOM     29  C   UNL A   1      31.699  30.623  26.826  1.00  0.00     0.202 C 
BRANCH  29  30
ATOM     30  C   UNL A   1      31.428  32.124  26.886  1.00  0.00     0.261 C 
BRANCH  30  31
ATOM     31  O   UNL A   1      32.623  32.896  26.687  1.00  0.00    -0.460 OA
BRANCH  31  32
ATOM     32  C   UNL A   1      33.163  33.437  27.800  1.00  0.00     0.338 C 
ATOM     33  O   UNL A   1      32.667  34.293  28.521  1.00  0.00    -0.246 OA
BRANCH  32  34
ATOM     34  C   UNL A   1      34.436  32.773  28.119  1.00  0.00     0.060 A 
ATOM     35  C   UNL A   1      34.400  31.444  28.558  1.00  0.00     0.016 A 
ATOM     36  C   UNL A   1      35.633  33.492  28.114  1.00  0.00     0.016 A 
ATOM     37  C   UNL A   1      35.554  30.851  29.067  1.00  0.00     0.010 A 
ATOM     38  C   UNL A   1      36.786  32.899  28.630  1.00  0.00     0.010 A 
ATOM     39  C   UNL A   1      36.738  31.596  29.155  1.00  0.00    -0.014 A 
BRANCH  39  40
ATOM     40  C   UNL A   1      37.878  31.084  29.952  1.00  0.00     0.031 A 
ATOM     41  C   UNL A   1      38.799  30.071  29.329  1.00  0.00     0.074 A 
ATOM     42  C   UNL A   1      38.071  31.496  31.218  1.00  0.00     0.049 A 
ATOM     43  N   UNL A   1      39.820  29.448  29.856  1.00  0.00    -0.248 NA
ATOM     44  C   UNL A   1      38.528  29.705  27.928  1.00  0.00     0.031 C 
ATOM     45  C   UNL A   1      37.242  32.469  31.925  1.00  0.00     0.029 A 
ATOM     46  N   UNL A   1      39.013  31.117  32.139  1.00  0.00    -0.354 N 
ATOM     47  C   UNL A   1      40.298  28.599  28.864  1.00  0.00     0.074 A 
ATOM     48  C   UNL A   1      39.447  28.776  27.707  1.00  0.00     0.031 C 
ATOM     49  C   UNL A   1      37.691  32.584  33.187  1.00  0.00     0.029 A 
ATOM     50  C   UNL A   1      38.823  31.680  33.377  1.00  0.00     0.049 A 
ATOM     51  H   UNL A   1      39.753  30.501  31.933  1.00  0.00     0.167 HD
ATOM     52  C   UNL A   1      41.359  27.759  28.905  1.00  0.00     0.034 A 
ATOM     53  C   UNL A   1      39.476  31.470  34.538  1.00  0.00     0.034 A 
ATOM     54  C   UNL A   1      42.216  27.602  30.048  1.00  0.00     0.049 A 
ATOM     55  C   UNL A   1      40.645  30.520  34.563  1.00  0.00     0.074 A 
ATOM     56  C   UNL A   1      43.351  26.819  30.172  1.00  0.00     0.029 A 
ATOM     57  N   UNL A   1      42.029  28.231  31.269  1.00  0.00    -0.354 N 
ATOM     58  N   UNL A   1      41.165  29.822  33.581  1.00  0.00    -0.248 NA
ATOM     59  C   UNL A   1      41.339  30.351  35.849  1.00  0.00     0.031 C 
ATOM     60  C   UNL A   1      43.837  26.961  31.477  1.00  0.00     0.029 A 
ATOM     61  C   UNL A   1      43.017  27.847  32.157  1.00  0.00     0.049 A 
ATOM     62  H   UNL A   1      41.298  28.860  31.473  1.00  0.00     0.167 HD
ATOM     63  C   UNL A   1      42.262  29.160  34.120  1.00  0.00     0.074 A 
ATOM     64  C   UNL A   1      42.346  29.556  35.510  1.00  0.00     0.031 C 
ATOM     65  C   UNL A   1      43.117  28.292  33.523  1.00  0.00     0.034 A 
BRANCH  52  66
ATOM     66  C   UNL A   1      41.674  26.969  27.662  1.00  0.00     0.023 A 
ATOM     67  C   UNL A   1      42.192  27.633  26.532  1.00  0.00     0.012 A 
ATOM     68  C   UNL A   1      41.508  25.571  27.628  1.00  0.00     0.148 A 
ATOM     69  C   UNL A   1      42.515  26.922  25.376  1.00  0.00     0.002 A 
ATOM     70  C   UNL A   1      41.868  24.864  26.487  1.00  0.00     0.091 A 
ATOM     71  F   UNL A   1      40.989  24.962  28.704  1.00  0.00    -0.205 F 
ATOM     72  C   UNL A   1      42.363  25.538  25.358  1.00  0.00     0.022 A 
BRANCH  70  73
ATOM     73  S   UNL A   1      41.774  23.073  26.390  1.00  0.00     0.127 S 
ATOM     74  O   UNL A   1      40.346  22.864  26.154  1.00  0.00    -0.237 OA
ATOM     75  O   UNL A   1      42.631  22.780  25.240  1.00  0.00    -0.237 OA
ATOM     76  O   UNL A   1      42.278  22.576  27.662  1.00  0.00    -0.744 OA
ENDBRANCH  70  73
ENDBRANCH  52  66
BRANCH  53  77
ATOM     77  C   UNL A   1      39.061  32.205  35.765  1.00  0.00     0.023 A 
ATOM     78  C   UNL A   1      39.392  33.567  35.903  1.00  0.00     0.012 A 
ATOM     79  C   UNL A   1      38.318  31.571  36.779  1.00  0.00     0.148 A 
ATOM     80  C   UNL A   1      39.010  34.277  37.043  1.00  0.00     0.002 A 
ATOM     81  C   UNL A   1      37.896  32.298  37.886  1.00  0.00     0.091 A 
ATOM     82  F   UNL A   1      38.032  30.269  36.638  1.00  0.00    -0.205 F 
ATOM     83  C   UNL A   1      38.254  33.647  38.028  1.00  0.00     0.022 A 
BRANCH  81  84
ATOM     84  S   UNL A   1      36.811  31.596  39.134  1.00  0.00     0.127 S 
ATOM     85  O   UNL A   1      37.705  31.484  40.282  1.00  0.00    -0.237 OA
ATOM     86  O   UNL A   1      35.778  32.625  39.253  1.00  0.00    -0.237 OA
ATOM     87  O   UNL A   1      36.337  30.338  38.571  1.00  0.00    -0.744 OA
ENDBRANCH  81  84
ENDBRANCH  53  77
BRANCH  65  88
ATOM     88  C   UNL A   1      44.236  27.725  34.358  1.00  0.00     0.023 A 
ATOM     89  C   UNL A   1      45.432  28.454  34.508  1.00  0.00     0.012 A 
ATOM     90  C   UNL A   1      44.073  26.513  35.057  1.00  0.00     0.148 A 
ATOM     91  C   UNL A   1      46.459  27.972  35.318  1.00  0.00     0.002 A 
ATOM     92  C   UNL A   1      45.081  26.061  35.898  1.00  0.00     0.091 A 
ATOM     93  F   UNL A   1      42.934  25.823  34.886  1.00  0.00    -0.205 F 
ATOM     94  C   UNL A   1      46.280  26.783  36.022  1.00  0.00     0.022 A 
BRANCH  92  95
ATOM     95  S   UNL A   1      44.898  24.590  36.914  1.00  0.00     0.127 S 
ATOM     96  O   UNL A   1      44.622  23.566  35.909  1.00  0.00    -0.237 OA
ATOM     97  O   UNL A   1      46.213  24.483  37.549  1.00  0.00    -0.237 OA
ATOM     98  O   UNL A   1      43.807  24.875  37.836  1.00  0.00    -0.744 OA
ENDBRANCH  92  95
ENDBRANCH  65  88
ENDBRANCH  39  40
ENDBRANCH  32  34
ENDBRANCH  31  32
ENDBRANCH  30  31
ENDBRANCH  29  30
ENDBRANCH  28  29
ENDBRANCH  27  28
ENDBRANCH   1  27
TORSDOF 23
ENDMDL
MODEL 2
REMARK VINA RESULT:     -10.6      1.890      7.551
REMARK SMILES O=C(C[NH+]1CCN(c2ncc(C(F)(F)F)cc2Cl)CC1)OCCOCCOCCOC(=O)c1ccc(-c2c3nc(c(-c4cccc(S(=O)(=O)[O-])c4F)c4ccc([nH]4)c(-c4cccc(S(=O)(=O)[O-])c4F)c4nc(c(-c5cccc(S(=O)(=O)[O-])c5F)c5ccc2[nH]5)C=C4)C=C3)cc1
REMARK SMILES IDX 25 1 24 2 23 3 22 4 21 5 2 6 1 7 3 8 4 9 5 10 20 11 6 13
REMARK SMILES IDX 19 14 7 15 8 16 9 17 17 18 10 19 16 20 18 21 11 22 12 23
REMARK SMILES IDX 13 24 14 25 15 26 26 27 27 28 28 29 29 30 30 31 31 32 32 33
REMARK SMILES IDX 33 34 34 35 95 36 35 37 94 38 36 39 37 40 38 41 88 42 39 43
REMARK SMILES IDX 93 44 87 45 89 46 40 47 92 48 86 49 85 50 41 52 73 53 53 54
REMARK SMILES IDX 72 55 54 56 57 57 71 58 90 59 55 60 56 61 70 63 91 64 58 65
REMARK SMILES IDX 42 66 43 67 51 68 44 69 46 70 52 71 45 72 47 73 48 74 49 75
REMARK SMILES IDX 50 76 74 77 75 78 83 79 76 80 78 81 84 82 77 83 79 84 80 85
REMARK SMILES IDX 81 86 82 87 59 88 60 89 68 90 61 91 63 92 69 93 62 94 64 95
REMARK SMILES IDX 65 96 66 97 67 98
REMARK H PARENT 4 12 89 51 57 62
REMARK Flexibility Score: inf
ROOT
ATOM      1  C   UNL A   1      33.756  28.672  26.345  1.00  0.00     0.188 C 
ENDROOT
BRANCH   1   2
ATOM      2  O   UNL A   1      33.849  27.673  25.332  1.00  0.00    -0.376 OA
BRANCH   2   3
ATOM      3  C   UNL A   1      33.999  28.159  24.007  1.00  0.00     0.202 C 
BRANCH   3   4
ATOM      4  C   UNL A   1      32.710  27.971  23.223  1.00  0.00     0.261 C 
BRANCH   4   5
ATOM      5  O   UNL A   1      31.604  27.682  24.091  1.00  0.00    -0.459 OA
BRANCH   5   6
ATOM      6  C   UNL A   1      30.893  26.530  23.923  1.00  0.00     0.361 C 
ATOM      7  O   UNL A   1      29.861  26.549  23.257  1.00  0.00    -0.245 OA
BRANCH   6   8
ATOM      8  C   UNL A   1      31.340  25.315  24.753  1.00  0.00     0.386 C 
BRANCH   8   9
ATOM      9  N   UNL A   1      30.425  24.163  24.617  1.00  0.00    -0.323 N 
ATOM     10  C   UNL A   1      30.612  23.429  23.345  1.00  0.00     0.284 C 
ATOM     11  C   UNL A   1      30.605  23.196  25.741  1.00  0.00     0.284 C 
ATOM     12  H   UNL A   1      29.485  24.556  24.633  1.00  0.00     0.348 HD
ATOM     13  C   UNL A   1      31.949  22.653  23.232  1.00  0.00     0.179 C 
ATOM     14  C   UNL A   1      31.881  22.305  25.691  1.00  0.00     0.179 C 
ATOM     15  N   UNL A   1      32.034  21.738  24.352  1.00  0.00    -0.344 N 
BRANCH  15  16
ATOM     16  C   UNL A   1      32.677  20.540  24.150  1.00  0.00     0.147 A 
ATOM     17  N   UNL A   1      31.999  19.555  23.509  1.00  0.00    -0.237 NA
ATOM     18  C   UNL A   1      33.927  20.294  24.740  1.00  0.00     0.084 A 
ATOM     19  C   UNL A   1      32.563  18.325  23.449  1.00  0.00     0.126 A 
ATOM     20  C   UNL A   1      34.469  19.011  24.689  1.00  0.00     0.039 A 
ATOM     21  Cl  UNL A   1      34.768  21.494  25.656  1.00  0.00    -0.080 Cl
ATOM     22  C   UNL A   1      33.772  17.992  24.040  1.00  0.00     0.075 A 
BRANCH  22  23
ATOM     23  C   UNL A   1      34.264  16.581  24.001  1.00  0.00     0.417 C 
ATOM     24  F   UNL A   1      34.582  16.179  22.737  1.00  0.00    -0.166 F 
ATOM     25  F   UNL A   1      35.387  16.392  24.744  1.00  0.00    -0.166 F 
ATOM     26  F   UNL A   1      33.354  15.674  24.454  1.00  0.00    -0.166 F 
ENDBRANCH  22  23
ENDBRANCH  15  16
ENDBRANCH   8   9
ENDBRANCH   6   8
ENDBRANCH   5   6
ENDBRANCH   4   5
ENDBRANCH   3   4
ENDBRANCH   2   3
ENDBRANCH   1   2
BRANCH   1  27
ATOM     27  C   UNL A   1      33.502  30.093  25.829  1.00  0.00     0.188 C 
BRANCH  27  28
ATOM     28  O   UNL A   1      32.150  30.540  25.773  1.00  0.00    -0.376 OA
BRANCH  28  29
ATOM     29  C   UNL A   1      31.588  31.182  26.915  1.00  0.00     0.202 C 
BRANCH  29  30
ATOM     30  C   UNL A   1      31.625  32.708  26.916  1.00  0.00     0.261 C 
BRANCH  30  31
ATOM     31  O   UNL A   1      32.967  33.215  26.838  1.00  0.00    -0.460 OA
BRANCH  31  32
ATOM     32  C   UNL A   1      33.523  33.581  28.013  1.00  0.00     0.338 C 
ATOM     33  O   UNL A   1      33.079  34.383  28.823  1.00  0.00    -0.246 OA
BRANCH  32  34
ATOM     34  C   UNL A   1      34.737  32.789  28.266  1.00  0.00     0.060 A 
ATOM     35  C   UNL A   1      34.588  31.450  28.648  1.00  0.00     0.016 A 
ATOM     36  C   UNL A   1      35.995  33.395  28.257  1.00  0.00     0.016 A 
ATOM     37  C   UNL A   1      35.694  30.731  29.099  1.00  0.00     0.010 A 
ATOM     38  C   UNL A   1      37.100  32.675  28.714  1.00  0.00     0.010 A 
ATOM     39  C   UNL A   1      36.944  31.360  29.185  1.00  0.00    -0.014 A 
BRANCH  39  40
ATOM     40  C   UNL A   1      38.051  30.710  29.926  1.00  0.00     0.031 A 
ATOM     41  C   UNL A   1      38.329  31.146  31.339  1.00  0.00     0.074 A 
ATOM     42  C   UNL A   1      38.811  29.769  29.340  1.00  0.00     0.049 A 
ATOM     43  N   UNL A   1      39.275  30.758  32.153  1.00  0.00    -0.248 NA
ATOM     44  C   UNL A   1      37.423  32.158  31.908  1.00  0.00     0.031 C 
ATOM     45  C   UNL A   1      38.637  29.272  27.976  1.00  0.00     0.029 A 
ATOM     46  N   UNL A   1      39.903  29.088  29.814  1.00  0.00    -0.354 N 
ATOM     47  C   UNL A   1      39.098  31.496  33.318  1.00  0.00     0.074 A 
ATOM     48  C   UNL A   1      37.961  32.364  33.102  1.00  0.00     0.031 C 
ATOM     49  C   UNL A   1      39.615  28.389  27.710  1.00  0.00     0.029 A 
ATOM     50  C   UNL A   1      40.491  28.276  28.875  1.00  0.00     0.049 A 
ATOM     51  H   UNL A   1      40.234  29.174  30.737  1.00  0.00     0.167 HD
ATOM     52  C   UNL A   1      39.807  31.444  34.470  1.00  0.00     0.034 A 
ATOM     53  C   UNL A   1      41.620  27.543  28.943  1.00  0.00     0.034 A 
ATOM     54  C   UNL A   1      40.922  30.564  34.689  1.00  0.00     0.049 A 
ATOM     55  C   UNL A   1      42.400  27.513  30.232  1.00  0.00     0.074 A 
ATOM     56  C   UNL A   1      41.671  30.395  35.840  1.00  0.00     0.029 A 
ATOM     57  N   UNL A   1      41.456  29.712  33.735  1.00  0.00    -0.354 N 
ATOM     58  N   UNL A   1      42.145  28.117  31.368  1.00  0.00    -0.248 NA
ATOM     59  C   UNL A   1      43.608  26.674  30.259  1.00  0.00     0.031 C 
ATOM     60  C   UNL A   1      42.672  29.453  35.574  1.00  0.00     0.029 A 
ATOM     61  C   UNL A   1      42.532  29.023  34.264  1.00  0.00     0.049 A 
ATOM     62  H   UNL A   1      41.117  29.613  32.816  1.00  0.00     0.167 HD
ATOM     63  C   UNL A   1      43.137  27.707  32.252  1.00  0.00     0.074 A 
ATOM     64  C   UNL A   1      43.987  26.786  31.526  1.00  0.00     0.031 C 
ATOM     65  C   UNL A   1      43.336  28.069  33.543  1.00  0.00     0.034 A 
BRANCH  52  66
ATOM     66  C   UNL A   1      39.374  32.343  35.598  1.00  0.00     0.023 A 
ATOM     67  C   UNL A   1      38.484  31.851  36.574  1.00  0.00     0.012 A 
ATOM     68  C   UNL A   1      39.883  33.650  35.722  1.00  0.00     0.148 A 
ATOM     69  C   UNL A   1      38.086  32.655  37.642  1.00  0.00     0.002 A 
ATOM     70  C   UNL A   1      39.513  34.432  36.810  1.00  0.00     0.091 A 
ATOM     71  F   UNL A   1      40.708  34.108  34.769  1.00  0.00    -0.205 F 
ATOM     72  C   UNL A   1      38.608  33.939  37.765  1.00  0.00     0.022 A 
BRANCH  70  73
ATOM     73  S   UNL A   1      40.184  36.073  37.094  1.00  0.00     0.127 S 
ATOM     74  O   UNL A   1      39.889  36.736  35.825  1.00  0.00    -0.237 OA
ATOM     75  O   UNL A   1      39.385  36.543  38.227  1.00  0.00    -0.237 OA
ATOM     76  O   UNL A   1      41.597  35.882  37.389  1.00  0.00    -0.744 OA
ENDBRANCH  70  73
ENDBRANCH  52  66
BRANCH  53  77
ATOM     77  C   UNL A   1      42.059  26.748  27.764  1.00  0.00     0.023 A 
ATOM     78  C   UNL A   1      42.839  27.360  26.764  1.00  0.00     0.012 A 
ATOM     79  C   UNL A   1      41.731  25.384  27.641  1.00  0.00     0.148 A 
ATOM     80  C   UNL A   1      43.265  26.633  25.651  1.00  0.00     0.002 A 
ATOM     81  C   UNL A   1      42.203  24.653  26.557  1.00  0.00     0.091 A 
ATOM     82  F   UNL A   1      40.970  24.825  28.592  1.00  0.00    -0.205 F 
ATOM     83  C   UNL A   1      42.957  25.279  25.552  1.00  0.00     0.022 A 
BRANCH  81  84
ATOM     84  S   UNL A   1      41.961  22.878  26.422  1.00  0.00     0.127 S 
ATOM     85  O   UNL A   1      42.548  22.399  27.670  1.00  0.00    -0.237 OA
ATOM     86  O   UNL A   1      40.503  22.775  26.347  1.00  0.00    -0.237 OA
ATOM     87  O   UNL A   1      42.650  22.484  25.201  1.00  0.00    -0.744 OA
ENDBRANCH  81  84
ENDBRANCH  53  77
BRANCH  65  88
ATOM     88  C   UNL A   1      44.503  27.454  34.272  1.00  0.00     0.023 A 
ATOM     89  C   UNL A   1      45.747  28.115  34.279  1.00  0.00     0.012 A 
ATOM     90  C   UNL A   1      44.346  26.267  35.014  1.00  0.00     0.148 A 
ATOM     91  C   UNL A   1      46.824  27.589  34.991  1.00  0.00     0.002 A 
ATOM     92  C   UNL A   1      45.410  25.773  35.758  1.00  0.00     0.091 A 
ATOM     93  F   UNL A   1      43.159  25.642  34.979  1.00  0.00    -0.205 F 
ATOM     94  C   UNL A   1      46.653  26.426  35.739  1.00  0.00     0.022 A 
BRANCH  92  95
ATOM     95  S   UNL A   1      45.252  24.335  36.824  1.00  0.00     0.127 S 
ATOM     96  O   UNL A   1      44.279  24.800  37.809  1.00  0.00    -0.237 OA
ATOM     97  O   UNL A   1      44.748  23.317  35.901  1.00  0.00    -0.237 OA
ATOM     98  O   UNL A   1      46.590  24.070  37.337  1.00  0.00    -0.744 OA
ENDBRANCH  92  95
ENDBRANCH  65  88
ENDBRANCH  39  40
ENDBRANCH  32  34
ENDBRANCH  31  32
ENDBRANCH  30  31
ENDBRANCH  29  30
ENDBRANCH  28  29
ENDBRANCH  27  28
ENDBRANCH   1  27
TORSDOF 23
ENDMDL
MODEL 3
REMARK VINA RESULT:     -10.0      6.168     11.089
REMARK SMILES O=C(C[NH+]1CCN(c2ncc(C(F)(F)F)cc2Cl)CC1)OCCOCCOCCOC(=O)c1ccc(-c2c3nc(c(-c4cccc(S(=O)(=O)[O-])c4F)c4ccc([nH]4)c(-c4cccc(S(=O)(=O)[O-])c4F)c4nc(c(-c5cccc(S(=O)(=O)[O-])c5F)c5ccc2[nH]5)C=C4)C=C3)cc1
REMARK SMILES IDX 25 1 24 2 23 3 22 4 21 5 2 6 1 7 3 8 4 9 5 10 20 11 6 13
REMARK SMILES IDX 19 14 7 15 8 16 9 17 17 18 10 19 16 20 18 21 11 22 12 23
REMARK SMILES IDX 13 24 14 25 15 26 26 27 27 28 28 29 29 30 30 31 31 32 32 33
REMARK SMILES IDX 33 34 34 35 95 36 35 37 94 38 36 39 37 40 38 41 88 42 39 43
REMARK SMILES IDX 93 44 87 45 89 46 40 47 92 48 86 49 85 50 41 52 73 53 53 54
REMARK SMILES IDX 72 55 54 56 57 57 71 58 90 59 55 60 56 61 70 63 91 64 58 65
REMARK SMILES IDX 42 66 43 67 51 68 44 69 46 70 52 71 45 72 47 73 48 74 49 75
REMARK SMILES IDX 50 76 74 77 75 78 83 79 76 80 78 81 84 82 77 83 79 84 80 85
REMARK SMILES IDX 81 86 82 87 59 88 60 89 68 90 61 91 63 92 69 93 62 94 64 95
REMARK SMILES IDX 65 96 66 97 67 98
REMARK H PARENT 4 12 89 51 57 62
REMARK Flexibility Score: inf
ROOT
ATOM      1  C   UNL A   1      36.821  23.556  24.732  1.00  0.00     0.188 C 
ENDROOT
BRANCH   1   2
ATOM      2  O   UNL A   1      36.388  23.401  26.081  1.00  0.00    -0.376 OA
BRANCH   2   3
ATOM      3  C   UNL A   1      35.057  23.818  26.348  1.00  0.00     0.202 C 
BRANCH   3   4
ATOM      4  C   UNL A   1      34.119  22.622  26.365  1.00  0.00     0.261 C 
BRANCH   4   5
ATOM      5  O   UNL A   1      33.006  22.814  25.480  1.00  0.00    -0.459 OA
BRANCH   5   6
ATOM      6  C   UNL A   1      33.173  22.652  24.136  1.00  0.00     0.361 C 
ATOM      7  O   UNL A   1      33.339  21.524  23.681  1.00  0.00    -0.245 OA
BRANCH   6   8
ATOM      8  C   UNL A   1      33.338  23.932  23.301  1.00  0.00     0.386 C 
BRANCH   8   9
ATOM      9  N   UNL A   1      32.218  24.151  22.363  1.00  0.00    -0.323 N 
ATOM     10  C   UNL A   1      30.919  24.331  23.052  1.00  0.00     0.284 C 
ATOM     11  C   UNL A   1      32.459  25.351  21.506  1.00  0.00     0.284 C 
ATOM     12  H   UNL A   1      32.171  23.309  21.791  1.00  0.00     0.348 HD
ATOM     13  C   UNL A   1      30.786  25.652  23.853  1.00  0.00     0.179 C 
ATOM     14  C   UNL A   1      32.277  26.738  22.189  1.00  0.00     0.179 C 
ATOM     15  N   UNL A   1      31.026  26.755  22.946  1.00  0.00    -0.344 N 
BRANCH  15  16
ATOM     16  C   UNL A   1      30.338  27.925  23.166  1.00  0.00     0.147 A 
ATOM     17  N   UNL A   1      29.227  28.158  22.423  1.00  0.00    -0.237 NA
ATOM     18  C   UNL A   1      30.867  28.914  24.010  1.00  0.00     0.084 A 
ATOM     19  C   UNL A   1      28.637  29.373  22.519  1.00  0.00     0.126 A 
ATOM     20  C   UNL A   1      30.257  30.166  24.066  1.00  0.00     0.039 A 
ATOM     21  Cl  UNL A   1      32.338  28.690  24.886  1.00  0.00    -0.080 Cl
ATOM     22  C   UNL A   1      29.120  30.415  23.296  1.00  0.00     0.075 A 
BRANCH  22  23
ATOM     23  C   UNL A   1      28.452  31.751  23.260  1.00  0.00     0.417 C 
ATOM     24  F   UNL A   1      29.157  32.701  23.938  1.00  0.00    -0.166 F 
ATOM     25  F   UNL A   1      28.300  32.233  21.997  1.00  0.00    -0.166 F 
ATOM     26  F   UNL A   1      27.209  31.754  23.817  1.00  0.00    -0.166 F 
ENDBRANCH  22  23
ENDBRANCH  15  16
ENDBRANCH   8   9
ENDBRANCH   6   8
ENDBRANCH   5   6
ENDBRANCH   4   5
ENDBRANCH   3   4
ENDBRANCH   2   3
ENDBRANCH   1   2
BRANCH   1  27
ATOM     27  C   UNL A   1      36.987  22.246  23.953  1.00  0.00     0.188 C 
BRANCH  27  28
ATOM     28  O   UNL A   1      36.756  21.028  24.657  1.00  0.00    -0.376 OA
BRANCH  28  29
ATOM     29  C   UNL A   1      37.876  20.249  25.070  1.00  0.00     0.202 C 
BRANCH  29  30
ATOM     30  C   UNL A   1      39.066  21.024  25.628  1.00  0.00     0.261 C 
BRANCH  30  31
ATOM     31  O   UNL A   1      39.752  20.292  26.657  1.00  0.00    -0.460 OA
BRANCH  31  32
ATOM     32  C   UNL A   1      41.048  20.007  26.407  1.00  0.00     0.338 C 
ATOM     33  O   UNL A   1      41.498  18.977  25.922  1.00  0.00    -0.246 OA
BRANCH  32  34
ATOM     34  C   UNL A   1      41.890  21.175  26.708  1.00  0.00     0.060 A 
ATOM     35  C   UNL A   1      42.139  21.485  28.051  1.00  0.00     0.016 A 
ATOM     36  C   UNL A   1      42.314  22.027  25.686  1.00  0.00     0.016 A 
ATOM     37  C   UNL A   1      42.751  22.694  28.380  1.00  0.00     0.010 A 
ATOM     38  C   UNL A   1      42.921  23.239  26.019  1.00  0.00     0.010 A 
ATOM     39  C   UNL A   1      43.093  23.599  27.367  1.00  0.00    -0.014 A 
BRANCH  39  40
ATOM     40  C   UNL A   1      43.469  24.990  27.712  1.00  0.00     0.031 A 
ATOM     41  C   UNL A   1      42.399  25.927  28.204  1.00  0.00     0.074 A 
ATOM     42  C   UNL A   1      44.735  25.418  27.562  1.00  0.00     0.049 A 
ATOM     43  N   UNL A   1      42.488  27.195  28.509  1.00  0.00    -0.248 NA
ATOM     44  C   UNL A   1      41.050  25.361  28.368  1.00  0.00     0.031 C 
ATOM     45  C   UNL A   1      45.851  24.601  27.090  1.00  0.00     0.029 A 
ATOM     46  N   UNL A   1      45.282  26.658  27.765  1.00  0.00    -0.354 N 
ATOM     47  C   UNL A   1      41.204  27.586  28.874  1.00  0.00     0.074 A 
ATOM     48  C   UNL A   1      40.352  26.425  28.740  1.00  0.00     0.031 C 
ATOM     49  C   UNL A   1      46.947  25.375  27.003  1.00  0.00     0.029 A 
ATOM     50  C   UNL A   1      46.602  26.740  27.395  1.00  0.00     0.049 A 
ATOM     51  H   UNL A   1      44.778  27.417  28.138  1.00  0.00     0.167 HD
ATOM     52  C   UNL A   1      40.776  28.799  29.299  1.00  0.00     0.034 A 
ATOM     53  C   UNL A   1      47.430  27.803  27.355  1.00  0.00     0.034 A 
ATOM     54  C   UNL A   1      41.630  29.945  29.452  1.00  0.00     0.049 A 
ATOM     55  C   UNL A   1      46.927  29.145  27.819  1.00  0.00     0.074 A 
ATOM     56  C   UNL A   1      41.304  31.202  29.929  1.00  0.00     0.029 A 
ATOM     57  N   UNL A   1      42.975  29.977  29.122  1.00  0.00    -0.354 N 
ATOM     58  N   UNL A   1      45.744  29.469  28.284  1.00  0.00    -0.248 NA
ATOM     59  C   UNL A   1      47.882  30.264  27.782  1.00  0.00     0.031 C 
ATOM     60  C   UNL A   1      42.452  32.002  29.867  1.00  0.00     0.029 A 
ATOM     61  C   UNL A   1      43.495  31.235  29.372  1.00  0.00     0.049 A 
ATOM     62  H   UNL A   1      43.486  29.216  28.763  1.00  0.00     0.167 HD
ATOM     63  C   UNL A   1      45.821  30.815  28.626  1.00  0.00     0.074 A 
ATOM     64  C   UNL A   1      47.174  31.241  28.334  1.00  0.00     0.031 C 
ATOM     65  C   UNL A   1      44.858  31.629  29.124  1.00  0.00     0.034 A 
BRANCH  52  66
ATOM     66  C   UNL A   1      39.321  28.937  29.661  1.00  0.00     0.023 A 
ATOM     67  C   UNL A   1      38.878  28.503  30.927  1.00  0.00     0.012 A 
ATOM     68  C   UNL A   1      38.406  29.541  28.777  1.00  0.00     0.148 A 
ATOM     69  C   UNL A   1      37.541  28.643  31.298  1.00  0.00     0.002 A 
ATOM     70  C   UNL A   1      37.083  29.713  29.169  1.00  0.00     0.091 A 
ATOM     71  F   UNL A   1      38.842  29.923  27.568  1.00  0.00    -0.205 F 
ATOM     72  C   UNL A   1      36.648  29.256  30.424  1.00  0.00     0.022 A 
BRANCH  70  73
ATOM     73  S   UNL A   1      35.873  30.552  28.142  1.00  0.00     0.127 S 
ATOM     74  O   UNL A   1      34.813  30.838  29.108  1.00  0.00    -0.237 OA
ATOM     75  O   UNL A   1      36.615  31.728  27.686  1.00  0.00    -0.237 OA
ATOM     76  O   UNL A   1      35.522  29.612  27.087  1.00  0.00    -0.744 OA
ENDBRANCH  70  73
ENDBRANCH  52  66
BRANCH  53  77
ATOM     77  C   UNL A   1      48.836  27.631  26.894  1.00  0.00     0.023 A 
ATOM     78  C   UNL A   1      49.801  27.121  27.783  1.00  0.00     0.012 A 
ATOM     79  C   UNL A   1      49.213  27.942  25.573  1.00  0.00     0.148 A 
ATOM     80  C   UNL A   1      51.123  26.947  27.371  1.00  0.00     0.002 A 
ATOM     81  C   UNL A   1      50.519  27.717  25.155  1.00  0.00     0.091 A 
ATOM     82  F   UNL A   1      48.285  28.446  24.749  1.00  0.00    -0.205 F 
ATOM     83  C   UNL A   1      51.480  27.234  26.056  1.00  0.00     0.022 A 
BRANCH  81  84
ATOM     84  S   UNL A   1      51.027  27.938  23.446  1.00  0.00     0.127 S 
ATOM     85  O   UNL A   1      51.899  26.785  23.240  1.00  0.00    -0.237 OA
ATOM     86  O   UNL A   1      49.748  27.878  22.738  1.00  0.00    -0.237 OA
ATOM     87  O   UNL A   1      51.674  29.243  23.399  1.00  0.00    -0.744 OA
ENDBRANCH  81  84
ENDBRANCH  53  77
BRANCH  65  88
ATOM     88  C   UNL A   1      45.229  33.060  29.412  1.00  0.00     0.023 A 
ATOM     89  C   UNL A   1      45.866  33.385  30.626  1.00  0.00     0.012 A 
ATOM     90  C   UNL A   1      45.022  34.067  28.449  1.00  0.00     0.148 A 
ATOM     91  C   UNL A   1      46.265  34.695  30.889  1.00  0.00     0.002 A 
ATOM     92  C   UNL A   1      45.464  35.361  28.698  1.00  0.00     0.091 A 
ATOM     93  F   UNL A   1      44.397  33.743  27.307  1.00  0.00    -0.205 F 
ATOM     94  C   UNL A   1      46.075  35.679  29.922  1.00  0.00     0.022 A 
BRANCH  92  95
ATOM     95  S   UNL A   1      45.345  36.669  27.472  1.00  0.00     0.127 S 
ATOM     96  O   UNL A   1      43.985  36.487  26.972  1.00  0.00    -0.237 OA
ATOM     97  O   UNL A   1      45.543  37.873  28.281  1.00  0.00    -0.237 OA
ATOM     98  O   UNL A   1      46.408  36.412  26.510  1.00  0.00    -0.744 OA
ENDBRANCH  92  95
ENDBRANCH  65  88
ENDBRANCH  39  40
ENDBRANCH  32  34
ENDBRANCH  31  32
ENDBRANCH  30  31
ENDBRANCH  29  30
ENDBRANCH  28  29
ENDBRANCH  27  28
ENDBRANCH   1  27
TORSDOF 23
ENDMDL
