MODEL 1
REMARK VINA RESULT:     -10.7      0.000      0.000
REMARK SMILES Cn1cc(C(=O)OCCOCCOCCOC(=O)c2ccc(-c3c4nc(c(-c5cccc(S(=O)(=O)[O-])c5F)c5ccc([nH]5)c(-c5cccc(S(=O)(=O)[O-])c5F)c5nc(c(-c6cccc(S(=O)(=O)[O-])c6F)c6ccc3[nH]6)C=C5)C=C4)cc2)c(C(=O)Nc2ccc(-c3nc4cc(Cl)ccc4o3)cc2)n1
REMARK SMILES IDX 11 1 10 2 9 3 8 4 7 5 5 6 6 7 4 8 1 9 2 10 3 11 102 12 82 13
REMARK SMILES IDX 83 14 84 15 85 16 86 18 87 19 101 20 88 21 100 22 89 23
REMARK SMILES IDX 90 24 91 25 99 26 92 27 98 28 93 29 97 30 94 31 96 32 95 33
REMARK SMILES IDX 12 34 13 35 14 36 15 37 16 38 17 39 18 40 19 41 20 42 81 43
REMARK SMILES IDX 21 44 80 45 22 46 23 47 24 48 74 49 25 50 79 51 73 52 75 53
REMARK SMILES IDX 26 54 78 55 72 56 71 57 27 59 59 60 39 61 58 62 40 63 43 64
REMARK SMILES IDX 57 65 76 66 41 67 42 68 56 70 77 71 44 72 28 73 29 74 37 75
REMARK SMILES IDX 30 76 32 77 38 78 31 79 33 80 34 81 35 82 36 83 60 84 61 85
REMARK SMILES IDX 69 86 62 87 64 88 70 89 63 90 65 91 66 92 67 93 68 94 45 95
REMARK SMILES IDX 46 96 54 97 47 98 49 99 55 100 48 101 50 102 51 103 52 104
REMARK SMILES IDX 53 105
REMARK H PARENT 85 17 75 58 43 69
REMARK Flexibility Score: inf
ROOT
ATOM      1  C   UNL A   1      36.302  21.897  25.411  1.00  0.00     0.188 C 
ENDROOT
BRANCH   1   2
ATOM      2  O   UNL A   1      35.750  23.214  25.414  1.00  0.00    -0.376 OA
BRANCH   2   3
ATOM      3  C   UNL A   1      35.490  23.790  24.138  1.00  0.00     0.202 C 
BRANCH   3   4
ATOM      4  C   UNL A   1      34.661  22.970  23.155  1.00  0.00     0.261 C 
BRANCH   4   5
ATOM      5  O   UNL A   1      33.269  23.219  23.427  1.00  0.00    -0.460 OA
BRANCH   5   6
ATOM      6  C   UNL A   1      32.405  22.205  23.248  1.00  0.00     0.342 C 
ATOM      7  O   UNL A   1      31.427  22.248  22.507  1.00  0.00    -0.246 OA
BRANCH   6   8
ATOM      8  C   UNL A   1      32.643  21.122  24.176  1.00  0.00     0.111 A 
ATOM      9  C   UNL A   1      32.275  17.604  24.828  1.00  0.00     0.173 C 
ATOM     10  N   UNL A   1      32.572  19.014  24.770  1.00  0.00    -0.274 N 
ATOM     11  C   UNL A   1      32.493  19.825  23.699  1.00  0.00     0.125 A 
ATOM     12  N   UNL A   1      32.905  19.654  25.879  1.00  0.00    -0.167 NA
ATOM     13  C   UNL A   1      32.928  20.983  25.588  1.00  0.00     0.165 A 
BRANCH  13  14
ATOM     14  C   UNL A   1      33.183  21.830  26.797  1.00  0.00     0.277 C 
ATOM     15  O   UNL A   1      33.793  21.324  27.756  1.00  0.00    -0.267 OA
ATOM     16  N   UNL A   1      32.845  23.131  27.091  1.00  0.00    -0.321 N 
ATOM     17  H   UNL A   1      33.193  23.381  27.977  1.00  0.00     0.170 HD
BRANCH  16  18
ATOM     18  C   UNL A   1      32.164  24.199  26.523  1.00  0.00     0.041 A 
ATOM     19  C   UNL A   1      30.774  24.059  26.347  1.00  0.00     0.027 A 
ATOM     20  C   UNL A   1      32.775  25.343  26.074  1.00  0.00     0.027 A 
ATOM     21  C   UNL A   1      30.065  24.921  25.498  1.00  0.00     0.016 A 
ATOM     22  C   UNL A   1      32.092  26.184  25.202  1.00  0.00     0.016 A 
ATOM     23  C   UNL A   1      30.751  25.942  24.847  1.00  0.00     0.037 A 
BRANCH  23  24
ATOM     24  C   UNL A   1      30.239  26.615  23.654  1.00  0.00     0.227 A 
ATOM     25  N   UNL A   1      30.860  27.567  22.970  1.00  0.00    -0.209 NA
ATOM     26  O   UNL A   1      28.868  26.710  23.622  1.00  0.00    -0.436 OA
ATOM     27  C   UNL A   1      29.864  28.482  22.729  1.00  0.00     0.111 A 
ATOM     28  C   UNL A   1      28.647  27.955  23.125  1.00  0.00     0.155 A 
ATOM     29  C   UNL A   1      29.918  29.814  22.298  1.00  0.00     0.053 A 
ATOM     30  C   UNL A   1      27.441  28.640  23.138  1.00  0.00     0.051 A 
ATOM     31  C   UNL A   1      28.732  30.560  22.365  1.00  0.00     0.043 A 
ATOM     32  C   UNL A   1      27.519  29.987  22.773  1.00  0.00     0.024 A 
ATOM     33  Cl  UNL A   1      28.775  32.245  22.002  1.00  0.00    -0.084 Cl
ENDBRANCH  23  24
ENDBRANCH  16  18
ENDBRANCH  13  14
ENDBRANCH   6   8
ENDBRANCH   5   6
ENDBRANCH   4   5
ENDBRANCH   3   4
ENDBRANCH   2   3
ENDBRANCH   1   2
BRANCH   1  34
ATOM     34  C   UNL A   1      37.827  21.934  25.194  1.00  0.00     0.188 C 
BRANCH  34  35
ATOM     35  O   UNL A   1      38.475  22.867  26.058  1.00  0.00    -0.376 OA
BRANCH  35  36
ATOM     36  C   UNL A   1      39.688  22.427  26.669  1.00  0.00     0.202 C 
BRANCH  36  37
ATOM     37  C   UNL A   1      39.956  20.912  26.715  1.00  0.00     0.261 C 
BRANCH  37  38
ATOM     38  O   UNL A   1      40.899  20.424  25.742  1.00  0.00    -0.460 OA
BRANCH  38  39
ATOM     39  C   UNL A   1      42.160  20.181  26.157  1.00  0.00     0.338 C 
ATOM     40  O   UNL A   1      42.762  19.123  26.101  1.00  0.00    -0.246 OA
BRANCH  39  41
ATOM     41  C   UNL A   1      42.784  21.474  26.505  1.00  0.00     0.060 A 
ATOM     42  C   UNL A   1      42.979  21.778  27.860  1.00  0.00     0.016 A 
ATOM     43  C   UNL A   1      43.136  22.391  25.512  1.00  0.00     0.016 A 
ATOM     44  C   UNL A   1      43.464  23.032  28.228  1.00  0.00     0.010 A 
ATOM     45  C   UNL A   1      43.597  23.656  25.882  1.00  0.00     0.010 A 
ATOM     46  C   UNL A   1      43.710  23.997  27.241  1.00  0.00    -0.014 A 
BRANCH  46  47
ATOM     47  C   UNL A   1      43.791  25.423  27.636  1.00  0.00     0.031 A 
ATOM     48  C   UNL A   1      45.149  26.075  27.609  1.00  0.00     0.074 A 
ATOM     49  C   UNL A   1      42.709  26.124  28.011  1.00  0.00     0.049 A 
ATOM     50  N   UNL A   1      45.482  27.309  27.876  1.00  0.00    -0.248 NA
ATOM     51  C   UNL A   1      46.283  25.215  27.222  1.00  0.00     0.031 C 
ATOM     52  C   UNL A   1      41.343  25.609  28.076  1.00  0.00     0.029 A 
ATOM     53  N   UNL A   1      42.600  27.428  28.427  1.00  0.00    -0.354 N 
ATOM     54  C   UNL A   1      46.858  27.374  27.692  1.00  0.00     0.074 A 
ATOM     55  C   UNL A   1      47.304  26.053  27.312  1.00  0.00     0.031 C 
ATOM     56  C   UNL A   1      40.535  26.582  28.538  1.00  0.00     0.029 A 
ATOM     57  C   UNL A   1      41.327  27.783  28.802  1.00  0.00     0.049 A 
ATOM     58  H   UNL A   1      43.363  28.050  28.453  1.00  0.00     0.167 HD
ATOM     59  C   UNL A   1      47.679  28.442  27.804  1.00  0.00     0.034 A 
ATOM     60  C   UNL A   1      40.863  28.945  29.305  1.00  0.00     0.034 A 
ATOM     61  C   UNL A   1      47.243  29.757  28.177  1.00  0.00     0.049 A 
ATOM     62  C   UNL A   1      41.808  30.111  29.462  1.00  0.00     0.074 A 
ATOM     63  C   UNL A   1      47.993  30.913  28.284  1.00  0.00     0.029 A 
ATOM     64  N   UNL A   1      45.942  30.085  28.520  1.00  0.00    -0.354 N 
ATOM     65  N   UNL A   1      43.076  30.200  29.139  1.00  0.00    -0.248 NA
ATOM     66  C   UNL A   1      41.247  31.351  30.024  1.00  0.00     0.031 C 
ATOM     67  C   UNL A   1      47.144  31.941  28.708  1.00  0.00     0.029 A 
ATOM     68  C   UNL A   1      45.867  31.423  28.856  1.00  0.00     0.049 A 
ATOM     69  H   UNL A   1      45.183  29.457  28.524  1.00  0.00     0.167 HD
ATOM     70  C   UNL A   1      43.456  31.508  29.426  1.00  0.00     0.074 A 
ATOM     71  C   UNL A   1      42.278  32.183  29.931  1.00  0.00     0.031 C 
ATOM     72  C   UNL A   1      44.672  32.094  29.299  1.00  0.00     0.034 A 
BRANCH  59  73
ATOM     73  C   UNL A   1      49.128  28.231  27.470  1.00  0.00     0.023 A 
ATOM     74  C   UNL A   1      50.049  28.021  28.517  1.00  0.00     0.012 A 
ATOM     75  C   UNL A   1      49.575  28.219  26.137  1.00  0.00     0.148 A 
ATOM     76  C   UNL A   1      51.400  27.823  28.243  1.00  0.00     0.002 A 
ATOM     77  C   UNL A   1      50.920  27.989  25.870  1.00  0.00     0.091 A 
ATOM     78  F   UNL A   1      48.689  28.458  25.161  1.00  0.00    -0.205 F 
ATOM     79  C   UNL A   1      51.833  27.798  26.920  1.00  0.00     0.022 A 
BRANCH  77  80
ATOM     80  S   UNL A   1      51.562  27.889  24.196  1.00  0.00     0.127 S 
ATOM     81  O   UNL A   1      53.004  27.969  24.426  1.00  0.00    -0.237 OA
ATOM     82  O   UNL A   1      51.088  26.575  23.758  1.00  0.00    -0.237 OA
ATOM     83  O   UNL A   1      50.976  29.012  23.477  1.00  0.00    -0.744 OA
ENDBRANCH  77  80
ENDBRANCH  59  73
BRANCH  60  84
ATOM     84  C   UNL A   1      39.419  29.087  29.649  1.00  0.00     0.023 A 
ATOM     85  C   UNL A   1      38.970  28.689  30.923  1.00  0.00     0.012 A 
ATOM     86  C   UNL A   1      38.493  29.613  28.729  1.00  0.00     0.148 A 
ATOM     87  C   UNL A   1      37.620  28.786  31.264  1.00  0.00     0.002 A 
ATOM     88  C   UNL A   1      37.158  29.755  29.093  1.00  0.00     0.091 A 
ATOM     89  F   UNL A   1      38.932  29.962  27.511  1.00  0.00    -0.205 F 
ATOM     90  C   UNL A   1      36.717  29.329  30.354  1.00  0.00     0.022 A 
BRANCH  88  91
ATOM     91  S   UNL A   1      35.959  30.558  28.022  1.00  0.00     0.127 S 
ATOM     92  O   UNL A   1      36.573  31.868  27.813  1.00  0.00    -0.237 OA
ATOM     93  O   UNL A   1      35.957  29.685  26.847  1.00  0.00    -0.237 OA
ATOM     94  O   UNL A   1      34.708  30.549  28.769  1.00  0.00    -0.744 OA
ENDBRANCH  88  91
ENDBRANCH  60  84
BRANCH  72  95
ATOM     95  C   UNL A   1      44.804  33.539  29.700  1.00  0.00     0.023 A 
ATOM     96  C   UNL A   1      45.257  33.857  30.995  1.00  0.00     0.012 A 
ATOM     97  C   UNL A   1      44.586  34.573  28.768  1.00  0.00     0.148 A 
ATOM     98  C   UNL A   1      45.472  35.185  31.364  1.00  0.00     0.002 A 
ATOM     99  C   UNL A   1      44.842  35.891  29.130  1.00  0.00     0.091 A 
ATOM    100  F   UNL A   1      44.137  34.251  27.545  1.00  0.00    -0.205 F 
ATOM    101  C   UNL A   1      45.277  36.199  30.428  1.00  0.00     0.022 A 
BRANCH  99 102
ATOM    102  S   UNL A   1      44.708  37.246  27.956  1.00  0.00     0.127 S 
ATOM    103  O   UNL A   1      45.155  38.382  28.758  1.00  0.00    -0.237 OA
ATOM    104  O   UNL A   1      45.637  36.841  26.900  1.00  0.00    -0.237 OA
ATOM    105  O   UNL A   1      43.310  37.275  27.545  1.00  0.00    -0.744 OA
ENDBRANCH  99 102
ENDBRANCH  72  95
ENDBRANCH  46  47
ENDBRANCH  39  41
ENDBRANCH  38  39
ENDBRANCH  37  38
ENDBRANCH  36  37
ENDBRANCH  35  36
ENDBRANCH  34  35
ENDBRANCH   1  34
TORSDOF 23
ENDMDL
MODEL 2
REMARK VINA RESULT:     -10.4      1.882      7.307
REMARK SMILES Cn1cc(C(=O)OCCOCCOCCOC(=O)c2ccc(-c3c4nc(c(-c5cccc(S(=O)(=O)[O-])c5F)c5ccc([nH]5)c(-c5cccc(S(=O)(=O)[O-])c5F)c5nc(c(-c6cccc(S(=O)(=O)[O-])c6F)c6ccc3[nH]6)C=C5)C=C4)cc2)c(C(=O)Nc2ccc(-c3nc4cc(Cl)ccc4o3)cc2)n1
REMARK SMILES IDX 11 1 10 2 9 3 8 4 7 5 5 6 6 7 4 8 1 9 2 10 3 11 102 12 82 13
REMARK SMILES IDX 83 14 84 15 85 16 86 18 87 19 101 20 88 21 100 22 89 23
REMARK SMILES IDX 90 24 91 25 99 26 92 27 98 28 93 29 97 30 94 31 96 32 95 33
REMARK SMILES IDX 12 34 13 35 14 36 15 37 16 38 17 39 18 40 19 41 20 42 81 43
REMARK SMILES IDX 21 44 80 45 22 46 23 47 24 48 74 49 25 50 79 51 73 52 75 53
REMARK SMILES IDX 26 54 78 55 72 56 71 57 27 59 59 60 39 61 58 62 40 63 43 64
REMARK SMILES IDX 57 65 76 66 41 67 42 68 56 70 77 71 44 72 28 73 29 74 37 75
REMARK SMILES IDX 30 76 32 77 38 78 31 79 33 80 34 81 35 82 36 83 60 84 61 85
REMARK SMILES IDX 69 86 62 87 64 88 70 89 63 90 65 91 66 92 67 93 68 94 45 95
REMARK SMILES IDX 46 96 54 97 47 98 49 99 55 100 48 101 50 102 51 103 52 104
REMARK SMILES IDX 53 105
REMARK H PARENT 85 17 75 58 43 69
REMARK Flexibility Score: inf
ROOT
ATOM      1  C   UNL A   1      36.417  21.941  25.505  1.00  0.00     0.188 C 
ENDROOT
BRANCH   1   2
ATOM      2  O   UNL A   1      35.711  23.180  25.444  1.00  0.00    -0.376 OA
BRANCH   2   3
ATOM      3  C   UNL A   1      35.539  23.744  24.148  1.00  0.00     0.202 C 
BRANCH   3   4
ATOM      4  C   UNL A   1      34.685  22.963  23.154  1.00  0.00     0.261 C 
BRANCH   4   5
ATOM      5  O   UNL A   1      33.307  23.315  23.374  1.00  0.00    -0.460 OA
BRANCH   5   6
ATOM      6  C   UNL A   1      32.388  22.339  23.273  1.00  0.00     0.342 C 
ATOM      7  O   UNL A   1      31.357  22.421  22.611  1.00  0.00    -0.246 OA
BRANCH   6   8
ATOM      8  C   UNL A   1      32.652  21.251  24.188  1.00  0.00     0.111 A 
ATOM      9  C   UNL A   1      32.403  17.712  24.782  1.00  0.00     0.173 C 
ATOM     10  N   UNL A   1      32.649  19.133  24.749  1.00  0.00    -0.274 N 
ATOM     11  C   UNL A   1      32.557  19.957  23.689  1.00  0.00     0.125 A 
ATOM     12  N   UNL A   1      32.942  19.767  25.873  1.00  0.00    -0.167 NA
ATOM     13  C   UNL A   1      32.920  21.101  25.602  1.00  0.00     0.165 A 
BRANCH  13  14
ATOM     14  C   UNL A   1      33.126  21.938  26.828  1.00  0.00     0.277 C 
ATOM     15  O   UNL A   1      33.694  21.423  27.807  1.00  0.00    -0.267 OA
ATOM     16  N   UNL A   1      32.778  23.238  27.117  1.00  0.00    -0.321 N 
ATOM     17  H   UNL A   1      33.089  23.480  28.019  1.00  0.00     0.170 HD
BRANCH  16  18
ATOM     18  C   UNL A   1      32.123  24.311  26.529  1.00  0.00     0.041 A 
ATOM     19  C   UNL A   1      30.722  24.230  26.415  1.00  0.00     0.027 A 
ATOM     20  C   UNL A   1      32.767  25.404  26.006  1.00  0.00     0.027 A 
ATOM     21  C   UNL A   1      30.019  25.087  25.557  1.00  0.00     0.016 A 
ATOM     22  C   UNL A   1      32.087  26.238  25.125  1.00  0.00     0.016 A 
ATOM     23  C   UNL A   1      30.723  26.046  24.835  1.00  0.00     0.037 A 
BRANCH  23  24
ATOM     24  C   UNL A   1      30.193  26.691  23.634  1.00  0.00     0.227 A 
ATOM     25  N   UNL A   1      30.814  27.607  22.904  1.00  0.00    -0.209 NA
ATOM     26  O   UNL A   1      28.824  26.812  23.634  1.00  0.00    -0.436 OA
ATOM     27  C   UNL A   1      29.829  28.534  22.658  1.00  0.00     0.111 A 
ATOM     28  C   UNL A   1      28.614  28.045  23.103  1.00  0.00     0.155 A 
ATOM     29  C   UNL A   1      29.898  29.851  22.184  1.00  0.00     0.053 A 
ATOM     30  C   UNL A   1      27.422  28.755  23.124  1.00  0.00     0.051 A 
ATOM     31  C   UNL A   1      28.729  30.622  22.256  1.00  0.00     0.043 A 
ATOM     32  C   UNL A   1      27.516  30.087  22.714  1.00  0.00     0.024 A 
ATOM     33  Cl  UNL A   1      28.795  32.293  21.838  1.00  0.00    -0.084 Cl
ENDBRANCH  23  24
ENDBRANCH  16  18
ENDBRANCH  13  14
ENDBRANCH   6   8
ENDBRANCH   5   6
ENDBRANCH   4   5
ENDBRANCH   3   4
ENDBRANCH   2   3
ENDBRANCH   1   2
BRANCH   1  34
ATOM     34  C   UNL A   1      37.930  22.151  25.304  1.00  0.00     0.188 C 
BRANCH  34  35
ATOM     35  O   UNL A   1      38.461  23.139  26.187  1.00  0.00    -0.376 OA
BRANCH  35  36
ATOM     36  C   UNL A   1      39.734  22.853  26.765  1.00  0.00     0.202 C 
BRANCH  36  37
ATOM     37  C   UNL A   1      40.186  21.382  26.806  1.00  0.00     0.261 C 
BRANCH  37  38
ATOM     38  O   UNL A   1      41.026  20.965  25.713  1.00  0.00    -0.460 OA
BRANCH  38  39
ATOM     39  C   UNL A   1      42.273  20.538  26.006  1.00  0.00     0.338 C 
ATOM     40  O   UNL A   1      42.689  19.395  25.956  1.00  0.00    -0.246 OA
BRANCH  39  41
ATOM     41  C   UNL A   1      43.128  21.727  26.199  1.00  0.00     0.060 A 
ATOM     42  C   UNL A   1      43.654  21.971  27.475  1.00  0.00     0.016 A 
ATOM     43  C   UNL A   1      43.378  22.609  25.145  1.00  0.00     0.016 A 
ATOM     44  C   UNL A   1      44.375  23.140  27.718  1.00  0.00     0.010 A 
ATOM     45  C   UNL A   1      44.078  23.792  25.395  1.00  0.00     0.010 A 
ATOM     46  C   UNL A   1      44.530  24.084  26.694  1.00  0.00    -0.014 A 
BRANCH  46  47
ATOM     47  C   UNL A   1      44.890  25.477  27.050  1.00  0.00     0.031 A 
ATOM     48  C   UNL A   1      43.782  26.380  27.527  1.00  0.00     0.074 A 
ATOM     49  C   UNL A   1      46.148  25.937  26.955  1.00  0.00     0.049 A 
ATOM     50  N   UNL A   1      43.838  27.622  27.927  1.00  0.00    -0.248 NA
ATOM     51  C   UNL A   1      42.428  25.797  27.561  1.00  0.00     0.031 C 
ATOM     52  C   UNL A   1      47.305  25.164  26.511  1.00  0.00     0.029 A 
ATOM     53  N   UNL A   1      46.654  27.187  27.214  1.00  0.00    -0.354 N 
ATOM     54  C   UNL A   1      42.534  27.969  28.257  1.00  0.00     0.074 A 
ATOM     55  C   UNL A   1      41.702  26.817  27.992  1.00  0.00     0.031 C 
ATOM     56  C   UNL A   1      48.384  25.969  26.499  1.00  0.00     0.029 A 
ATOM     57  C   UNL A   1      47.993  27.309  26.931  1.00  0.00     0.049 A 
ATOM     58  H   UNL A   1      46.108  27.926  27.570  1.00  0.00     0.167 HD
ATOM     59  C   UNL A   1      42.068  29.134  28.760  1.00  0.00     0.034 A 
ATOM     60  C   UNL A   1      48.802  28.386  27.011  1.00  0.00     0.034 A 
ATOM     61  C   UNL A   1      42.887  30.280  29.029  1.00  0.00     0.049 A 
ATOM     62  C   UNL A   1      48.248  29.688  27.534  1.00  0.00     0.074 A 
ATOM     63  C   UNL A   1      42.515  31.496  29.571  1.00  0.00     0.029 A 
ATOM     64  N   UNL A   1      44.243  30.356  28.758  1.00  0.00    -0.354 N 
ATOM     65  N   UNL A   1      47.046  29.956  27.986  1.00  0.00    -0.248 NA
ATOM     66  C   UNL A   1      49.175  30.831  27.590  1.00  0.00     0.031 C 
ATOM     67  C   UNL A   1      43.648  32.315  29.615  1.00  0.00     0.029 A 
ATOM     68  C   UNL A   1      44.724  31.604  29.107  1.00  0.00     0.049 A 
ATOM     69  H   UNL A   1      44.785  29.629  28.374  1.00  0.00     0.167 HD
ATOM     70  C   UNL A   1      47.081  31.281  28.409  1.00  0.00     0.074 A 
ATOM     71  C   UNL A   1      48.428  31.758  28.178  1.00  0.00     0.031 C 
ATOM     72  C   UNL A   1      46.084  32.042  28.926  1.00  0.00     0.034 A 
BRANCH  59  73
ATOM     73  C   UNL A   1      40.605  29.200  29.094  1.00  0.00     0.023 A 
ATOM     74  C   UNL A   1      39.674  29.406  28.056  1.00  0.00     0.012 A 
ATOM     75  C   UNL A   1      40.150  29.039  30.415  1.00  0.00     0.148 A 
ATOM     76  C   UNL A   1      38.310  29.474  28.331  1.00  0.00     0.002 A 
ATOM     77  C   UNL A   1      38.786  29.076  30.677  1.00  0.00     0.091 A 
ATOM     78  F   UNL A   1      41.056  28.882  31.390  1.00  0.00    -0.205 F 
ATOM     79  C   UNL A   1      37.866  29.300  29.639  1.00  0.00     0.022 A 
BRANCH  77  80
ATOM     80  S   UNL A   1      38.117  28.812  32.323  1.00  0.00     0.127 S 
ATOM     81  O   UNL A   1      36.700  29.108  32.118  1.00  0.00    -0.237 OA
ATOM     82  O   UNL A   1      38.417  27.398  32.558  1.00  0.00    -0.237 OA
ATOM     83  O   UNL A   1      38.833  29.732  33.195  1.00  0.00    -0.744 OA
ENDBRANCH  77  80
ENDBRANCH  59  73
BRANCH  60  84
ATOM     84  C   UNL A   1      50.239  28.269  26.634  1.00  0.00     0.023 A 
ATOM     85  C   UNL A   1      51.219  28.238  27.645  1.00  0.00     0.012 A 
ATOM     86  C   UNL A   1      50.641  28.184  25.287  1.00  0.00     0.148 A 
ATOM     87  C   UNL A   1      52.574  28.154  27.321  1.00  0.00     0.002 A 
ATOM     88  C   UNL A   1      51.990  28.050  24.973  1.00  0.00     0.091 A 
ATOM     89  F   UNL A   1      49.699  28.242  24.336  1.00  0.00    -0.205 F 
ATOM     90  C   UNL A   1      52.959  28.049  25.987  1.00  0.00     0.022 A 
BRANCH  88  91
ATOM     91  S   UNL A   1      52.553  27.785  23.287  1.00  0.00     0.127 S 
ATOM     92  O   UNL A   1      53.814  28.521  23.272  1.00  0.00    -0.237 OA
ATOM     93  O   UNL A   1      52.689  26.329  23.230  1.00  0.00    -0.237 OA
ATOM     94  O   UNL A   1      51.492  28.314  22.439  1.00  0.00    -0.744 OA
ENDBRANCH  88  91
ENDBRANCH  60  84
BRANCH  72  95
ATOM     95  C   UNL A   1      46.401  33.468  29.291  1.00  0.00     0.023 A 
ATOM     96  C   UNL A   1      46.208  34.484  28.336  1.00  0.00     0.012 A 
ATOM     97  C   UNL A   1      46.783  33.813  30.602  1.00  0.00     0.148 A 
ATOM     98  C   UNL A   1      46.410  35.821  28.673  1.00  0.00     0.002 A 
ATOM     99  C   UNL A   1      46.942  35.151  30.943  1.00  0.00     0.091 A 
ATOM    100  F   UNL A   1      46.980  32.829  31.494  1.00  0.00    -0.205 F 
ATOM    101  C   UNL A   1      46.763  36.156  29.979  1.00  0.00     0.022 A 
BRANCH  99 102
ATOM    102  S   UNL A   1      47.303  35.671  32.626  1.00  0.00     0.127 S 
ATOM    103  O   UNL A   1      46.109  35.225  33.340  1.00  0.00    -0.237 OA
ATOM    104  O   UNL A   1      48.518  34.915  32.936  1.00  0.00    -0.237 OA
ATOM    105  O   UNL A   1      47.496  37.114  32.560  1.00  0.00    -0.744 OA
ENDBRANCH  99 102
ENDBRANCH  72  95
ENDBRANCH  46  47
ENDBRANCH  39  41
ENDBRANCH  38  39
ENDBRANCH  37  38
ENDBRANCH  36  37
ENDBRANCH  35  36
ENDBRANCH  34  35
ENDBRANCH   1  34
TORSDOF 23
ENDMDL
MODEL 3
REMARK VINA RESULT:     -10.3      2.679      5.149
REMARK SMILES Cn1cc(C(=O)OCCOCCOCCOC(=O)c2ccc(-c3c4nc(c(-c5cccc(S(=O)(=O)[O-])c5F)c5ccc([nH]5)c(-c5cccc(S(=O)(=O)[O-])c5F)c5nc(c(-c6cccc(S(=O)(=O)[O-])c6F)c6ccc3[nH]6)C=C5)C=C4)cc2)c(C(=O)Nc2ccc(-c3nc4cc(Cl)ccc4o3)cc2)n1
REMARK SMILES IDX 11 1 10 2 9 3 8 4 7 5 5 6 6 7 4 8 1 9 2 10 3 11 102 12 82 13
REMARK SMILES IDX 83 14 84 15 85 16 86 18 87 19 101 20 88 21 100 22 89 23
REMARK SMILES IDX 90 24 91 25 99 26 92 27 98 28 93 29 97 30 94 31 96 32 95 33
REMARK SMILES IDX 12 34 13 35 14 36 15 37 16 38 17 39 18 40 19 41 20 42 81 43
REMARK SMILES IDX 21 44 80 45 22 46 23 47 24 48 74 49 25 50 79 51 73 52 75 53
REMARK SMILES IDX 26 54 78 55 72 56 71 57 27 59 59 60 39 61 58 62 40 63 43 64
REMARK SMILES IDX 57 65 76 66 41 67 42 68 56 70 77 71 44 72 28 73 29 74 37 75
REMARK SMILES IDX 30 76 32 77 38 78 31 79 33 80 34 81 35 82 36 83 60 84 61 85
REMARK SMILES IDX 69 86 62 87 64 88 70 89 63 90 65 91 66 92 67 93 68 94 45 95
REMARK SMILES IDX 46 96 54 97 47 98 49 99 55 100 48 101 50 102 51 103 52 104
REMARK SMILES IDX 53 105
REMARK H PARENT 85 17 75 58 43 69
REMARK Flexibility Score: inf
ROOT
ATOM      1  C   UNL A   1      35.146  21.230  25.347  1.00  0.00     0.188 C 
ENDROOT
BRANCH   1   2
ATOM      2  O   UNL A   1      35.892  22.356  25.810  1.00  0.00    -0.376 OA
BRANCH   2   3
ATOM      3  C   UNL A   1      35.614  23.600  25.175  1.00  0.00     0.202 C 
BRANCH   3   4
ATOM      4  C   UNL A   1      34.477  24.439  25.747  1.00  0.00     0.261 C 
BRANCH   4   5
ATOM      5  O   UNL A   1      34.660  25.799  25.311  1.00  0.00    -0.460 OA
BRANCH   5   6
ATOM      6  C   UNL A   1      34.029  26.187  24.189  1.00  0.00     0.342 C 
ATOM      7  O   UNL A   1      34.363  25.855  23.055  1.00  0.00    -0.246 OA
BRANCH   6   8
ATOM      8  C   UNL A   1      33.031  27.198  24.452  1.00  0.00     0.111 A 
ATOM      9  C   UNL A   1      32.297  30.332  26.058  1.00  0.00     0.173 C 
ATOM     10  N   UNL A   1      32.367  29.106  25.302  1.00  0.00    -0.274 N 
ATOM     11  C   UNL A   1      33.471  28.415  24.961  1.00  0.00     0.125 A 
ATOM     12  N   UNL A   1      31.247  28.509  24.928  1.00  0.00    -0.167 NA
ATOM     13  C   UNL A   1      31.587  27.291  24.423  1.00  0.00     0.165 A 
BRANCH  13  14
ATOM     14  C   UNL A   1      30.390  26.465  24.065  1.00  0.00     0.277 C 
ATOM     15  O   UNL A   1      29.336  27.052  23.760  1.00  0.00    -0.267 OA
ATOM     16  N   UNL A   1      30.199  25.103  24.019  1.00  0.00    -0.321 N 
ATOM     17  H   UNL A   1      29.284  24.899  23.718  1.00  0.00     0.170 HD
BRANCH  16  18
ATOM     18  C   UNL A   1      30.898  23.930  24.265  1.00  0.00     0.041 A 
ATOM     19  C   UNL A   1      31.527  23.310  23.168  1.00  0.00     0.027 A 
ATOM     20  C   UNL A   1      30.956  23.319  25.492  1.00  0.00     0.027 A 
ATOM     21  C   UNL A   1      31.963  21.980  23.246  1.00  0.00     0.016 A 
ATOM     22  C   UNL A   1      31.353  21.988  25.573  1.00  0.00     0.016 A 
ATOM     23  C   UNL A   1      31.792  21.282  24.437  1.00  0.00     0.037 A 
BRANCH  23  24
ATOM     24  C   UNL A   1      31.809  19.822  24.519  1.00  0.00     0.227 A 
ATOM     25  N   UNL A   1      32.186  19.104  25.568  1.00  0.00    -0.209 NA
ATOM     26  O   UNL A   1      32.041  19.207  23.311  1.00  0.00    -0.436 OA
ATOM     27  C   UNL A   1      32.960  18.114  25.011  1.00  0.00     0.111 A 
ATOM     28  C   UNL A   1      32.866  18.177  23.632  1.00  0.00     0.155 A 
ATOM     29  C   UNL A   1      33.860  17.209  25.590  1.00  0.00     0.053 A 
ATOM     30  C   UNL A   1      33.601  17.407  22.742  1.00  0.00     0.051 A 
ATOM     31  C   UNL A   1      34.671  16.465  24.721  1.00  0.00     0.043 A 
ATOM     32  C   UNL A   1      34.544  16.559  23.328  1.00  0.00     0.024 A 
ATOM     33  Cl  UNL A   1      35.906  15.458  25.378  1.00  0.00    -0.084 Cl
ENDBRANCH  23  24
ENDBRANCH  16  18
ENDBRANCH  13  14
ENDBRANCH   6   8
ENDBRANCH   5   6
ENDBRANCH   4   5
ENDBRANCH   3   4
ENDBRANCH   2   3
ENDBRANCH   1   2
BRANCH   1  34
ATOM     34  C   UNL A   1      36.068  20.186  24.688  1.00  0.00     0.188 C 
BRANCH  34  35
ATOM     35  O   UNL A   1      37.431  20.609  24.656  1.00  0.00    -0.376 OA
BRANCH  35  36
ATOM     36  C   UNL A   1      38.362  19.801  25.375  1.00  0.00     0.202 C 
BRANCH  36  37
ATOM     37  C   UNL A   1      39.650  20.475  25.882  1.00  0.00     0.261 C 
BRANCH  37  38
ATOM     38  O   UNL A   1      40.875  19.963  25.325  1.00  0.00    -0.460 OA
BRANCH  38  39
ATOM     39  C   UNL A   1      41.878  19.667  26.179  1.00  0.00     0.338 C 
ATOM     40  O   UNL A   1      42.226  18.560  26.548  1.00  0.00    -0.246 OA
BRANCH  39  41
ATOM     41  C   UNL A   1      42.637  20.907  26.438  1.00  0.00     0.060 A 
ATOM     42  C   UNL A   1      42.879  21.276  27.768  1.00  0.00     0.016 A 
ATOM     43  C   UNL A   1      43.072  21.715  25.385  1.00  0.00     0.016 A 
ATOM     44  C   UNL A   1      43.497  22.493  28.051  1.00  0.00     0.010 A 
ATOM     45  C   UNL A   1      43.668  22.947  25.669  1.00  0.00     0.010 A 
ATOM     46  C   UNL A   1      43.831  23.361  27.002  1.00  0.00    -0.014 A 
BRANCH  46  47
ATOM     47  C   UNL A   1      44.066  24.793  27.302  1.00  0.00     0.031 A 
ATOM     48  C   UNL A   1      45.481  25.300  27.204  1.00  0.00     0.074 A 
ATOM     49  C   UNL A   1      43.070  25.623  27.654  1.00  0.00     0.049 A 
ATOM     50  N   UNL A   1      45.944  26.508  27.383  1.00  0.00    -0.248 NA
ATOM     51  C   UNL A   1      46.512  24.307  26.850  1.00  0.00     0.031 C 
ATOM     52  C   UNL A   1      41.662  25.255  27.781  1.00  0.00     0.029 A 
ATOM     53  N   UNL A   1      43.104  26.954  27.987  1.00  0.00    -0.354 N 
ATOM     54  C   UNL A   1      47.313  26.421  27.167  1.00  0.00     0.074 A 
ATOM     55  C   UNL A   1      47.614  25.041  26.864  1.00  0.00     0.031 C 
ATOM     56  C   UNL A   1      40.969  26.332  28.197  1.00  0.00     0.029 A 
ATOM     57  C   UNL A   1      41.884  27.460  28.366  1.00  0.00     0.049 A 
ATOM     58  H   UNL A   1      43.926  27.496  27.956  1.00  0.00     0.167 HD
ATOM     59  C   UNL A   1      48.240  27.405  27.192  1.00  0.00     0.034 A 
ATOM     60  C   UNL A   1      41.553  28.692  28.802  1.00  0.00     0.034 A 
ATOM     61  C   UNL A   1      47.949  28.777  27.488  1.00  0.00     0.049 A 
ATOM     62  C   UNL A   1      42.614  29.763  28.863  1.00  0.00     0.074 A 
ATOM     63  C   UNL A   1      48.814  29.856  27.505  1.00  0.00     0.029 A 
ATOM     64  N   UNL A   1      46.698  29.257  27.837  1.00  0.00    -0.354 N 
ATOM     65  N   UNL A   1      43.875  29.702  28.508  1.00  0.00    -0.248 NA
ATOM     66  C   UNL A   1      42.197  31.086  29.355  1.00  0.00     0.031 C 
ATOM     67  C   UNL A   1      48.084  30.990  27.879  1.00  0.00     0.029 A 
ATOM     68  C   UNL A   1      46.766  30.615  28.087  1.00  0.00     0.049 A 
ATOM     69  H   UNL A   1      45.880  28.712  27.898  1.00  0.00     0.167 HD
ATOM     70  C   UNL A   1      44.392  30.980  28.701  1.00  0.00     0.074 A 
ATOM     71  C   UNL A   1      43.303  31.801  29.187  1.00  0.00     0.031 C 
ATOM     72  C   UNL A   1      45.657  31.430  28.512  1.00  0.00     0.034 A 
BRANCH  59  73
ATOM     73  C   UNL A   1      49.651  27.027  26.842  1.00  0.00     0.023 A 
ATOM     74  C   UNL A   1      50.455  26.402  27.818  1.00  0.00     0.012 A 
ATOM     75  C   UNL A   1      50.173  27.265  25.558  1.00  0.00     0.148 A 
ATOM     76  C   UNL A   1      51.768  26.040  27.527  1.00  0.00     0.002 A 
ATOM     77  C   UNL A   1      51.474  26.872  25.266  1.00  0.00     0.091 A 
ATOM     78  F   UNL A   1      49.403  27.893  24.659  1.00  0.00    -0.205 F 
ATOM     79  C   UNL A   1      52.274  26.266  26.249  1.00  0.00     0.022 A 
BRANCH  77  80
ATOM     80  S   UNL A   1      52.194  27.076  23.634  1.00  0.00     0.127 S 
ATOM     81  O   UNL A   1      52.704  28.445  23.704  1.00  0.00    -0.237 OA
ATOM     82  O   UNL A   1      53.229  26.040  23.618  1.00  0.00    -0.237 OA
ATOM     83  O   UNL A   1      51.108  26.856  22.689  1.00  0.00    -0.744 OA
ENDBRANCH  77  80
ENDBRANCH  59  73
BRANCH  60  84
ATOM     84  C   UNL A   1      40.141  29.001  29.166  1.00  0.00     0.023 A 
ATOM     85  C   UNL A   1      39.204  29.261  28.148  1.00  0.00     0.012 A 
ATOM     86  C   UNL A   1      39.720  29.035  30.510  1.00  0.00     0.148 A 
ATOM     87  C   UNL A   1      37.881  29.577  28.461  1.00  0.00     0.002 A 
ATOM     88  C   UNL A   1      38.389  29.301  30.813  1.00  0.00     0.091 A 
ATOM     89  F   UNL A   1      40.630  28.812  31.468  1.00  0.00    -0.205 F 
ATOM     90  C   UNL A   1      37.471  29.587  29.791  1.00  0.00     0.022 A 
BRANCH  88  91
ATOM     91  S   UNL A   1      37.758  29.209  32.493  1.00  0.00     0.127 S 
ATOM     92  O   UNL A   1      38.670  30.101  33.206  1.00  0.00    -0.237 OA
ATOM     93  O   UNL A   1      36.394  29.716  32.341  1.00  0.00    -0.237 OA
ATOM     94  O   UNL A   1      37.829  27.799  32.854  1.00  0.00    -0.744 OA
ENDBRANCH  88  91
ENDBRANCH  60  84
BRANCH  72  95
ATOM     95  C   UNL A   1      45.944  32.876  28.815  1.00  0.00     0.023 A 
ATOM     96  C   UNL A   1      46.237  33.258  30.138  1.00  0.00     0.012 A 
ATOM     97  C   UNL A   1      46.031  33.831  27.783  1.00  0.00     0.148 A 
ATOM     98  C   UNL A   1      46.593  34.574  30.434  1.00  0.00     0.002 A 
ATOM     99  C   UNL A   1      46.426  35.131  28.078  1.00  0.00     0.091 A 
ATOM    100  F   UNL A   1      45.730  33.452  26.531  1.00  0.00    -0.205 F 
ATOM    101  C   UNL A   1      46.699  35.506  29.403  1.00  0.00     0.022 A 
BRANCH  99 102
ATOM    102  S   UNL A   1      46.680  36.366  26.797  1.00  0.00     0.127 S 
ATOM    103  O   UNL A   1      47.698  35.729  25.965  1.00  0.00    -0.237 OA
ATOM    104  O   UNL A   1      45.356  36.457  26.179  1.00  0.00    -0.237 OA
ATOM    105  O   UNL A   1      47.100  37.575  27.493  1.00  0.00    -0.744 OA
ENDBRANCH  99 102
ENDBRANCH  72  95
ENDBRANCH  46  47
ENDBRANCH  39  41
ENDBRANCH  38  39
ENDBRANCH  37  38
ENDBRANCH  36  37
ENDBRANCH  35  36
ENDBRANCH  34  35
ENDBRANCH   1  34
TORSDOF 23
ENDMDL
