MODEL 1
REMARK VINA RESULT:     -10.4      0.000      0.000
REMARK SMILES O=C(OCCOCCOCCOC(=O)[C@@H]1CC[C@@H](CN2C(=O)CC3(CCCC3)CC2=O)O1)c1ccc(-c2c3nc(c(-c4cccc(S(=O)(=O)[O-])c4F)c4ccc([nH]4)c(-c4cccc(S(=O)(=O)[O-])c4F)c4nc(c(-c5cccc(S(=O)(=O)[O-])c5F)c5ccc2[nH]5)C=C4)C=C3)cc1
REMARK SMILES IDX 7 1 6 2 5 3 4 4 3 5 2 6 1 7 33 8 34 9 95 10 35 11 94 12
REMARK SMILES IDX 36 13 37 14 38 15 88 16 39 17 93 18 87 19 89 20 40 21 92 22
REMARK SMILES IDX 86 23 85 24 41 26 73 27 53 28 72 29 54 30 57 31 71 32 90 33
REMARK SMILES IDX 55 34 56 35 70 37 91 38 58 39 42 40 43 41 51 42 44 43 46 44
REMARK SMILES IDX 52 45 45 46 47 47 48 48 49 49 50 50 74 51 75 52 83 53 76 54
REMARK SMILES IDX 78 55 84 56 77 57 79 58 80 59 81 60 82 61 59 62 60 63 68 64
REMARK SMILES IDX 61 65 63 66 69 67 62 68 64 69 65 70 66 71 67 72 8 73 9 74
REMARK SMILES IDX 10 75 11 76 12 77 13 78 14 79 15 80 16 81 32 82 17 83 18 84
REMARK SMILES IDX 19 85 20 86 21 87 30 88 22 89 23 90 29 91 31 92 24 93 25 94
REMARK SMILES IDX 28 95 26 96 27 97
REMARK H PARENT 89 25 57 36
REMARK Flexibility Score: inf
ROOT
ATOM      1  C   UNL A   1      34.530  21.056  24.598  1.00  0.00     0.188 C 
ENDROOT
BRANCH   1   2
ATOM      2  O   UNL A   1      34.910  22.403  24.298  1.00  0.00    -0.376 OA
BRANCH   2   3
ATOM      3  C   UNL A   1      36.325  22.558  24.128  1.00  0.00     0.202 C 
BRANCH   3   4
ATOM      4  C   UNL A   1      37.174  21.311  24.441  1.00  0.00     0.261 C 
BRANCH   4   5
ATOM      5  O   UNL A   1      37.784  21.331  25.745  1.00  0.00    -0.460 OA
BRANCH   5   6
ATOM      6  C   UNL A   1      39.075  21.573  26.089  1.00  0.00     0.338 C 
ATOM      7  O   UNL A   1      39.901  20.681  25.896  1.00  0.00    -0.246 OA
BRANCH   6   8
ATOM      8  C   UNL A   1      39.561  22.856  26.691  1.00  0.00     0.060 A 
ATOM      9  C   UNL A   1      39.121  24.127  26.326  1.00  0.00     0.016 A 
ATOM     10  C   UNL A   1      40.510  22.773  27.729  1.00  0.00     0.016 A 
ATOM     11  C   UNL A   1      39.661  25.274  26.879  1.00  0.00     0.010 A 
ATOM     12  C   UNL A   1      41.026  23.928  28.335  1.00  0.00     0.010 A 
ATOM     13  C   UNL A   1      40.621  25.186  27.879  1.00  0.00    -0.014 A 
BRANCH  13  14
ATOM     14  C   UNL A   1      41.255  26.451  28.293  1.00  0.00     0.031 A 
ATOM     15  C   UNL A   1      42.656  26.712  27.838  1.00  0.00     0.074 A 
ATOM     16  C   UNL A   1      40.514  27.413  28.874  1.00  0.00     0.049 A 
ATOM     17  N   UNL A   1      43.357  27.804  27.945  1.00  0.00    -0.248 NA
ATOM     18  C   UNL A   1      43.340  25.619  27.124  1.00  0.00     0.031 C 
ATOM     19  C   UNL A   1      39.103  27.276  29.230  1.00  0.00     0.029 A 
ATOM     20  N   UNL A   1      40.813  28.692  29.247  1.00  0.00    -0.354 N 
ATOM     21  C   UNL A   1      44.563  27.534  27.315  1.00  0.00     0.074 A 
ATOM     22  C   UNL A   1      44.510  26.171  26.842  1.00  0.00     0.031 C 
ATOM     23  C   UNL A   1      38.664  28.402  29.812  1.00  0.00     0.029 A 
ATOM     24  C   UNL A   1      39.771  29.342  29.868  1.00  0.00     0.049 A 
ATOM     25  H   UNL A   1      41.689  29.109  29.085  1.00  0.00     0.167 HD
ATOM     26  C   UNL A   1      45.611  28.365  27.134  1.00  0.00     0.034 A 
ATOM     27  C   UNL A   1      39.736  30.560  30.429  1.00  0.00     0.034 A 
ATOM     28  C   UNL A   1      45.648  29.706  27.642  1.00  0.00     0.049 A 
ATOM     29  C   UNL A   1      40.958  31.416  30.309  1.00  0.00     0.074 A 
ATOM     30  C   UNL A   1      46.682  30.621  27.590  1.00  0.00     0.029 A 
ATOM     31  N   UNL A   1      44.600  30.317  28.318  1.00  0.00    -0.354 N 
ATOM     32  N   UNL A   1      42.088  31.151  29.699  1.00  0.00    -0.248 NA
ATOM     33  C   UNL A   1      40.880  32.755  30.903  1.00  0.00     0.031 C 
ATOM     34  C   UNL A   1      46.270  31.775  28.266  1.00  0.00     0.029 A 
ATOM     35  C   UNL A   1      44.965  31.595  28.699  1.00  0.00     0.049 A 
ATOM     36  H   UNL A   1      43.727  29.901  28.499  1.00  0.00     0.167 HD
ATOM     37  C   UNL A   1      42.857  32.295  29.824  1.00  0.00     0.074 A 
ATOM     38  C   UNL A   1      42.045  33.267  30.536  1.00  0.00     0.031 C 
ATOM     39  C   UNL A   1      44.122  32.527  29.401  1.00  0.00     0.034 A 
BRANCH  26  40
ATOM     40  C   UNL A   1      46.794  27.817  26.389  1.00  0.00     0.023 A 
ATOM     41  C   UNL A   1      46.928  28.053  25.005  1.00  0.00     0.012 A 
ATOM     42  C   UNL A   1      47.765  27.050  27.059  1.00  0.00     0.148 A 
ATOM     43  C   UNL A   1      47.995  27.507  24.292  1.00  0.00     0.002 A 
ATOM     44  C   UNL A   1      48.847  26.544  26.351  1.00  0.00     0.091 A 
ATOM     45  F   UNL A   1      47.598  26.812  28.366  1.00  0.00    -0.205 F 
ATOM     46  C   UNL A   1      48.957  26.760  24.967  1.00  0.00     0.022 A 
BRANCH  44  47
ATOM     47  S   UNL A   1      50.164  25.610  27.132  1.00  0.00     0.127 S 
ATOM     48  O   UNL A   1      51.104  25.442  26.026  1.00  0.00    -0.237 OA
ATOM     49  O   UNL A   1      50.608  26.530  28.178  1.00  0.00    -0.237 OA
ATOM     50  O   UNL A   1      49.555  24.378  27.618  1.00  0.00    -0.744 OA
ENDBRANCH  44  47
ENDBRANCH  26  40
BRANCH  27  51
ATOM     51  C   UNL A   1      38.558  31.049  31.186  1.00  0.00     0.023 A 
ATOM     52  C   UNL A   1      38.300  30.581  32.488  1.00  0.00     0.012 A 
ATOM     53  C   UNL A   1      37.614  31.869  30.544  1.00  0.00     0.148 A 
ATOM     54  C   UNL A   1      37.100  30.906  33.127  1.00  0.00     0.002 A 
ATOM     55  C   UNL A   1      36.412  32.169  31.177  1.00  0.00     0.091 A 
ATOM     56  F   UNL A   1      37.880  32.305  29.305  1.00  0.00    -0.205 F 
ATOM     57  C   UNL A   1      36.155  31.696  32.471  1.00  0.00     0.022 A 
BRANCH  55  58
ATOM     58  S   UNL A   1      35.151  33.127  30.324  1.00  0.00     0.127 S 
ATOM     59  O   UNL A   1      34.586  32.137  29.416  1.00  0.00    -0.237 OA
ATOM     60  O   UNL A   1      34.268  33.537  31.416  1.00  0.00    -0.237 OA
ATOM     61  O   UNL A   1      35.884  34.227  29.706  1.00  0.00    -0.744 OA
ENDBRANCH  55  58
ENDBRANCH  27  51
BRANCH  39  62
ATOM     62  C   UNL A   1      44.682  33.887  29.693  1.00  0.00     0.023 A 
ATOM     63  C   UNL A   1      45.506  34.081  30.818  1.00  0.00     0.012 A 
ATOM     64  C   UNL A   1      44.415  34.961  28.826  1.00  0.00     0.148 A 
ATOM     65  C   UNL A   1      46.023  35.343  31.100  1.00  0.00     0.002 A 
ATOM     66  C   UNL A   1      44.983  36.200  29.081  1.00  0.00     0.091 A 
ATOM     67  F   UNL A   1      43.601  34.755  27.779  1.00  0.00    -0.205 F 
ATOM     68  C   UNL A   1      45.773  36.398  30.225  1.00  0.00     0.022 A 
BRANCH  66  69
ATOM     69  S   UNL A   1      44.799  37.581  27.950  1.00  0.00     0.127 S 
ATOM     70  O   UNL A   1      44.636  36.898  26.669  1.00  0.00    -0.237 OA
ATOM     71  O   UNL A   1      43.591  38.234  28.456  1.00  0.00    -0.237 OA
ATOM     72  O   UNL A   1      46.013  38.375  28.086  1.00  0.00    -0.744 OA
ENDBRANCH  66  69
ENDBRANCH  39  62
ENDBRANCH  13  14
ENDBRANCH   6   8
ENDBRANCH   5   6
ENDBRANCH   4   5
ENDBRANCH   3   4
ENDBRANCH   2   3
ENDBRANCH   1   2
BRANCH   1  73
ATOM     73  C   UNL A   1      33.816  20.875  25.937  1.00  0.00     0.188 C 
BRANCH  73  74
ATOM     74  O   UNL A   1      34.369  21.502  27.090  1.00  0.00    -0.376 OA
BRANCH  74  75
ATOM     75  C   UNL A   1      33.502  22.222  27.959  1.00  0.00     0.202 C 
BRANCH  75  76
ATOM     76  C   UNL A   1      32.708  23.417  27.412  1.00  0.00     0.261 C 
BRANCH  76  77
ATOM     77  O   UNL A   1      31.288  23.298  27.542  1.00  0.00    -0.461 OA
BRANCH  77  78
ATOM     78  C   UNL A   1      30.626  23.081  26.372  1.00  0.00     0.335 C 
ATOM     79  O   UNL A   1      30.108  22.017  26.055  1.00  0.00    -0.249 OA
BRANCH  78  80
ATOM     80  C   UNL A   1      30.588  24.330  25.484  1.00  0.00     0.228 C 
ATOM     81  C   UNL A   1      29.509  25.342  25.775  1.00  0.00     0.047 C 
ATOM     82  O   UNL A   1      30.616  24.215  24.066  1.00  0.00    -0.361 OA
ATOM     83  C   UNL A   1      29.597  26.306  24.609  1.00  0.00     0.037 C 
ATOM     84  C   UNL A   1      30.265  25.500  23.495  1.00  0.00     0.139 C 
BRANCH  84  85
ATOM     85  C   UNL A   1      31.492  26.200  22.828  1.00  0.00     0.160 C 
BRANCH  85  86
ATOM     86  N   UNL A   1      32.223  27.047  23.774  1.00  0.00    -0.280 N 
ATOM     87  C   UNL A   1      32.130  28.425  23.693  1.00  0.00     0.229 C 
ATOM     88  C   UNL A   1      33.179  26.460  24.569  1.00  0.00     0.229 C 
ATOM     89  O   UNL A   1      31.723  28.997  22.681  1.00  0.00    -0.274 OA
ATOM     90  C   UNL A   1      32.461  29.206  24.959  1.00  0.00     0.108 C 
ATOM     91  C   UNL A   1      33.195  27.028  25.959  1.00  0.00     0.108 C 
ATOM     92  O   UNL A   1      33.865  25.496  24.246  1.00  0.00    -0.274 OA
ATOM     93  C   UNL A   1      33.399  28.526  25.970  1.00  0.00    -0.012 C 
ATOM     94  C   UNL A   1      33.089  29.000  27.411  1.00  0.00     0.008 C 
ATOM     95  C   UNL A   1      34.889  28.856  25.742  1.00  0.00     0.008 C 
ATOM     96  C   UNL A   1      34.441  29.102  28.089  1.00  0.00     0.001 C 
ATOM     97  C   UNL A   1      35.330  29.632  26.979  1.00  0.00     0.001 C 
ENDBRANCH  85  86
ENDBRANCH  84  85
ENDBRANCH  78  80
ENDBRANCH  77  78
ENDBRANCH  76  77
ENDBRANCH  75  76
ENDBRANCH  74  75
ENDBRANCH  73  74
ENDBRANCH   1  73
TORSDOF 22
ENDMDL
MODEL 2
REMARK VINA RESULT:     -10.1      1.687      2.685
REMARK SMILES O=C(OCCOCCOCCOC(=O)[C@@H]1CC[C@@H](CN2C(=O)CC3(CCCC3)CC2=O)O1)c1ccc(-c2c3nc(c(-c4cccc(S(=O)(=O)[O-])c4F)c4ccc([nH]4)c(-c4cccc(S(=O)(=O)[O-])c4F)c4nc(c(-c5cccc(S(=O)(=O)[O-])c5F)c5ccc2[nH]5)C=C4)C=C3)cc1
REMARK SMILES IDX 7 1 6 2 5 3 4 4 3 5 2 6 1 7 33 8 34 9 95 10 35 11 94 12
REMARK SMILES IDX 36 13 37 14 38 15 88 16 39 17 93 18 87 19 89 20 40 21 92 22
REMARK SMILES IDX 86 23 85 24 41 26 73 27 53 28 72 29 54 30 57 31 71 32 90 33
REMARK SMILES IDX 55 34 56 35 70 37 91 38 58 39 42 40 43 41 51 42 44 43 46 44
REMARK SMILES IDX 52 45 45 46 47 47 48 48 49 49 50 50 74 51 75 52 83 53 76 54
REMARK SMILES IDX 78 55 84 56 77 57 79 58 80 59 81 60 82 61 59 62 60 63 68 64
REMARK SMILES IDX 61 65 63 66 69 67 62 68 64 69 65 70 66 71 67 72 8 73 9 74
REMARK SMILES IDX 10 75 11 76 12 77 13 78 14 79 15 80 16 81 32 82 17 83 18 84
REMARK SMILES IDX 19 85 20 86 21 87 30 88 22 89 23 90 29 91 31 92 24 93 25 94
REMARK SMILES IDX 28 95 26 96 27 97
REMARK H PARENT 89 25 57 36
REMARK Flexibility Score: inf
ROOT
ATOM      1  C   UNL A   1      35.017  20.921  25.245  1.00  0.00     0.188 C 
ENDROOT
BRANCH   1   2
ATOM      2  O   UNL A   1      35.762  22.079  24.852  1.00  0.00    -0.376 OA
BRANCH   2   3
ATOM      3  C   UNL A   1      37.040  21.757  24.288  1.00  0.00     0.202 C 
BRANCH   3   4
ATOM      4  C   UNL A   1      37.665  20.433  24.770  1.00  0.00     0.261 C 
BRANCH   4   5
ATOM      5  O   UNL A   1      38.387  20.543  26.009  1.00  0.00    -0.460 OA
BRANCH   5   6
ATOM      6  C   UNL A   1      39.679  20.903  26.225  1.00  0.00     0.338 C 
ATOM      7  O   UNL A   1      40.558  20.082  25.965  1.00  0.00    -0.246 OA
BRANCH   6   8
ATOM      8  C   UNL A   1      40.104  22.235  26.763  1.00  0.00     0.060 A 
ATOM      9  C   UNL A   1      39.672  23.468  26.278  1.00  0.00     0.016 A 
ATOM     10  C   UNL A   1      40.983  22.245  27.865  1.00  0.00     0.016 A 
ATOM     11  C   UNL A   1      40.157  24.662  26.781  1.00  0.00     0.010 A 
ATOM     12  C   UNL A   1      41.440  23.450  28.417  1.00  0.00     0.010 A 
ATOM     13  C   UNL A   1      41.049  24.664  27.845  1.00  0.00    -0.014 A 
BRANCH  13  14
ATOM     14  C   UNL A   1      41.636  25.967  28.207  1.00  0.00     0.031 A 
ATOM     15  C   UNL A   1      43.019  26.269  27.723  1.00  0.00     0.074 A 
ATOM     16  C   UNL A   1      40.863  26.918  28.765  1.00  0.00     0.049 A 
ATOM     17  N   UNL A   1      43.675  27.392  27.783  1.00  0.00    -0.248 NA
ATOM     18  C   UNL A   1      43.737  25.181  27.037  1.00  0.00     0.031 C 
ATOM     19  C   UNL A   1      39.464  26.736  29.146  1.00  0.00     0.029 A 
ATOM     20  N   UNL A   1      41.114  28.220  29.090  1.00  0.00    -0.354 N 
ATOM     21  C   UNL A   1      44.883  27.150  27.146  1.00  0.00     0.074 A 
ATOM     22  C   UNL A   1      44.880  25.770  26.720  1.00  0.00     0.031 C 
ATOM     23  C   UNL A   1      38.986  27.863  29.696  1.00  0.00     0.029 A 
ATOM     24  C   UNL A   1      40.054  28.848  29.704  1.00  0.00     0.049 A 
ATOM     25  H   UNL A   1      41.970  28.667  28.902  1.00  0.00     0.167 HD
ATOM     26  C   UNL A   1      45.894  28.016  26.921  1.00  0.00     0.034 A 
ATOM     27  C   UNL A   1      39.977  30.082  30.224  1.00  0.00     0.034 A 
ATOM     28  C   UNL A   1      45.882  29.374  27.383  1.00  0.00     0.049 A 
ATOM     29  C   UNL A   1      41.160  30.983  30.057  1.00  0.00     0.074 A 
ATOM     30  C   UNL A   1      46.877  30.329  27.285  1.00  0.00     0.029 A 
ATOM     31  N   UNL A   1      44.819  29.965  28.053  1.00  0.00    -0.354 N 
ATOM     32  N   UNL A   1      42.292  30.743  29.441  1.00  0.00    -0.248 NA
ATOM     33  C   UNL A   1      41.035  32.337  30.606  1.00  0.00     0.031 C 
ATOM     34  C   UNL A   1      46.426  31.487  27.927  1.00  0.00     0.029 A 
ATOM     35  C   UNL A   1      45.135  31.269  28.385  1.00  0.00     0.049 A 
ATOM     36  H   UNL A   1      43.966  29.520  28.260  1.00  0.00     0.167 HD
ATOM     37  C   UNL A   1      43.015  31.922  29.516  1.00  0.00     0.074 A 
ATOM     38  C   UNL A   1      42.173  32.883  30.206  1.00  0.00     0.031 C 
ATOM     39  C   UNL A   1      44.264  32.190  29.066  1.00  0.00     0.034 A 
BRANCH  26  40
ATOM     40  C   UNL A   1      47.088  27.492  26.179  1.00  0.00     0.023 A 
ATOM     41  C   UNL A   1      48.068  26.738  26.860  1.00  0.00     0.012 A 
ATOM     42  C   UNL A   1      47.252  27.763  24.808  1.00  0.00     0.148 A 
ATOM     43  C   UNL A   1      49.207  26.289  26.193  1.00  0.00     0.002 A 
ATOM     44  C   UNL A   1      48.368  27.278  24.141  1.00  0.00     0.091 A 
ATOM     45  F   UNL A   1      46.325  28.509  24.192  1.00  0.00    -0.205 F 
ATOM     46  C   UNL A   1      49.353  26.552  24.833  1.00  0.00     0.022 A 
BRANCH  44  47
ATOM     47  S   UNL A   1      48.628  27.519  22.382  1.00  0.00     0.127 S 
ATOM     48  O   UNL A   1      49.913  28.215  22.366  1.00  0.00    -0.237 OA
ATOM     49  O   UNL A   1      48.670  26.143  21.891  1.00  0.00    -0.237 OA
ATOM     50  O   UNL A   1      47.494  28.305  21.910  1.00  0.00    -0.744 OA
ENDBRANCH  44  47
ENDBRANCH  26  40
BRANCH  27  51
ATOM     51  C   UNL A   1      38.789  30.549  30.981  1.00  0.00     0.023 A 
ATOM     52  C   UNL A   1      38.557  30.101  32.294  1.00  0.00     0.012 A 
ATOM     53  C   UNL A   1      37.813  31.324  30.330  1.00  0.00     0.148 A 
ATOM     54  C   UNL A   1      37.352  30.400  32.936  1.00  0.00     0.002 A 
ATOM     55  C   UNL A   1      36.608  31.598  30.967  1.00  0.00     0.091 A 
ATOM     56  F   UNL A   1      38.056  31.742  29.080  1.00  0.00    -0.205 F 
ATOM     57  C   UNL A   1      36.376  31.144  32.273  1.00  0.00     0.022 A 
BRANCH  55  58
ATOM     58  S   UNL A   1      35.310  32.497  30.105  1.00  0.00     0.127 S 
ATOM     59  O   UNL A   1      34.971  31.574  29.028  1.00  0.00    -0.237 OA
ATOM     60  O   UNL A   1      34.283  32.643  31.136  1.00  0.00    -0.237 OA
ATOM     61  O   UNL A   1      35.937  33.752  29.706  1.00  0.00    -0.744 OA
ENDBRANCH  55  58
ENDBRANCH  27  51
BRANCH  39  62
ATOM     62  C   UNL A   1      44.771  33.581  29.304  1.00  0.00     0.023 A 
ATOM     63  C   UNL A   1      45.356  33.914  30.541  1.00  0.00     0.012 A 
ATOM     64  C   UNL A   1      44.697  34.543  28.282  1.00  0.00     0.148 A 
ATOM     65  C   UNL A   1      45.821  35.206  30.772  1.00  0.00     0.002 A 
ATOM     66  C   UNL A   1      45.218  35.810  28.499  1.00  0.00     0.091 A 
ATOM     67  F   UNL A   1      44.107  34.206  27.125  1.00  0.00    -0.205 F 
ATOM     68  C   UNL A   1      45.765  36.149  29.747  1.00  0.00     0.022 A 
BRANCH  66  69
ATOM     69  S   UNL A   1      45.282  37.047  27.201  1.00  0.00     0.127 S 
ATOM     70  O   UNL A   1      45.966  36.323  26.132  1.00  0.00    -0.237 OA
ATOM     71  O   UNL A   1      43.863  37.309  26.955  1.00  0.00    -0.237 OA
ATOM     72  O   UNL A   1      46.013  38.176  27.759  1.00  0.00    -0.744 OA
ENDBRANCH  66  69
ENDBRANCH  39  62
ENDBRANCH  13  14
ENDBRANCH   6   8
ENDBRANCH   5   6
ENDBRANCH   4   5
ENDBRANCH   3   4
ENDBRANCH   2   3
ENDBRANCH   1   2
BRANCH   1  73
ATOM     73  C   UNL A   1      33.611  21.212  25.769  1.00  0.00     0.188 C 
BRANCH  73  74
ATOM     74  O   UNL A   1      33.440  21.420  27.169  1.00  0.00    -0.376 OA
BRANCH  74  75
ATOM     75  C   UNL A   1      32.496  22.392  27.604  1.00  0.00     0.202 C 
BRANCH  75  76
ATOM     76  C   UNL A   1      32.091  23.530  26.655  1.00  0.00     0.261 C 
BRANCH  76  77
ATOM     77  O   UNL A   1      31.818  24.776  27.301  1.00  0.00    -0.461 OA
BRANCH  77  78
ATOM     78  C   UNL A   1      30.876  25.541  26.685  1.00  0.00     0.335 C 
ATOM     79  O   UNL A   1      29.689  25.247  26.602  1.00  0.00    -0.249 OA
BRANCH  78  80
ATOM     80  C   UNL A   1      31.462  26.833  26.104  1.00  0.00     0.228 C 
ATOM     81  C   UNL A   1      32.293  27.683  27.032  1.00  0.00     0.047 C 
ATOM     82  O   UNL A   1      30.638  27.753  25.397  1.00  0.00    -0.361 OA
ATOM     83  C   UNL A   1      32.517  28.959  26.246  1.00  0.00     0.037 C 
ATOM     84  C   UNL A   1      31.369  28.995  25.237  1.00  0.00     0.139 C 
BRANCH  84  85
ATOM     85  C   UNL A   1      31.808  29.229  23.756  1.00  0.00     0.160 C 
BRANCH  85  86
ATOM     86  N   UNL A   1      32.236  27.987  23.108  1.00  0.00    -0.280 N 
ATOM     87  C   UNL A   1      33.579  27.747  22.877  1.00  0.00     0.229 C 
ATOM     88  C   UNL A   1      31.277  27.194  22.520  1.00  0.00     0.229 C 
ATOM     89  O   UNL A   1      34.419  28.648  22.896  1.00  0.00    -0.274 OA
ATOM     90  C   UNL A   1      33.991  26.291  22.697  1.00  0.00     0.108 C 
ATOM     91  C   UNL A   1      31.548  25.730  22.714  1.00  0.00     0.108 C 
ATOM     92  O   UNL A   1      30.246  27.608  22.002  1.00  0.00    -0.274 OA
ATOM     93  C   UNL A   1      32.908  25.319  22.199  1.00  0.00    -0.012 C 
ATOM     94  C   UNL A   1      33.166  23.889  22.735  1.00  0.00     0.008 C 
ATOM     95  C   UNL A   1      32.870  25.180  20.663  1.00  0.00     0.008 C 
ATOM     96  C   UNL A   1      32.777  22.969  21.595  1.00  0.00     0.001 C 
ATOM     97  C   UNL A   1      33.253  23.732  20.374  1.00  0.00     0.001 C 
ENDBRANCH  85  86
ENDBRANCH  84  85
ENDBRANCH  78  80
ENDBRANCH  77  78
ENDBRANCH  76  77
ENDBRANCH  75  76
ENDBRANCH  74  75
ENDBRANCH  73  74
ENDBRANCH   1  73
TORSDOF 22
ENDMDL
MODEL 3
REMARK VINA RESULT:      -9.7      6.059      9.832
REMARK SMILES O=C(OCCOCCOCCOC(=O)[C@@H]1CC[C@@H](CN2C(=O)CC3(CCCC3)CC2=O)O1)c1ccc(-c2c3nc(c(-c4cccc(S(=O)(=O)[O-])c4F)c4ccc([nH]4)c(-c4cccc(S(=O)(=O)[O-])c4F)c4nc(c(-c5cccc(S(=O)(=O)[O-])c5F)c5ccc2[nH]5)C=C4)C=C3)cc1
REMARK SMILES IDX 7 1 6 2 5 3 4 4 3 5 2 6 1 7 33 8 34 9 95 10 35 11 94 12
REMARK SMILES IDX 36 13 37 14 38 15 88 16 39 17 93 18 87 19 89 20 40 21 92 22
REMARK SMILES IDX 86 23 85 24 41 26 73 27 53 28 72 29 54 30 57 31 71 32 90 33
REMARK SMILES IDX 55 34 56 35 70 37 91 38 58 39 42 40 43 41 51 42 44 43 46 44
REMARK SMILES IDX 52 45 45 46 47 47 48 48 49 49 50 50 74 51 75 52 83 53 76 54
REMARK SMILES IDX 78 55 84 56 77 57 79 58 80 59 81 60 82 61 59 62 60 63 68 64
REMARK SMILES IDX 61 65 63 66 69 67 62 68 64 69 65 70 66 71 67 72 8 73 9 74
REMARK SMILES IDX 10 75 11 76 12 77 13 78 14 79 15 80 16 81 32 82 17 83 18 84
REMARK SMILES IDX 19 85 20 86 21 87 30 88 22 89 23 90 29 91 31 92 24 93 25 94
REMARK SMILES IDX 28 95 26 96 27 97
REMARK H PARENT 89 25 57 36
REMARK Flexibility Score: inf
ROOT
ATOM      1  C   UNL A   1      34.682  33.788  27.728  1.00  0.00     0.188 C 
ENDROOT
BRANCH   1   2
ATOM      2  O   UNL A   1      34.957  34.817  28.684  1.00  0.00    -0.376 OA
BRANCH   2   3
ATOM      3  C   UNL A   1      34.220  36.021  28.436  1.00  0.00     0.202 C 
BRANCH   3   4
ATOM      4  C   UNL A   1      32.883  36.150  29.191  1.00  0.00     0.261 C 
BRANCH   4   5
ATOM      5  O   UNL A   1      32.743  35.237  30.294  1.00  0.00    -0.460 OA
BRANCH   5   6
ATOM      6  C   UNL A   1      33.042  35.418  31.607  1.00  0.00     0.338 C 
ATOM      7  O   UNL A   1      32.309  36.153  32.269  1.00  0.00    -0.246 OA
BRANCH   6   8
ATOM      8  C   UNL A   1      34.209  34.784  32.301  1.00  0.00     0.060 A 
ATOM      9  C   UNL A   1      35.540  35.157  32.129  1.00  0.00     0.016 A 
ATOM     10  C   UNL A   1      33.939  33.754  33.224  1.00  0.00     0.016 A 
ATOM     11  C   UNL A   1      36.575  34.483  32.753  1.00  0.00     0.010 A 
ATOM     12  C   UNL A   1      34.976  33.099  33.903  1.00  0.00     0.010 A 
ATOM     13  C   UNL A   1      36.303  33.446  33.637  1.00  0.00    -0.014 A 
BRANCH  13  14
ATOM     14  C   UNL A   1      37.465  32.683  34.128  1.00  0.00     0.031 A 
ATOM     15  C   UNL A   1      37.965  31.552  33.285  1.00  0.00     0.074 A 
ATOM     16  C   UNL A   1      38.166  33.135  35.184  1.00  0.00     0.049 A 
ATOM     17  N   UNL A   1      39.048  30.845  33.432  1.00  0.00    -0.248 NA
ATOM     18  C   UNL A   1      37.169  31.205  32.095  1.00  0.00     0.031 C 
ATOM     19  C   UNL A   1      37.811  34.311  35.978  1.00  0.00     0.029 A 
ATOM     20  N   UNL A   1      39.321  32.697  35.766  1.00  0.00    -0.354 N 
ATOM     21  C   UNL A   1      39.067  29.969  32.356  1.00  0.00     0.074 A 
ATOM     22  C   UNL A   1      37.880  30.218  31.573  1.00  0.00     0.031 C 
ATOM     23  C   UNL A   1      38.696  34.480  36.971  1.00  0.00     0.029 A 
ATOM     24  C   UNL A   1      39.684  33.419  36.881  1.00  0.00     0.049 A 
ATOM     25  H   UNL A   1      39.845  31.939  35.420  1.00  0.00     0.167 HD
ATOM     26  C   UNL A   1      40.009  29.052  32.046  1.00  0.00     0.034 A 
ATOM     27  C   UNL A   1      40.700  33.220  37.734  1.00  0.00     0.034 A 
ATOM     28  C   UNL A   1      41.164  28.805  32.861  1.00  0.00     0.049 A 
ATOM     29  C   UNL A   1      41.666  32.119  37.421  1.00  0.00     0.074 A 
ATOM     30  C   UNL A   1      42.150  27.852  32.694  1.00  0.00     0.029 A 
ATOM     31  N   UNL A   1      41.474  29.512  34.015  1.00  0.00    -0.354 N 
ATOM     32  N   UNL A   1      41.676  31.306  36.393  1.00  0.00    -0.248 NA
ATOM     33  C   UNL A   1      42.785  31.946  38.353  1.00  0.00     0.031 C 
ATOM     34  C   UNL A   1      43.039  27.961  33.768  1.00  0.00     0.029 A 
ATOM     35  C   UNL A   1      42.632  29.010  34.579  1.00  0.00     0.049 A 
ATOM     36  H   UNL A   1      40.947  30.259  34.378  1.00  0.00     0.167 HD
ATOM     37  C   UNL A   1      42.812  30.528  36.545  1.00  0.00     0.074 A 
ATOM     38  C   UNL A   1      43.480  30.996  37.746  1.00  0.00     0.031 C 
ATOM     39  C   UNL A   1      43.263  29.512  35.772  1.00  0.00     0.034 A 
BRANCH  26  40
ATOM     40  C   UNL A   1      39.789  28.246  30.799  1.00  0.00     0.023 A 
ATOM     41  C   UNL A   1      38.949  27.112  30.830  1.00  0.00     0.012 A 
ATOM     42  C   UNL A   1      40.433  28.599  29.599  1.00  0.00     0.148 A 
ATOM     43  C   UNL A   1      38.778  26.325  29.692  1.00  0.00     0.002 A 
ATOM     44  C   UNL A   1      40.226  27.834  28.459  1.00  0.00     0.091 A 
ATOM     45  F   UNL A   1      41.251  29.659  29.604  1.00  0.00    -0.205 F 
ATOM     46  C   UNL A   1      39.410  26.691  28.506  1.00  0.00     0.022 A 
BRANCH  44  47
ATOM     47  S   UNL A   1      40.953  28.246  26.871  1.00  0.00     0.127 S 
ATOM     48  O   UNL A   1      40.778  26.996  26.134  1.00  0.00    -0.237 OA
ATOM     49  O   UNL A   1      40.099  29.345  26.423  1.00  0.00    -0.237 OA
ATOM     50  O   UNL A   1      42.336  28.615  27.143  1.00  0.00    -0.744 OA
ENDBRANCH  44  47
ENDBRANCH  26  40
BRANCH  27  51
ATOM     51  C   UNL A   1      40.860  34.019  38.974  1.00  0.00     0.023 A 
ATOM     52  C   UNL A   1      41.737  35.117  39.008  1.00  0.00     0.012 A 
ATOM     53  C   UNL A   1      40.244  33.585  40.161  1.00  0.00     0.148 A 
ATOM     54  C   UNL A   1      42.019  35.755  40.219  1.00  0.00     0.002 A 
ATOM     55  C   UNL A   1      40.547  34.211  41.366  1.00  0.00     0.091 A 
ATOM     56  F   UNL A   1      39.409  32.538  40.106  1.00  0.00    -0.205 F 
ATOM     57  C   UNL A   1      41.427  35.300  41.398  1.00  0.00     0.022 A 
BRANCH  55  58
ATOM     58  S   UNL A   1      39.849  33.597  42.906  1.00  0.00     0.127 S 
ATOM     59  O   UNL A   1      38.527  33.155  42.481  1.00  0.00    -0.237 OA
ATOM     60  O   UNL A   1      40.771  32.521  43.270  1.00  0.00    -0.237 OA
ATOM     61  O   UNL A   1      39.887  34.744  43.807  1.00  0.00    -0.744 OA
ENDBRANCH  55  58
ENDBRANCH  27  51
BRANCH  39  62
ATOM     62  C   UNL A   1      44.541  28.861  36.209  1.00  0.00     0.023 A 
ATOM     63  C   UNL A   1      45.778  29.428  35.846  1.00  0.00     0.012 A 
ATOM     64  C   UNL A   1      44.507  27.706  37.009  1.00  0.00     0.148 A 
ATOM     65  C   UNL A   1      46.969  28.824  36.240  1.00  0.00     0.002 A 
ATOM     66  C   UNL A   1      45.697  27.146  37.449  1.00  0.00     0.091 A 
ATOM     67  F   UNL A   1      43.314  27.171  37.314  1.00  0.00    -0.205 F 
ATOM     68  C   UNL A   1      46.928  27.692  37.053  1.00  0.00     0.022 A 
BRANCH  66  69
ATOM     69  S   UNL A   1      45.731  25.756  38.582  1.00  0.00     0.127 S 
ATOM     70  O   UNL A   1      47.132  25.347  38.512  1.00  0.00    -0.237 OA
ATOM     71  O   UNL A   1      45.335  26.378  39.846  1.00  0.00    -0.237 OA
ATOM     72  O   UNL A   1      44.771  24.791  38.062  1.00  0.00    -0.744 OA
ENDBRANCH  66  69
ENDBRANCH  39  62
ENDBRANCH  13  14
ENDBRANCH   6   8
ENDBRANCH   5   6
ENDBRANCH   4   5
ENDBRANCH   3   4
ENDBRANCH   2   3
ENDBRANCH   1   2
BRANCH   1  73
ATOM     73  C   UNL A   1      34.631  32.374  28.307  1.00  0.00     0.188 C 
BRANCH  73  74
ATOM     74  O   UNL A   1      33.969  31.358  27.557  1.00  0.00    -0.376 OA
BRANCH  74  75
ATOM     75  C   UNL A   1      34.592  30.085  27.435  1.00  0.00     0.202 C 
BRANCH  75  76
ATOM     76  C   UNL A   1      33.725  28.839  27.201  1.00  0.00     0.261 C 
BRANCH  76  77
ATOM     77  O   UNL A   1      32.339  29.112  26.978  1.00  0.00    -0.461 OA
BRANCH  77  78
ATOM     78  C   UNL A   1      31.605  28.037  26.579  1.00  0.00     0.335 C 
ATOM     79  O   UNL A   1      31.120  27.206  27.340  1.00  0.00    -0.249 OA
BRANCH  78  80
ATOM     80  C   UNL A   1      31.438  27.976  25.056  1.00  0.00     0.228 C 
ATOM     81  C   UNL A   1      31.231  29.286  24.340  1.00  0.00     0.047 C 
ATOM     82  O   UNL A   1      30.510  27.076  24.461  1.00  0.00    -0.361 OA
ATOM     83  C   UNL A   1      30.876  28.870  22.926  1.00  0.00     0.037 C 
ATOM     84  C   UNL A   1      30.344  27.444  23.069  1.00  0.00     0.139 C 
BRANCH  84  85
ATOM     85  C   UNL A   1      31.000  26.403  22.106  1.00  0.00     0.160 C 
BRANCH  85  86
ATOM     86  N   UNL A   1      31.920  25.507  22.811  1.00  0.00    -0.280 N 
ATOM     87  C   UNL A   1      33.285  25.606  22.605  1.00  0.00     0.229 C 
ATOM     88  C   UNL A   1      31.395  24.424  23.476  1.00  0.00     0.229 C 
ATOM     89  O   UNL A   1      33.761  26.188  21.629  1.00  0.00    -0.274 OA
ATOM     90  C   UNL A   1      34.183  25.046  23.701  1.00  0.00     0.108 C 
ATOM     91  C   UNL A   1      32.101  24.151  24.773  1.00  0.00     0.108 C 
ATOM     92  O   UNL A   1      30.387  23.813  23.137  1.00  0.00    -0.274 OA
ATOM     93  C   UNL A   1      33.586  23.942  24.591  1.00  0.00    -0.012 C 
ATOM     94  C   UNL A   1      34.212  23.981  26.007  1.00  0.00     0.008 C 
ATOM     95  C   UNL A   1      33.857  22.517  24.063  1.00  0.00     0.008 C 
ATOM     96  C   UNL A   1      34.350  22.527  26.413  1.00  0.00     0.001 C 
ATOM     97  C   UNL A   1      34.743  21.854  25.112  1.00  0.00     0.001 C 
ENDBRANCH  85  86
ENDBRANCH  84  85
ENDBRANCH  78  80
ENDBRANCH  77  78
ENDBRANCH  76  77
ENDBRANCH  75  76
ENDBRANCH  74  75
ENDBRANCH  73  74
ENDBRANCH   1  73
TORSDOF 22
ENDMDL
