MODEL 1
REMARK VINA RESULT:      -7.4      0.000      0.000
REMARK SMILES COC(=O)c1ccc(C)c2c1[C@H]1C=CC[C@H]1[C@@H](c1ccc(C(=O)OCCOCCOCCOC(=O)c3ccc(-c4c5nc(c(-c6cccc(S(=O)(=O)[O-])c6F)c6ccc([nH]6)c(-c6cccc(S(=O)(=O)[O-])c6F)c6nc(c(-c7cccc(S(=O)(=O)[O-])c7F)c7ccc4[nH]7)C=C6)C=C5)cc3)cc1)N2
REMARK SMILES IDX 28 1 27 2 26 3 25 4 24 5 22 6 23 7 21 8 18 9 19 10 100 11
REMARK SMILES IDX 20 12 99 13 17 14 5 15 6 16 11 17 7 18 10 19 12 20 8 21
REMARK SMILES IDX 101 22 13 23 16 24 9 25 14 27 15 28 3 29 4 30 2 31 1 32
REMARK SMILES IDX 29 33 30 34 31 35 32 36 33 37 34 38 35 39 36 40 37 41 98 42
REMARK SMILES IDX 38 43 97 44 39 45 40 46 41 47 91 48 42 49 96 50 90 51 92 52
REMARK SMILES IDX 43 53 95 54 89 55 88 56 44 58 76 59 56 60 75 61 57 62 60 63
REMARK SMILES IDX 74 64 93 65 58 66 59 67 73 69 94 70 61 71 45 72 46 73 54 74
REMARK SMILES IDX 47 75 49 76 55 77 48 78 50 79 51 80 52 81 53 82 77 83 78 84
REMARK SMILES IDX 86 85 79 86 81 87 87 88 80 89 82 90 83 91 84 92 85 93 62 94
REMARK SMILES IDX 63 95 71 96 64 97 66 98 72 99 65 100 67 101 68 102 69 103
REMARK SMILES IDX 70 104
REMARK H PARENT 101 26 92 57 60 68
REMARK Flexibility Score: inf
ROOT
ATOM      1  C   UNL A   1      41.043  33.083  41.851  1.00  0.00     0.188 C 
ENDROOT
BRANCH   1   2
ATOM      2  O   UNL A   1      40.201  33.466  40.789  1.00  0.00    -0.376 OA
BRANCH   2   3
ATOM      3  C   UNL A   1      40.547  33.127  39.459  1.00  0.00     0.202 C 
BRANCH   3   4
ATOM      4  C   UNL A   1      39.546  33.010  38.290  1.00  0.00     0.261 C 
BRANCH   4   5
ATOM      5  O   UNL A   1      40.069  32.739  36.986  1.00  0.00    -0.460 OA
BRANCH   5   6
ATOM      6  C   UNL A   1      39.526  31.679  36.336  1.00  0.00     0.338 C 
ATOM      7  O   UNL A   1      38.841  30.795  36.819  1.00  0.00    -0.246 OA
BRANCH   6   8
ATOM      8  C   UNL A   1      39.722  31.852  34.881  1.00  0.00     0.060 A 
ATOM      9  C   UNL A   1      40.111  32.054  32.086  1.00  0.00    -0.025 A 
ATOM     10  C   UNL A   1      40.184  30.816  32.750  1.00  0.00     0.007 A 
ATOM     11  C   UNL A   1      39.783  33.185  32.859  1.00  0.00     0.007 A 
ATOM     12  C   UNL A   1      40.015  30.715  34.131  1.00  0.00     0.016 A 
ATOM     13  C   UNL A   1      39.580  33.087  34.245  1.00  0.00     0.016 A 
BRANCH   9  14
ATOM     14  C   UNL A   1      40.446  32.215  30.596  1.00  0.00     0.114 C 
ATOM     15  C   UNL A   1      36.703  31.226  28.802  1.00  0.00     0.065 A 
ATOM     16  C   UNL A   1      36.355  29.876  28.692  1.00  0.00     0.016 A 
ATOM     17  C   UNL A   1      38.005  31.608  29.198  1.00  0.00    -0.003 A 
ATOM     18  C   UNL A   1      37.300  28.893  28.949  1.00  0.00     0.006 A 
ATOM     19  C   UNL A   1      38.973  30.599  29.446  1.00  0.00     0.042 A 
ATOM     20  C   UNL A   1      38.369  33.072  29.359  1.00  0.00     0.050 C 
ATOM     21  C   UNL A   1      38.613  29.235  29.312  1.00  0.00    -0.028 A 
ATOM     22  N   UNL A   1      40.241  30.952  29.898  1.00  0.00    -0.377 N 
ATOM     23  C   UNL A   1      37.639  33.843  30.433  1.00  0.00    -0.023 C 
ATOM     24  C   UNL A   1      39.831  33.347  29.753  1.00  0.00     0.031 C 
ATOM     25  C   UNL A   1      39.537  28.081  29.599  1.00  0.00     0.046 C 
ATOM     26  H   UNL A   1      41.003  30.347  29.745  1.00  0.00     0.161 HD
ATOM     27  C   UNL A   1      38.428  34.756  31.014  1.00  0.00    -0.030 C 
ATOM     28  C   UNL A   1      39.810  34.711  30.450  1.00  0.00     0.034 C 
BRANCH  15  29
ATOM     29  C   UNL A   1      35.662  32.225  28.467  1.00  0.00     0.338 C 
ATOM     30  O   UNL A   1      35.687  32.957  27.491  1.00  0.00    -0.246 OA
BRANCH  29  31
ATOM     31  O   UNL A   1      34.732  32.203  29.447  1.00  0.00    -0.465 OA
ATOM     32  C   UNL A   1      34.220  33.488  29.802  1.00  0.00     0.282 C 
ENDBRANCH  29  31
ENDBRANCH  15  29
ENDBRANCH   9  14
ENDBRANCH   6   8
ENDBRANCH   5   6
ENDBRANCH   4   5
ENDBRANCH   3   4
ENDBRANCH   2   3
ENDBRANCH   1   2
BRANCH   1  33
ATOM     33  C   UNL A   1      41.786  34.268  42.508  1.00  0.00     0.188 C 
BRANCH  33  34
ATOM     34  O   UNL A   1      42.511  35.190  41.704  1.00  0.00    -0.376 OA
BRANCH  34  35
ATOM     35  C   UNL A   1      42.305  36.584  41.899  1.00  0.00     0.202 C 
BRANCH  35  36
ATOM     36  C   UNL A   1      42.757  37.618  40.852  1.00  0.00     0.261 C 
BRANCH  36  37
ATOM     37  O   UNL A   1      42.988  37.123  39.524  1.00  0.00    -0.460 OA
BRANCH  37  38
ATOM     38  C   UNL A   1      41.889  37.030  38.734  1.00  0.00     0.338 C 
ATOM     39  O   UNL A   1      40.789  37.513  38.935  1.00  0.00    -0.246 OA
BRANCH  38  40
ATOM     40  C   UNL A   1      42.261  36.362  37.475  1.00  0.00     0.060 A 
ATOM     41  C   UNL A   1      41.263  36.088  36.529  1.00  0.00     0.016 A 
ATOM     42  C   UNL A   1      43.577  35.955  37.262  1.00  0.00     0.016 A 
ATOM     43  C   UNL A   1      41.581  35.403  35.360  1.00  0.00     0.010 A 
ATOM     44  C   UNL A   1      43.888  35.236  36.106  1.00  0.00     0.010 A 
ATOM     45  C   UNL A   1      42.887  34.936  35.167  1.00  0.00    -0.014 A 
BRANCH  45  46
ATOM     46  C   UNL A   1      43.153  33.966  34.084  1.00  0.00     0.031 A 
ATOM     47  C   UNL A   1      43.173  34.467  32.670  1.00  0.00     0.074 A 
ATOM     48  C   UNL A   1      43.409  32.675  34.352  1.00  0.00     0.049 A 
ATOM     49  N   UNL A   1      43.432  33.810  31.571  1.00  0.00    -0.248 NA
ATOM     50  C   UNL A   1      42.913  35.903  32.468  1.00  0.00     0.031 C 
ATOM     51  C   UNL A   1      43.446  32.080  35.685  1.00  0.00     0.029 A 
ATOM     52  N   UNL A   1      43.666  31.628  33.503  1.00  0.00    -0.354 N 
ATOM     53  C   UNL A   1      43.371  34.748  30.551  1.00  0.00     0.074 A 
ATOM     54  C   UNL A   1      43.039  36.018  31.155  1.00  0.00     0.031 C 
ATOM     55  C   UNL A   1      43.669  30.760  35.564  1.00  0.00     0.029 A 
ATOM     56  C   UNL A   1      43.779  30.420  34.144  1.00  0.00     0.049 A 
ATOM     57  H   UNL A   1      43.759  31.734  32.528  1.00  0.00     0.167 HD
ATOM     58  C   UNL A   1      43.604  34.570  29.232  1.00  0.00     0.034 A 
ATOM     59  C   UNL A   1      43.931  29.177  33.644  1.00  0.00     0.034 A 
ATOM     60  C   UNL A   1      43.937  33.311  28.629  1.00  0.00     0.049 A 
ATOM     61  C   UNL A   1      44.064  28.983  32.158  1.00  0.00     0.074 A 
ATOM     62  C   UNL A   1      44.218  33.047  27.302  1.00  0.00     0.029 A 
ATOM     63  N   UNL A   1      44.001  32.103  29.304  1.00  0.00    -0.354 N 
ATOM     64  N   UNL A   1      44.099  29.891  31.213  1.00  0.00    -0.248 NA
ATOM     65  C   UNL A   1      44.205  27.602  31.670  1.00  0.00     0.031 C 
ATOM     66  C   UNL A   1      44.411  31.670  27.166  1.00  0.00     0.029 A 
ATOM     67  C   UNL A   1      44.285  31.082  28.414  1.00  0.00     0.049 A 
ATOM     68  H   UNL A   1      43.863  31.987  30.272  1.00  0.00     0.167 HD
ATOM     69  C   UNL A   1      44.288  29.198  30.023  1.00  0.00     0.074 A 
ATOM     70  C   UNL A   1      44.365  27.792  30.365  1.00  0.00     0.031 C 
ATOM     71  C   UNL A   1      44.388  29.688  28.762  1.00  0.00     0.034 A 
BRANCH  58  72
ATOM     72  C   UNL A   1      43.508  35.774  28.344  1.00  0.00     0.023 A 
ATOM     73  C   UNL A   1      42.246  36.215  27.898  1.00  0.00     0.012 A 
ATOM     74  C   UNL A   1      44.664  36.501  28.006  1.00  0.00     0.148 A 
ATOM     75  C   UNL A   1      42.139  37.364  27.116  1.00  0.00     0.002 A 
ATOM     76  C   UNL A   1      44.546  37.659  27.250  1.00  0.00     0.091 A 
ATOM     77  F   UNL A   1      45.851  36.040  28.424  1.00  0.00    -0.205 F 
ATOM     78  C   UNL A   1      43.286  38.091  26.803  1.00  0.00     0.022 A 
BRANCH  76  79
ATOM     79  S   UNL A   1      45.958  38.683  26.830  1.00  0.00     0.127 S 
ATOM     80  O   UNL A   1      46.760  37.761  26.027  1.00  0.00    -0.237 OA
ATOM     81  O   UNL A   1      45.334  39.769  26.073  1.00  0.00    -0.237 OA
ATOM     82  O   UNL A   1      46.557  39.086  28.095  1.00  0.00    -0.744 OA
ENDBRANCH  76  79
ENDBRANCH  58  72
BRANCH  59  83
ATOM     83  C   UNL A   1      43.995  28.030  34.588  1.00  0.00     0.023 A 
ATOM     84  C   UNL A   1      45.220  27.698  35.193  1.00  0.00     0.012 A 
ATOM     85  C   UNL A   1      42.825  27.342  34.965  1.00  0.00     0.148 A 
ATOM     86  C   UNL A   1      45.278  26.703  36.169  1.00  0.00     0.002 A 
ATOM     87  C   UNL A   1      42.884  26.375  35.960  1.00  0.00     0.091 A 
ATOM     88  F   UNL A   1      41.673  27.683  34.370  1.00  0.00    -0.205 F 
ATOM     89  C   UNL A   1      44.111  26.051  36.560  1.00  0.00     0.022 A 
BRANCH  87  90
ATOM     90  S   UNL A   1      41.424  25.542  36.594  1.00  0.00     0.127 S 
ATOM     91  O   UNL A   1      41.092  26.364  37.756  1.00  0.00    -0.237 OA
ATOM     92  O   UNL A   1      40.501  25.665  35.467  1.00  0.00    -0.237 OA
ATOM     93  O   UNL A   1      41.843  24.182  36.900  1.00  0.00    -0.744 OA
ENDBRANCH  87  90
ENDBRANCH  59  83
BRANCH  71  94
ATOM     94  C   UNL A   1      44.600  28.722  27.628  1.00  0.00     0.023 A 
ATOM     95  C   UNL A   1      45.901  28.508  27.136  1.00  0.00     0.012 A 
ATOM     96  C   UNL A   1      43.540  27.917  27.166  1.00  0.00     0.148 A 
ATOM     97  C   UNL A   1      46.144  27.504  26.197  1.00  0.00     0.002 A 
ATOM     98  C   UNL A   1      43.795  26.898  26.256  1.00  0.00     0.091 A 
ATOM     99  F   UNL A   1      42.310  28.144  27.651  1.00  0.00    -0.205 F 
ATOM    100  C   UNL A   1      45.096  26.692  25.768  1.00  0.00     0.022 A 
BRANCH  98 101
ATOM    101  S   UNL A   1      42.527  25.751  25.703  1.00  0.00     0.127 S 
ATOM    102  O   UNL A   1      41.618  26.641  24.980  1.00  0.00    -0.237 OA
ATOM    103  O   UNL A   1      43.288  24.835  24.854  1.00  0.00    -0.237 OA
ATOM    104  O   UNL A   1      41.972  25.148  26.907  1.00  0.00    -0.744 OA
ENDBRANCH  98 101
ENDBRANCH  71  94
ENDBRANCH  45  46
ENDBRANCH  38  40
ENDBRANCH  37  38
ENDBRANCH  36  37
ENDBRANCH  35  36
ENDBRANCH  34  35
ENDBRANCH  33  34
ENDBRANCH   1  33
TORSDOF 23
ENDMDL
MODEL 2
REMARK VINA RESULT:      -7.2      2.749     11.783
REMARK SMILES COC(=O)c1ccc(C)c2c1[C@H]1C=CC[C@H]1[C@@H](c1ccc(C(=O)OCCOCCOCCOC(=O)c3ccc(-c4c5nc(c(-c6cccc(S(=O)(=O)[O-])c6F)c6ccc([nH]6)c(-c6cccc(S(=O)(=O)[O-])c6F)c6nc(c(-c7cccc(S(=O)(=O)[O-])c7F)c7ccc4[nH]7)C=C6)C=C5)cc3)cc1)N2
REMARK SMILES IDX 28 1 27 2 26 3 25 4 24 5 22 6 23 7 21 8 18 9 19 10 100 11
REMARK SMILES IDX 20 12 99 13 17 14 5 15 6 16 11 17 7 18 10 19 12 20 8 21
REMARK SMILES IDX 101 22 13 23 16 24 9 25 14 27 15 28 3 29 4 30 2 31 1 32
REMARK SMILES IDX 29 33 30 34 31 35 32 36 33 37 34 38 35 39 36 40 37 41 98 42
REMARK SMILES IDX 38 43 97 44 39 45 40 46 41 47 91 48 42 49 96 50 90 51 92 52
REMARK SMILES IDX 43 53 95 54 89 55 88 56 44 58 76 59 56 60 75 61 57 62 60 63
REMARK SMILES IDX 74 64 93 65 58 66 59 67 73 69 94 70 61 71 45 72 46 73 54 74
REMARK SMILES IDX 47 75 49 76 55 77 48 78 50 79 51 80 52 81 53 82 77 83 78 84
REMARK SMILES IDX 86 85 79 86 81 87 87 88 80 89 82 90 83 91 84 92 85 93 62 94
REMARK SMILES IDX 63 95 71 96 64 97 66 98 72 99 65 100 67 101 68 102 69 103
REMARK SMILES IDX 70 104
REMARK H PARENT 101 26 92 57 60 68
REMARK Flexibility Score: inf
ROOT
ATOM      1  C   UNL A   1      42.670  22.715  26.911  1.00  0.00     0.188 C 
ENDROOT
BRANCH   1   2
ATOM      2  O   UNL A   1      41.386  22.674  27.489  1.00  0.00    -0.376 OA
BRANCH   2   3
ATOM      3  C   UNL A   1      40.500  23.763  27.310  1.00  0.00     0.202 C 
BRANCH   3   4
ATOM      4  C   UNL A   1      40.708  25.175  27.899  1.00  0.00     0.261 C 
BRANCH   4   5
ATOM      5  O   UNL A   1      39.992  26.262  27.302  1.00  0.00    -0.460 OA
BRANCH   5   6
ATOM      6  C   UNL A   1      40.708  27.390  27.070  1.00  0.00     0.338 C 
ATOM      7  O   UNL A   1      41.323  27.673  26.056  1.00  0.00    -0.246 OA
BRANCH   6   8
ATOM      8  C   UNL A   1      40.475  28.347  28.172  1.00  0.00     0.060 A 
ATOM      9  C   UNL A   1      40.134  30.131  30.340  1.00  0.00    -0.025 A 
ATOM     10  C   UNL A   1      41.168  29.178  30.330  1.00  0.00     0.007 A 
ATOM     11  C   UNL A   1      39.306  30.201  29.203  1.00  0.00     0.007 A 
ATOM     12  C   UNL A   1      41.326  28.281  29.273  1.00  0.00     0.016 A 
ATOM     13  C   UNL A   1      39.478  29.323  28.120  1.00  0.00     0.016 A 
BRANCH   9  14
ATOM     14  C   UNL A   1      39.843  31.023  31.556  1.00  0.00     0.114 C 
ATOM     15  C   UNL A   1      36.253  32.963  30.310  1.00  0.00     0.065 A 
ATOM     16  C   UNL A   1      36.352  34.030  29.410  1.00  0.00     0.016 A 
ATOM     17  C   UNL A   1      37.407  32.415  30.912  1.00  0.00    -0.003 A 
ATOM     18  C   UNL A   1      37.592  34.579  29.121  1.00  0.00     0.006 A 
ATOM     19  C   UNL A   1      38.674  32.989  30.623  1.00  0.00     0.042 A 
ATOM     20  C   UNL A   1      37.303  31.230  31.853  1.00  0.00     0.050 C 
ATOM     21  C   UNL A   1      38.758  34.082  29.726  1.00  0.00    -0.028 A 
ATOM     22  N   UNL A   1      39.829  32.425  31.156  1.00  0.00    -0.377 N 
ATOM     23  C   UNL A   1      36.795  29.935  31.267  1.00  0.00    -0.023 C 
ATOM     24  C   UNL A   1      38.633  30.762  32.472  1.00  0.00     0.031 C 
ATOM     25  C   UNL A   1      40.048  34.737  29.304  1.00  0.00     0.046 C 
ATOM     26  H   UNL A   1      40.639  32.974  31.264  1.00  0.00     0.161 HD
ATOM     27  C   UNL A   1      37.394  28.870  31.817  1.00  0.00    -0.030 C 
ATOM     28  C   UNL A   1      38.416  29.287  32.822  1.00  0.00     0.034 C 
BRANCH  15  29
ATOM     29  C   UNL A   1      34.895  32.455  30.614  1.00  0.00     0.338 C 
ATOM     30  O   UNL A   1      34.381  32.461  31.721  1.00  0.00    -0.246 OA
BRANCH  29  31
ATOM     31  O   UNL A   1      34.371  31.956  29.472  1.00  0.00    -0.465 OA
ATOM     32  C   UNL A   1      35.340  31.469  28.543  1.00  0.00     0.282 C 
ENDBRANCH  29  31
ENDBRANCH  15  29
ENDBRANCH   9  14
ENDBRANCH   6   8
ENDBRANCH   5   6
ENDBRANCH   4   5
ENDBRANCH   3   4
ENDBRANCH   2   3
ENDBRANCH   1   2
BRANCH   1  33
ATOM     33  C   UNL A   1      42.651  22.756  25.366  1.00  0.00     0.188 C 
BRANCH  33  34
ATOM     34  O   UNL A   1      43.492  21.886  24.620  1.00  0.00    -0.376 OA
BRANCH  34  35
ATOM     35  C   UNL A   1      44.778  21.563  25.134  1.00  0.00     0.202 C 
BRANCH  35  36
ATOM     36  C   UNL A   1      45.871  22.634  25.299  1.00  0.00     0.261 C 
BRANCH  36  37
ATOM     37  O   UNL A   1      45.847  23.720  24.361  1.00  0.00    -0.460 OA
BRANCH  37  38
ATOM     38  C   UNL A   1      46.697  24.743  24.628  1.00  0.00     0.338 C 
ATOM     39  O   UNL A   1      47.634  25.125  23.949  1.00  0.00    -0.246 OA
BRANCH  38  40
ATOM     40  C   UNL A   1      46.226  25.455  25.829  1.00  0.00     0.060 A 
ATOM     41  C   UNL A   1      44.862  25.758  25.950  1.00  0.00     0.016 A 
ATOM     42  C   UNL A   1      47.138  25.874  26.796  1.00  0.00     0.016 A 
ATOM     43  C   UNL A   1      44.404  26.484  27.046  1.00  0.00     0.010 A 
ATOM     44  C   UNL A   1      46.684  26.632  27.876  1.00  0.00     0.010 A 
ATOM     45  C   UNL A   1      45.322  26.961  27.990  1.00  0.00    -0.014 A 
BRANCH  45  46
ATOM     46  C   UNL A   1      44.882  27.967  28.978  1.00  0.00     0.031 A 
ATOM     47  C   UNL A   1      44.508  27.498  30.353  1.00  0.00     0.074 A 
ATOM     48  C   UNL A   1      44.851  29.276  28.674  1.00  0.00     0.049 A 
ATOM     49  N   UNL A   1      44.142  28.204  31.389  1.00  0.00    -0.248 NA
ATOM     50  C   UNL A   1      44.601  26.050  30.611  1.00  0.00     0.031 C 
ATOM     51  C   UNL A   1      45.219  29.852  27.384  1.00  0.00     0.029 A 
ATOM     52  N   UNL A   1      44.468  30.353  29.434  1.00  0.00    -0.354 N 
ATOM     53  C   UNL A   1      43.965  27.293  32.420  1.00  0.00     0.074 A 
ATOM     54  C   UNL A   1      44.251  25.980  31.887  1.00  0.00     0.031 C 
ATOM     55  C   UNL A   1      45.004  31.178  27.426  1.00  0.00     0.029 A 
ATOM     56  C   UNL A   1      44.474  31.538  28.742  1.00  0.00     0.049 A 
ATOM     57  H   UNL A   1      44.214  30.281  30.382  1.00  0.00     0.167 HD
ATOM     58  C   UNL A   1      43.627  27.535  33.706  1.00  0.00     0.034 A 
ATOM     59  C   UNL A   1      44.076  32.770  29.118  1.00  0.00     0.034 A 
ATOM     60  C   UNL A   1      43.346  28.837  34.239  1.00  0.00     0.049 A 
ATOM     61  C   UNL A   1      43.582  32.998  30.521  1.00  0.00     0.074 A 
ATOM     62  C   UNL A   1      43.022  29.175  35.540  1.00  0.00     0.029 A 
ATOM     63  N   UNL A   1      43.320  30.007  33.499  1.00  0.00    -0.354 N 
ATOM     64  N   UNL A   1      43.510  32.143  31.513  1.00  0.00    -0.248 NA
ATOM     65  C   UNL A   1      43.140  34.358  30.866  1.00  0.00     0.031 C 
ATOM     66  C   UNL A   1      42.760  30.546  35.579  1.00  0.00     0.029 A 
ATOM     67  C   UNL A   1      42.954  31.067  34.309  1.00  0.00     0.049 A 
ATOM     68  H   UNL A   1      43.530  30.074  32.540  1.00  0.00     0.167 HD
ATOM     69  C   UNL A   1      43.038  32.863  32.605  1.00  0.00     0.074 A 
ATOM     70  C   UNL A   1      42.844  34.227  32.155  1.00  0.00     0.031 C 
ATOM     71  C   UNL A   1      42.789  32.427  33.865  1.00  0.00     0.034 A 
BRANCH  58  72
ATOM     72  C   UNL A   1      43.542  26.359  34.632  1.00  0.00     0.023 A 
ATOM     73  C   UNL A   1      42.329  25.654  34.758  1.00  0.00     0.012 A 
ATOM     74  C   UNL A   1      44.684  25.918  35.326  1.00  0.00     0.148 A 
ATOM     75  C   UNL A   1      42.253  24.526  35.574  1.00  0.00     0.002 A 
ATOM     76  C   UNL A   1      44.607  24.780  36.115  1.00  0.00     0.091 A 
ATOM     77  F   UNL A   1      45.816  26.626  35.204  1.00  0.00    -0.205 F 
ATOM     78  C   UNL A   1      43.393  24.084  36.242  1.00  0.00     0.022 A 
BRANCH  76  79
ATOM     79  S   UNL A   1      46.028  24.109  36.981  1.00  0.00     0.127 S 
ATOM     80  O   UNL A   1      46.945  23.838  35.874  1.00  0.00    -0.237 OA
ATOM     81  O   UNL A   1      46.420  25.227  37.840  1.00  0.00    -0.237 OA
ATOM     82  O   UNL A   1      45.550  22.931  37.691  1.00  0.00    -0.744 OA
ENDBRANCH  76  79
ENDBRANCH  58  72
BRANCH  59  83
ATOM     83  C   UNL A   1      44.168  33.882  28.135  1.00  0.00     0.023 A 
ATOM     84  C   UNL A   1      43.042  34.216  27.362  1.00  0.00     0.012 A 
ATOM     85  C   UNL A   1      45.331  34.671  28.047  1.00  0.00     0.148 A 
ATOM     86  C   UNL A   1      43.070  35.329  26.521  1.00  0.00     0.002 A 
ATOM     87  C   UNL A   1      45.341  35.796  27.233  1.00  0.00     0.091 A 
ATOM     88  F   UNL A   1      46.387  34.327  28.798  1.00  0.00    -0.205 F 
ATOM     89  C   UNL A   1      44.212  36.125  26.465  1.00  0.00     0.022 A 
BRANCH  87  90
ATOM     90  S   UNL A   1      46.731  36.931  27.159  1.00  0.00     0.127 S 
ATOM     91  O   UNL A   1      46.061  38.211  26.940  1.00  0.00    -0.237 OA
ATOM     92  O   UNL A   1      47.320  36.764  28.487  1.00  0.00    -0.237 OA
ATOM     93  O   UNL A   1      47.562  36.473  26.055  1.00  0.00    -0.744 OA
ENDBRANCH  87  90
ENDBRANCH  59  83
BRANCH  71  94
ATOM     94  C   UNL A   1      42.283  33.414  34.881  1.00  0.00     0.023 A 
ATOM     95  C   UNL A   1      40.897  33.531  35.102  1.00  0.00     0.012 A 
ATOM     96  C   UNL A   1      43.181  34.101  35.722  1.00  0.00     0.148 A 
ATOM     97  C   UNL A   1      40.413  34.320  36.146  1.00  0.00     0.002 A 
ATOM     98  C   UNL A   1      42.693  34.857  36.781  1.00  0.00     0.091 A 
ATOM     99  F   UNL A   1      44.496  33.972  35.489  1.00  0.00    -0.205 F 
ATOM    100  C   UNL A   1      41.309  34.970  36.992  1.00  0.00     0.022 A 
BRANCH  98 101
ATOM    101  S   UNL A   1      43.767  35.669  37.971  1.00  0.00     0.127 S 
ATOM    102  O   UNL A   1      44.424  36.676  37.138  1.00  0.00    -0.237 OA
ATOM    103  O   UNL A   1      42.809  36.206  38.936  1.00  0.00    -0.237 OA
ATOM    104  O   UNL A   1      44.647  34.633  38.496  1.00  0.00    -0.744 OA
ENDBRANCH  98 101
ENDBRANCH  71  94
ENDBRANCH  45  46
ENDBRANCH  38  40
ENDBRANCH  37  38
ENDBRANCH  36  37
ENDBRANCH  35  36
ENDBRANCH  34  35
ENDBRANCH  33  34
ENDBRANCH   1  33
TORSDOF 23
ENDMDL
MODEL 3
REMARK VINA RESULT:      -7.1      5.221     10.841
REMARK SMILES COC(=O)c1ccc(C)c2c1[C@H]1C=CC[C@H]1[C@@H](c1ccc(C(=O)OCCOCCOCCOC(=O)c3ccc(-c4c5nc(c(-c6cccc(S(=O)(=O)[O-])c6F)c6ccc([nH]6)c(-c6cccc(S(=O)(=O)[O-])c6F)c6nc(c(-c7cccc(S(=O)(=O)[O-])c7F)c7ccc4[nH]7)C=C6)C=C5)cc3)cc1)N2
REMARK SMILES IDX 28 1 27 2 26 3 25 4 24 5 22 6 23 7 21 8 18 9 19 10 100 11
REMARK SMILES IDX 20 12 99 13 17 14 5 15 6 16 11 17 7 18 10 19 12 20 8 21
REMARK SMILES IDX 101 22 13 23 16 24 9 25 14 27 15 28 3 29 4 30 2 31 1 32
REMARK SMILES IDX 29 33 30 34 31 35 32 36 33 37 34 38 35 39 36 40 37 41 98 42
REMARK SMILES IDX 38 43 97 44 39 45 40 46 41 47 91 48 42 49 96 50 90 51 92 52
REMARK SMILES IDX 43 53 95 54 89 55 88 56 44 58 76 59 56 60 75 61 57 62 60 63
REMARK SMILES IDX 74 64 93 65 58 66 59 67 73 69 94 70 61 71 45 72 46 73 54 74
REMARK SMILES IDX 47 75 49 76 55 77 48 78 50 79 51 80 52 81 53 82 77 83 78 84
REMARK SMILES IDX 86 85 79 86 81 87 87 88 80 89 82 90 83 91 84 92 85 93 62 94
REMARK SMILES IDX 63 95 71 96 64 97 66 98 72 99 65 100 67 101 68 102 69 103
REMARK SMILES IDX 70 104
REMARK H PARENT 101 26 92 57 60 68
REMARK Flexibility Score: inf
ROOT
ATOM      1  C   UNL A   1      36.899  32.536  28.862  1.00  0.00     0.188 C 
ENDROOT
BRANCH   1   2
ATOM      2  O   UNL A   1      37.412  31.225  28.886  1.00  0.00    -0.376 OA
BRANCH   2   3
ATOM      3  C   UNL A   1      36.575  30.136  28.543  1.00  0.00     0.202 C 
BRANCH   3   4
ATOM      4  C   UNL A   1      35.332  30.232  27.632  1.00  0.00     0.261 C 
BRANCH   4   5
ATOM      5  O   UNL A   1      34.454  29.104  27.576  1.00  0.00    -0.460 OA
BRANCH   5   6
ATOM      6  C   UNL A   1      33.154  29.374  27.303  1.00  0.00     0.338 C 
ATOM      7  O   UNL A   1      32.604  30.461  27.354  1.00  0.00    -0.246 OA
BRANCH   6   8
ATOM      8  C   UNL A   1      32.518  28.169  26.731  1.00  0.00     0.060 A 
ATOM      9  C   UNL A   1      31.413  25.836  25.573  1.00  0.00    -0.025 A 
ATOM     10  C   UNL A   1      32.722  26.254  25.276  1.00  0.00     0.007 A 
ATOM     11  C   UNL A   1      30.689  26.596  26.513  1.00  0.00     0.007 A 
ATOM     12  C   UNL A   1      33.263  27.416  25.826  1.00  0.00     0.016 A 
ATOM     13  C   UNL A   1      31.238  27.749  27.098  1.00  0.00     0.016 A 
BRANCH   9  14
ATOM     14  C   UNL A   1      30.740  24.652  24.863  1.00  0.00     0.114 C 
ATOM     15  C   UNL A   1      34.129  22.266  23.854  1.00  0.00     0.065 A 
ATOM     16  C   UNL A   1      34.897  22.638  22.745  1.00  0.00     0.016 A 
ATOM     17  C   UNL A   1      32.890  22.891  24.118  1.00  0.00    -0.003 A 
ATOM     18  C   UNL A   1      34.431  23.613  21.875  1.00  0.00     0.006 A 
ATOM     19  C   UNL A   1      32.410  23.879  23.217  1.00  0.00     0.042 A 
ATOM     20  C   UNL A   1      32.079  22.518  25.344  1.00  0.00     0.050 C 
ATOM     21  C   UNL A   1      33.189  24.232  22.087  1.00  0.00    -0.028 A 
ATOM     22  N   UNL A   1      31.224  24.550  23.492  1.00  0.00    -0.377 N 
ATOM     23  C   UNL A   1      32.699  22.812  26.689  1.00  0.00    -0.023 C 
ATOM     24  C   UNL A   1      30.729  23.244  25.486  1.00  0.00     0.031 C 
ATOM     25  C   UNL A   1      32.808  25.299  21.094  1.00  0.00     0.046 C 
ATOM     26  H   UNL A   1      30.708  24.958  22.759  1.00  0.00     0.161 HD
ATOM     27  C   UNL A   1      31.780  23.178  27.592  1.00  0.00    -0.030 C 
ATOM     28  C   UNL A   1      30.416  23.221  26.985  1.00  0.00     0.034 C 
BRANCH  15  29
ATOM     29  C   UNL A   1      34.660  21.185  24.716  1.00  0.00     0.338 C 
ATOM     30  O   UNL A   1      34.187  20.063  24.796  1.00  0.00    -0.246 OA
BRANCH  29  31
ATOM     31  O   UNL A   1      35.709  21.681  25.409  1.00  0.00    -0.465 OA
ATOM     32  C   UNL A   1      36.933  20.974  25.211  1.00  0.00     0.282 C 
ENDBRANCH  29  31
ENDBRANCH  15  29
ENDBRANCH   9  14
ENDBRANCH   6   8
ENDBRANCH   5   6
ENDBRANCH   4   5
ENDBRANCH   3   4
ENDBRANCH   2   3
ENDBRANCH   1   2
BRANCH   1  33
ATOM     33  C   UNL A   1      36.512  33.074  30.259  1.00  0.00     0.188 C 
BRANCH  33  34
ATOM     34  O   UNL A   1      35.949  32.200  31.228  1.00  0.00    -0.376 OA
BRANCH  34  35
ATOM     35  C   UNL A   1      34.955  32.702  32.113  1.00  0.00     0.202 C 
BRANCH  35  36
ATOM     36  C   UNL A   1      35.317  33.234  33.512  1.00  0.00     0.261 C 
BRANCH  36  37
ATOM     37  O   UNL A   1      36.702  33.524  33.745  1.00  0.00    -0.460 OA
BRANCH  37  38
ATOM     38  C   UNL A   1      37.282  32.836  34.761  1.00  0.00     0.338 C 
ATOM     39  O   UNL A   1      36.876  32.719  35.904  1.00  0.00    -0.246 OA
BRANCH  38  40
ATOM     40  C   UNL A   1      38.443  32.097  34.235  1.00  0.00     0.060 A 
ATOM     41  C   UNL A   1      39.734  32.521  34.582  1.00  0.00     0.016 A 
ATOM     42  C   UNL A   1      38.254  31.032  33.356  1.00  0.00     0.016 A 
ATOM     43  C   UNL A   1      40.846  31.875  34.048  1.00  0.00     0.010 A 
ATOM     44  C   UNL A   1      39.369  30.409  32.793  1.00  0.00     0.010 A 
ATOM     45  C   UNL A   1      40.665  30.846  33.116  1.00  0.00    -0.014 A 
BRANCH  45  46
ATOM     46  C   UNL A   1      41.825  30.368  32.336  1.00  0.00     0.031 A 
ATOM     47  C   UNL A   1      42.467  29.073  32.737  1.00  0.00     0.074 A 
ATOM     48  C   UNL A   1      42.277  31.050  31.270  1.00  0.00     0.049 A 
ATOM     49  N   UNL A   1      43.459  28.439  32.171  1.00  0.00    -0.248 NA
ATOM     50  C   UNL A   1      41.888  28.374  33.899  1.00  0.00     0.031 C 
ATOM     51  C   UNL A   1      41.718  32.302  30.769  1.00  0.00     0.029 A 
ATOM     52  N   UNL A   1      43.332  30.786  30.432  1.00  0.00    -0.354 N 
ATOM     53  C   UNL A   1      43.623  27.270  32.900  1.00  0.00     0.074 A 
ATOM     54  C   UNL A   1      42.637  27.283  33.958  1.00  0.00     0.031 C 
ATOM     55  C   UNL A   1      42.461  32.723  29.731  1.00  0.00     0.029 A 
ATOM     56  C   UNL A   1      43.553  31.775  29.506  1.00  0.00     0.049 A 
ATOM     57  H   UNL A   1      43.876  29.967  30.490  1.00  0.00     0.167 HD
ATOM     58  C   UNL A   1      44.496  26.262  32.685  1.00  0.00     0.034 A 
ATOM     59  C   UNL A   1      44.537  31.912  28.595  1.00  0.00     0.034 A 
ATOM     60  C   UNL A   1      45.473  26.245  31.635  1.00  0.00     0.049 A 
ATOM     61  C   UNL A   1      45.578  30.835  28.453  1.00  0.00     0.074 A 
ATOM     62  C   UNL A   1      46.379  25.247  31.328  1.00  0.00     0.029 A 
ATOM     63  N   UNL A   1      45.695  27.282  30.744  1.00  0.00    -0.354 N 
ATOM     64  N   UNL A   1      45.663  29.690  29.087  1.00  0.00    -0.248 NA
ATOM     65  C   UNL A   1      46.640  31.051  27.458  1.00  0.00     0.031 C 
ATOM     66  C   UNL A   1      47.180  25.698  30.275  1.00  0.00     0.029 A 
ATOM     67  C   UNL A   1      46.748  26.962  29.905  1.00  0.00     0.049 A 
ATOM     68  H   UNL A   1      45.183  28.121  30.713  1.00  0.00     0.167 HD
ATOM     69  C   UNL A   1      46.770  29.039  28.554  1.00  0.00     0.074 A 
ATOM     70  C   UNL A   1      47.324  29.915  27.542  1.00  0.00     0.031 C 
ATOM     71  C   UNL A   1      47.278  27.825  28.880  1.00  0.00     0.034 A 
BRANCH  58  72
ATOM     72  C   UNL A   1      44.433  25.084  33.611  1.00  0.00     0.023 A 
ATOM     73  C   UNL A   1      43.833  23.885  33.176  1.00  0.00     0.012 A 
ATOM     74  C   UNL A   1      45.024  25.150  34.885  1.00  0.00     0.148 A 
ATOM     75  C   UNL A   1      43.817  22.766  34.007  1.00  0.00     0.002 A 
ATOM     76  C   UNL A   1      45.027  24.023  35.695  1.00  0.00     0.091 A 
ATOM     77  F   UNL A   1      45.563  26.312  35.278  1.00  0.00    -0.205 F 
ATOM     78  C   UNL A   1      44.423  22.832  35.260  1.00  0.00     0.022 A 
BRANCH  76  79
ATOM     79  S   UNL A   1      45.817  23.997  37.307  1.00  0.00     0.127 S 
ATOM     80  O   UNL A   1      45.745  22.576  37.645  1.00  0.00    -0.237 OA
ATOM     81  O   UNL A   1      47.161  24.485  36.998  1.00  0.00    -0.237 OA
ATOM     82  O   UNL A   1      45.029  24.877  38.158  1.00  0.00    -0.744 OA
ENDBRANCH  76  79
ENDBRANCH  58  72
BRANCH  59  83
ATOM     83  C   UNL A   1      44.545  33.120  27.729  1.00  0.00     0.023 A 
ATOM     84  C   UNL A   1      43.965  33.059  26.449  1.00  0.00     0.012 A 
ATOM     85  C   UNL A   1      45.029  34.351  28.215  1.00  0.00     0.148 A 
ATOM     86  C   UNL A   1      43.857  34.210  25.669  1.00  0.00     0.002 A 
ATOM     87  C   UNL A   1      44.889  35.499  27.446  1.00  0.00     0.091 A 
ATOM     88  F   UNL A   1      45.575  34.376  29.439  1.00  0.00    -0.205 F 
ATOM     89  C   UNL A   1      44.307  35.430  26.170  1.00  0.00     0.022 A 
BRANCH  87  90
ATOM     90  S   UNL A   1      45.357  37.129  28.037  1.00  0.00     0.127 S 
ATOM     91  O   UNL A   1      44.738  37.998  27.039  1.00  0.00    -0.237 OA
ATOM     92  O   UNL A   1      44.724  37.158  29.355  1.00  0.00    -0.237 OA
ATOM     93  O   UNL A   1      46.812  37.145  28.054  1.00  0.00    -0.744 OA
ENDBRANCH  87  90
ENDBRANCH  59  83
BRANCH  71  94
ATOM     94  C   UNL A   1      48.496  27.332  28.146  1.00  0.00     0.023 A 
ATOM     95  C   UNL A   1      48.339  26.654  26.922  1.00  0.00     0.012 A 
ATOM     96  C   UNL A   1      49.788  27.682  28.587  1.00  0.00     0.148 A 
ATOM     97  C   UNL A   1      49.454  26.330  26.147  1.00  0.00     0.002 A 
ATOM     98  C   UNL A   1      50.890  27.386  27.794  1.00  0.00     0.091 A 
ATOM     99  F   UNL A   1      49.908  28.326  29.757  1.00  0.00    -0.205 F 
ATOM    100  C   UNL A   1      50.725  26.707  26.575  1.00  0.00     0.022 A 
BRANCH  98 101
ATOM    101  S   UNL A   1      52.559  27.896  28.221  1.00  0.00     0.127 S 
ATOM    102  O   UNL A   1      53.329  27.362  27.098  1.00  0.00    -0.237 OA
ATOM    103  O   UNL A   1      52.441  29.353  28.243  1.00  0.00    -0.237 OA
ATOM    104  O   UNL A   1      52.851  27.288  29.513  1.00  0.00    -0.744 OA
ENDBRANCH  98 101
ENDBRANCH  71  94
ENDBRANCH  45  46
ENDBRANCH  38  40
ENDBRANCH  37  38
ENDBRANCH  36  37
ENDBRANCH  35  36
ENDBRANCH  34  35
ENDBRANCH  33  34
ENDBRANCH   1  33
TORSDOF 23
ENDMDL
