MODEL 1
REMARK VINA RESULT:      -7.7      0.000      0.000
REMARK SMILES N#CCC1(C[N@@H+]2CCO[C@H](CC(=O)OCCOCCOCCOC(=O)c3ccc(-c4c5nc(c(-c6cccc(S(=O)(=O)[O-])c6F)c6ccc([nH]6)c(-c6cccc(S(=O)(=O)[O-])c6F)c6nc(c(-c7cccc(S(=O)(=O)[O-])c7F)c7ccc4[nH]7)C=C6)C=C5)cc3)C2)CC1
REMARK SMILES IDX 18 1 17 2 16 3 15 4 14 5 12 6 13 7 11 8 10 9 6 10 7 11 89 12
REMARK SMILES IDX 8 14 9 15 5 16 4 17 90 18 91 19 3 20 2 21 1 22 19 23 20 24
REMARK SMILES IDX 21 25 22 26 23 27 24 28 25 29 26 30 27 31 88 32 28 33 87 34
REMARK SMILES IDX 29 35 30 36 31 37 81 38 32 39 86 40 80 41 82 42 33 43 85 44
REMARK SMILES IDX 79 45 78 46 34 48 66 49 46 50 65 51 47 52 50 53 64 54 83 55
REMARK SMILES IDX 48 56 49 57 63 59 84 60 51 61 35 62 36 63 44 64 37 65 39 66
REMARK SMILES IDX 45 67 38 68 40 69 41 70 42 71 43 72 67 73 68 74 76 75 69 76
REMARK SMILES IDX 71 77 77 78 70 79 72 80 73 81 74 82 75 83 52 84 53 85 61 86
REMARK SMILES IDX 54 87 56 88 62 89 55 90 57 91 58 92 59 93 60 94
REMARK H PARENT 6 13 82 47 50 58
REMARK Flexibility Score: inf
ROOT
ATOM      1  C   UNL A   1      45.040  42.482  25.537  1.00  0.00     0.188 C 
ENDROOT
BRANCH   1   2
ATOM      2  O   UNL A   1      43.777  42.881  25.011  1.00  0.00    -0.376 OA
BRANCH   2   3
ATOM      3  C   UNL A   1      42.847  41.835  24.740  1.00  0.00     0.202 C 
BRANCH   3   4
ATOM      4  C   UNL A   1      41.693  42.107  23.745  1.00  0.00     0.261 C 
BRANCH   4   5
ATOM      5  O   UNL A   1      41.898  41.660  22.387  1.00  0.00    -0.463 OA
BRANCH   5   6
ATOM      6  C   UNL A   1      42.056  42.568  21.398  1.00  0.00     0.308 C 
ATOM      7  O   UNL A   1      41.153  43.304  21.014  1.00  0.00    -0.252 OA
BRANCH   6   8
ATOM      8  C   UNL A   1      43.444  42.579  20.746  1.00  0.00     0.160 C 
BRANCH   8   9
ATOM      9  C   UNL A   1      44.687  43.132  21.454  1.00  0.00     0.184 C 
ATOM     10  N   UNL A   1      45.384  45.316  20.346  1.00  0.00    -0.330 N 
ATOM     11  C   UNL A   1      46.678  44.692  20.078  1.00  0.00     0.291 C 
ATOM     12  C   UNL A   1      44.893  44.646  21.555  1.00  0.00     0.295 C 
ATOM     13  H   UNL A   1      45.547  46.316  20.466  1.00  0.00     0.348 HD
ATOM     14  C   UNL A   1      46.538  43.173  19.858  1.00  0.00     0.222 C 
ATOM     15  O   UNL A   1      45.905  42.501  20.968  1.00  0.00    -0.366 OA
BRANCH  10  16
ATOM     16  C   UNL A   1      44.403  45.576  19.275  1.00  0.00     0.270 C 
BRANCH  16  17
ATOM     17  C   UNL A   1      44.231  46.860  18.533  1.00  0.00     0.032 C 
ATOM     18  C   UNL A   1      43.230  46.993  17.384  1.00  0.00     0.015 C 
ATOM     19  C   UNL A   1      44.677  46.906  17.063  1.00  0.00     0.015 C 
BRANCH  17  20
ATOM     20  C   UNL A   1      44.535  48.051  19.320  1.00  0.00     0.133 C 
BRANCH  20  21
ATOM     21  C   UNL A   1      44.413  49.516  18.935  1.00  0.00     0.063 C 
ATOM     22  N   UNL A   1      44.313  50.732  18.615  1.00  0.00    -0.198 NA
ENDBRANCH  20  21
ENDBRANCH  17  20
ENDBRANCH  16  17
ENDBRANCH  10  16
ENDBRANCH   8   9
ENDBRANCH   6   8
ENDBRANCH   5   6
ENDBRANCH   4   5
ENDBRANCH   3   4
ENDBRANCH   2   3
ENDBRANCH   1   2
BRANCH   1  23
ATOM     23  C   UNL A   1      44.954  42.310  27.065  1.00  0.00     0.188 C 
BRANCH  23  24
ATOM     24  O   UNL A   1      44.859  43.570  27.720  1.00  0.00    -0.376 OA
BRANCH  24  25
ATOM     25  C   UNL A   1      44.598  43.452  29.126  1.00  0.00     0.202 C 
BRANCH  25  26
ATOM     26  C   UNL A   1      44.310  42.011  29.586  1.00  0.00     0.261 C 
BRANCH  26  27
ATOM     27  O   UNL A   1      43.106  41.781  30.372  1.00  0.00    -0.460 OA
BRANCH  27  28
ATOM     28  C   UNL A   1      42.332  40.802  29.778  1.00  0.00     0.338 C 
ATOM     29  O   UNL A   1      41.146  40.970  29.509  1.00  0.00    -0.246 OA
BRANCH  28  30
ATOM     30  C   UNL A   1      42.996  39.499  29.418  1.00  0.00     0.060 A 
ATOM     31  C   UNL A   1      42.733  38.786  28.262  1.00  0.00     0.016 A 
ATOM     32  C   UNL A   1      43.749  38.841  30.413  1.00  0.00     0.016 A 
ATOM     33  C   UNL A   1      42.997  37.385  28.247  1.00  0.00     0.010 A 
ATOM     34  C   UNL A   1      44.058  37.454  30.346  1.00  0.00     0.010 A 
ATOM     35  C   UNL A   1      43.572  36.645  29.310  1.00  0.00    -0.014 A 
BRANCH  35  36
ATOM     36  C   UNL A   1      43.543  35.104  29.428  1.00  0.00     0.031 A 
ATOM     37  C   UNL A   1      42.248  34.332  29.787  1.00  0.00     0.074 A 
ATOM     38  C   UNL A   1      44.587  34.281  29.141  1.00  0.00     0.049 A 
ATOM     39  N   UNL A   1      42.100  33.158  30.367  1.00  0.00    -0.248 NA
ATOM     40  C   UNL A   1      40.962  34.928  29.383  1.00  0.00     0.031 C 
ATOM     41  C   UNL A   1      45.869  34.642  28.539  1.00  0.00     0.029 A 
ATOM     42  N   UNL A   1      44.735  32.915  29.373  1.00  0.00    -0.354 N 
ATOM     43  C   UNL A   1      40.724  32.935  30.495  1.00  0.00     0.074 A 
ATOM     44  C   UNL A   1      40.073  34.059  29.858  1.00  0.00     0.031 C 
ATOM     45  C   UNL A   1      46.654  33.565  28.445  1.00  0.00     0.029 A 
ATOM     46  C   UNL A   1      46.038  32.492  29.201  1.00  0.00     0.049 A 
ATOM     47  H   UNL A   1      43.995  32.319  29.631  1.00  0.00     0.167 HD
ATOM     48  C   UNL A   1      40.062  31.908  31.099  1.00  0.00     0.034 A 
ATOM     49  C   UNL A   1      46.757  31.480  29.731  1.00  0.00     0.034 A 
ATOM     50  C   UNL A   1      40.702  30.735  31.651  1.00  0.00     0.049 A 
ATOM     51  C   UNL A   1      46.103  30.480  30.629  1.00  0.00     0.074 A 
ATOM     52  C   UNL A   1      40.128  29.670  32.331  1.00  0.00     0.029 A 
ATOM     53  N   UNL A   1      42.056  30.464  31.576  1.00  0.00    -0.354 N 
ATOM     54  N   UNL A   1      44.838  30.352  30.929  1.00  0.00    -0.248 NA
ATOM     55  C   UNL A   1      46.980  29.483  31.264  1.00  0.00     0.031 C 
ATOM     56  C   UNL A   1      41.143  28.784  32.713  1.00  0.00     0.029 A 
ATOM     57  C   UNL A   1      42.341  29.272  32.224  1.00  0.00     0.049 A 
ATOM     58  H   UNL A   1      42.720  31.034  31.127  1.00  0.00     0.167 HD
ATOM     59  C   UNL A   1      44.759  29.244  31.761  1.00  0.00     0.074 A 
ATOM     60  C   UNL A   1      46.102  28.726  31.907  1.00  0.00     0.031 C 
ATOM     61  C   UNL A   1      43.662  28.714  32.352  1.00  0.00     0.034 A 
BRANCH  48  62
ATOM     62  C   UNL A   1      38.558  32.000  31.291  1.00  0.00     0.023 A 
ATOM     63  C   UNL A   1      37.668  31.261  30.489  1.00  0.00     0.012 A 
ATOM     64  C   UNL A   1      38.044  32.726  32.392  1.00  0.00     0.148 A 
ATOM     65  C   UNL A   1      36.295  31.261  30.764  1.00  0.00     0.002 A 
ATOM     66  C   UNL A   1      36.683  32.690  32.683  1.00  0.00     0.091 A 
ATOM     67  F   UNL A   1      38.902  33.418  33.153  1.00  0.00    -0.205 F 
ATOM     68  C   UNL A   1      35.804  31.965  31.864  1.00  0.00     0.022 A 
BRANCH  66  69
ATOM     69  S   UNL A   1      35.973  33.491  34.129  1.00  0.00     0.127 S 
ATOM     70  O   UNL A   1      34.560  33.151  33.994  1.00  0.00    -0.237 OA
ATOM     71  O   UNL A   1      36.662  32.819  35.229  1.00  0.00    -0.237 OA
ATOM     72  O   UNL A   1      36.288  34.912  33.996  1.00  0.00    -0.744 OA
ENDBRANCH  66  69
ENDBRANCH  48  62
BRANCH  49  73
ATOM     73  C   UNL A   1      48.244  31.485  29.557  1.00  0.00     0.023 A 
ATOM     74  C   UNL A   1      48.841  30.816  28.475  1.00  0.00     0.012 A 
ATOM     75  C   UNL A   1      49.062  32.218  30.448  1.00  0.00     0.148 A 
ATOM     76  C   UNL A   1      50.222  30.881  28.283  1.00  0.00     0.002 A 
ATOM     77  C   UNL A   1      50.419  32.352  30.198  1.00  0.00     0.091 A 
ATOM     78  F   UNL A   1      48.483  32.812  31.502  1.00  0.00    -0.205 F 
ATOM     79  C   UNL A   1      51.007  31.668  29.126  1.00  0.00     0.022 A 
BRANCH  77  80
ATOM     80  S   UNL A   1      51.454  33.495  31.120  1.00  0.00     0.127 S 
ATOM     81  O   UNL A   1      51.389  32.945  32.465  1.00  0.00    -0.237 OA
ATOM     82  O   UNL A   1      52.743  33.347  30.447  1.00  0.00    -0.237 OA
ATOM     83  O   UNL A   1      50.841  34.811  30.938  1.00  0.00    -0.744 OA
ENDBRANCH  77  80
ENDBRANCH  49  73
BRANCH  61  84
ATOM     84  C   UNL A   1      43.848  27.462  33.165  1.00  0.00     0.023 A 
ATOM     85  C   UNL A   1      43.924  26.208  32.527  1.00  0.00     0.012 A 
ATOM     86  C   UNL A   1      43.964  27.532  34.568  1.00  0.00     0.148 A 
ATOM     87  C   UNL A   1      44.069  25.040  33.275  1.00  0.00     0.002 A 
ATOM     88  C   UNL A   1      44.159  26.369  35.303  1.00  0.00     0.091 A 
ATOM     89  F   UNL A   1      43.867  28.732  35.158  1.00  0.00    -0.205 F 
ATOM     90  C   UNL A   1      44.195  25.120  34.659  1.00  0.00     0.022 A 
BRANCH  88  91
ATOM     91  S   UNL A   1      44.411  26.381  37.081  1.00  0.00     0.127 S 
ATOM     92  O   UNL A   1      43.376  27.316  37.522  1.00  0.00    -0.237 OA
ATOM     93  O   UNL A   1      44.163  24.984  37.437  1.00  0.00    -0.237 OA
ATOM     94  O   UNL A   1      45.781  26.827  37.291  1.00  0.00    -0.744 OA
ENDBRANCH  88  91
ENDBRANCH  61  84
ENDBRANCH  35  36
ENDBRANCH  28  30
ENDBRANCH  27  28
ENDBRANCH  26  27
ENDBRANCH  25  26
ENDBRANCH  24  25
ENDBRANCH  23  24
ENDBRANCH   1  23
TORSDOF 25
ENDMDL
MODEL 2
REMARK VINA RESULT:      -7.7      2.999      3.684
REMARK SMILES N#CCC1(C[N@@H+]2CCO[C@H](CC(=O)OCCOCCOCCOC(=O)c3ccc(-c4c5nc(c(-c6cccc(S(=O)(=O)[O-])c6F)c6ccc([nH]6)c(-c6cccc(S(=O)(=O)[O-])c6F)c6nc(c(-c7cccc(S(=O)(=O)[O-])c7F)c7ccc4[nH]7)C=C6)C=C5)cc3)C2)CC1
REMARK SMILES IDX 18 1 17 2 16 3 15 4 14 5 12 6 13 7 11 8 10 9 6 10 7 11 89 12
REMARK SMILES IDX 8 14 9 15 5 16 4 17 90 18 91 19 3 20 2 21 1 22 19 23 20 24
REMARK SMILES IDX 21 25 22 26 23 27 24 28 25 29 26 30 27 31 88 32 28 33 87 34
REMARK SMILES IDX 29 35 30 36 31 37 81 38 32 39 86 40 80 41 82 42 33 43 85 44
REMARK SMILES IDX 79 45 78 46 34 48 66 49 46 50 65 51 47 52 50 53 64 54 83 55
REMARK SMILES IDX 48 56 49 57 63 59 84 60 51 61 35 62 36 63 44 64 37 65 39 66
REMARK SMILES IDX 45 67 38 68 40 69 41 70 42 71 43 72 67 73 68 74 76 75 69 76
REMARK SMILES IDX 71 77 77 78 70 79 72 80 73 81 74 82 75 83 52 84 53 85 61 86
REMARK SMILES IDX 54 87 56 88 62 89 55 90 57 91 58 92 59 93 60 94
REMARK H PARENT 6 13 82 47 50 58
REMARK Flexibility Score: inf
ROOT
ATOM      1  C   UNL A   1      46.562  43.755  25.475  1.00  0.00     0.188 C 
ENDROOT
BRANCH   1   2
ATOM      2  O   UNL A   1      45.434  44.607  25.289  1.00  0.00    -0.376 OA
BRANCH   2   3
ATOM      3  C   UNL A   1      44.947  44.729  23.955  1.00  0.00     0.202 C 
BRANCH   3   4
ATOM      4  C   UNL A   1      44.075  43.589  23.376  1.00  0.00     0.261 C 
BRANCH   4   5
ATOM      5  O   UNL A   1      44.199  43.343  21.958  1.00  0.00    -0.463 OA
BRANCH   5   6
ATOM      6  C   UNL A   1      43.195  42.727  21.294  1.00  0.00     0.308 C 
ATOM      7  O   UNL A   1      43.042  41.511  21.289  1.00  0.00    -0.252 OA
BRANCH   6   8
ATOM      8  C   UNL A   1      42.280  43.662  20.493  1.00  0.00     0.160 C 
BRANCH   8   9
ATOM      9  C   UNL A   1      41.989  43.458  19.001  1.00  0.00     0.184 C 
ATOM     10  N   UNL A   1      43.522  44.960  17.631  1.00  0.00    -0.330 N 
ATOM     11  C   UNL A   1      42.317  45.563  17.065  1.00  0.00     0.291 C 
ATOM     12  C   UNL A   1      43.123  43.592  17.981  1.00  0.00     0.295 C 
ATOM     13  H   UNL A   1      44.251  45.008  16.920  1.00  0.00     0.348 HD
ATOM     14  C   UNL A   1      41.154  45.560  18.075  1.00  0.00     0.222 C 
ATOM     15  O   UNL A   1      40.841  44.239  18.568  1.00  0.00    -0.366 OA
BRANCH  10  16
ATOM     16  C   UNL A   1      44.377  45.679  18.596  1.00  0.00     0.270 C 
BRANCH  16  17
ATOM     17  C   UNL A   1      45.092  46.966  18.348  1.00  0.00     0.032 C 
ATOM     18  C   UNL A   1      45.885  47.207  17.063  1.00  0.00     0.015 C 
ATOM     19  C   UNL A   1      46.628  46.940  18.319  1.00  0.00     0.015 C 
BRANCH  17  20
ATOM     20  C   UNL A   1      44.494  48.120  19.013  1.00  0.00     0.133 C 
BRANCH  20  21
ATOM     21  C   UNL A   1      44.403  49.562  18.541  1.00  0.00     0.063 C 
ATOM     22  N   UNL A   1      44.327  50.758  18.150  1.00  0.00    -0.198 NA
ENDBRANCH  20  21
ENDBRANCH  17  20
ENDBRANCH  16  17
ENDBRANCH  10  16
ENDBRANCH   8   9
ENDBRANCH   6   8
ENDBRANCH   5   6
ENDBRANCH   4   5
ENDBRANCH   3   4
ENDBRANCH   2   3
ENDBRANCH   1   2
BRANCH   1  23
ATOM     23  C   UNL A   1      46.881  43.608  26.974  1.00  0.00     0.188 C 
BRANCH  23  24
ATOM     24  O   UNL A   1      46.230  42.469  27.528  1.00  0.00    -0.376 OA
BRANCH  24  25
ATOM     25  C   UNL A   1      45.301  41.858  26.621  1.00  0.00     0.202 C 
BRANCH  25  26
ATOM     26  C   UNL A   1      44.251  40.968  27.309  1.00  0.00     0.261 C 
BRANCH  26  27
ATOM     27  O   UNL A   1      43.494  40.046  26.474  1.00  0.00    -0.460 OA
BRANCH  27  28
ATOM     28  C   UNL A   1      42.684  39.250  27.261  1.00  0.00     0.338 C 
ATOM     29  O   UNL A   1      41.642  39.661  27.764  1.00  0.00    -0.246 OA
BRANCH  28  30
ATOM     30  C   UNL A   1      43.091  37.814  27.467  1.00  0.00     0.060 A 
ATOM     31  C   UNL A   1      42.796  36.789  26.587  1.00  0.00     0.016 A 
ATOM     32  C   UNL A   1      43.590  37.442  28.733  1.00  0.00     0.016 A 
ATOM     33  C   UNL A   1      42.760  35.452  27.081  1.00  0.00     0.010 A 
ATOM     34  C   UNL A   1      43.605  36.092  29.181  1.00  0.00     0.010 A 
ATOM     35  C   UNL A   1      43.062  35.058  28.408  1.00  0.00    -0.014 A 
BRANCH  35  36
ATOM     36  C   UNL A   1      42.699  33.687  29.024  1.00  0.00     0.031 A 
ATOM     37  C   UNL A   1      41.498  33.512  29.988  1.00  0.00     0.074 A 
ATOM     38  C   UNL A   1      43.310  32.510  28.721  1.00  0.00     0.049 A 
ATOM     39  N   UNL A   1      41.301  32.616  30.935  1.00  0.00    -0.248 NA
ATOM     40  C   UNL A   1      40.348  34.418  29.820  1.00  0.00     0.031 C 
ATOM     41  C   UNL A   1      44.303  32.263  27.677  1.00  0.00     0.029 A 
ATOM     42  N   UNL A   1      43.192  31.262  29.329  1.00  0.00    -0.354 N 
ATOM     43  C   UNL A   1      40.074  32.921  31.537  1.00  0.00     0.074 A 
ATOM     44  C   UNL A   1      39.528  34.038  30.797  1.00  0.00     0.031 C 
ATOM     45  C   UNL A   1      44.695  30.986  27.707  1.00  0.00     0.029 A 
ATOM     46  C   UNL A   1      44.176  30.384  28.920  1.00  0.00     0.049 A 
ATOM     47  H   UNL A   1      42.488  31.032  29.977  1.00  0.00     0.167 HD
ATOM     48  C   UNL A   1      39.467  32.346  32.613  1.00  0.00     0.034 A 
ATOM     49  C   UNL A   1      44.769  29.323  29.508  1.00  0.00     0.034 A 
ATOM     50  C   UNL A   1      39.958  31.170  33.297  1.00  0.00     0.049 A 
ATOM     51  C   UNL A   1      44.289  28.832  30.836  1.00  0.00     0.074 A 
ATOM     52  C   UNL A   1      39.449  30.544  34.426  1.00  0.00     0.029 A 
ATOM     53  N   UNL A   1      41.062  30.434  32.910  1.00  0.00    -0.354 N 
ATOM     54  N   UNL A   1      43.251  29.222  31.527  1.00  0.00    -0.248 NA
ATOM     55  C   UNL A   1      45.066  27.753  31.465  1.00  0.00     0.031 C 
ATOM     56  C   UNL A   1      40.278  29.464  34.751  1.00  0.00     0.029 A 
ATOM     57  C   UNL A   1      41.272  29.385  33.793  1.00  0.00     0.049 A 
ATOM     58  H   UNL A   1      41.619  30.625  32.122  1.00  0.00     0.167 HD
ATOM     59  C   UNL A   1      43.230  28.416  32.658  1.00  0.00     0.074 A 
ATOM     60  C   UNL A   1      44.349  27.507  32.553  1.00  0.00     0.031 C 
ATOM     61  C   UNL A   1      42.355  28.443  33.691  1.00  0.00     0.034 A 
BRANCH  48  62
ATOM     62  C   UNL A   1      38.231  32.996  33.209  1.00  0.00     0.023 A 
ATOM     63  C   UNL A   1      38.319  33.888  34.294  1.00  0.00     0.012 A 
ATOM     64  C   UNL A   1      36.980  32.821  32.569  1.00  0.00     0.148 A 
ATOM     65  C   UNL A   1      37.184  34.573  34.747  1.00  0.00     0.002 A 
ATOM     66  C   UNL A   1      35.865  33.535  32.999  1.00  0.00     0.091 A 
ATOM     67  F   UNL A   1      36.911  31.976  31.531  1.00  0.00    -0.205 F 
ATOM     68  C   UNL A   1      35.963  34.406  34.094  1.00  0.00     0.022 A 
BRANCH  66  69
ATOM     69  S   UNL A   1      34.273  33.453  32.165  1.00  0.00     0.127 S 
ATOM     70  O   UNL A   1      34.423  32.248  31.355  1.00  0.00    -0.237 OA
ATOM     71  O   UNL A   1      33.340  33.326  33.283  1.00  0.00    -0.237 OA
ATOM     72  O   UNL A   1      34.150  34.700  31.411  1.00  0.00    -0.744 OA
ENDBRANCH  66  69
ENDBRANCH  48  62
BRANCH  49  73
ATOM     73  C   UNL A   1      46.021  28.771  28.902  1.00  0.00     0.023 A 
ATOM     74  C   UNL A   1      47.280  29.263  29.286  1.00  0.00     0.012 A 
ATOM     75  C   UNL A   1      45.953  27.703  27.977  1.00  0.00     0.148 A 
ATOM     76  C   UNL A   1      48.445  28.697  28.765  1.00  0.00     0.002 A 
ATOM     77  C   UNL A   1      47.115  27.089  27.535  1.00  0.00     0.091 A 
ATOM     78  F   UNL A   1      44.743  27.277  27.584  1.00  0.00    -0.205 F 
ATOM     79  C   UNL A   1      48.365  27.597  27.912  1.00  0.00     0.022 A 
BRANCH  77  80
ATOM     80  S   UNL A   1      47.089  25.558  26.595  1.00  0.00     0.127 S 
ATOM     81  O   UNL A   1      46.282  24.695  27.442  1.00  0.00    -0.237 OA
ATOM     82  O   UNL A   1      46.452  25.980  25.348  1.00  0.00    -0.237 OA
ATOM     83  O   UNL A   1      48.492  25.171  26.440  1.00  0.00    -0.744 OA
ENDBRANCH  77  80
ENDBRANCH  49  73
BRANCH  61  84
ATOM     84  C   UNL A   1      42.525  27.410  34.772  1.00  0.00     0.023 A 
ATOM     85  C   UNL A   1      41.750  26.234  34.755  1.00  0.00     0.012 A 
ATOM     86  C   UNL A   1      43.470  27.601  35.799  1.00  0.00     0.148 A 
ATOM     87  C   UNL A   1      41.882  25.284  35.767  1.00  0.00     0.002 A 
ATOM     88  C   UNL A   1      43.632  26.627  36.777  1.00  0.00     0.091 A 
ATOM     89  F   UNL A   1      44.182  28.737  35.810  1.00  0.00    -0.205 F 
ATOM     90  C   UNL A   1      42.827  25.475  36.772  1.00  0.00     0.022 A 
BRANCH  88  91
ATOM     91  S   UNL A   1      44.878  26.749  38.065  1.00  0.00     0.127 S 
ATOM     92  O   UNL A   1      46.110  26.835  37.280  1.00  0.00    -0.237 OA
ATOM     93  O   UNL A   1      44.500  27.989  38.743  1.00  0.00    -0.237 OA
ATOM     94  O   UNL A   1      44.740  25.547  38.876  1.00  0.00    -0.744 OA
ENDBRANCH  88  91
ENDBRANCH  61  84
ENDBRANCH  35  36
ENDBRANCH  28  30
ENDBRANCH  27  28
ENDBRANCH  26  27
ENDBRANCH  25  26
ENDBRANCH  24  25
ENDBRANCH  23  24
ENDBRANCH   1  23
TORSDOF 25
ENDMDL
MODEL 3
REMARK VINA RESULT:      -7.7     10.648     15.370
REMARK SMILES N#CCC1(C[N@@H+]2CCO[C@H](CC(=O)OCCOCCOCCOC(=O)c3ccc(-c4c5nc(c(-c6cccc(S(=O)(=O)[O-])c6F)c6ccc([nH]6)c(-c6cccc(S(=O)(=O)[O-])c6F)c6nc(c(-c7cccc(S(=O)(=O)[O-])c7F)c7ccc4[nH]7)C=C6)C=C5)cc3)C2)CC1
REMARK SMILES IDX 18 1 17 2 16 3 15 4 14 5 12 6 13 7 11 8 10 9 6 10 7 11 89 12
REMARK SMILES IDX 8 14 9 15 5 16 4 17 90 18 91 19 3 20 2 21 1 22 19 23 20 24
REMARK SMILES IDX 21 25 22 26 23 27 24 28 25 29 26 30 27 31 88 32 28 33 87 34
REMARK SMILES IDX 29 35 30 36 31 37 81 38 32 39 86 40 80 41 82 42 33 43 85 44
REMARK SMILES IDX 79 45 78 46 34 48 66 49 46 50 65 51 47 52 50 53 64 54 83 55
REMARK SMILES IDX 48 56 49 57 63 59 84 60 51 61 35 62 36 63 44 64 37 65 39 66
REMARK SMILES IDX 45 67 38 68 40 69 41 70 42 71 43 72 67 73 68 74 76 75 69 76
REMARK SMILES IDX 71 77 77 78 70 79 72 80 73 81 74 82 75 83 52 84 53 85 61 86
REMARK SMILES IDX 54 87 56 88 62 89 55 90 57 91 58 92 59 93 60 94
REMARK H PARENT 6 13 82 47 50 58
REMARK Flexibility Score: inf
ROOT
ATOM      1  C   UNL A   1      39.885  20.449  26.056  1.00  0.00     0.188 C 
ENDROOT
BRANCH   1   2
ATOM      2  O   UNL A   1      38.929  21.500  26.178  1.00  0.00    -0.376 OA
BRANCH   2   3
ATOM      3  C   UNL A   1      38.040  21.675  25.078  1.00  0.00     0.202 C 
BRANCH   3   4
ATOM      4  C   UNL A   1      36.712  20.882  25.064  1.00  0.00     0.261 C 
BRANCH   4   5
ATOM      5  O   UNL A   1      35.532  21.598  25.490  1.00  0.00    -0.463 OA
BRANCH   5   6
ATOM      6  C   UNL A   1      34.796  22.280  24.583  1.00  0.00     0.308 C 
ATOM      7  O   UNL A   1      35.258  23.174  23.883  1.00  0.00    -0.252 OA
BRANCH   6   8
ATOM      8  C   UNL A   1      33.315  21.889  24.527  1.00  0.00     0.160 C 
BRANCH   8   9
ATOM      9  C   UNL A   1      32.382  22.002  25.740  1.00  0.00     0.184 C 
ATOM     10  N   UNL A   1      30.609  23.770  25.274  1.00  0.00    -0.330 N 
ATOM     11  C   UNL A   1      31.089  24.471  26.463  1.00  0.00     0.291 C 
ATOM     12  C   UNL A   1      30.907  22.356  25.532  1.00  0.00     0.295 C 
ATOM     13  H   UNL A   1      29.613  23.971  25.182  1.00  0.00     0.348 HD
ATOM     14  C   UNL A   1      32.598  24.248  26.681  1.00  0.00     0.222 C 
ATOM     15  O   UNL A   1      32.951  22.851  26.775  1.00  0.00    -0.366 OA
BRANCH  10  16
ATOM     16  C   UNL A   1      30.866  24.273  23.911  1.00  0.00     0.270 C 
BRANCH  16  17
ATOM     17  C   UNL A   1      30.806  25.700  23.476  1.00  0.00     0.032 C 
ATOM     18  C   UNL A   1      30.619  26.838  24.482  1.00  0.00     0.015 C 
ATOM     19  C   UNL A   1      29.469  26.443  23.631  1.00  0.00     0.015 C 
BRANCH  17  20
ATOM     20  C   UNL A   1      31.544  25.983  22.248  1.00  0.00     0.133 C 
BRANCH  20  21
ATOM     21  C   UNL A   1      32.841  26.753  22.061  1.00  0.00     0.063 C 
ATOM     22  N   UNL A   1      33.917  27.392  21.906  1.00  0.00    -0.198 NA
ENDBRANCH  20  21
ENDBRANCH  17  20
ENDBRANCH  16  17
ENDBRANCH  10  16
ENDBRANCH   8   9
ENDBRANCH   6   8
ENDBRANCH   5   6
ENDBRANCH   4   5
ENDBRANCH   3   4
ENDBRANCH   2   3
ENDBRANCH   1   2
BRANCH   1  23
ATOM     23  C   UNL A   1      41.216  20.856  26.713  1.00  0.00     0.188 C 
BRANCH  23  24
ATOM     24  O   UNL A   1      42.035  21.588  25.807  1.00  0.00    -0.376 OA
BRANCH  24  25
ATOM     25  C   UNL A   1      42.120  22.983  26.131  1.00  0.00     0.202 C 
BRANCH  25  26
ATOM     26  C   UNL A   1      43.345  23.690  25.525  1.00  0.00     0.261 C 
BRANCH  26  27
ATOM     27  O   UNL A   1      44.516  23.862  26.375  1.00  0.00    -0.460 OA
BRANCH  27  28
ATOM     28  C   UNL A   1      44.251  24.793  27.362  1.00  0.00     0.338 C 
ATOM     29  O   UNL A   1      43.695  25.863  27.128  1.00  0.00    -0.246 OA
BRANCH  28  30
ATOM     30  C   UNL A   1      44.632  24.449  28.778  1.00  0.00     0.060 A 
ATOM     31  C   UNL A   1      43.920  23.581  29.585  1.00  0.00     0.016 A 
ATOM     32  C   UNL A   1      45.627  25.228  29.405  1.00  0.00     0.016 A 
ATOM     33  C   UNL A   1      44.040  23.706  31.000  1.00  0.00     0.010 A 
ATOM     34  C   UNL A   1      45.772  25.288  30.818  1.00  0.00     0.010 A 
ATOM     35  C   UNL A   1      44.886  24.622  31.675  1.00  0.00    -0.014 A 
BRANCH  35  36
ATOM     36  C   UNL A   1      44.769  24.991  33.171  1.00  0.00     0.031 A 
ATOM     37  C   UNL A   1      44.242  26.372  33.636  1.00  0.00     0.074 A 
ATOM     38  C   UNL A   1      45.010  24.141  34.205  1.00  0.00     0.049 A 
ATOM     39  N   UNL A   1      44.485  27.036  34.750  1.00  0.00    -0.248 NA
ATOM     40  C   UNL A   1      43.270  27.063  32.769  1.00  0.00     0.031 C 
ATOM     41  C   UNL A   1      45.278  22.706  34.137  1.00  0.00     0.029 A 
ATOM     42  N   UNL A   1      45.108  24.404  35.570  1.00  0.00    -0.354 N 
ATOM     43  C   UNL A   1      43.794  28.250  34.661  1.00  0.00     0.074 A 
ATOM     44  C   UNL A   1      43.053  28.203  33.419  1.00  0.00     0.031 C 
ATOM     45  C   UNL A   1      45.500  22.220  35.362  1.00  0.00     0.029 A 
ATOM     46  C   UNL A   1      45.639  23.340  36.272  1.00  0.00     0.049 A 
ATOM     47  H   UNL A   1      44.830  25.251  35.987  1.00  0.00     0.167 HD
ATOM     48  C   UNL A   1      43.789  29.312  35.516  1.00  0.00     0.034 A 
ATOM     49  C   UNL A   1      46.345  23.252  37.419  1.00  0.00     0.034 A 
ATOM     50  C   UNL A   1      44.448  29.328  36.803  1.00  0.00     0.049 A 
ATOM     51  C   UNL A   1      46.589  24.470  38.250  1.00  0.00     0.074 A 
ATOM     52  C   UNL A   1      44.548  30.369  37.715  1.00  0.00     0.029 A 
ATOM     53  N   UNL A   1      45.106  28.252  37.368  1.00  0.00    -0.354 N 
ATOM     54  N   UNL A   1      46.112  25.677  38.094  1.00  0.00    -0.248 NA
ATOM     55  C   UNL A   1      47.470  24.313  39.418  1.00  0.00     0.031 C 
ATOM     56  C   UNL A   1      45.314  29.937  38.804  1.00  0.00     0.029 A 
ATOM     57  C   UNL A   1      45.644  28.611  38.595  1.00  0.00     0.049 A 
ATOM     58  H   UNL A   1      45.181  27.360  36.959  1.00  0.00     0.167 HD
ATOM     59  C   UNL A   1      46.608  26.417  39.159  1.00  0.00     0.074 A 
ATOM     60  C   UNL A   1      47.411  25.520  39.961  1.00  0.00     0.031 C 
ATOM     61  C   UNL A   1      46.414  27.729  39.432  1.00  0.00     0.034 A 
BRANCH  48  62
ATOM     62  C   UNL A   1      43.119  30.608  35.093  1.00  0.00     0.023 A 
ATOM     63  C   UNL A   1      43.782  31.546  34.279  1.00  0.00     0.012 A 
ATOM     64  C   UNL A   1      41.752  30.812  35.396  1.00  0.00     0.148 A 
ATOM     65  C   UNL A   1      43.105  32.673  33.796  1.00  0.00     0.002 A 
ATOM     66  C   UNL A   1      41.075  31.913  34.880  1.00  0.00     0.091 A 
ATOM     67  F   UNL A   1      41.130  29.907  36.164  1.00  0.00    -0.205 F 
ATOM     68  C   UNL A   1      41.752  32.851  34.086  1.00  0.00     0.022 A 
BRANCH  66  69
ATOM     69  S   UNL A   1      39.312  32.178  35.126  1.00  0.00     0.127 S 
ATOM     70  O   UNL A   1      39.098  33.434  34.414  1.00  0.00    -0.237 OA
ATOM     71  O   UNL A   1      38.727  31.004  34.484  1.00  0.00    -0.237 OA
ATOM     72  O   UNL A   1      39.114  32.239  36.573  1.00  0.00    -0.744 OA
ENDBRANCH  66  69
ENDBRANCH  48  62
BRANCH  49  73
ATOM     73  C   UNL A   1      47.032  21.962  37.744  1.00  0.00     0.023 A 
ATOM     74  C   UNL A   1      46.336  20.921  38.382  1.00  0.00     0.012 A 
ATOM     75  C   UNL A   1      48.376  21.754  37.356  1.00  0.00     0.148 A 
ATOM     76  C   UNL A   1      46.965  19.697  38.621  1.00  0.00     0.002 A 
ATOM     77  C   UNL A   1      48.963  20.508  37.516  1.00  0.00     0.091 A 
ATOM     78  F   UNL A   1      49.040  22.774  36.792  1.00  0.00    -0.205 F 
ATOM     79  C   UNL A   1      48.266  19.482  38.167  1.00  0.00     0.022 A 
BRANCH  77  80
ATOM     80  S   UNL A   1      50.555  20.100  36.790  1.00  0.00     0.127 S 
ATOM     81  O   UNL A   1      50.194  19.816  35.410  1.00  0.00    -0.237 OA
ATOM     82  O   UNL A   1      51.307  21.338  36.995  1.00  0.00    -0.237 OA
ATOM     83  O   UNL A   1      51.060  18.967  37.565  1.00  0.00    -0.744 OA
ENDBRANCH  77  80
ENDBRANCH  49  73
BRANCH  61  84
ATOM     84  C   UNL A   1      47.024  28.272  40.695  1.00  0.00     0.023 A 
ATOM     85  C   UNL A   1      48.310  28.847  40.670  1.00  0.00     0.012 A 
ATOM     86  C   UNL A   1      46.312  28.225  41.910  1.00  0.00     0.148 A 
ATOM     87  C   UNL A   1      48.894  29.328  41.841  1.00  0.00     0.002 A 
ATOM     88  C   UNL A   1      46.880  28.751  43.063  1.00  0.00     0.091 A 
ATOM     89  F   UNL A   1      45.099  27.653  41.918  1.00  0.00    -0.205 F 
ATOM     90  C   UNL A   1      48.178  29.288  43.035  1.00  0.00     0.022 A 
BRANCH  88  91
ATOM     91  S   UNL A   1      46.002  28.816  44.629  1.00  0.00     0.127 S 
ATOM     92  O   UNL A   1      44.739  29.441  44.237  1.00  0.00    -0.237 OA
ATOM     93  O   UNL A   1      45.897  27.400  44.983  1.00  0.00    -0.237 OA
ATOM     94  O   UNL A   1      46.834  29.605  45.526  1.00  0.00    -0.744 OA
ENDBRANCH  88  91
ENDBRANCH  61  84
ENDBRANCH  35  36
ENDBRANCH  28  30
ENDBRANCH  27  28
ENDBRANCH  26  27
ENDBRANCH  25  26
ENDBRANCH  24  25
ENDBRANCH  23  24
ENDBRANCH   1  23
TORSDOF 25
ENDMDL
