MODEL 1
REMARK VINA RESULT:     -11.0      0.000      0.000
REMARK SMILES Cc1ccc(Nc2c(Cl)cccc2Cl)c(CC(=O)OCCOCCOCCOC(=O)c2ccc(-c3c4nc(c(-c5cccc(S(=O)(=O)[O-])c5F)c5ccc([nH]5)c(-c5cccc(S(=O)(=O)[O-])c5F)c5nc(c(-c6cccc(S(=O)(=O)[O-])c6F)c6ccc3[nH]6)C=C5)C=C4)cc2)c1
REMARK SMILES IDX 23 1 22 2 21 3 20 4 19 5 17 6 18 7 16 8 15 9 1 10 2 11 3 12
REMARK SMILES IDX 94 13 4 14 5 15 6 16 7 18 8 19 13 20 9 21 10 22 12 23 14 24
REMARK SMILES IDX 11 25 24 26 25 27 26 28 27 29 28 30 29 31 30 32 31 33 32 34
REMARK SMILES IDX 93 35 33 36 92 37 34 38 35 39 36 40 86 41 37 42 91 43 85 44
REMARK SMILES IDX 87 45 38 46 90 47 84 48 83 49 39 51 71 52 51 53 70 54 52 55
REMARK SMILES IDX 55 56 69 57 88 58 53 59 54 60 68 62 89 63 56 64 40 65 41 66
REMARK SMILES IDX 49 67 42 68 44 69 50 70 43 71 45 72 46 73 47 74 48 75 72 76
REMARK SMILES IDX 73 77 81 78 74 79 76 80 82 81 75 82 77 83 78 84 79 85 80 86
REMARK SMILES IDX 57 87 58 88 66 89 59 90 61 91 67 92 60 93 62 94 63 95 64 96
REMARK SMILES IDX 65 97
REMARK H PARENT 6 17 87 50 55 61
REMARK Flexibility Score: inf
ROOT
ATOM      1  C   UNL A   1      34.486  29.986  27.044  1.00  0.00     0.188 C 
ENDROOT
BRANCH   1   2
ATOM      2  O   UNL A   1      33.108  29.828  26.804  1.00  0.00    -0.376 OA
BRANCH   2   3
ATOM      3  C   UNL A   1      32.595  28.642  26.212  1.00  0.00     0.202 C 
BRANCH   3   4
ATOM      4  C   UNL A   1      32.966  27.033  26.260  1.00  0.00     0.261 C 
BRANCH   4   5
ATOM      5  O   UNL A   1      34.034  25.818  25.386  1.00  0.00    -0.463 OA
BRANCH   5   6
ATOM      6  C   UNL A   1      34.628  24.262  25.489  1.00  0.00     0.310 C 
ATOM      7  O   UNL A   1      34.761  23.446  26.418  1.00  0.00    -0.252 OA
BRANCH   6   8
ATOM      8  C   UNL A   1      34.763  23.603  24.249  1.00  0.00     0.160 C 
BRANCH   8   9
ATOM      9  C   UNL A   1      33.551  22.802  24.113  1.00  0.00    -0.013 A 
ATOM     10  C   UNL A   1      34.491  19.060  24.699  1.00  0.00     0.044 C 
ATOM     11  C   UNL A   1      33.698  20.322  24.690  1.00  0.00    -0.051 A 
ATOM     12  C   UNL A   1      32.557  20.499  25.402  1.00  0.00     0.005 A 
ATOM     13  C   UNL A   1      34.164  21.449  24.060  1.00  0.00     0.009 A 
ATOM     14  C   UNL A   1      31.919  21.765  25.369  1.00  0.00     0.026 A 
ATOM     15  C   UNL A   1      32.203  23.127  24.496  1.00  0.00     0.042 A 
BRANCH  15  16
ATOM     16  N   UNL A   1      30.857  24.629  24.350  1.00  0.00    -0.353 N 
ATOM     17  H   UNL A   1      30.069  24.494  24.926  1.00  0.00     0.167 HD
BRANCH  16  18
ATOM     18  C   UNL A   1      30.773  26.197  23.377  1.00  0.00     0.076 A 
ATOM     19  C   UNL A   1      31.972  26.975  22.762  1.00  0.00     0.066 A 
ATOM     20  C   UNL A   1      29.657  27.068  23.549  1.00  0.00     0.066 A 
ATOM     21  Cl  UNL A   1      33.534  26.508  22.019  1.00  0.00    -0.082 Cl
ATOM     22  C   UNL A   1      31.992  28.387  22.602  1.00  0.00     0.023 A 
ATOM     23  C   UNL A   1      29.756  28.492  23.326  1.00  0.00     0.023 A 
ATOM     24  Cl  UNL A   1      28.043  26.680  23.895  1.00  0.00    -0.082 Cl
ATOM     25  C   UNL A   1      30.907  29.151  22.919  1.00  0.00     0.003 A 
ENDBRANCH  16  18
ENDBRANCH  15  16
ENDBRANCH   8   9
ENDBRANCH   6   8
ENDBRANCH   5   6
ENDBRANCH   4   5
ENDBRANCH   3   4
ENDBRANCH   2   3
ENDBRANCH   1   2
BRANCH   1  26
ATOM     26  C   UNL A   1      34.896  30.914  28.162  1.00  0.00     0.188 C 
BRANCH  26  27
ATOM     27  O   UNL A   1      36.280  30.900  28.399  1.00  0.00    -0.376 OA
BRANCH  27  28
ATOM     28  C   UNL A   1      37.004  29.905  27.706  1.00  0.00     0.202 C 
BRANCH  28  29
ATOM     29  C   UNL A   1      38.522  29.678  28.072  1.00  0.00     0.261 C 
BRANCH  29  30
ATOM     30  O   UNL A   1      38.824  28.538  28.976  1.00  0.00    -0.460 OA
BRANCH  30  31
ATOM     31  C   UNL A   1      39.014  28.664  30.381  1.00  0.00     0.338 C 
ATOM     32  O   UNL A   1      38.285  27.997  31.090  1.00  0.00    -0.246 OA
BRANCH  31  33
ATOM     33  C   UNL A   1      40.292  29.738  30.812  1.00  0.00     0.060 A 
ATOM     34  C   UNL A   1      41.329  31.252  30.116  1.00  0.00     0.016 A 
ATOM     35  C   UNL A   1      41.252  28.218  30.869  1.00  0.00     0.016 A 
ATOM     36  C   UNL A   1      43.008  30.898  29.288  1.00  0.00     0.010 A 
ATOM     37  C   UNL A   1      42.753  28.034  30.037  1.00  0.00     0.010 A 
ATOM     38  C   UNL A   1      43.745  29.219  29.150  1.00  0.00    -0.014 A 
BRANCH  38  39
ATOM     39  C   UNL A   1      45.437  28.472  28.652  1.00  0.00     0.031 A 
ATOM     40  C   UNL A   1      47.068  29.475  28.360  1.00  0.00     0.074 A 
ATOM     41  C   UNL A   1      45.751  27.155  28.727  1.00  0.00     0.049 A 
ATOM     42  N   UNL A   1      47.698  29.701  27.215  1.00  0.00    -0.248 NA
ATOM     43  C   UNL A   1      47.655  30.766  29.278  1.00  0.00     0.031 C 
ATOM     44  C   UNL A   1      47.099  26.548  28.836  1.00  0.00     0.029 A 
ATOM     45  N   UNL A   1      44.936  26.041  28.895  1.00  0.00    -0.354 N 
ATOM     46  C   UNL A   1      48.592  30.814  27.403  1.00  0.00     0.074 A 
ATOM     47  C   UNL A   1      48.055  31.655  28.392  1.00  0.00     0.031 C 
ATOM     48  C   UNL A   1      47.003  25.206  28.711  1.00  0.00     0.029 A 
ATOM     49  C   UNL A   1      45.618  24.930  28.371  1.00  0.00     0.049 A 
ATOM     50  H   UNL A   1      44.042  26.034  29.307  1.00  0.00     0.167 HD
ATOM     51  C   UNL A   1      49.959  30.687  27.379  1.00  0.00     0.034 A 
ATOM     52  C   UNL A   1      45.133  24.439  27.199  1.00  0.00     0.034 A 
ATOM     53  C   UNL A   1      50.216  29.270  27.195  1.00  0.00     0.049 A 
ATOM     54  C   UNL A   1      46.095  24.855  26.102  1.00  0.00     0.074 A 
ATOM     55  C   UNL A   1      50.486  28.222  28.058  1.00  0.00     0.029 A 
ATOM     56  N   UNL A   1      49.650  28.710  26.068  1.00  0.00    -0.354 N 
ATOM     57  N   UNL A   1      46.971  25.823  26.221  1.00  0.00    -0.248 NA
ATOM     58  C   UNL A   1      46.278  24.092  24.879  1.00  0.00     0.031 C 
ATOM     59  C   UNL A   1      50.029  27.021  27.420  1.00  0.00     0.029 A 
ATOM     60  C   UNL A   1      49.465  27.349  26.195  1.00  0.00     0.049 A 
ATOM     61  H   UNL A   1      49.406  29.222  25.264  1.00  0.00     0.167 HD
ATOM     62  C   UNL A   1      47.847  25.801  25.185  1.00  0.00     0.074 A 
ATOM     63  C   UNL A   1      47.368  24.692  24.371  1.00  0.00     0.031 C 
ATOM     64  C   UNL A   1      48.905  26.657  25.039  1.00  0.00     0.034 A 
BRANCH  51  65
ATOM     65  C   UNL A   1      50.984  31.726  27.929  1.00  0.00     0.023 A 
ATOM     66  C   UNL A   1      51.898  31.239  28.887  1.00  0.00     0.012 A 
ATOM     67  C   UNL A   1      51.164  33.106  27.569  1.00  0.00     0.148 A 
ATOM     68  C   UNL A   1      52.900  32.034  29.464  1.00  0.00     0.002 A 
ATOM     69  C   UNL A   1      52.137  33.918  28.190  1.00  0.00     0.091 A 
ATOM     70  F   UNL A   1      50.436  33.644  26.579  1.00  0.00    -0.205 F 
ATOM     71  C   UNL A   1      53.015  33.374  29.127  1.00  0.00     0.022 A 
BRANCH  69  72
ATOM     72  S   UNL A   1      52.334  35.697  27.887  1.00  0.00     0.127 S 
ATOM     73  O   UNL A   1      52.847  35.728  26.513  1.00  0.00    -0.237 OA
ATOM     74  O   UNL A   1      50.969  36.199  28.024  1.00  0.00    -0.237 OA
ATOM     75  O   UNL A   1      53.288  36.174  28.880  1.00  0.00    -0.744 OA
ENDBRANCH  69  72
ENDBRANCH  51  65
BRANCH  52  76
ATOM     76  C   UNL A   1      43.622  24.492  27.240  1.00  0.00     0.023 A 
ATOM     77  C   UNL A   1      43.025  25.704  26.768  1.00  0.00     0.012 A 
ATOM     78  C   UNL A   1      42.830  23.330  27.260  1.00  0.00     0.148 A 
ATOM     79  C   UNL A   1      41.748  25.718  26.205  1.00  0.00     0.002 A 
ATOM     80  C   UNL A   1      41.531  23.368  26.746  1.00  0.00     0.091 A 
ATOM     81  F   UNL A   1      43.370  22.196  27.722  1.00  0.00    -0.205 F 
ATOM     82  C   UNL A   1      41.008  24.544  26.189  1.00  0.00     0.022 A 
BRANCH  80  83
ATOM     83  S   UNL A   1      40.454  21.932  26.741  1.00  0.00     0.127 S 
ATOM     84  O   UNL A   1      41.121  21.084  25.755  1.00  0.00    -0.237 OA
ATOM     85  O   UNL A   1      40.554  21.441  28.117  1.00  0.00    -0.237 OA
ATOM     86  O   UNL A   1      39.139  22.428  26.368  1.00  0.00    -0.744 OA
ENDBRANCH  80  83
ENDBRANCH  52  76
BRANCH  64  87
ATOM     87  C   UNL A   1      49.487  26.976  23.673  1.00  0.00     0.023 A 
ATOM     88  C   UNL A   1      48.697  27.573  22.678  1.00  0.00     0.012 A 
ATOM     89  C   UNL A   1      50.879  26.878  23.400  1.00  0.00     0.148 A 
ATOM     90  C   UNL A   1      49.207  27.890  21.424  1.00  0.00     0.002 A 
ATOM     91  C   UNL A   1      51.413  27.395  22.233  1.00  0.00     0.091 A 
ATOM     92  F   UNL A   1      51.707  26.260  24.254  1.00  0.00    -0.205 F 
ATOM     93  C   UNL A   1      50.573  27.829  21.210  1.00  0.00     0.022 A 
BRANCH  91  94
ATOM     94  S   UNL A   1      53.176  27.679  22.054  1.00  0.00     0.127 S 
ATOM     95  O   UNL A   1      53.472  28.453  23.256  1.00  0.00    -0.237 OA
ATOM     96  O   UNL A   1      53.708  26.314  22.058  1.00  0.00    -0.237 OA
ATOM     97  O   UNL A   1      53.336  28.379  20.786  1.00  0.00    -0.744 OA
ENDBRANCH  91  94
ENDBRANCH  64  87
ENDBRANCH  38  39
ENDBRANCH  31  33
ENDBRANCH  30  31
ENDBRANCH  29  30
ENDBRANCH  28  29
ENDBRANCH  27  28
ENDBRANCH  26  27
ENDBRANCH   1  26
TORSDOF 23
ENDMDL
MODEL 2
REMARK VINA RESULT:     -10.3      8.610     16.155
REMARK SMILES Cc1ccc(Nc2c(Cl)cccc2Cl)c(CC(=O)OCCOCCOCCOC(=O)c2ccc(-c3c4nc(c(-c5cccc(S(=O)(=O)[O-])c5F)c5ccc([nH]5)c(-c5cccc(S(=O)(=O)[O-])c5F)c5nc(c(-c6cccc(S(=O)(=O)[O-])c6F)c6ccc3[nH]6)C=C5)C=C4)cc2)c1
REMARK SMILES IDX 23 1 22 2 21 3 20 4 19 5 17 6 18 7 16 8 15 9 1 10 2 11 3 12
REMARK SMILES IDX 94 13 4 14 5 15 6 16 7 18 8 19 13 20 9 21 10 22 12 23 14 24
REMARK SMILES IDX 11 25 24 26 25 27 26 28 27 29 28 30 29 31 30 32 31 33 32 34
REMARK SMILES IDX 93 35 33 36 92 37 34 38 35 39 36 40 86 41 37 42 91 43 85 44
REMARK SMILES IDX 87 45 38 46 90 47 84 48 83 49 39 51 71 52 51 53 70 54 52 55
REMARK SMILES IDX 55 56 69 57 88 58 53 59 54 60 68 62 89 63 56 64 40 65 41 66
REMARK SMILES IDX 49 67 42 68 44 69 50 70 43 71 45 72 46 73 47 74 48 75 72 76
REMARK SMILES IDX 73 77 81 78 74 79 76 80 82 81 75 82 77 83 78 84 79 85 80 86
REMARK SMILES IDX 57 87 58 88 66 89 59 90 61 91 67 92 60 93 62 94 63 95 64 96
REMARK SMILES IDX 65 97
REMARK H PARENT 6 17 87 50 55 61
REMARK Flexibility Score: inf
ROOT
ATOM      1  C   UNL A   1      43.638  36.450  27.930  1.00  0.00     0.188 C 
ENDROOT
BRANCH   1   2
ATOM      2  O   UNL A   1      44.648  37.137  27.231  1.00  0.00    -0.376 OA
BRANCH   2   3
ATOM      3  C   UNL A   1      44.478  38.490  26.830  1.00  0.00     0.202 C 
BRANCH   3   4
ATOM      4  C   UNL A   1      45.419  39.645  26.116  1.00  0.00     0.261 C 
BRANCH   4   5
ATOM      5  O   UNL A   1      45.280  40.986  24.866  1.00  0.00    -0.463 OA
BRANCH   5   6
ATOM      6  C   UNL A   1      44.529  42.446  24.569  1.00  0.00     0.310 C 
ATOM      7  O   UNL A   1      43.358  42.852  24.661  1.00  0.00    -0.252 OA
BRANCH   6   8
ATOM      8  C   UNL A   1      45.408  43.544  24.452  1.00  0.00     0.160 C 
BRANCH   8   9
ATOM      9  C   UNL A   1      46.057  43.650  25.754  1.00  0.00    -0.013 A 
ATOM     10  C   UNL A   1      49.015  46.176  25.441  1.00  0.00     0.044 C 
ATOM     11  C   UNL A   1      47.878  45.413  26.031  1.00  0.00    -0.051 A 
ATOM     12  C   UNL A   1      47.261  45.757  27.189  1.00  0.00     0.005 A 
ATOM     13  C   UNL A   1      47.287  44.378  25.349  1.00  0.00     0.009 A 
ATOM     14  C   UNL A   1      46.147  44.996  27.625  1.00  0.00     0.026 A 
ATOM     15  C   UNL A   1      45.467  43.609  27.066  1.00  0.00     0.042 A 
BRANCH  15  16
ATOM     16  N   UNL A   1      44.150  42.526  28.154  1.00  0.00    -0.353 N 
ATOM     17  H   UNL A   1      43.503  42.037  27.594  1.00  0.00     0.167 HD
BRANCH  16  18
ATOM     18  C   UNL A   1      43.888  42.249  29.962  1.00  0.00     0.076 A 
ATOM     19  C   UNL A   1      43.459  40.919  30.645  1.00  0.00     0.066 A 
ATOM     20  C   UNL A   1      43.573  43.358  30.800  1.00  0.00     0.066 A 
ATOM     21  Cl  UNL A   1      43.788  39.183  30.350  1.00  0.00    -0.082 Cl
ATOM     22  C   UNL A   1      42.683  40.863  31.834  1.00  0.00     0.023 A 
ATOM     23  C   UNL A   1      42.808  43.205  32.017  1.00  0.00     0.023 A 
ATOM     24  Cl  UNL A   1      44.079  44.972  30.673  1.00  0.00    -0.082 Cl
ATOM     25  C   UNL A   1      42.321  41.999  32.498  1.00  0.00     0.003 A 
ENDBRANCH  16  18
ENDBRANCH  15  16
ENDBRANCH   8   9
ENDBRANCH   6   8
ENDBRANCH   5   6
ENDBRANCH   4   5
ENDBRANCH   3   4
ENDBRANCH   2   3
ENDBRANCH   1   2
BRANCH   1  26
ATOM     26  C   UNL A   1      43.060  35.215  27.284  1.00  0.00     0.188 C 
BRANCH  26  27
ATOM     27  O   UNL A   1      42.901  35.352  25.896  1.00  0.00    -0.376 OA
BRANCH  27  28
ATOM     28  C   UNL A   1      43.503  34.342  25.113  1.00  0.00     0.202 C 
BRANCH  28  29
ATOM     29  C   UNL A   1      44.857  33.702  25.609  1.00  0.00     0.261 C 
BRANCH  29  30
ATOM     30  O   UNL A   1      44.935  32.218  25.591  1.00  0.00    -0.460 OA
BRANCH  30  31
ATOM     31  C   UNL A   1      45.967  31.467  26.222  1.00  0.00     0.338 C 
ATOM     32  O   UNL A   1      47.061  31.995  26.286  1.00  0.00    -0.246 OA
BRANCH  31  33
ATOM     33  C   UNL A   1      45.443  29.935  26.814  1.00  0.00     0.060 A 
ATOM     34  C   UNL A   1      44.000  28.622  26.615  1.00  0.00     0.016 A 
ATOM     35  C   UNL A   1      45.356  30.819  28.378  1.00  0.00     0.016 A 
ATOM     36  C   UNL A   1      42.548  28.674  27.848  1.00  0.00     0.010 A 
ATOM     37  C   UNL A   1      43.951  30.798  29.381  1.00  0.00     0.010 A 
ATOM     38  C   UNL A   1      42.445  29.854  29.255  1.00  0.00    -0.014 A 
BRANCH  38  39
ATOM     39  C   UNL A   1      41.351  30.081  30.810  1.00  0.00     0.031 A 
ATOM     40  C   UNL A   1      39.851  31.297  30.963  1.00  0.00     0.074 A 
ATOM     41  C   UNL A   1      41.322  29.229  31.865  1.00  0.00     0.049 A 
ATOM     42  N   UNL A   1      39.765  32.407  31.683  1.00  0.00    -0.248 NA
ATOM     43  C   UNL A   1      38.659  31.603  29.805  1.00  0.00     0.031 C 
ATOM     44  C   UNL A   1      40.229  29.037  32.847  1.00  0.00     0.029 A 
ATOM     45  N   UNL A   1      42.192  28.204  32.220  1.00  0.00    -0.354 N 
ATOM     46  C   UNL A   1      38.668  33.191  31.175  1.00  0.00     0.074 A 
ATOM     47  C   UNL A   1      38.518  32.913  29.806  1.00  0.00     0.031 C 
ATOM     48  C   UNL A   1      40.651  28.226  33.841  1.00  0.00     0.029 A 
ATOM     49  C   UNL A   1      42.066  27.998  33.605  1.00  0.00     0.049 A 
ATOM     50  H   UNL A   1      42.789  27.712  31.611  1.00  0.00     0.167 HD
ATOM     51  C   UNL A   1      37.516  33.413  31.887  1.00  0.00     0.034 A 
ATOM     52  C   UNL A   1      43.113  28.423  34.362  1.00  0.00     0.034 A 
ATOM     53  C   UNL A   1      37.673  32.671  33.126  1.00  0.00     0.049 A 
ATOM     54  C   UNL A   1      42.676  29.693  35.066  1.00  0.00     0.074 A 
ATOM     55  C   UNL A   1      37.274  31.415  33.550  1.00  0.00     0.029 A 
ATOM     56  N   UNL A   1      38.785  33.000  33.873  1.00  0.00    -0.354 N 
ATOM     57  N   UNL A   1      41.657  30.428  34.693  1.00  0.00    -0.248 NA
ATOM     58  C   UNL A   1      43.222  30.117  36.345  1.00  0.00     0.031 C 
ATOM     59  C   UNL A   1      38.209  30.991  34.553  1.00  0.00     0.029 A 
ATOM     60  C   UNL A   1      39.177  31.975  34.710  1.00  0.00     0.049 A 
ATOM     61  H   UNL A   1      39.247  33.867  33.817  1.00  0.00     0.167 HD
ATOM     62  C   UNL A   1      41.360  31.349  35.643  1.00  0.00     0.074 A 
ATOM     63  C   UNL A   1      42.373  31.109  36.663  1.00  0.00     0.031 C 
ATOM     64  C   UNL A   1      40.323  32.240  35.571  1.00  0.00     0.034 A 
BRANCH  51  65
ATOM     65  C   UNL A   1      36.160  33.913  31.301  1.00  0.00     0.023 A 
ATOM     66  C   UNL A   1      35.888  33.533  29.970  1.00  0.00     0.012 A 
ATOM     67  C   UNL A   1      35.118  34.673  31.937  1.00  0.00     0.148 A 
ATOM     68  C   UNL A   1      34.704  33.876  29.301  1.00  0.00     0.002 A 
ATOM     69  C   UNL A   1      33.951  35.064  31.245  1.00  0.00     0.091 A 
ATOM     70  F   UNL A   1      35.209  34.983  33.239  1.00  0.00    -0.205 F 
ATOM     71  C   UNL A   1      33.740  34.650  29.930  1.00  0.00     0.022 A 
BRANCH  69  72
ATOM     72  S   UNL A   1      32.659  36.134  31.936  1.00  0.00     0.127 S 
ATOM     73  O   UNL A   1      32.170  36.846  30.751  1.00  0.00    -0.237 OA
ATOM     74  O   UNL A   1      31.707  35.173  32.490  1.00  0.00    -0.237 OA
ATOM     75  O   UNL A   1      33.324  36.997  32.905  1.00  0.00    -0.744 OA
ENDBRANCH  69  72
ENDBRANCH  51  65
BRANCH  52  76
ATOM     76  C   UNL A   1      44.399  28.108  33.630  1.00  0.00     0.023 A 
ATOM     77  C   UNL A   1      45.004  29.200  32.930  1.00  0.00     0.012 A 
ATOM     78  C   UNL A   1      45.212  27.015  33.978  1.00  0.00     0.148 A 
ATOM     79  C   UNL A   1      46.382  29.259  32.720  1.00  0.00     0.002 A 
ATOM     80  C   UNL A   1      46.583  27.060  33.711  1.00  0.00     0.091 A 
ATOM     81  F   UNL A   1      44.653  25.977  34.611  1.00  0.00    -0.205 F 
ATOM     82  C   UNL A   1      47.169  28.189  33.121  1.00  0.00     0.022 A 
BRANCH  80  83
ATOM     83  S   UNL A   1      47.688  25.704  34.115  1.00  0.00     0.127 S 
ATOM     84  O   UNL A   1      47.664  25.748  35.576  1.00  0.00    -0.237 OA
ATOM     85  O   UNL A   1      47.008  24.542  33.540  1.00  0.00    -0.237 OA
ATOM     86  O   UNL A   1      48.959  26.033  33.490  1.00  0.00    -0.744 OA
ENDBRANCH  80  83
ENDBRANCH  52  76
BRANCH  64  87
ATOM     87  C   UNL A   1      40.358  33.562  36.318  1.00  0.00     0.023 A 
ATOM     88  C   UNL A   1      39.517  33.785  37.421  1.00  0.00     0.012 A 
ATOM     89  C   UNL A   1      41.357  34.543  36.076  1.00  0.00     0.148 A 
ATOM     90  C   UNL A   1      39.538  34.979  38.132  1.00  0.00     0.002 A 
ATOM     91  C   UNL A   1      41.510  35.627  36.924  1.00  0.00     0.091 A 
ATOM     92  F   UNL A   1      42.162  34.459  35.008  1.00  0.00    -0.205 F 
ATOM     93  C   UNL A   1      40.554  35.890  37.903  1.00  0.00     0.022 A 
BRANCH  91  94
ATOM     94  S   UNL A   1      43.000  36.626  36.909  1.00  0.00     0.127 S 
ATOM     95  O   UNL A   1      44.039  35.606  37.013  1.00  0.00    -0.237 OA
ATOM     96  O   UNL A   1      42.915  37.283  35.602  1.00  0.00    -0.237 OA
ATOM     97  O   UNL A   1      42.878  37.534  38.042  1.00  0.00    -0.744 OA
ENDBRANCH  91  94
ENDBRANCH  64  87
ENDBRANCH  38  39
ENDBRANCH  31  33
ENDBRANCH  30  31
ENDBRANCH  29  30
ENDBRANCH  28  29
ENDBRANCH  27  28
ENDBRANCH  26  27
ENDBRANCH   1  26
TORSDOF 23
ENDMDL
MODEL 3
REMARK VINA RESULT:     -10.3      8.535     15.634
REMARK SMILES Cc1ccc(Nc2c(Cl)cccc2Cl)c(CC(=O)OCCOCCOCCOC(=O)c2ccc(-c3c4nc(c(-c5cccc(S(=O)(=O)[O-])c5F)c5ccc([nH]5)c(-c5cccc(S(=O)(=O)[O-])c5F)c5nc(c(-c6cccc(S(=O)(=O)[O-])c6F)c6ccc3[nH]6)C=C5)C=C4)cc2)c1
REMARK SMILES IDX 23 1 22 2 21 3 20 4 19 5 17 6 18 7 16 8 15 9 1 10 2 11 3 12
REMARK SMILES IDX 94 13 4 14 5 15 6 16 7 18 8 19 13 20 9 21 10 22 12 23 14 24
REMARK SMILES IDX 11 25 24 26 25 27 26 28 27 29 28 30 29 31 30 32 31 33 32 34
REMARK SMILES IDX 93 35 33 36 92 37 34 38 35 39 36 40 86 41 37 42 91 43 85 44
REMARK SMILES IDX 87 45 38 46 90 47 84 48 83 49 39 51 71 52 51 53 70 54 52 55
REMARK SMILES IDX 55 56 69 57 88 58 53 59 54 60 68 62 89 63 56 64 40 65 41 66
REMARK SMILES IDX 49 67 42 68 44 69 50 70 43 71 45 72 46 73 47 74 48 75 72 76
REMARK SMILES IDX 73 77 81 78 74 79 76 80 82 81 75 82 77 83 78 84 79 85 80 86
REMARK SMILES IDX 57 87 58 88 66 89 59 90 61 91 67 92 60 93 62 94 63 95 64 96
REMARK SMILES IDX 65 97
REMARK H PARENT 6 17 87 50 55 61
REMARK Flexibility Score: inf
ROOT
ATOM      1  C   UNL A   1      43.152  35.508  28.781  1.00  0.00     0.188 C 
ENDROOT
BRANCH   1   2
ATOM      2  O   UNL A   1      42.302  36.083  27.818  1.00  0.00    -0.376 OA
BRANCH   2   3
ATOM      3  C   UNL A   1      42.598  37.343  27.232  1.00  0.00     0.202 C 
BRANCH   3   4
ATOM      4  C   UNL A   1      42.702  38.905  27.761  1.00  0.00     0.261 C 
BRANCH   4   5
ATOM      5  O   UNL A   1      41.634  40.200  28.512  1.00  0.00    -0.463 OA
BRANCH   5   6
ATOM      6  C   UNL A   1      41.159  40.838  29.979  1.00  0.00     0.310 C 
ATOM      7  O   UNL A   1      40.061  40.989  30.543  1.00  0.00    -0.252 OA
BRANCH   6   8
ATOM      8  C   UNL A   1      42.204  40.997  30.915  1.00  0.00     0.160 C 
BRANCH   8   9
ATOM      9  C   UNL A   1      42.840  42.261  30.560  1.00  0.00    -0.013 A 
ATOM     10  C   UNL A   1      42.445  44.711  33.572  1.00  0.00     0.044 C 
ATOM     11  C   UNL A   1      43.030  44.042  32.375  1.00  0.00    -0.051 A 
ATOM     12  C   UNL A   1      44.322  44.189  31.988  1.00  0.00     0.005 A 
ATOM     13  C   UNL A   1      42.319  43.108  31.665  1.00  0.00     0.009 A 
ATOM     14  C   UNL A   1      44.790  43.454  30.869  1.00  0.00     0.026 A 
ATOM     15  C   UNL A   1      44.026  42.491  29.778  1.00  0.00     0.042 A 
BRANCH  15  16
ATOM     16  N   UNL A   1      44.882  41.925  28.036  1.00  0.00    -0.353 N 
ATOM     17  H   UNL A   1      45.234  41.006  28.063  1.00  0.00     0.167 HD
BRANCH  16  18
ATOM     18  C   UNL A   1      45.154  42.749  26.404  1.00  0.00     0.076 A 
ATOM     19  C   UNL A   1      46.229  43.823  26.074  1.00  0.00     0.066 A 
ATOM     20  C   UNL A   1      44.078  42.823  25.471  1.00  0.00     0.066 A 
ATOM     21  Cl  UNL A   1      47.917  44.124  26.592  1.00  0.00    -0.082 Cl
ATOM     22  C   UNL A   1      46.041  44.849  25.108  1.00  0.00     0.023 A 
ATOM     23  C   UNL A   1      43.986  43.884  24.494  1.00  0.00     0.023 A 
ATOM     24  Cl  UNL A   1      42.819  41.719  25.201  1.00  0.00    -0.082 Cl
ATOM     25  C   UNL A   1      44.909  44.908  24.348  1.00  0.00     0.003 A 
ENDBRANCH  16  18
ENDBRANCH  15  16
ENDBRANCH   8   9
ENDBRANCH   6   8
ENDBRANCH   5   6
ENDBRANCH   4   5
ENDBRANCH   3   4
ENDBRANCH   2   3
ENDBRANCH   1   2
BRANCH   1  26
ATOM     26  C   UNL A   1      44.582  35.243  28.378  1.00  0.00     0.188 C 
BRANCH  26  27
ATOM     27  O   UNL A   1      44.685  34.593  27.138  1.00  0.00    -0.376 OA
BRANCH  27  28
ATOM     28  C   UNL A   1      44.643  33.182  27.186  1.00  0.00     0.202 C 
BRANCH  28  29
ATOM     29  C   UNL A   1      45.876  32.366  26.637  1.00  0.00     0.261 C 
BRANCH  29  30
ATOM     30  O   UNL A   1      45.567  31.133  25.867  1.00  0.00    -0.460 OA
BRANCH  30  31
ATOM     31  C   UNL A   1      46.172  29.868  26.112  1.00  0.00     0.338 C 
ATOM     32  O   UNL A   1      47.387  29.827  26.053  1.00  0.00    -0.246 OA
BRANCH  31  33
ATOM     33  C   UNL A   1      45.042  28.622  26.486  1.00  0.00     0.060 A 
ATOM     34  C   UNL A   1      43.187  28.078  26.153  1.00  0.00     0.016 A 
ATOM     35  C   UNL A   1      45.295  29.203  28.169  1.00  0.00     0.016 A 
ATOM     36  C   UNL A   1      41.862  28.536  27.443  1.00  0.00     0.010 A 
ATOM     37  C   UNL A   1      43.987  29.612  29.218  1.00  0.00     0.010 A 
ATOM     38  C   UNL A   1      42.227  29.414  29.016  1.00  0.00    -0.014 A 
BRANCH  38  39
ATOM     39  C   UNL A   1      41.292  29.829  30.636  1.00  0.00     0.031 A 
ATOM     40  C   UNL A   1      39.826  31.083  30.798  1.00  0.00     0.074 A 
ATOM     41  C   UNL A   1      41.358  29.095  31.774  1.00  0.00     0.049 A 
ATOM     42  N   UNL A   1      39.820  32.266  31.398  1.00  0.00    -0.248 NA
ATOM     43  C   UNL A   1      38.530  31.288  29.733  1.00  0.00     0.031 C 
ATOM     44  C   UNL A   1      40.363  29.031  32.871  1.00  0.00     0.029 A 
ATOM     45  N   UNL A   1      42.248  28.097  32.154  1.00  0.00    -0.354 N 
ATOM     46  C   UNL A   1      38.687  33.012  30.916  1.00  0.00     0.074 A 
ATOM     47  C   UNL A   1      38.402  32.593  29.605  1.00  0.00     0.031 C 
ATOM     48  C   UNL A   1      40.872  28.323  33.903  1.00  0.00     0.029 A 
ATOM     49  C   UNL A   1      42.255  28.042  33.558  1.00  0.00     0.049 A 
ATOM     50  H   UNL A   1      42.778  27.530  31.548  1.00  0.00     0.167 HD
ATOM     51  C   UNL A   1      37.612  33.333  31.706  1.00  0.00     0.034 A 
ATOM     52  C   UNL A   1      43.375  28.525  34.161  1.00  0.00     0.034 A 
ATOM     53  C   UNL A   1      37.881  32.725  32.997  1.00  0.00     0.049 A 
ATOM     54  C   UNL A   1      43.020  29.871  34.762  1.00  0.00     0.074 A 
ATOM     55  C   UNL A   1      37.513  31.529  33.591  1.00  0.00     0.029 A 
ATOM     56  N   UNL A   1      39.064  33.109  33.595  1.00  0.00    -0.354 N 
ATOM     57  N   UNL A   1      41.976  30.582  34.410  1.00  0.00    -0.248 NA
ATOM     58  C   UNL A   1      43.692  30.418  35.929  1.00  0.00     0.031 C 
ATOM     59  C   UNL A   1      38.537  31.197  34.540  1.00  0.00     0.029 A 
ATOM     60  C   UNL A   1      39.525  32.172  34.497  1.00  0.00     0.049 A 
ATOM     61  H   UNL A   1      39.526  33.955  33.401  1.00  0.00     0.167 HD
ATOM     62  C   UNL A   1      41.782  31.606  35.279  1.00  0.00     0.074 A 
ATOM     63  C   UNL A   1      42.887  31.456  36.218  1.00  0.00     0.031 C 
ATOM     64  C   UNL A   1      40.753  32.504  35.211  1.00  0.00     0.034 A 
BRANCH  51  65
ATOM     65  C   UNL A   1      36.210  33.794  31.202  1.00  0.00     0.023 A 
ATOM     66  C   UNL A   1      35.809  33.285  29.949  1.00  0.00     0.012 A 
ATOM     67  C   UNL A   1      35.240  34.635  31.851  1.00  0.00     0.148 A 
ATOM     68  C   UNL A   1      34.569  33.579  29.363  1.00  0.00     0.002 A 
ATOM     69  C   UNL A   1      34.016  34.973  31.234  1.00  0.00     0.091 A 
ATOM     70  F   UNL A   1      35.457  35.075  33.098  1.00  0.00    -0.205 F 
ATOM     71  C   UNL A   1      33.677  34.430  29.995  1.00  0.00     0.022 A 
BRANCH  69  72
ATOM     72  S   UNL A   1      32.805  36.132  31.929  1.00  0.00     0.127 S 
ATOM     73  O   UNL A   1      32.457  36.959  30.769  1.00  0.00    -0.237 OA
ATOM     74  O   UNL A   1      31.731  35.247  32.375  1.00  0.00    -0.237 OA
ATOM     75  O   UNL A   1      33.501  36.862  32.982  1.00  0.00    -0.744 OA
ENDBRANCH  69  72
ENDBRANCH  51  65
BRANCH  52  76
ATOM     76  C   UNL A   1      44.580  28.107  33.349  1.00  0.00     0.023 A 
ATOM     77  C   UNL A   1      45.101  29.093  32.451  1.00  0.00     0.012 A 
ATOM     78  C   UNL A   1      45.433  27.064  33.751  1.00  0.00     0.148 A 
ATOM     79  C   UNL A   1      46.450  29.115  32.095  1.00  0.00     0.002 A 
ATOM     80  C   UNL A   1      46.769  27.065  33.341  1.00  0.00     0.091 A 
ATOM     81  F   UNL A   1      44.949  26.123  34.570  1.00  0.00    -0.205 F 
ATOM     82  C   UNL A   1      47.282  28.102  32.549  1.00  0.00     0.022 A 
BRANCH  80  83
ATOM     83  S   UNL A   1      47.919  25.767  33.804  1.00  0.00     0.127 S 
ATOM     84  O   UNL A   1      49.048  26.067  32.925  1.00  0.00    -0.237 OA
ATOM     85  O   UNL A   1      48.174  26.041  35.219  1.00  0.00    -0.237 OA
ATOM     86  O   UNL A   1      47.226  24.516  33.544  1.00  0.00    -0.744 OA
ENDBRANCH  80  83
ENDBRANCH  52  76
BRANCH  64  87
ATOM     87  C   UNL A   1      40.872  33.897  35.803  1.00  0.00     0.023 A 
ATOM     88  C   UNL A   1      40.286  34.203  37.042  1.00  0.00     0.012 A 
ATOM     89  C   UNL A   1      41.731  34.885  35.250  1.00  0.00     0.148 A 
ATOM     90  C   UNL A   1      40.392  35.465  37.615  1.00  0.00     0.002 A 
ATOM     91  C   UNL A   1      42.003  36.057  35.935  1.00  0.00     0.091 A 
ATOM     92  F   UNL A   1      42.282  34.720  34.039  1.00  0.00    -0.205 F 
ATOM     93  C   UNL A   1      41.275  36.385  37.077  1.00  0.00     0.022 A 
BRANCH  91  94
ATOM     94  S   UNL A   1      43.389  37.105  35.489  1.00  0.00     0.127 S 
ATOM     95  O   UNL A   1      44.365  36.121  35.030  1.00  0.00    -0.237 OA
ATOM     96  O   UNL A   1      42.815  37.938  34.429  1.00  0.00    -0.237 OA
ATOM     97  O   UNL A   1      43.738  37.836  36.700  1.00  0.00    -0.744 OA
ENDBRANCH  91  94
ENDBRANCH  64  87
ENDBRANCH  38  39
ENDBRANCH  31  33
ENDBRANCH  30  31
ENDBRANCH  29  30
ENDBRANCH  28  29
ENDBRANCH  27  28
ENDBRANCH  26  27
ENDBRANCH   1  26
TORSDOF 23
ENDMDL
