MODEL 1
REMARK VINA RESULT:     -10.4      0.000      0.000
REMARK SMILES CCCc1cc(OC(F)(F)F)cc2c1O[C@@H](C(F)(F)F)C(C(=O)OCCOCCOCCOC(=O)c1ccc(-c3c4nc(c(-c5cccc(S(=O)(=O)[O-])c5F)c5ccc([nH]5)c(-c5cccc(S(=O)(=O)[O-])c5F)c5nc(c(-c6cccc(S(=O)(=O)[O-])c6F)c6ccc3[nH]6)C=C5)C=C4)cc1)=C2
REMARK SMILES IDX 29 1 28 2 27 3 26 4 25 5 24 6 22 7 23 8 21 9 4 10 5 11 14 12
REMARK SMILES IDX 6 13 13 14 15 15 12 16 99 17 16 18 3 19 2 20 1 21 7 22 8 23
REMARK SMILES IDX 9 24 10 25 11 26 17 27 18 28 19 29 20 30 30 31 31 32 32 33
REMARK SMILES IDX 33 34 34 35 35 36 36 37 37 38 98 39 38 40 97 41 39 42 40 43
REMARK SMILES IDX 41 44 91 45 42 46 96 47 90 48 92 49 43 50 95 51 89 52 88 53
REMARK SMILES IDX 44 55 76 56 56 57 75 58 57 59 60 60 74 61 93 62 58 63 59 64
REMARK SMILES IDX 73 66 94 67 61 68 45 69 46 70 54 71 47 72 49 73 55 74 48 75
REMARK SMILES IDX 50 76 51 77 52 78 53 79 77 80 78 81 86 82 79 83 81 84 87 85
REMARK SMILES IDX 80 86 82 87 83 88 84 89 85 90 62 91 63 92 71 93 64 94 66 95
REMARK SMILES IDX 72 96 65 97 67 98 68 99 69 100 70 101
REMARK H PARENT 92 54 60 65
REMARK Flexibility Score: inf
ROOT
ATOM      1  C   UNL A   1      32.235  29.518  25.528  1.00  0.00     0.188 C 
ENDROOT
BRANCH   1   2
ATOM      2  C   UNL A   1      32.611  29.134  24.082  1.00  0.00     0.188 C 
BRANCH   2   3
ATOM      3  O   UNL A   1      31.488  28.871  23.251  1.00  0.00    -0.376 OA
BRANCH   3   4
ATOM      4  C   UNL A   1      30.897  27.588  23.405  1.00  0.00     0.202 C 
BRANCH   4   5
ATOM      5  C   UNL A   1      31.332  26.611  22.312  1.00  0.00     0.261 C 
BRANCH   5   6
ATOM      6  O   UNL A   1      31.197  25.230  22.688  1.00  0.00    -0.460 OA
BRANCH   6   7
ATOM      7  C   UNL A   1      30.960  24.972  23.994  1.00  0.00     0.338 C 
ATOM      8  O   UNL A   1      30.113  25.510  24.685  1.00  0.00    -0.246 OA
BRANCH   7   9
ATOM      9  C   UNL A   1      31.846  23.884  24.454  1.00  0.00     0.087 C 
ATOM     10  C   UNL A   1      34.822  20.991  25.055  1.00  0.00    -0.002 A 
ATOM     11  C   UNL A   1      34.506  19.649  24.773  1.00  0.00     0.054 A 
ATOM     12  C   UNL A   1      33.812  21.954  24.884  1.00  0.00     0.131 A 
ATOM     13  C   UNL A   1      33.217  19.262  24.394  1.00  0.00     0.130 A 
ATOM     14  C   UNL A   1      32.529  21.584  24.449  1.00  0.00     0.021 A 
ATOM     15  O   UNL A   1      34.142  23.277  25.053  1.00  0.00    -0.475 OA
ATOM     16  C   UNL A   1      32.230  20.236  24.241  1.00  0.00     0.058 A 
ATOM     17  C   UNL A   1      31.571  22.623  24.079  1.00  0.00     0.027 C 
ATOM     18  C   UNL A   1      33.029  24.166  25.348  1.00  0.00     0.316 C 
BRANCH  10  19
ATOM     19  C   UNL A   1      36.242  21.394  25.409  1.00  0.00     0.039 C 
BRANCH  19  20
ATOM     20  C   UNL A   1      37.375  20.864  24.515  1.00  0.00     0.001 C 
ATOM     21  C   UNL A   1      38.153  19.683  25.082  1.00  0.00     0.004 C 
ENDBRANCH  19  20
ENDBRANCH  10  19
BRANCH  13  22
ATOM     22  O   UNL A   1      32.810  17.989  24.111  1.00  0.00    -0.406 OA
BRANCH  22  23
ATOM     23  C   UNL A   1      33.775  16.952  24.182  1.00  0.00     0.573 C 
ATOM     24  F   UNL A   1      34.205  16.772  25.449  1.00  0.00    -0.132 F 
ATOM     25  F   UNL A   1      33.285  15.789  23.701  1.00  0.00    -0.132 F 
ATOM     26  F   UNL A   1      34.842  17.300  23.427  1.00  0.00    -0.132 F 
ENDBRANCH  22  23
ENDBRANCH  13  22
BRANCH  18  27
ATOM     27  C   UNL A   1      33.557  25.608  25.418  1.00  0.00     0.430 C 
ATOM     28  F   UNL A   1      32.685  26.409  26.076  1.00  0.00    -0.167 F 
ATOM     29  F   UNL A   1      34.713  25.646  26.126  1.00  0.00    -0.167 F 
ATOM     30  F   UNL A   1      33.807  26.131  24.203  1.00  0.00    -0.167 F 
ENDBRANCH  18  27
ENDBRANCH   7   9
ENDBRANCH   6   7
ENDBRANCH   5   6
ENDBRANCH   4   5
ENDBRANCH   3   4
ENDBRANCH   2   3
ENDBRANCH   1   2
BRANCH   1  31
ATOM     31  O   UNL A   1      31.785  30.832  25.838  1.00  0.00    -0.376 OA
BRANCH  31  32
ATOM     32  C   UNL A   1      32.408  31.549  26.894  1.00  0.00     0.202 C 
BRANCH  32  33
ATOM     33  C   UNL A   1      32.084  33.039  27.038  1.00  0.00     0.261 C 
BRANCH  33  34
ATOM     34  O   UNL A   1      32.671  33.666  28.188  1.00  0.00    -0.460 OA
BRANCH  34  35
ATOM     35  C   UNL A   1      33.875  34.250  27.975  1.00  0.00     0.338 C 
ATOM     36  O   UNL A   1      34.110  35.213  27.263  1.00  0.00    -0.246 OA
BRANCH  35  37
ATOM     37  C   UNL A   1      34.890  33.661  28.871  1.00  0.00     0.060 A 
ATOM     38  C   UNL A   1      36.208  34.129  28.766  1.00  0.00     0.016 A 
ATOM     39  C   UNL A   1      34.578  32.619  29.746  1.00  0.00     0.016 A 
ATOM     40  C   UNL A   1      37.225  33.533  29.509  1.00  0.00     0.010 A 
ATOM     41  C   UNL A   1      35.605  32.006  30.473  1.00  0.00     0.010 A 
ATOM     42  C   UNL A   1      36.936  32.437  30.333  1.00  0.00    -0.014 A 
BRANCH  42  43
ATOM     43  C   UNL A   1      38.045  31.637  30.906  1.00  0.00     0.031 A 
ATOM     44  C   UNL A   1      38.461  31.895  32.329  1.00  0.00     0.074 A 
ATOM     45  C   UNL A   1      38.679  30.704  30.175  1.00  0.00     0.049 A 
ATOM     46  N   UNL A   1      39.420  31.343  33.025  1.00  0.00    -0.248 NA
ATOM     47  C   UNL A   1      37.690  32.911  33.066  1.00  0.00     0.031 C 
ATOM     48  C   UNL A   1      38.365  30.354  28.791  1.00  0.00     0.029 A 
ATOM     49  N   UNL A   1      39.744  29.898  30.495  1.00  0.00    -0.354 N 
ATOM     50  C   UNL A   1      39.385  31.957  34.271  1.00  0.00     0.074 A 
ATOM     51  C   UNL A   1      38.315  32.930  34.234  1.00  0.00     0.031 C 
ATOM     52  C   UNL A   1      39.243  29.427  28.367  1.00  0.00     0.029 A 
ATOM     53  C   UNL A   1      40.190  29.134  29.442  1.00  0.00     0.049 A 
ATOM     54  H   UNL A   1      40.149  29.869  31.391  1.00  0.00     0.167 HD
ATOM     55  C   UNL A   1      40.162  31.723  35.355  1.00  0.00     0.034 A 
ATOM     56  C   UNL A   1      41.254  28.309  29.353  1.00  0.00     0.034 A 
ATOM     57  C   UNL A   1      41.217  30.749  35.398  1.00  0.00     0.049 A 
ATOM     58  C   UNL A   1      42.124  28.090  30.564  1.00  0.00     0.074 A 
ATOM     59  C   UNL A   1      42.035  30.413  36.463  1.00  0.00     0.029 A 
ATOM     60  N   UNL A   1      41.611  29.962  34.328  1.00  0.00    -0.354 N 
ATOM     61  N   UNL A   1      42.001  28.585  31.773  1.00  0.00    -0.248 NA
ATOM     62  C   UNL A   1      43.264  27.173  30.409  1.00  0.00     0.031 C 
ATOM     63  C   UNL A   1      42.936  29.435  36.029  1.00  0.00     0.029 A 
ATOM     64  C   UNL A   1      42.666  29.148  34.701  1.00  0.00     0.049 A 
ATOM     65  H   UNL A   1      41.201  29.979  33.433  1.00  0.00     0.167 HD
ATOM     66  C   UNL A   1      43.018  28.012  32.528  1.00  0.00     0.074 A 
ATOM     67  C   UNL A   1      43.741  27.120  31.646  1.00  0.00     0.031 C 
ATOM     68  C   UNL A   1      43.336  28.217  33.831  1.00  0.00     0.034 A 
BRANCH  55  69
ATOM     69  C   UNL A   1      39.875  32.518  36.599  1.00  0.00     0.023 A 
ATOM     70  C   UNL A   1      40.615  33.691  36.856  1.00  0.00     0.012 A 
ATOM     71  C   UNL A   1      38.848  32.139  37.484  1.00  0.00     0.148 A 
ATOM     72  C   UNL A   1      40.354  34.459  37.989  1.00  0.00     0.002 A 
ATOM     73  C   UNL A   1      38.569  32.931  38.592  1.00  0.00     0.091 A 
ATOM     74  F   UNL A   1      38.175  31.007  37.236  1.00  0.00    -0.205 F 
ATOM     75  C   UNL A   1      39.327  34.086  38.850  1.00  0.00     0.022 A 
BRANCH  73  76
ATOM     76  S   UNL A   1      37.220  32.569  39.722  1.00  0.00     0.127 S 
ATOM     77  O   UNL A   1      36.071  32.569  38.818  1.00  0.00    -0.237 OA
ATOM     78  O   UNL A   1      37.591  31.251  40.235  1.00  0.00    -0.237 OA
ATOM     79  O   UNL A   1      37.236  33.633  40.717  1.00  0.00    -0.744 OA
ENDBRANCH  73  76
ENDBRANCH  55  69
BRANCH  56  80
ATOM     80  C   UNL A   1      41.538  27.595  28.076  1.00  0.00     0.023 A 
ATOM     81  C   UNL A   1      41.993  28.324  26.961  1.00  0.00     0.012 A 
ATOM     82  C   UNL A   1      41.366  26.201  27.963  1.00  0.00     0.148 A 
ATOM     83  C   UNL A   1      42.245  27.683  25.747  1.00  0.00     0.002 A 
ATOM     84  C   UNL A   1      41.667  25.562  26.765  1.00  0.00     0.091 A 
ATOM     85  F   UNL A   1      40.910  25.528  29.028  1.00  0.00    -0.205 F 
ATOM     86  C   UNL A   1      42.093  26.303  25.653  1.00  0.00     0.022 A 
BRANCH  84  87
ATOM     87  S   UNL A   1      41.605  23.776  26.589  1.00  0.00     0.127 S 
ATOM     88  O   UNL A   1      40.168  23.536  26.477  1.00  0.00    -0.237 OA
ATOM     89  O   UNL A   1      42.363  23.563  25.356  1.00  0.00    -0.237 OA
ATOM     90  O   UNL A   1      42.245  23.243  27.784  1.00  0.00    -0.744 OA
ENDBRANCH  84  87
ENDBRANCH  56  80
BRANCH  68  91
ATOM     91  C   UNL A   1      44.494  27.441  34.405  1.00  0.00     0.023 A 
ATOM     92  C   UNL A   1      45.799  27.962  34.312  1.00  0.00     0.012 A 
ATOM     93  C   UNL A   1      44.276  26.244  35.116  1.00  0.00     0.148 A 
ATOM     94  C   UNL A   1      46.873  27.290  34.894  1.00  0.00     0.002 A 
ATOM     95  C   UNL A   1      45.345  25.603  35.732  1.00  0.00     0.091 A 
ATOM     96  F   UNL A   1      43.029  25.753  35.178  1.00  0.00    -0.205 F 
ATOM     97  C   UNL A   1      46.645  26.119  35.614  1.00  0.00     0.022 A 
BRANCH  95  98
ATOM     98  S   UNL A   1      45.128  24.142  36.757  1.00  0.00     0.127 S 
ATOM     99  O   UNL A   1      44.273  24.652  37.827  1.00  0.00    -0.237 OA
ATOM    100  O   UNL A   1      44.467  23.212  35.840  1.00  0.00    -0.237 OA
ATOM    101  O   UNL A   1      46.467  23.738  37.161  1.00  0.00    -0.744 OA
ENDBRANCH  95  98
ENDBRANCH  68  91
ENDBRANCH  42  43
ENDBRANCH  35  37
ENDBRANCH  34  35
ENDBRANCH  33  34
ENDBRANCH  32  33
ENDBRANCH  31  32
ENDBRANCH   1  31
TORSDOF 25
ENDMDL
MODEL 2
REMARK VINA RESULT:      -9.7      1.530      7.388
REMARK SMILES CCCc1cc(OC(F)(F)F)cc2c1O[C@@H](C(F)(F)F)C(C(=O)OCCOCCOCCOC(=O)c1ccc(-c3c4nc(c(-c5cccc(S(=O)(=O)[O-])c5F)c5ccc([nH]5)c(-c5cccc(S(=O)(=O)[O-])c5F)c5nc(c(-c6cccc(S(=O)(=O)[O-])c6F)c6ccc3[nH]6)C=C5)C=C4)cc1)=C2
REMARK SMILES IDX 29 1 28 2 27 3 26 4 25 5 24 6 22 7 23 8 21 9 4 10 5 11 14 12
REMARK SMILES IDX 6 13 13 14 15 15 12 16 99 17 16 18 3 19 2 20 1 21 7 22 8 23
REMARK SMILES IDX 9 24 10 25 11 26 17 27 18 28 19 29 20 30 30 31 31 32 32 33
REMARK SMILES IDX 33 34 34 35 35 36 36 37 37 38 98 39 38 40 97 41 39 42 40 43
REMARK SMILES IDX 41 44 91 45 42 46 96 47 90 48 92 49 43 50 95 51 89 52 88 53
REMARK SMILES IDX 44 55 76 56 56 57 75 58 57 59 60 60 74 61 93 62 58 63 59 64
REMARK SMILES IDX 73 66 94 67 61 68 45 69 46 70 54 71 47 72 49 73 55 74 48 75
REMARK SMILES IDX 50 76 51 77 52 78 53 79 77 80 78 81 86 82 79 83 81 84 87 85
REMARK SMILES IDX 80 86 82 87 83 88 84 89 85 90 62 91 63 92 71 93 64 94 66 95
REMARK SMILES IDX 72 96 65 97 67 98 68 99 69 100 70 101
REMARK H PARENT 92 54 60 65
REMARK Flexibility Score: inf
ROOT
ATOM      1  C   UNL A   1      31.846  29.216  26.614  1.00  0.00     0.188 C 
ENDROOT
BRANCH   1   2
ATOM      2  C   UNL A   1      32.104  28.017  25.679  1.00  0.00     0.188 C 
BRANCH   2   3
ATOM      3  O   UNL A   1      31.335  28.051  24.483  1.00  0.00    -0.376 OA
BRANCH   3   4
ATOM      4  C   UNL A   1      30.526  26.909  24.241  1.00  0.00     0.202 C 
BRANCH   4   5
ATOM      5  C   UNL A   1      30.980  26.124  23.009  1.00  0.00     0.261 C 
BRANCH   5   6
ATOM      6  O   UNL A   1      31.417  24.787  23.308  1.00  0.00    -0.460 OA
BRANCH   6   7
ATOM      7  C   UNL A   1      31.264  24.365  24.583  1.00  0.00     0.338 C 
ATOM      8  O   UNL A   1      30.455  24.797  25.385  1.00  0.00    -0.246 OA
BRANCH   7   9
ATOM      9  C   UNL A   1      32.187  23.244  24.849  1.00  0.00     0.087 C 
ATOM     10  C   UNL A   1      35.142  20.267  24.833  1.00  0.00    -0.002 A 
ATOM     11  C   UNL A   1      34.743  18.941  24.582  1.00  0.00     0.054 A 
ATOM     12  C   UNL A   1      34.145  21.257  24.870  1.00  0.00     0.131 A 
ATOM     13  C   UNL A   1      33.396  18.595  24.435  1.00  0.00     0.130 A 
ATOM     14  C   UNL A   1      32.794  20.930  24.667  1.00  0.00     0.021 A 
ATOM     15  O   UNL A   1      34.537  22.567  25.007  1.00  0.00    -0.475 OA
ATOM     16  C   UNL A   1      32.425  19.595  24.486  1.00  0.00     0.058 A 
ATOM     17  C   UNL A   1      31.815  22.001  24.502  1.00  0.00     0.027 C 
ATOM     18  C   UNL A   1      33.521  23.474  25.520  1.00  0.00     0.316 C 
BRANCH  10  19
ATOM     19  C   UNL A   1      36.613  20.627  24.932  1.00  0.00     0.039 C 
BRANCH  19  20
ATOM     20  C   UNL A   1      37.622  19.473  25.048  1.00  0.00     0.001 C 
ATOM     21  C   UNL A   1      39.072  19.894  25.254  1.00  0.00     0.004 C 
ENDBRANCH  19  20
ENDBRANCH  10  19
BRANCH  13  22
ATOM     22  O   UNL A   1      32.909  17.339  24.201  1.00  0.00    -0.406 OA
BRANCH  22  23
ATOM     23  C   UNL A   1      33.131  16.347  25.190  1.00  0.00     0.573 C 
ATOM     24  F   UNL A   1      32.508  16.664  26.346  1.00  0.00    -0.132 F 
ATOM     25  F   UNL A   1      32.716  15.132  24.772  1.00  0.00    -0.132 F 
ATOM     26  F   UNL A   1      34.458  16.273  25.440  1.00  0.00    -0.132 F 
ENDBRANCH  22  23
ENDBRANCH  13  22
BRANCH  18  27
ATOM     27  C   UNL A   1      34.092  24.900  25.526  1.00  0.00     0.430 C 
ATOM     28  F   UNL A   1      33.477  25.662  26.462  1.00  0.00    -0.167 F 
ATOM     29  F   UNL A   1      35.405  24.873  25.864  1.00  0.00    -0.167 F 
ATOM     30  F   UNL A   1      33.993  25.507  24.327  1.00  0.00    -0.167 F 
ENDBRANCH  18  27
ENDBRANCH   7   9
ENDBRANCH   6   7
ENDBRANCH   5   6
ENDBRANCH   4   5
ENDBRANCH   3   4
ENDBRANCH   2   3
ENDBRANCH   1   2
BRANCH   1  31
ATOM     31  O   UNL A   1      31.978  30.551  26.141  1.00  0.00    -0.376 OA
BRANCH  31  32
ATOM     32  C   UNL A   1      32.697  31.497  26.918  1.00  0.00     0.202 C 
BRANCH  32  33
ATOM     33  C   UNL A   1      31.994  32.809  27.282  1.00  0.00     0.261 C 
BRANCH  33  34
ATOM     34  O   UNL A   1      32.655  33.573  28.302  1.00  0.00    -0.460 OA
BRANCH  34  35
ATOM     35  C   UNL A   1      33.876  34.053  27.963  1.00  0.00     0.338 C 
ATOM     36  O   UNL A   1      34.146  34.776  27.018  1.00  0.00    -0.246 OA
BRANCH  35  37
ATOM     37  C   UNL A   1      34.862  33.717  29.011  1.00  0.00     0.060 A 
ATOM     38  C   UNL A   1      36.121  34.331  28.947  1.00  0.00     0.016 A 
ATOM     39  C   UNL A   1      34.589  32.764  29.994  1.00  0.00     0.016 A 
ATOM     40  C   UNL A   1      37.124  33.968  29.844  1.00  0.00     0.010 A 
ATOM     41  C   UNL A   1      35.605  32.384  30.878  1.00  0.00     0.010 A 
ATOM     42  C   UNL A   1      36.885  32.960  30.786  1.00  0.00    -0.014 A 
BRANCH  42  43
ATOM     43  C   UNL A   1      38.018  32.386  31.551  1.00  0.00     0.031 A 
ATOM     44  C   UNL A   1      38.775  31.227  30.960  1.00  0.00     0.074 A 
ATOM     45  C   UNL A   1      38.366  32.878  32.753  1.00  0.00     0.049 A 
ATOM     46  N   UNL A   1      39.774  30.548  31.461  1.00  0.00    -0.248 NA
ATOM     47  C   UNL A   1      38.347  30.775  29.625  1.00  0.00     0.031 C 
ATOM     48  C   UNL A   1      37.719  34.002  33.427  1.00  0.00     0.029 A 
ATOM     49  N   UNL A   1      39.339  32.469  33.632  1.00  0.00    -0.354 N 
ATOM     50  C   UNL A   1      40.080  29.575  30.517  1.00  0.00     0.074 A 
ATOM     51  C   UNL A   1      39.157  29.746  29.416  1.00  0.00     0.031 C 
ATOM     52  C   UNL A   1      38.291  34.171  34.634  1.00  0.00     0.029 A 
ATOM     53  C   UNL A   1      39.327  33.157  34.822  1.00  0.00     0.049 A 
ATOM     54  H   UNL A   1      39.982  31.752  33.430  1.00  0.00     0.167 HD
ATOM     55  C   UNL A   1      41.052  28.634  30.553  1.00  0.00     0.034 A 
ATOM     56  C   UNL A   1      40.057  32.975  35.942  1.00  0.00     0.034 A 
ATOM     57  C   UNL A   1      41.978  28.469  31.640  1.00  0.00     0.049 A 
ATOM     58  C   UNL A   1      41.111  31.897  35.970  1.00  0.00     0.074 A 
ATOM     59  C   UNL A   1      43.022  27.567  31.751  1.00  0.00     0.029 A 
ATOM     60  N   UNL A   1      41.966  29.214  32.808  1.00  0.00    -0.354 N 
ATOM     61  N   UNL A   1      41.473  31.067  35.020  1.00  0.00    -0.248 NA
ATOM     62  C   UNL A   1      41.882  31.751  37.215  1.00  0.00     0.031 C 
ATOM     63  C   UNL A   1      43.630  27.756  32.997  1.00  0.00     0.029 A 
ATOM     64  C   UNL A   1      42.977  28.787  33.652  1.00  0.00     0.049 A 
ATOM     65  H   UNL A   1      41.332  29.939  33.009  1.00  0.00     0.167 HD
ATOM     66  C   UNL A   1      42.534  30.331  35.538  1.00  0.00     0.074 A 
ATOM     67  C   UNL A   1      42.768  30.823  36.880  1.00  0.00     0.031 C 
ATOM     68  C   UNL A   1      43.240  29.327  34.960  1.00  0.00     0.034 A 
BRANCH  55  69
ATOM     69  C   UNL A   1      41.183  27.724  29.362  1.00  0.00     0.023 A 
ATOM     70  C   UNL A   1      40.304  26.630  29.228  1.00  0.00     0.012 A 
ATOM     71  C   UNL A   1      42.134  27.977  28.356  1.00  0.00     0.148 A 
ATOM     72  C   UNL A   1      40.387  25.785  28.123  1.00  0.00     0.002 A 
ATOM     73  C   UNL A   1      42.186  27.151  27.238  1.00  0.00     0.091 A 
ATOM     74  F   UNL A   1      42.978  29.006  28.515  1.00  0.00    -0.205 F 
ATOM     75  C   UNL A   1      41.320  26.051  27.125  1.00  0.00     0.022 A 
BRANCH  73  76
ATOM     76  S   UNL A   1      43.307  27.453  25.867  1.00  0.00     0.127 S 
ATOM     77  O   UNL A   1      44.488  26.697  26.280  1.00  0.00    -0.237 OA
ATOM     78  O   UNL A   1      42.578  26.877  24.737  1.00  0.00    -0.237 OA
ATOM     79  O   UNL A   1      43.478  28.899  25.802  1.00  0.00    -0.744 OA
ENDBRANCH  73  76
ENDBRANCH  55  69
BRANCH  56  80
ATOM     80  C   UNL A   1      39.844  33.858  37.123  1.00  0.00     0.023 A 
ATOM     81  C   UNL A   1      40.320  35.183  37.092  1.00  0.00     0.012 A 
ATOM     82  C   UNL A   1      39.170  33.396  38.271  1.00  0.00     0.148 A 
ATOM     83  C   UNL A   1      40.154  36.024  38.193  1.00  0.00     0.002 A 
ATOM     84  C   UNL A   1      38.965  34.254  39.345  1.00  0.00     0.091 A 
ATOM     85  F   UNL A   1      38.746  32.124  38.290  1.00  0.00    -0.205 F 
ATOM     86  C   UNL A   1      39.467  35.563  39.314  1.00  0.00     0.022 A 
BRANCH  84  87
ATOM     87  S   UNL A   1      37.996  33.779  40.781  1.00  0.00     0.127 S 
ATOM     88  O   UNL A   1      37.845  35.055  41.475  1.00  0.00    -0.237 OA
ATOM     89  O   UNL A   1      36.773  33.263  40.167  1.00  0.00    -0.237 OA
ATOM     90  O   UNL A   1      38.790  32.772  41.472  1.00  0.00    -0.744 OA
ENDBRANCH  84  87
ENDBRANCH  56  80
BRANCH  68  91
ATOM     91  C   UNL A   1      44.364  28.708  35.753  1.00  0.00     0.023 A 
ATOM     92  C   UNL A   1      45.671  29.217  35.626  1.00  0.00     0.012 A 
ATOM     93  C   UNL A   1      44.106  27.689  36.690  1.00  0.00     0.148 A 
ATOM     94  C   UNL A   1      46.710  28.701  36.399  1.00  0.00     0.002 A 
ATOM     95  C   UNL A   1      45.137  27.210  37.490  1.00  0.00     0.091 A 
ATOM     96  F   UNL A   1      42.858  27.204  36.784  1.00  0.00    -0.205 F 
ATOM     97  C   UNL A   1      46.441  27.708  37.339  1.00  0.00     0.022 A 
BRANCH  95  98
ATOM     98  S   UNL A   1      44.863  26.000  38.790  1.00  0.00     0.127 S 
ATOM     99  O   UNL A   1      46.206  25.848  39.346  1.00  0.00    -0.237 OA
ATOM    100  O   UNL A   1      43.915  26.691  39.666  1.00  0.00    -0.237 OA
ATOM    101  O   UNL A   1      44.319  24.822  38.129  1.00  0.00    -0.744 OA
ENDBRANCH  95  98
ENDBRANCH  68  91
ENDBRANCH  42  43
ENDBRANCH  35  37
ENDBRANCH  34  35
ENDBRANCH  33  34
ENDBRANCH  32  33
ENDBRANCH  31  32
ENDBRANCH   1  31
TORSDOF 25
ENDMDL
MODEL 3
REMARK VINA RESULT:      -9.3      1.631      2.525
REMARK SMILES CCCc1cc(OC(F)(F)F)cc2c1O[C@@H](C(F)(F)F)C(C(=O)OCCOCCOCCOC(=O)c1ccc(-c3c4nc(c(-c5cccc(S(=O)(=O)[O-])c5F)c5ccc([nH]5)c(-c5cccc(S(=O)(=O)[O-])c5F)c5nc(c(-c6cccc(S(=O)(=O)[O-])c6F)c6ccc3[nH]6)C=C5)C=C4)cc1)=C2
REMARK SMILES IDX 29 1 28 2 27 3 26 4 25 5 24 6 22 7 23 8 21 9 4 10 5 11 14 12
REMARK SMILES IDX 6 13 13 14 15 15 12 16 99 17 16 18 3 19 2 20 1 21 7 22 8 23
REMARK SMILES IDX 9 24 10 25 11 26 17 27 18 28 19 29 20 30 30 31 31 32 32 33
REMARK SMILES IDX 33 34 34 35 35 36 36 37 37 38 98 39 38 40 97 41 39 42 40 43
REMARK SMILES IDX 41 44 91 45 42 46 96 47 90 48 92 49 43 50 95 51 89 52 88 53
REMARK SMILES IDX 44 55 76 56 56 57 75 58 57 59 60 60 74 61 93 62 58 63 59 64
REMARK SMILES IDX 73 66 94 67 61 68 45 69 46 70 54 71 47 72 49 73 55 74 48 75
REMARK SMILES IDX 50 76 51 77 52 78 53 79 77 80 78 81 86 82 79 83 81 84 87 85
REMARK SMILES IDX 80 86 82 87 83 88 84 89 85 90 62 91 63 92 71 93 64 94 66 95
REMARK SMILES IDX 72 96 65 97 67 98 68 99 69 100 70 101
REMARK H PARENT 92 54 60 65
REMARK Flexibility Score: inf
ROOT
ATOM      1  C   UNL A   1      31.790  29.832  26.448  1.00  0.00     0.188 C 
ENDROOT
BRANCH   1   2
ATOM      2  C   UNL A   1      31.495  28.928  25.233  1.00  0.00     0.188 C 
BRANCH   2   3
ATOM      3  O   UNL A   1      31.374  29.641  24.008  1.00  0.00    -0.376 OA
BRANCH   3   4
ATOM      4  C   UNL A   1      31.761  28.928  22.842  1.00  0.00     0.202 C 
BRANCH   4   5
ATOM      5  C   UNL A   1      33.280  28.859  22.678  1.00  0.00     0.261 C 
BRANCH   5   6
ATOM      6  O   UNL A   1      33.840  27.588  23.049  1.00  0.00    -0.460 OA
BRANCH   6   7
ATOM      7  C   UNL A   1      33.498  26.523  22.289  1.00  0.00     0.338 C 
ATOM      8  O   UNL A   1      33.230  26.552  21.101  1.00  0.00    -0.246 OA
BRANCH   7   9
ATOM      9  C   UNL A   1      33.558  25.293  23.102  1.00  0.00     0.087 C 
ATOM     10  C   UNL A   1      33.594  22.335  26.076  1.00  0.00    -0.002 A 
ATOM     11  C   UNL A   1      34.835  21.791  26.452  1.00  0.00     0.054 A 
ATOM     12  C   UNL A   1      33.582  23.303  25.056  1.00  0.00     0.131 A 
ATOM     13  C   UNL A   1      36.020  22.144  25.799  1.00  0.00     0.130 A 
ATOM     14  C   UNL A   1      34.773  23.707  24.432  1.00  0.00     0.021 A 
ATOM     15  O   UNL A   1      32.389  23.917  24.759  1.00  0.00    -0.475 OA
ATOM     16  C   UNL A   1      35.980  23.099  24.783  1.00  0.00     0.058 A 
ATOM     17  C   UNL A   1      34.754  24.857  23.531  1.00  0.00     0.027 C 
ATOM     18  C   UNL A   1      32.307  24.515  23.435  1.00  0.00     0.316 C 
BRANCH  10  19
ATOM     19  C   UNL A   1      32.329  21.980  26.838  1.00  0.00     0.039 C 
BRANCH  19  20
ATOM     20  C   UNL A   1      30.989  22.120  26.097  1.00  0.00     0.001 C 
ATOM     21  C   UNL A   1      29.878  22.802  26.886  1.00  0.00     0.004 C 
ENDBRANCH  19  20
ENDBRANCH  10  19
BRANCH  13  22
ATOM     22  O   UNL A   1      37.268  21.664  26.081  1.00  0.00    -0.406 OA
BRANCH  22  23
ATOM     23  C   UNL A   1      37.885  20.817  25.124  1.00  0.00     0.573 C 
ATOM     24  F   UNL A   1      37.641  21.244  23.867  1.00  0.00    -0.132 F 
ATOM     25  F   UNL A   1      39.217  20.736  25.325  1.00  0.00    -0.132 F 
ATOM     26  F   UNL A   1      37.367  19.574  25.249  1.00  0.00    -0.132 F 
ENDBRANCH  22  23
ENDBRANCH  13  22
BRANCH  18  27
ATOM     27  C   UNL A   1      30.954  25.229  23.301  1.00  0.00     0.430 C 
ATOM     28  F   UNL A   1      30.712  25.566  22.011  1.00  0.00    -0.167 F 
ATOM     29  F   UNL A   1      29.949  24.394  23.667  1.00  0.00    -0.167 F 
ATOM     30  F   UNL A   1      30.866  26.332  24.069  1.00  0.00    -0.167 F 
ENDBRANCH  18  27
ENDBRANCH   7   9
ENDBRANCH   6   7
ENDBRANCH   5   6
ENDBRANCH   4   5
ENDBRANCH   3   4
ENDBRANCH   2   3
ENDBRANCH   1   2
BRANCH   1  31
ATOM     31  O   UNL A   1      31.685  31.247  26.346  1.00  0.00    -0.376 OA
BRANCH  31  32
ATOM     32  C   UNL A   1      32.595  32.065  27.066  1.00  0.00     0.202 C 
BRANCH  32  33
ATOM     33  C   UNL A   1      32.102  33.432  27.549  1.00  0.00     0.261 C 
BRANCH  33  34
ATOM     34  O   UNL A   1      33.019  34.124  28.410  1.00  0.00    -0.460 OA
BRANCH  34  35
ATOM     35  C   UNL A   1      34.273  34.271  27.918  1.00  0.00     0.338 C 
ATOM     36  O   UNL A   1      34.610  34.933  26.950  1.00  0.00    -0.246 OA
BRANCH  35  37
ATOM     37  C   UNL A   1      35.252  33.641  28.827  1.00  0.00     0.060 A 
ATOM     38  C   UNL A   1      36.575  34.104  28.789  1.00  0.00     0.016 A 
ATOM     39  C   UNL A   1      34.902  32.566  29.648  1.00  0.00     0.016 A 
ATOM     40  C   UNL A   1      37.561  33.472  29.544  1.00  0.00     0.010 A 
ATOM     41  C   UNL A   1      35.899  31.919  30.386  1.00  0.00     0.010 A 
ATOM     42  C   UNL A   1      37.236  32.347  30.312  1.00  0.00    -0.014 A 
BRANCH  42  43
ATOM     43  C   UNL A   1      38.319  31.518  30.893  1.00  0.00     0.031 A 
ATOM     44  C   UNL A   1      38.710  31.743  32.329  1.00  0.00     0.074 A 
ATOM     45  C   UNL A   1      38.952  30.587  30.159  1.00  0.00     0.049 A 
ATOM     46  N   UNL A   1      39.645  31.162  33.034  1.00  0.00    -0.248 NA
ATOM     47  C   UNL A   1      37.942  32.759  33.068  1.00  0.00     0.031 C 
ATOM     48  C   UNL A   1      38.661  30.267  28.763  1.00  0.00     0.029 A 
ATOM     49  N   UNL A   1      39.996  29.756  30.486  1.00  0.00    -0.354 N 
ATOM     50  C   UNL A   1      39.595  31.755  34.289  1.00  0.00     0.074 A 
ATOM     51  C   UNL A   1      38.543  32.748  34.249  1.00  0.00     0.031 C 
ATOM     52  C   UNL A   1      39.531  29.332  28.340  1.00  0.00     0.029 A 
ATOM     53  C   UNL A   1      40.451  29.004  29.429  1.00  0.00     0.049 A 
ATOM     54  H   UNL A   1      40.383  29.705  31.389  1.00  0.00     0.167 HD
ATOM     55  C   UNL A   1      40.345  31.489  35.385  1.00  0.00     0.034 A 
ATOM     56  C   UNL A   1      41.502  28.162  29.346  1.00  0.00     0.034 A 
ATOM     57  C   UNL A   1      41.383  30.496  35.432  1.00  0.00     0.049 A 
ATOM     58  C   UNL A   1      42.343  27.907  30.571  1.00  0.00     0.074 A 
ATOM     59  C   UNL A   1      42.173  30.128  36.507  1.00  0.00     0.029 A 
ATOM     60  N   UNL A   1      41.785  29.721  34.356  1.00  0.00    -0.354 N 
ATOM     61  N   UNL A   1      42.204  28.383  31.785  1.00  0.00    -0.248 NA
ATOM     62  C   UNL A   1      43.470  26.972  30.422  1.00  0.00     0.031 C 
ATOM     63  C   UNL A   1      43.066  29.141  36.074  1.00  0.00     0.029 A 
ATOM     64  C   UNL A   1      42.818  28.882  34.736  1.00  0.00     0.049 A 
ATOM     65  H   UNL A   1      41.394  29.761  33.453  1.00  0.00     0.167 HD
ATOM     66  C   UNL A   1      43.196  27.779  32.551  1.00  0.00     0.074 A 
ATOM     67  C   UNL A   1      43.921  26.889  31.667  1.00  0.00     0.031 C 
ATOM     68  C   UNL A   1      43.490  27.956  33.863  1.00  0.00     0.034 A 
BRANCH  55  69
ATOM     69  C   UNL A   1      40.047  32.267  36.637  1.00  0.00     0.023 A 
ATOM     70  C   UNL A   1      40.838  33.389  36.959  1.00  0.00     0.012 A 
ATOM     71  C   UNL A   1      38.962  31.924  37.465  1.00  0.00     0.148 A 
ATOM     72  C   UNL A   1      40.570  34.141  38.101  1.00  0.00     0.002 A 
ATOM     73  C   UNL A   1      38.677  32.702  38.581  1.00  0.00     0.091 A 
ATOM     74  F   UNL A   1      38.239  30.839  37.156  1.00  0.00    -0.205 F 
ATOM     75  C   UNL A   1      39.485  33.805  38.905  1.00  0.00     0.022 A 
BRANCH  73  76
ATOM     76  S   UNL A   1      37.259  32.389  39.640  1.00  0.00     0.127 S 
ATOM     77  O   UNL A   1      37.395  33.450  40.636  1.00  0.00    -0.237 OA
ATOM     78  O   UNL A   1      36.139  32.560  38.715  1.00  0.00    -0.237 OA
ATOM     79  O   UNL A   1      37.428  31.031  40.140  1.00  0.00    -0.744 OA
ENDBRANCH  73  76
ENDBRANCH  55  69
BRANCH  56  80
ATOM     80  C   UNL A   1      41.800  27.465  28.063  1.00  0.00     0.023 A 
ATOM     81  C   UNL A   1      42.324  28.200  26.982  1.00  0.00     0.012 A 
ATOM     82  C   UNL A   1      41.574  26.083  27.910  1.00  0.00     0.148 A 
ATOM     83  C   UNL A   1      42.591  27.576  25.762  1.00  0.00     0.002 A 
ATOM     84  C   UNL A   1      41.889  25.459  26.708  1.00  0.00     0.091 A 
ATOM     85  F   UNL A   1      41.053  25.407  28.943  1.00  0.00    -0.205 F 
ATOM     86  C   UNL A   1      42.384  26.206  25.629  1.00  0.00     0.022 A 
BRANCH  84  87
ATOM     87  S   UNL A   1      41.758  23.681  26.487  1.00  0.00     0.127 S 
ATOM     88  O   UNL A   1      42.479  23.182  27.654  1.00  0.00    -0.237 OA
ATOM     89  O   UNL A   1      40.310  23.475  26.523  1.00  0.00    -0.237 OA
ATOM     90  O   UNL A   1      42.370  23.402  25.195  1.00  0.00    -0.744 OA
ENDBRANCH  84  87
ENDBRANCH  56  80
BRANCH  68  91
ATOM     91  C   UNL A   1      44.623  27.149  34.446  1.00  0.00     0.023 A 
ATOM     92  C   UNL A   1      45.854  27.773  34.724  1.00  0.00     0.012 A 
ATOM     93  C   UNL A   1      44.435  25.799  34.804  1.00  0.00     0.148 A 
ATOM     94  C   UNL A   1      46.891  27.059  35.323  1.00  0.00     0.002 A 
ATOM     95  C   UNL A   1      45.457  25.106  35.442  1.00  0.00     0.091 A 
ATOM     96  F   UNL A   1      43.262  25.216  34.515  1.00  0.00    -0.205 F 
ATOM     97  C   UNL A   1      46.689  25.731  35.694  1.00  0.00     0.022 A 
BRANCH  95  98
ATOM     98  S   UNL A   1      45.251  23.423  36.039  1.00  0.00     0.127 S 
ATOM     99  O   UNL A   1      46.284  22.712  35.290  1.00  0.00    -0.237 OA
ATOM    100  O   UNL A   1      45.523  23.563  37.470  1.00  0.00    -0.237 OA
ATOM    101  O   UNL A   1      43.878  23.054  35.722  1.00  0.00    -0.744 OA
ENDBRANCH  95  98
ENDBRANCH  68  91
ENDBRANCH  42  43
ENDBRANCH  35  37
ENDBRANCH  34  35
ENDBRANCH  33  34
ENDBRANCH  32  33
ENDBRANCH  31  32
ENDBRANCH   1  31
TORSDOF 25
ENDMDL
