MODEL 1
REMARK VINA RESULT:     -11.1      0.000      0.000
REMARK SMILES Cc1cc(F)ccc1OC1(C(=O)OCCOCCOCCOC(=O)c2ccc(-c3c4nc(c(-c5cccc(S(=O)(=O)[O-])c5F)c5ccc([nH]5)c(-c5cccc(S(=O)(=O)[O-])c5F)c5nc(c(-c6cccc(S(=O)(=O)[O-])c6F)c6ccc3[nH]6)C=C5)C=C4)cc2)CCN(C(=O)[C@H]2CCOC2)CC1
REMARK SMILES IDX 18 1 17 2 16 3 15 4 14 5 13 6 11 7 12 8 10 9 88 10 99 11
REMARK SMILES IDX 89 12 98 13 90 14 91 15 92 16 9 17 8 18 1 19 2 20 3 21 4 22
REMARK SMILES IDX 7 23 5 24 6 25 93 26 94 27 97 28 95 29 96 30 19 31 20 32
REMARK SMILES IDX 21 33 22 34 23 35 24 36 25 37 26 38 87 39 27 40 86 41 28 42
REMARK SMILES IDX 29 43 30 44 80 45 31 46 85 47 79 48 81 49 32 50 84 51 78 52
REMARK SMILES IDX 77 53 33 55 65 56 45 57 64 58 46 59 49 60 63 61 82 62 47 63
REMARK SMILES IDX 48 64 62 66 83 67 50 68 34 69 35 70 43 71 36 72 38 73 44 74
REMARK SMILES IDX 37 75 39 76 40 77 41 78 42 79 66 80 67 81 75 82 68 83 70 84
REMARK SMILES IDX 76 85 69 86 71 87 72 88 73 89 74 90 51 91 52 92 60 93 53 94
REMARK SMILES IDX 55 95 61 96 54 97 56 98 57 99 58 100 59 101
REMARK H PARENT 81 54 49 65
REMARK Flexibility Score: inf
ROOT
ATOM      1  C   UNL A   1      32.801  27.702  24.734  1.00  0.00     0.188 C 
ENDROOT
BRANCH   1   2
ATOM      2  C   UNL A   1      32.843  26.969  23.394  1.00  0.00     0.188 C 
BRANCH   2   3
ATOM      3  O   UNL A   1      31.886  25.932  23.219  1.00  0.00    -0.376 OA
BRANCH   3   4
ATOM      4  C   UNL A   1      30.782  25.917  24.121  1.00  0.00     0.202 C 
BRANCH   4   5
ATOM      5  C   UNL A   1      30.433  24.560  24.753  1.00  0.00     0.261 C 
BRANCH   5   6
ATOM      6  O   UNL A   1      31.583  23.835  25.246  1.00  0.00    -0.460 OA
BRANCH   6   7
ATOM      7  C   UNL A   1      31.434  22.489  25.413  1.00  0.00     0.350 C 
ATOM      8  O   UNL A   1      30.390  21.980  25.821  1.00  0.00    -0.247 OA
BRANCH   7   9
ATOM      9  C   UNL A   1      32.693  21.631  25.034  1.00  0.00     0.209 C 
ATOM     10  C   UNL A   1      33.350  22.068  23.728  1.00  0.00     0.082 C 
ATOM     11  C   UNL A   1      33.534  21.745  26.309  1.00  0.00     0.082 C 
ATOM     12  C   UNL A   1      34.771  22.614  23.806  1.00  0.00     0.124 C 
ATOM     13  C   UNL A   1      35.028  21.662  26.138  1.00  0.00     0.124 C 
ATOM     14  N   UNL A   1      35.545  22.465  25.038  1.00  0.00    -0.342 N 
ATOM     15  C   UNL A   1      36.854  22.952  24.972  1.00  0.00     0.228 C 
ATOM     16  O   UNL A   1      37.260  23.536  23.965  1.00  0.00    -0.274 OA
BRANCH   9  17
ATOM     17  O   UNL A   1      32.024  20.360  24.864  1.00  0.00    -0.475 OA
BRANCH  17  18
ATOM     18  C   UNL A   1      32.416  19.091  24.595  1.00  0.00     0.124 A 
ATOM     19  C   UNL A   1      32.299  18.791  22.006  1.00  0.00     0.048 C 
ATOM     20  C   UNL A   1      32.580  18.364  23.407  1.00  0.00    -0.006 A 
ATOM     21  C   UNL A   1      32.981  17.003  23.484  1.00  0.00     0.046 A 
ATOM     22  C   UNL A   1      33.176  16.365  24.697  1.00  0.00     0.123 A 
ATOM     23  C   UNL A   1      32.611  18.398  25.815  1.00  0.00     0.050 A 
ATOM     24  F   UNL A   1      33.530  15.075  24.715  1.00  0.00    -0.207 F 
ATOM     25  C   UNL A   1      32.983  17.052  25.875  1.00  0.00     0.043 A 
ENDBRANCH  17  18
ENDBRANCH   9  17
BRANCH  15  26
ATOM     26  C   UNL A   1      37.783  22.728  26.155  1.00  0.00     0.107 C 
ATOM     27  C   UNL A   1      38.904  21.757  25.845  1.00  0.00     0.044 C 
ATOM     28  C   UNL A   1      38.555  23.987  26.510  1.00  0.00     0.173 C 
ATOM     29  C   UNL A   1      40.033  22.212  26.748  1.00  0.00     0.161 C 
ATOM     30  O   UNL A   1      39.767  23.561  27.146  1.00  0.00    -0.381 OA
ENDBRANCH  15  26
ENDBRANCH   7   9
ENDBRANCH   6   7
ENDBRANCH   5   6
ENDBRANCH   4   5
ENDBRANCH   3   4
ENDBRANCH   2   3
ENDBRANCH   1   2
BRANCH   1  31
ATOM     31  O   UNL A   1      32.476  29.089  24.670  1.00  0.00    -0.376 OA
BRANCH  31  32
ATOM     32  C   UNL A   1      31.609  29.568  25.705  1.00  0.00     0.202 C 
BRANCH  32  33
ATOM     33  C   UNL A   1      32.044  30.871  26.407  1.00  0.00     0.261 C 
BRANCH  33  34
ATOM     34  O   UNL A   1      33.103  30.708  27.373  1.00  0.00    -0.460 OA
BRANCH  34  35
ATOM     35  C   UNL A   1      33.828  31.806  27.694  1.00  0.00     0.338 C 
ATOM     36  O   UNL A   1      33.420  32.956  27.724  1.00  0.00    -0.246 OA
BRANCH  35  37
ATOM     37  C   UNL A   1      35.124  31.360  28.271  1.00  0.00     0.060 A 
ATOM     38  C   UNL A   1      35.281  29.997  28.567  1.00  0.00     0.016 A 
ATOM     39  C   UNL A   1      36.202  32.237  28.445  1.00  0.00     0.016 A 
ATOM     40  C   UNL A   1      36.489  29.522  29.083  1.00  0.00     0.010 A 
ATOM     41  C   UNL A   1      37.409  31.760  28.966  1.00  0.00     0.010 A 
ATOM     42  C   UNL A   1      37.547  30.408  29.323  1.00  0.00    -0.014 A 
BRANCH  42  43
ATOM     43  C   UNL A   1      38.706  29.970  30.140  1.00  0.00     0.031 A 
ATOM     44  C   UNL A   1      38.858  30.548  31.523  1.00  0.00     0.074 A 
ATOM     45  C   UNL A   1      39.611  29.086  29.685  1.00  0.00     0.049 A 
ATOM     46  N   UNL A   1      39.777  30.318  32.423  1.00  0.00    -0.248 NA
ATOM     47  C   UNL A   1      37.836  31.522  31.938  1.00  0.00     0.031 C 
ATOM     48  C   UNL A   1      39.590  28.450  28.371  1.00  0.00     0.029 A 
ATOM     49  N   UNL A   1      40.740  28.584  30.286  1.00  0.00    -0.354 N 
ATOM     50  C   UNL A   1      39.460  31.134  33.501  1.00  0.00     0.074 A 
ATOM     51  C   UNL A   1      38.273  31.878  33.136  1.00  0.00     0.031 C 
ATOM     52  C   UNL A   1      40.661  27.643  28.261  1.00  0.00     0.029 A 
ATOM     53  C   UNL A   1      41.456  27.725  29.487  1.00  0.00     0.049 A 
ATOM     54  H   UNL A   1      41.011  28.816  31.203  1.00  0.00     0.167 HD
ATOM     55  C   UNL A   1      40.085  31.250  34.696  1.00  0.00     0.034 A 
ATOM     56  C   UNL A   1      42.624  27.087  29.716  1.00  0.00     0.034 A 
ATOM     57  C   UNL A   1      41.258  30.513  35.074  1.00  0.00     0.049 A 
ATOM     58  C   UNL A   1      43.328  27.265  31.039  1.00  0.00     0.074 A 
ATOM     59  C   UNL A   1      41.932  30.530  36.282  1.00  0.00     0.029 A 
ATOM     60  N   UNL A   1      41.946  29.643  34.244  1.00  0.00    -0.354 N 
ATOM     61  N   UNL A   1      42.946  27.939  32.098  1.00  0.00    -0.248 NA
ATOM     62  C   UNL A   1      44.615  26.572  31.208  1.00  0.00     0.031 C 
ATOM     63  C   UNL A   1      43.049  29.694  36.170  1.00  0.00     0.029 A 
ATOM     64  C   UNL A   1      43.052  29.133  34.902  1.00  0.00     0.049 A 
ATOM     65  H   UNL A   1      41.687  29.420  33.320  1.00  0.00     0.167 HD
ATOM     66  C   UNL A   1      43.923  27.721  33.066  1.00  0.00     0.074 A 
ATOM     67  C   UNL A   1      44.907  26.840  32.473  1.00  0.00     0.031 C 
ATOM     68  C   UNL A   1      44.003  28.215  34.327  1.00  0.00     0.034 A 
BRANCH  55  69
ATOM     69  C   UNL A   1      39.493  32.217  35.686  1.00  0.00     0.023 A 
ATOM     70  C   UNL A   1      38.433  31.805  36.519  1.00  0.00     0.012 A 
ATOM     71  C   UNL A   1      39.992  33.529  35.799  1.00  0.00     0.148 A 
ATOM     72  C   UNL A   1      37.847  32.697  37.417  1.00  0.00     0.002 A 
ATOM     73  C   UNL A   1      39.434  34.399  36.727  1.00  0.00     0.091 A 
ATOM     74  F   UNL A   1      40.980  33.912  34.977  1.00  0.00    -0.205 F 
ATOM     75  C   UNL A   1      38.354  33.990  37.526  1.00  0.00     0.022 A 
BRANCH  73  76
ATOM     76  S   UNL A   1      40.070  36.057  36.989  1.00  0.00     0.127 S 
ATOM     77  O   UNL A   1      39.838  36.672  35.683  1.00  0.00    -0.237 OA
ATOM     78  O   UNL A   1      39.205  36.556  38.059  1.00  0.00    -0.237 OA
ATOM     79  O   UNL A   1      41.465  35.890  37.370  1.00  0.00    -0.744 OA
ENDBRANCH  73  76
ENDBRANCH  55  69
BRANCH  56  80
ATOM     80  C   UNL A   1      43.191  26.175  28.681  1.00  0.00     0.023 A 
ATOM     81  C   UNL A   1      42.770  24.832  28.640  1.00  0.00     0.012 A 
ATOM     82  C   UNL A   1      44.133  26.630  27.738  1.00  0.00     0.148 A 
ATOM     83  C   UNL A   1      43.293  23.950  27.694  1.00  0.00     0.002 A 
ATOM     84  C   UNL A   1      44.612  25.759  26.765  1.00  0.00     0.091 A 
ATOM     85  F   UNL A   1      44.532  27.907  27.805  1.00  0.00    -0.205 F 
ATOM     86  C   UNL A   1      44.205  24.416  26.751  1.00  0.00     0.022 A 
BRANCH  84  87
ATOM     87  S   UNL A   1      45.704  26.290  25.441  1.00  0.00     0.127 S 
ATOM     88  O   UNL A   1      45.677  25.133  24.549  1.00  0.00    -0.237 OA
ATOM     89  O   UNL A   1      45.007  27.473  24.938  1.00  0.00    -0.237 OA
ATOM     90  O   UNL A   1      46.987  26.564  26.073  1.00  0.00    -0.744 OA
ENDBRANCH  84  87
ENDBRANCH  56  80
BRANCH  68  91
ATOM     91  C   UNL A   1      45.173  27.797  35.183  1.00  0.00     0.023 A 
ATOM     92  C   UNL A   1      46.321  28.613  35.251  1.00  0.00     0.012 A 
ATOM     93  C   UNL A   1      45.101  26.642  35.989  1.00  0.00     0.148 A 
ATOM     94  C   UNL A   1      47.387  28.273  36.084  1.00  0.00     0.002 A 
ATOM     95  C   UNL A   1      46.147  26.335  36.853  1.00  0.00     0.091 A 
ATOM     96  F   UNL A   1      44.011  25.868  35.900  1.00  0.00    -0.205 F 
ATOM     97  C   UNL A   1      47.296  27.142  36.893  1.00  0.00     0.022 A 
BRANCH  95  98
ATOM     98  S   UNL A   1      46.075  24.955  38.002  1.00  0.00     0.127 S 
ATOM     99  O   UNL A   1      46.050  23.810  37.093  1.00  0.00    -0.237 OA
ATOM    100  O   UNL A   1      47.320  25.110  38.754  1.00  0.00    -0.237 OA
ATOM    101  O   UNL A   1      44.865  25.153  38.790  1.00  0.00    -0.744 OA
ENDBRANCH  95  98
ENDBRANCH  68  91
ENDBRANCH  42  43
ENDBRANCH  35  37
ENDBRANCH  34  35
ENDBRANCH  33  34
ENDBRANCH  32  33
ENDBRANCH  31  32
ENDBRANCH   1  31
TORSDOF 23
ENDMDL
MODEL 2
REMARK VINA RESULT:     -11.0      1.829      7.344
REMARK SMILES Cc1cc(F)ccc1OC1(C(=O)OCCOCCOCCOC(=O)c2ccc(-c3c4nc(c(-c5cccc(S(=O)(=O)[O-])c5F)c5ccc([nH]5)c(-c5cccc(S(=O)(=O)[O-])c5F)c5nc(c(-c6cccc(S(=O)(=O)[O-])c6F)c6ccc3[nH]6)C=C5)C=C4)cc2)CCN(C(=O)[C@H]2CCOC2)CC1
REMARK SMILES IDX 18 1 17 2 16 3 15 4 14 5 13 6 11 7 12 8 10 9 88 10 99 11
REMARK SMILES IDX 89 12 98 13 90 14 91 15 92 16 9 17 8 18 1 19 2 20 3 21 4 22
REMARK SMILES IDX 7 23 5 24 6 25 93 26 94 27 97 28 95 29 96 30 19 31 20 32
REMARK SMILES IDX 21 33 22 34 23 35 24 36 25 37 26 38 87 39 27 40 86 41 28 42
REMARK SMILES IDX 29 43 30 44 80 45 31 46 85 47 79 48 81 49 32 50 84 51 78 52
REMARK SMILES IDX 77 53 33 55 65 56 45 57 64 58 46 59 49 60 63 61 82 62 47 63
REMARK SMILES IDX 48 64 62 66 83 67 50 68 34 69 35 70 43 71 36 72 38 73 44 74
REMARK SMILES IDX 37 75 39 76 40 77 41 78 42 79 66 80 67 81 75 82 68 83 70 84
REMARK SMILES IDX 76 85 69 86 71 87 72 88 73 89 74 90 51 91 52 92 60 93 53 94
REMARK SMILES IDX 55 95 61 96 54 97 56 98 57 99 58 100 59 101
REMARK H PARENT 81 54 49 65
REMARK Flexibility Score: inf
ROOT
ATOM      1  C   UNL A   1      33.578  26.849  23.770  1.00  0.00     0.188 C 
ENDROOT
BRANCH   1   2
ATOM      2  C   UNL A   1      33.456  26.090  22.450  1.00  0.00     0.188 C 
BRANCH   2   3
ATOM      3  O   UNL A   1      32.537  25.005  22.435  1.00  0.00    -0.376 OA
BRANCH   3   4
ATOM      4  C   UNL A   1      31.254  25.241  23.011  1.00  0.00     0.202 C 
BRANCH   4   5
ATOM      5  C   UNL A   1      30.640  24.083  23.814  1.00  0.00     0.261 C 
BRANCH   5   6
ATOM      6  O   UNL A   1      31.432  23.683  24.956  1.00  0.00    -0.460 OA
BRANCH   6   7
ATOM      7  C   UNL A   1      31.365  22.370  25.319  1.00  0.00     0.350 C 
ATOM      8  O   UNL A   1      30.373  21.877  25.856  1.00  0.00    -0.247 OA
BRANCH   7   9
ATOM      9  C   UNL A   1      32.647  21.524  24.989  1.00  0.00     0.209 C 
ATOM     10  C   UNL A   1      33.315  21.930  23.678  1.00  0.00     0.082 C 
ATOM     11  C   UNL A   1      33.465  21.700  26.272  1.00  0.00     0.082 C 
ATOM     12  C   UNL A   1      34.724  22.507  23.759  1.00  0.00     0.124 C 
ATOM     13  C   UNL A   1      34.963  21.641  26.125  1.00  0.00     0.124 C 
ATOM     14  N   UNL A   1      35.481  22.417  25.006  1.00  0.00    -0.342 N 
ATOM     15  C   UNL A   1      36.781  22.928  24.943  1.00  0.00     0.228 C 
ATOM     16  O   UNL A   1      37.191  23.485  23.922  1.00  0.00    -0.274 OA
BRANCH   9  17
ATOM     17  O   UNL A   1      32.006  20.236  24.853  1.00  0.00    -0.475 OA
BRANCH  17  18
ATOM     18  C   UNL A   1      32.425  18.969  24.612  1.00  0.00     0.124 A 
ATOM     19  C   UNL A   1      32.363  18.625  22.026  1.00  0.00     0.048 C 
ATOM     20  C   UNL A   1      32.625  18.226  23.440  1.00  0.00    -0.006 A 
ATOM     21  C   UNL A   1      33.048  16.874  23.547  1.00  0.00     0.046 A 
ATOM     22  C   UNL A   1      33.232  16.260  24.774  1.00  0.00     0.123 A 
ATOM     23  C   UNL A   1      32.610  18.300  25.847  1.00  0.00     0.050 A 
ATOM     24  F   UNL A   1      33.608  14.977  24.819  1.00  0.00    -0.207 F 
ATOM     25  C   UNL A   1      33.004  16.962  25.936  1.00  0.00     0.043 A 
ENDBRANCH  17  18
ENDBRANCH   9  17
BRANCH  15  26
ATOM     26  C   UNL A   1      37.696  22.763  26.147  1.00  0.00     0.107 C 
ATOM     27  C   UNL A   1      38.792  21.744  25.916  1.00  0.00     0.044 C 
ATOM     28  C   UNL A   1      38.499  24.024  26.419  1.00  0.00     0.173 C 
ATOM     29  C   UNL A   1      39.927  22.232  26.794  1.00  0.00     0.161 C 
ATOM     30  O   UNL A   1      39.695  23.612  27.093  1.00  0.00    -0.381 OA
ENDBRANCH  15  26
ENDBRANCH   7   9
ENDBRANCH   6   7
ENDBRANCH   5   6
ENDBRANCH   4   5
ENDBRANCH   3   4
ENDBRANCH   2   3
ENDBRANCH   1   2
BRANCH   1  31
ATOM     31  O   UNL A   1      33.001  28.153  23.789  1.00  0.00    -0.376 OA
BRANCH  31  32
ATOM     32  C   UNL A   1      32.022  28.381  24.810  1.00  0.00     0.202 C 
BRANCH  32  33
ATOM     33  C   UNL A   1      31.968  29.809  25.392  1.00  0.00     0.261 C 
BRANCH  33  34
ATOM     34  O   UNL A   1      32.544  29.946  26.707  1.00  0.00    -0.460 OA
BRANCH  34  35
ATOM     35  C   UNL A   1      32.989  31.172  27.068  1.00  0.00     0.338 C 
ATOM     36  O   UNL A   1      32.327  32.197  27.107  1.00  0.00    -0.246 OA
BRANCH  35  37
ATOM     37  C   UNL A   1      34.339  31.022  27.674  1.00  0.00     0.060 A 
ATOM     38  C   UNL A   1      34.789  29.726  27.970  1.00  0.00     0.016 A 
ATOM     39  C   UNL A   1      35.190  32.115  27.876  1.00  0.00     0.016 A 
ATOM     40  C   UNL A   1      36.061  29.527  28.512  1.00  0.00     0.010 A 
ATOM     41  C   UNL A   1      36.461  31.916  28.423  1.00  0.00     0.010 A 
ATOM     42  C   UNL A   1      36.889  30.625  28.780  1.00  0.00    -0.014 A 
BRANCH  42  43
ATOM     43  C   UNL A   1      38.098  30.451  29.623  1.00  0.00     0.031 A 
ATOM     44  C   UNL A   1      39.262  29.688  29.045  1.00  0.00     0.074 A 
ATOM     45  C   UNL A   1      38.181  30.947  30.870  1.00  0.00     0.049 A 
ATOM     46  N   UNL A   1      40.421  29.412  29.579  1.00  0.00    -0.248 NA
ATOM     47  C   UNL A   1      39.084  29.164  27.681  1.00  0.00     0.031 C 
ATOM     48  C   UNL A   1      37.134  31.700  31.555  1.00  0.00     0.029 A 
ATOM     49  N   UNL A   1      39.199  30.871  31.789  1.00  0.00    -0.354 N 
ATOM     50  C   UNL A   1      41.103  28.661  28.630  1.00  0.00     0.074 A 
ATOM     51  C   UNL A   1      40.221  28.512  27.493  1.00  0.00     0.031 C 
ATOM     52  C   UNL A   1      37.563  32.015  32.791  1.00  0.00     0.029 A 
ATOM     53  C   UNL A   1      38.903  31.463  32.993  1.00  0.00     0.049 A 
ATOM     54  H   UNL A   1      40.061  30.433  31.602  1.00  0.00     0.167 HD
ATOM     55  C   UNL A   1      42.356  28.151  28.686  1.00  0.00     0.034 A 
ATOM     56  C   UNL A   1      39.628  31.542  34.130  1.00  0.00     0.034 A 
ATOM     57  C   UNL A   1      43.244  28.299  29.804  1.00  0.00     0.049 A 
ATOM     58  C   UNL A   1      41.006  30.927  34.184  1.00  0.00     0.074 A 
ATOM     59  C   UNL A   1      44.549  27.857  29.930  1.00  0.00     0.029 A 
ATOM     60  N   UNL A   1      42.914  28.917  30.999  1.00  0.00    -0.354 N 
ATOM     61  N   UNL A   1      41.688  30.334  33.234  1.00  0.00    -0.248 NA
ATOM     62  C   UNL A   1      41.724  31.016  35.465  1.00  0.00     0.031 C 
ATOM     63  C   UNL A   1      44.997  28.179  31.216  1.00  0.00     0.029 A 
ATOM     64  C   UNL A   1      43.981  28.849  31.879  1.00  0.00     0.049 A 
ATOM     65  H   UNL A   1      42.048  29.342  31.195  1.00  0.00     0.167 HD
ATOM     66  C   UNL A   1      42.924  30.014  33.790  1.00  0.00     0.074 A 
ATOM     67  C   UNL A   1      42.903  30.493  35.156  1.00  0.00     0.031 C 
ATOM     68  C   UNL A   1      43.976  29.373  33.222  1.00  0.00     0.034 A 
BRANCH  55  69
ATOM     69  C   UNL A   1      42.836  27.385  27.482  1.00  0.00     0.023 A 
ATOM     70  C   UNL A   1      43.199  28.080  26.309  1.00  0.00     0.012 A 
ATOM     71  C   UNL A   1      42.937  25.981  27.513  1.00  0.00     0.148 A 
ATOM     72  C   UNL A   1      43.610  27.387  25.172  1.00  0.00     0.002 A 
ATOM     73  C   UNL A   1      43.391  25.300  26.391  1.00  0.00     0.091 A 
ATOM     74  F   UNL A   1      42.559  25.336  28.626  1.00  0.00    -0.205 F 
ATOM     75  C   UNL A   1      43.715  25.999  25.216  1.00  0.00     0.022 A 
BRANCH  73  76
ATOM     76  S   UNL A   1      43.628  23.520  26.382  1.00  0.00     0.127 S 
ATOM     77  O   UNL A   1      43.109  23.147  27.697  1.00  0.00    -0.237 OA
ATOM     78  O   UNL A   1      42.794  23.101  25.256  1.00  0.00    -0.237 OA
ATOM     79  O   UNL A   1      45.056  23.313  26.184  1.00  0.00    -0.744 OA
ENDBRANCH  73  76
ENDBRANCH  55  69
BRANCH  56  80
ATOM     80  C   UNL A   1      39.085  32.273  35.310  1.00  0.00     0.023 A 
ATOM     81  C   UNL A   1      39.169  33.678  35.350  1.00  0.00     0.012 A 
ATOM     82  C   UNL A   1      38.483  31.590  36.385  1.00  0.00     0.148 A 
ATOM     83  C   UNL A   1      38.684  34.390  36.447  1.00  0.00     0.002 A 
ATOM     84  C   UNL A   1      37.956  32.308  37.452  1.00  0.00     0.091 A 
ATOM     85  F   UNL A   1      38.429  30.252  36.335  1.00  0.00    -0.205 F 
ATOM     86  C   UNL A   1      38.068  33.707  37.492  1.00  0.00     0.022 A 
BRANCH  84  87
ATOM     87  S   UNL A   1      37.047  31.529  38.792  1.00  0.00     0.127 S 
ATOM     88  O   UNL A   1      35.832  32.338  38.839  1.00  0.00    -0.237 OA
ATOM     89  O   UNL A   1      36.866  30.172  38.277  1.00  0.00    -0.237 OA
ATOM     90  O   UNL A   1      37.909  31.624  39.962  1.00  0.00    -0.744 OA
ENDBRANCH  84  87
ENDBRANCH  56  80
BRANCH  68  91
ATOM     91  C   UNL A   1      45.219  29.170  34.054  1.00  0.00     0.023 A 
ATOM     92  C   UNL A   1      46.228  30.155  34.058  1.00  0.00     0.012 A 
ATOM     93  C   UNL A   1      45.346  28.050  34.899  1.00  0.00     0.148 A 
ATOM     94  C   UNL A   1      47.355  30.012  34.868  1.00  0.00     0.002 A 
ATOM     95  C   UNL A   1      46.449  27.938  35.740  1.00  0.00     0.091 A 
ATOM     96  F   UNL A   1      44.386  27.115  34.871  1.00  0.00    -0.205 F 
ATOM     97  C   UNL A   1      47.461  28.912  35.717  1.00  0.00     0.022 A 
BRANCH  95  98
ATOM     98  S   UNL A   1      46.620  26.607  36.935  1.00  0.00     0.127 S 
ATOM     99  O   UNL A   1      46.696  25.433  36.067  1.00  0.00    -0.237 OA
ATOM    100  O   UNL A   1      47.873  26.950  37.607  1.00  0.00    -0.237 OA
ATOM    101  O   UNL A   1      45.440  26.680  37.787  1.00  0.00    -0.744 OA
ENDBRANCH  95  98
ENDBRANCH  68  91
ENDBRANCH  42  43
ENDBRANCH  35  37
ENDBRANCH  34  35
ENDBRANCH  33  34
ENDBRANCH  32  33
ENDBRANCH  31  32
ENDBRANCH   1  31
TORSDOF 23
ENDMDL
MODEL 3
REMARK VINA RESULT:     -10.8      2.410      8.663
REMARK SMILES Cc1cc(F)ccc1OC1(C(=O)OCCOCCOCCOC(=O)c2ccc(-c3c4nc(c(-c5cccc(S(=O)(=O)[O-])c5F)c5ccc([nH]5)c(-c5cccc(S(=O)(=O)[O-])c5F)c5nc(c(-c6cccc(S(=O)(=O)[O-])c6F)c6ccc3[nH]6)C=C5)C=C4)cc2)CCN(C(=O)[C@H]2CCOC2)CC1
REMARK SMILES IDX 18 1 17 2 16 3 15 4 14 5 13 6 11 7 12 8 10 9 88 10 99 11
REMARK SMILES IDX 89 12 98 13 90 14 91 15 92 16 9 17 8 18 1 19 2 20 3 21 4 22
REMARK SMILES IDX 7 23 5 24 6 25 93 26 94 27 97 28 95 29 96 30 19 31 20 32
REMARK SMILES IDX 21 33 22 34 23 35 24 36 25 37 26 38 87 39 27 40 86 41 28 42
REMARK SMILES IDX 29 43 30 44 80 45 31 46 85 47 79 48 81 49 32 50 84 51 78 52
REMARK SMILES IDX 77 53 33 55 65 56 45 57 64 58 46 59 49 60 63 61 82 62 47 63
REMARK SMILES IDX 48 64 62 66 83 67 50 68 34 69 35 70 43 71 36 72 38 73 44 74
REMARK SMILES IDX 37 75 39 76 40 77 41 78 42 79 66 80 67 81 75 82 68 83 70 84
REMARK SMILES IDX 76 85 69 86 71 87 72 88 73 89 74 90 51 91 52 92 60 93 53 94
REMARK SMILES IDX 55 95 61 96 54 97 56 98 57 99 58 100 59 101
REMARK H PARENT 81 54 49 65
REMARK Flexibility Score: inf
ROOT
ATOM      1  C   UNL A   1      41.090  21.202  26.803  1.00  0.00     0.188 C 
ENDROOT
BRANCH   1   2
ATOM      2  C   UNL A   1      39.736  21.899  26.666  1.00  0.00     0.188 C 
BRANCH   2   3
ATOM      3  O   UNL A   1      38.845  21.349  25.704  1.00  0.00    -0.376 OA
BRANCH   3   4
ATOM      4  C   UNL A   1      37.815  22.206  25.218  1.00  0.00     0.202 C 
BRANCH   4   5
ATOM      5  C   UNL A   1      37.578  23.506  26.002  1.00  0.00     0.261 C 
BRANCH   5   6
ATOM      6  O   UNL A   1      36.276  24.093  25.774  1.00  0.00    -0.460 OA
BRANCH   6   7
ATOM      7  C   UNL A   1      35.205  23.431  26.299  1.00  0.00     0.350 C 
ATOM      8  O   UNL A   1      35.195  22.981  27.444  1.00  0.00    -0.247 OA
BRANCH   7   9
ATOM      9  C   UNL A   1      33.973  23.293  25.334  1.00  0.00     0.209 C 
ATOM     10  C   UNL A   1      32.662  23.022  26.065  1.00  0.00     0.082 C 
ATOM     11  C   UNL A   1      34.068  24.595  24.532  1.00  0.00     0.082 C 
ATOM     12  C   UNL A   1      31.572  24.083  25.966  1.00  0.00     0.124 C 
ATOM     13  C   UNL A   1      32.771  25.160  24.015  1.00  0.00     0.124 C 
ATOM     14  N   UNL A   1      31.694  25.169  24.996  1.00  0.00    -0.342 N 
ATOM     15  C   UNL A   1      30.607  26.048  24.956  1.00  0.00     0.228 C 
ATOM     16  O   UNL A   1      29.675  25.935  25.756  1.00  0.00    -0.274 OA
BRANCH   9  17
ATOM     17  O   UNL A   1      34.409  22.113  24.622  1.00  0.00    -0.475 OA
BRANCH  17  18
ATOM     18  C   UNL A   1      33.815  20.979  24.176  1.00  0.00     0.124 A 
ATOM     19  C   UNL A   1      31.801  21.709  22.687  1.00  0.00     0.048 C 
ATOM     20  C   UNL A   1      32.722  20.730  23.334  1.00  0.00    -0.006 A 
ATOM     21  C   UNL A   1      32.331  19.386  23.094  1.00  0.00     0.046 A 
ATOM     22  C   UNL A   1      32.974  18.318  23.697  1.00  0.00     0.123 A 
ATOM     23  C   UNL A   1      34.436  19.861  24.784  1.00  0.00     0.050 A 
ATOM     24  F   UNL A   1      32.551  17.071  23.457  1.00  0.00    -0.207 F 
ATOM     25  C   UNL A   1      34.025  18.544  24.557  1.00  0.00     0.043 A 
ENDBRANCH  17  18
ENDBRANCH   9  17
BRANCH  15  26
ATOM     26  C   UNL A   1      30.578  27.134  23.892  1.00  0.00     0.107 C 
ATOM     27  C   UNL A   1      29.175  27.448  23.413  1.00  0.00     0.044 C 
ATOM     28  C   UNL A   1      31.021  28.478  24.448  1.00  0.00     0.173 C 
ATOM     29  C   UNL A   1      29.252  28.906  23.005  1.00  0.00     0.161 C 
ATOM     30  O   UNL A   1      30.399  29.483  23.636  1.00  0.00    -0.381 OA
ENDBRANCH  15  26
ENDBRANCH   7   9
ENDBRANCH   6   7
ENDBRANCH   5   6
ENDBRANCH   4   5
ENDBRANCH   3   4
ENDBRANCH   2   3
ENDBRANCH   1   2
BRANCH   1  31
ATOM     31  O   UNL A   1      41.903  21.197  25.632  1.00  0.00    -0.376 OA
BRANCH  31  32
ATOM     32  C   UNL A   1      43.265  20.796  25.827  1.00  0.00     0.202 C 
BRANCH  32  33
ATOM     33  C   UNL A   1      44.339  21.730  25.232  1.00  0.00     0.261 C 
BRANCH  33  34
ATOM     34  O   UNL A   1      44.763  22.794  26.109  1.00  0.00    -0.460 OA
BRANCH  34  35
ATOM     35  C   UNL A   1      44.728  24.056  25.620  1.00  0.00     0.338 C 
ATOM     36  O   UNL A   1      45.078  24.407  24.504  1.00  0.00    -0.246 OA
BRANCH  35  37
ATOM     37  C   UNL A   1      43.939  24.901  26.556  1.00  0.00     0.060 A 
ATOM     38  C   UNL A   1      43.980  26.293  26.383  1.00  0.00     0.016 A 
ATOM     39  C   UNL A   1      43.108  24.347  27.537  1.00  0.00     0.016 A 
ATOM     40  C   UNL A   1      43.235  27.129  27.217  1.00  0.00     0.010 A 
ATOM     41  C   UNL A   1      42.367  25.186  28.375  1.00  0.00     0.010 A 
ATOM     42  C   UNL A   1      42.455  26.583  28.245  1.00  0.00    -0.014 A 
BRANCH  42  43
ATOM     43  C   UNL A   1      41.910  27.464  29.308  1.00  0.00     0.031 A 
ATOM     44  C   UNL A   1      42.594  27.462  30.650  1.00  0.00     0.074 A 
ATOM     45  C   UNL A   1      40.839  28.251  29.108  1.00  0.00     0.049 A 
ATOM     46  N   UNL A   1      42.312  28.146  31.727  1.00  0.00    -0.248 NA
ATOM     47  C   UNL A   1      43.749  26.560  30.792  1.00  0.00     0.031 C 
ATOM     48  C   UNL A   1      40.080  28.351  27.864  1.00  0.00     0.029 A 
ATOM     49  N   UNL A   1      40.195  29.107  29.967  1.00  0.00    -0.354 N 
ATOM     50  C   UNL A   1      43.235  27.741  32.682  1.00  0.00     0.074 A 
ATOM     51  C   UNL A   1      44.076  26.739  32.062  1.00  0.00     0.031 C 
ATOM     52  C   UNL A   1      39.067  29.219  28.042  1.00  0.00     0.029 A 
ATOM     53  C   UNL A   1      39.091  29.716  29.419  1.00  0.00     0.049 A 
ATOM     54  H   UNL A   1      40.496  29.271  30.890  1.00  0.00     0.167 HD
ATOM     55  C   UNL A   1      43.386  28.168  33.958  1.00  0.00     0.034 A 
ATOM     56  C   UNL A   1      38.199  30.567  29.968  1.00  0.00     0.034 A 
ATOM     57  C   UNL A   1      42.564  29.166  34.582  1.00  0.00     0.049 A 
ATOM     58  C   UNL A   1      38.361  30.997  31.406  1.00  0.00     0.074 A 
ATOM     59  C   UNL A   1      42.674  29.697  35.855  1.00  0.00     0.029 A 
ATOM     60  N   UNL A   1      41.466  29.769  33.991  1.00  0.00    -0.354 N 
ATOM     61  N   UNL A   1      39.316  30.705  32.257  1.00  0.00    -0.248 NA
ATOM     62  C   UNL A   1      37.332  31.896  31.952  1.00  0.00     0.031 C 
ATOM     63  C   UNL A   1      41.620  30.597  36.045  1.00  0.00     0.029 A 
ATOM     64  C   UNL A   1      40.873  30.650  34.879  1.00  0.00     0.049 A 
ATOM     65  H   UNL A   1      41.153  29.596  33.074  1.00  0.00     0.167 HD
ATOM     66  C   UNL A   1      39.023  31.412  33.421  1.00  0.00     0.074 A 
ATOM     67  C   UNL A   1      37.810  32.157  33.161  1.00  0.00     0.031 C 
ATOM     68  C   UNL A   1      39.694  31.431  34.600  1.00  0.00     0.034 A 
BRANCH  55  69
ATOM     69  C   UNL A   1      44.501  27.549  34.759  1.00  0.00     0.023 A 
ATOM     70  C   UNL A   1      44.277  26.343  35.454  1.00  0.00     0.012 A 
ATOM     71  C   UNL A   1      45.770  28.156  34.815  1.00  0.00     0.148 A 
ATOM     72  C   UNL A   1      45.286  25.774  36.231  1.00  0.00     0.002 A 
ATOM     73  C   UNL A   1      46.784  27.559  35.554  1.00  0.00     0.091 A 
ATOM     74  F   UNL A   1      45.955  29.317  34.172  1.00  0.00    -0.205 F 
ATOM     75  C   UNL A   1      46.540  26.377  36.273  1.00  0.00     0.022 A 
BRANCH  73  76
ATOM     76  S   UNL A   1      48.450  28.225  35.605  1.00  0.00     0.127 S 
ATOM     77  O   UNL A   1      48.806  28.022  37.009  1.00  0.00    -0.237 OA
ATOM     78  O   UNL A   1      49.161  27.357  34.665  1.00  0.00    -0.237 OA
ATOM     79  O   UNL A   1      48.336  29.611  35.176  1.00  0.00    -0.744 OA
ENDBRANCH  73  76
ENDBRANCH  55  69
BRANCH  56  80
ATOM     80  C   UNL A   1      37.085  31.115  29.142  1.00  0.00     0.023 A 
ATOM     81  C   UNL A   1      37.083  32.482  28.807  1.00  0.00     0.012 A 
ATOM     82  C   UNL A   1      36.038  30.293  28.683  1.00  0.00     0.148 A 
ATOM     83  C   UNL A   1      36.047  33.028  28.049  1.00  0.00     0.002 A 
ATOM     84  C   UNL A   1      35.035  30.832  27.884  1.00  0.00     0.091 A 
ATOM     85  F   UNL A   1      36.050  28.998  29.027  1.00  0.00    -0.205 F 
ATOM     86  C   UNL A   1      35.030  32.202  27.578  1.00  0.00     0.022 A 
BRANCH  84  87
ATOM     87  S   UNL A   1      33.743  29.830  27.141  1.00  0.00     0.127 S 
ATOM     88  O   UNL A   1      32.745  30.839  26.792  1.00  0.00    -0.237 OA
ATOM     89  O   UNL A   1      34.445  29.237  26.003  1.00  0.00    -0.237 OA
ATOM     90  O   UNL A   1      33.340  28.879  28.167  1.00  0.00    -0.744 OA
ENDBRANCH  84  87
ENDBRANCH  56  80
BRANCH  68  91
ATOM     91  C   UNL A   1      39.163  32.310  35.706  1.00  0.00     0.023 A 
ATOM     92  C   UNL A   1      38.217  31.798  36.618  1.00  0.00     0.012 A 
ATOM     93  C   UNL A   1      39.667  33.613  35.896  1.00  0.00     0.148 A 
ATOM     94  C   UNL A   1      37.762  32.576  37.682  1.00  0.00     0.002 A 
ATOM     95  C   UNL A   1      39.245  34.366  36.987  1.00  0.00     0.091 A 
ATOM     96  F   UNL A   1      40.552  34.091  35.011  1.00  0.00    -0.205 F 
ATOM     97  C   UNL A   1      38.284  33.854  37.874  1.00  0.00     0.022 A 
BRANCH  95  98
ATOM     98  S   UNL A   1      39.934  35.981  37.368  1.00  0.00     0.127 S 
ATOM     99  O   UNL A   1      41.335  35.653  37.632  1.00  0.00    -0.237 OA
ATOM    100  O   UNL A   1      39.704  36.719  36.126  1.00  0.00    -0.237 OA
ATOM    101  O   UNL A   1      39.182  36.478  38.513  1.00  0.00    -0.744 OA
ENDBRANCH  95  98
ENDBRANCH  68  91
ENDBRANCH  42  43
ENDBRANCH  35  37
ENDBRANCH  34  35
ENDBRANCH  33  34
ENDBRANCH  32  33
ENDBRANCH  31  32
ENDBRANCH   1  31
TORSDOF 23
ENDMDL
