MODEL 1
REMARK VINA RESULT:     -13.3      0.000      0.000
REMARK SMILES Cc1ccc(-c2cc(Cl)cc3c2O[C@H](C(F)(F)F)C(C(=O)OCCOCCOCCOC(=O)c2ccc(-c4c5nc(c(-c6cccc(S(=O)(=O)[O-])c6F)c6ccc([nH]6)c(-c6cccc(S(=O)(=O)[O-])c6F)c6nc(c(-c7cccc(S(=O)(=O)[O-])c7F)c7ccc4[nH]7)C=C6)C=C5)cc2)=C3)cc1F
REMARK SMILES IDX 27 1 26 2 25 3 24 4 23 5 22 6 20 7 21 8 19 9 6 10 7 11 12 12
REMARK SMILES IDX 8 13 11 14 13 15 9 16 10 17 97 18 14 19 5 20 1 21 2 22 3 23
REMARK SMILES IDX 99 24 4 25 98 26 100 27 15 28 16 29 17 30 18 31 28 32 29 33
REMARK SMILES IDX 30 34 31 35 32 36 33 37 34 38 35 39 96 40 36 41 95 42 37 43
REMARK SMILES IDX 38 44 39 45 89 46 40 47 94 48 88 49 90 50 41 51 93 52 87 53
REMARK SMILES IDX 86 54 42 56 74 57 54 58 73 59 55 60 58 61 72 62 91 63 56 64
REMARK SMILES IDX 57 65 71 67 92 68 59 69 43 70 44 71 52 72 45 73 47 74 53 75
REMARK SMILES IDX 46 76 48 77 49 78 50 79 51 80 75 81 76 82 84 83 77 84 79 85
REMARK SMILES IDX 85 86 78 87 80 88 81 89 82 90 83 91 60 92 61 93 69 94 62 95
REMARK SMILES IDX 64 96 70 97 63 98 65 99 66 100 67 101 68 102
REMARK H PARENT 90 55 58 66
REMARK Flexibility Score: inf
ROOT
ATOM      1  C   UNL A   1      33.222  31.231  27.352  1.00  0.00     0.188 C 
ENDROOT
BRANCH   1   2
ATOM      2  C   UNL A   1      31.759  30.947  26.489  1.00  0.00     0.188 C 
BRANCH   2   3
ATOM      3  O   UNL A   1      31.441  29.917  24.787  1.00  0.00    -0.376 OA
BRANCH   3   4
ATOM      4  C   UNL A   1      30.799  28.422  24.290  1.00  0.00     0.202 C 
BRANCH   4   5
ATOM      5  C   UNL A   1      30.803  27.700  22.708  1.00  0.00     0.261 C 
BRANCH   5   6
ATOM      6  O   UNL A   1      31.500  26.376  22.416  1.00  0.00    -0.460 OA
BRANCH   6   7
ATOM      7  C   UNL A   1      31.269  25.194  23.084  1.00  0.00     0.338 C 
ATOM      8  O   UNL A   1      30.185  24.923  23.600  1.00  0.00    -0.246 OA
BRANCH   7   9
ATOM      9  C   UNL A   1      32.331  24.060  22.993  1.00  0.00     0.087 C 
ATOM     10  C   UNL A   1      34.778  21.029  24.673  1.00  0.00     0.026 A 
ATOM     11  C   UNL A   1      34.273  19.732  24.847  1.00  0.00     0.033 A 
ATOM     12  C   UNL A   1      34.042  21.993  23.931  1.00  0.00     0.135 A 
ATOM     13  C   UNL A   1      33.051  19.407  24.285  1.00  0.00     0.042 A 
ATOM     14  C   UNL A   1      32.835  21.674  23.350  1.00  0.00     0.019 A 
ATOM     15  O   UNL A   1      34.576  23.247  23.757  1.00  0.00    -0.475 OA
ATOM     16  Cl  UNL A   1      32.408  17.822  24.510  1.00  0.00    -0.084 Cl
ATOM     17  C   UNL A   1      32.344  20.366  23.545  1.00  0.00     0.032 A 
ATOM     18  C   UNL A   1      32.117  22.766  22.659  1.00  0.00     0.027 C 
ATOM     19  C   UNL A   1      33.646  24.377  23.629  1.00  0.00     0.316 C 
BRANCH  10  20
ATOM     20  C   UNL A   1      36.043  21.416  25.279  1.00  0.00    -0.012 A 
ATOM     21  C   UNL A   1      39.836  23.155  26.232  1.00  0.00     0.047 C 
ATOM     22  C   UNL A   1      38.527  22.479  25.991  1.00  0.00    -0.015 A 
ATOM     23  C   UNL A   1      38.452  21.216  25.394  1.00  0.00     0.007 A 
ATOM     24  C   UNL A   1      37.348  23.157  26.303  1.00  0.00     0.126 A 
ATOM     25  C   UNL A   1      37.213  20.683  25.042  1.00  0.00     0.009 A 
ATOM     26  C   UNL A   1      36.116  22.627  25.977  1.00  0.00     0.048 A 
ATOM     27  F   UNL A   1      37.401  24.369  26.872  1.00  0.00    -0.207 F 
ENDBRANCH  10  20
BRANCH  19  28
ATOM     28  C   UNL A   1      33.529  25.089  24.968  1.00  0.00     0.430 C 
ATOM     29  F   UNL A   1      34.741  25.157  25.575  1.00  0.00    -0.167 F 
ATOM     30  F   UNL A   1      33.110  26.367  24.834  1.00  0.00    -0.167 F 
ATOM     31  F   UNL A   1      32.697  24.449  25.820  1.00  0.00    -0.167 F 
ENDBRANCH  19  28
ENDBRANCH   7   9
ENDBRANCH   6   7
ENDBRANCH   5   6
ENDBRANCH   4   5
ENDBRANCH   3   4
ENDBRANCH   2   3
ENDBRANCH   1   2
BRANCH   1  32
ATOM     32  O   UNL A   1      34.351  30.463  26.975  1.00  0.00    -0.376 OA
BRANCH  32  33
ATOM     33  C   UNL A   1      35.397  30.211  27.894  1.00  0.00     0.202 C 
BRANCH  33  34
ATOM     34  C   UNL A   1      35.453  31.347  28.933  1.00  0.00     0.261 C 
BRANCH  34  35
ATOM     35  O   UNL A   1      36.730  31.416  29.599  1.00  0.00    -0.460 OA
BRANCH  35  36
ATOM     36  C   UNL A   1      36.872  30.481  30.581  1.00  0.00     0.338 C 
ATOM     37  O   UNL A   1      36.002  30.118  31.357  1.00  0.00    -0.246 OA
BRANCH  36  38
ATOM     38  C   UNL A   1      38.149  29.747  30.349  1.00  0.00     0.060 A 
ATOM     39  C   UNL A   1      38.294  28.391  30.676  1.00  0.00     0.016 A 
ATOM     40  C   UNL A   1      39.277  30.535  30.071  1.00  0.00     0.016 A 
ATOM     41  C   UNL A   1      39.573  27.838  30.776  1.00  0.00     0.010 A 
ATOM     42  C   UNL A   1      40.546  29.992  30.208  1.00  0.00     0.010 A 
ATOM     43  C   UNL A   1      40.694  28.651  30.576  1.00  0.00    -0.014 A 
BRANCH  43  44
ATOM     44  C   UNL A   1      42.050  28.118  30.638  1.00  0.00     0.031 A 
ATOM     45  C   UNL A   1      42.371  27.003  29.760  1.00  0.00     0.074 A 
ATOM     46  C   UNL A   1      43.010  28.606  31.445  1.00  0.00     0.049 A 
ATOM     47  N   UNL A   1      43.156  26.042  30.081  1.00  0.00    -0.248 NA
ATOM     48  C   UNL A   1      41.797  26.881  28.428  1.00  0.00     0.031 C 
ATOM     49  C   UNL A   1      44.413  28.255  31.626  1.00  0.00     0.029 A 
ATOM     50  N   UNL A   1      42.821  29.500  32.466  1.00  0.00    -0.354 N 
ATOM     51  C   UNL A   1      43.523  25.456  28.898  1.00  0.00     0.074 A 
ATOM     52  C   UNL A   1      42.524  25.872  27.939  1.00  0.00     0.031 C 
ATOM     53  C   UNL A   1      44.746  28.507  32.911  1.00  0.00     0.029 A 
ATOM     54  C   UNL A   1      43.539  29.013  33.548  1.00  0.00     0.049 A 
ATOM     55  H   UNL A   1      42.283  30.323  32.436  1.00  0.00     0.167 HD
ATOM     56  C   UNL A   1      44.755  24.883  28.807  1.00  0.00     0.034 A 
ATOM     57  C   UNL A   1      42.880  28.699  34.678  1.00  0.00     0.034 A 
ATOM     58  C   UNL A   1      45.489  25.022  30.065  1.00  0.00     0.049 A 
ATOM     59  C   UNL A   1      43.351  27.304  34.988  1.00  0.00     0.074 A 
ATOM     60  C   UNL A   1      46.526  25.855  30.456  1.00  0.00     0.029 A 
ATOM     61  N   UNL A   1      44.955  24.492  31.235  1.00  0.00    -0.354 N 
ATOM     62  N   UNL A   1      43.517  26.405  34.038  1.00  0.00    -0.248 NA
ATOM     63  C   UNL A   1      44.020  26.937  36.238  1.00  0.00     0.031 C 
ATOM     64  C   UNL A   1      46.574  25.861  31.875  1.00  0.00     0.029 A 
ATOM     65  C   UNL A   1      45.535  25.071  32.344  1.00  0.00     0.049 A 
ATOM     66  H   UNL A   1      44.257  23.799  31.268  1.00  0.00     0.167 HD
ATOM     67  C   UNL A   1      44.448  25.489  34.473  1.00  0.00     0.074 A 
ATOM     68  C   UNL A   1      44.672  25.820  35.875  1.00  0.00     0.031 C 
ATOM     69  C   UNL A   1      45.167  24.637  33.679  1.00  0.00     0.034 A 
BRANCH  56  70
ATOM     70  C   UNL A   1      45.378  24.490  27.491  1.00  0.00     0.023 A 
ATOM     71  C   UNL A   1      45.305  23.173  26.991  1.00  0.00     0.012 A 
ATOM     72  C   UNL A   1      46.084  25.420  26.698  1.00  0.00     0.148 A 
ATOM     73  C   UNL A   1      45.816  22.820  25.735  1.00  0.00     0.002 A 
ATOM     74  C   UNL A   1      46.629  25.059  25.468  1.00  0.00     0.091 A 
ATOM     75  F   UNL A   1      46.251  26.680  27.112  1.00  0.00    -0.205 F 
ATOM     76  C   UNL A   1      46.483  23.766  24.969  1.00  0.00     0.022 A 
BRANCH  74  77
ATOM     77  S   UNL A   1      47.563  26.287  24.552  1.00  0.00     0.127 S 
ATOM     78  O   UNL A   1      48.501  26.792  25.550  1.00  0.00    -0.237 OA
ATOM     79  O   UNL A   1      48.128  25.518  23.449  1.00  0.00    -0.237 OA
ATOM     80  O   UNL A   1      46.539  27.250  24.146  1.00  0.00    -0.744 OA
ENDBRANCH  74  77
ENDBRANCH  56  70
BRANCH  57  81
ATOM     81  C   UNL A   1      41.630  29.561  34.851  1.00  0.00     0.023 A 
ATOM     82  C   UNL A   1      40.124  29.503  33.947  1.00  0.00     0.012 A 
ATOM     83  C   UNL A   1      41.777  30.868  36.125  1.00  0.00     0.148 A 
ATOM     84  C   UNL A   1      38.741  30.565  34.340  1.00  0.00     0.002 A 
ATOM     85  C   UNL A   1      40.340  31.968  36.606  1.00  0.00     0.091 A 
ATOM     86  F   UNL A   1      42.973  30.812  36.662  1.00  0.00    -0.205 F 
ATOM     87  C   UNL A   1      38.824  31.776  35.649  1.00  0.00     0.022 A 
BRANCH  85  88
ATOM     88  S   UNL A   1      40.107  33.166  38.017  1.00  0.00     0.127 S 
ATOM     89  O   UNL A   1      39.637  34.380  37.354  1.00  0.00    -0.237 OA
ATOM     90  O   UNL A   1      39.184  32.522  38.946  1.00  0.00    -0.237 OA
ATOM     91  O   UNL A   1      41.462  33.295  38.547  1.00  0.00    -0.744 OA
ENDBRANCH  85  88
ENDBRANCH  57  81
BRANCH  69  92
ATOM     92  C   UNL A   1      45.722  23.318  34.148  1.00  0.00     0.023 A 
ATOM     93  C   UNL A   1      44.847  22.210  34.311  1.00  0.00     0.012 A 
ATOM     94  C   UNL A   1      47.033  23.158  34.603  1.00  0.00     0.148 A 
ATOM     95  C   UNL A   1      45.261  21.017  34.905  1.00  0.00     0.002 A 
ATOM     96  C   UNL A   1      47.473  21.929  35.075  1.00  0.00     0.091 A 
ATOM     97  F   UNL A   1      47.871  24.203  34.640  1.00  0.00    -0.205 F 
ATOM     98  C   UNL A   1      46.590  20.865  35.268  1.00  0.00     0.022 A 
BRANCH  96  99
ATOM     99  S   UNL A   1      49.235  21.717  35.285  1.00  0.00     0.127 S 
ATOM    100  O   UNL A   1      49.727  21.856  33.915  1.00  0.00    -0.237 OA
ATOM    101  O   UNL A   1      49.601  22.781  36.215  1.00  0.00    -0.237 OA
ATOM    102  O   UNL A   1      49.350  20.367  35.834  1.00  0.00    -0.744 OA
ENDBRANCH  96  99
ENDBRANCH  69  92
ENDBRANCH  43  44
ENDBRANCH  36  38
ENDBRANCH  35  36
ENDBRANCH  34  35
ENDBRANCH  33  34
ENDBRANCH  32  33
ENDBRANCH   1  32
TORSDOF 22
ENDMDL
MODEL 2
REMARK VINA RESULT:     -12.5      5.762      9.015
REMARK SMILES Cc1ccc(-c2cc(Cl)cc3c2O[C@H](C(F)(F)F)C(C(=O)OCCOCCOCCOC(=O)c2ccc(-c4c5nc(c(-c6cccc(S(=O)(=O)[O-])c6F)c6ccc([nH]6)c(-c6cccc(S(=O)(=O)[O-])c6F)c6nc(c(-c7cccc(S(=O)(=O)[O-])c7F)c7ccc4[nH]7)C=C6)C=C5)cc2)=C3)cc1F
REMARK SMILES IDX 27 1 26 2 25 3 24 4 23 5 22 6 20 7 21 8 19 9 6 10 7 11 12 12
REMARK SMILES IDX 8 13 11 14 13 15 9 16 10 17 97 18 14 19 5 20 1 21 2 22 3 23
REMARK SMILES IDX 99 24 4 25 98 26 100 27 15 28 16 29 17 30 18 31 28 32 29 33
REMARK SMILES IDX 30 34 31 35 32 36 33 37 34 38 35 39 96 40 36 41 95 42 37 43
REMARK SMILES IDX 38 44 39 45 89 46 40 47 94 48 88 49 90 50 41 51 93 52 87 53
REMARK SMILES IDX 86 54 42 56 74 57 54 58 73 59 55 60 58 61 72 62 91 63 56 64
REMARK SMILES IDX 57 65 71 67 92 68 59 69 43 70 44 71 52 72 45 73 47 74 53 75
REMARK SMILES IDX 46 76 48 77 49 78 50 79 51 80 75 81 76 82 84 83 77 84 79 85
REMARK SMILES IDX 85 86 78 87 80 88 81 89 82 90 83 91 60 92 61 93 69 94 62 95
REMARK SMILES IDX 64 96 70 97 63 98 65 99 66 100 67 101 68 102
REMARK H PARENT 90 55 58 66
REMARK Flexibility Score: inf
ROOT
ATOM      1  C   UNL A   1      40.244  27.819  27.768  1.00  0.00     0.188 C 
ENDROOT
BRANCH   1   2
ATOM      2  C   UNL A   1      39.002  28.983  27.506  1.00  0.00     0.188 C 
BRANCH   2   3
ATOM      3  O   UNL A   1      37.326  29.346  28.563  1.00  0.00    -0.376 OA
BRANCH   3   4
ATOM      4  C   UNL A   1      35.644  29.421  28.319  1.00  0.00     0.202 C 
BRANCH   4   5
ATOM      5  C   UNL A   1      34.748  30.320  27.130  1.00  0.00     0.261 C 
BRANCH   5   6
ATOM      6  O   UNL A   1      33.240  30.176  26.962  1.00  0.00    -0.460 OA
BRANCH   6   7
ATOM      7  C   UNL A   1      32.614  29.621  25.868  1.00  0.00     0.338 C 
ATOM      8  O   UNL A   1      31.656  30.155  25.308  1.00  0.00    -0.246 OA
BRANCH   7   9
ATOM      9  C   UNL A   1      33.273  28.399  25.165  1.00  0.00     0.087 C 
ATOM     10  C   UNL A   1      33.145  24.600  23.283  1.00  0.00     0.026 A 
ATOM     11  C   UNL A   1      32.894  24.503  21.907  1.00  0.00     0.033 A 
ATOM     12  C   UNL A   1      33.389  25.865  23.882  1.00  0.00     0.135 A 
ATOM     13  C   UNL A   1      32.889  25.657  21.144  1.00  0.00     0.042 A 
ATOM     14  C   UNL A   1      33.408  27.018  23.129  1.00  0.00     0.019 A 
ATOM     15  O   UNL A   1      33.658  25.923  25.229  1.00  0.00    -0.475 OA
ATOM     16  Cl  UNL A   1      32.560  25.556  19.453  1.00  0.00    -0.084 Cl
ATOM     17  C   UNL A   1      33.145  26.897  21.748  1.00  0.00     0.032 A 
ATOM     18  C   UNL A   1      33.603  28.289  23.857  1.00  0.00     0.027 C 
ATOM     19  C   UNL A   1      33.253  27.132  25.958  1.00  0.00     0.316 C 
BRANCH  10  20
ATOM     20  C   UNL A   1      33.123  23.410  24.122  1.00  0.00    -0.012 A 
ATOM     21  C   UNL A   1      32.916  19.435  25.695  1.00  0.00     0.047 C 
ATOM     22  C   UNL A   1      32.991  20.860  25.255  1.00  0.00    -0.015 A 
ATOM     23  C   UNL A   1      31.870  21.697  25.285  1.00  0.00     0.007 A 
ATOM     24  C   UNL A   1      34.192  21.345  24.735  1.00  0.00     0.126 A 
ATOM     25  C   UNL A   1      31.936  22.971  24.723  1.00  0.00     0.009 A 
ATOM     26  C   UNL A   1      34.271  22.613  24.196  1.00  0.00     0.048 A 
ATOM     27  F   UNL A   1      35.275  20.556  24.696  1.00  0.00    -0.207 F 
ENDBRANCH  10  20
BRANCH  19  28
ATOM     28  C   UNL A   1      31.937  26.873  26.675  1.00  0.00     0.430 C 
ATOM     29  F   UNL A   1      30.891  27.205  25.877  1.00  0.00    -0.167 F 
ATOM     30  F   UNL A   1      31.768  25.568  26.983  1.00  0.00    -0.167 F 
ATOM     31  F   UNL A   1      31.816  27.603  27.807  1.00  0.00    -0.167 F 
ENDBRANCH  19  28
ENDBRANCH   7   9
ENDBRANCH   6   7
ENDBRANCH   5   6
ENDBRANCH   4   5
ENDBRANCH   3   4
ENDBRANCH   2   3
ENDBRANCH   1   2
BRANCH   1  32
ATOM     32  O   UNL A   1      40.030  26.521  27.243  1.00  0.00    -0.376 OA
BRANCH  32  33
ATOM     33  C   UNL A   1      40.773  26.055  26.133  1.00  0.00     0.202 C 
BRANCH  33  34
ATOM     34  C   UNL A   1      41.209  24.599  26.383  1.00  0.00     0.261 C 
BRANCH  34  35
ATOM     35  O   UNL A   1      42.638  24.475  26.532  1.00  0.00    -0.460 OA
BRANCH  35  36
ATOM     36  C   UNL A   1      43.235  23.855  25.475  1.00  0.00     0.338 C 
ATOM     37  O   UNL A   1      42.735  22.985  24.778  1.00  0.00    -0.246 OA
BRANCH  36  38
ATOM     38  C   UNL A   1      44.457  24.625  25.106  1.00  0.00     0.060 A 
ATOM     39  C   UNL A   1      45.700  24.002  24.927  1.00  0.00     0.016 A 
ATOM     40  C   UNL A   1      44.374  26.020  25.236  1.00  0.00     0.016 A 
ATOM     41  C   UNL A   1      46.865  24.772  24.932  1.00  0.00     0.010 A 
ATOM     42  C   UNL A   1      45.535  26.777  25.279  1.00  0.00     0.010 A 
ATOM     43  C   UNL A   1      46.779  26.153  25.143  1.00  0.00    -0.014 A 
BRANCH  43  44
ATOM     44  C   UNL A   1      47.961  27.007  25.128  1.00  0.00     0.031 A 
ATOM     45  C   UNL A   1      48.750  27.035  23.905  1.00  0.00     0.074 A 
ATOM     46  C   UNL A   1      48.348  27.771  26.167  1.00  0.00     0.049 A 
ATOM     47  N   UNL A   1      50.027  27.136  23.879  1.00  0.00    -0.248 NA
ATOM     48  C   UNL A   1      48.136  26.927  22.589  1.00  0.00     0.031 C 
ATOM     49  C   UNL A   1      49.448  28.710  26.340  1.00  0.00     0.029 A 
ATOM     50  N   UNL A   1      47.846  27.703  27.439  1.00  0.00    -0.354 N 
ATOM     51  C   UNL A   1      50.338  27.544  22.608  1.00  0.00     0.074 A 
ATOM     52  C   UNL A   1      49.181  27.216  21.807  1.00  0.00     0.031 C 
ATOM     53  C   UNL A   1      49.813  28.693  27.640  1.00  0.00     0.029 A 
ATOM     54  C   UNL A   1      48.940  27.728  28.291  1.00  0.00     0.049 A 
ATOM     55  H   UNL A   1      46.898  27.650  27.698  1.00  0.00     0.167 HD
ATOM     56  C   UNL A   1      51.438  28.326  22.424  1.00  0.00     0.034 A 
ATOM     57  C   UNL A   1      49.155  26.677  29.104  1.00  0.00     0.034 A 
ATOM     58  C   UNL A   1      52.105  28.598  23.698  1.00  0.00     0.049 A 
ATOM     59  C   UNL A   1      50.595  26.322  28.851  1.00  0.00     0.074 A 
ATOM     60  C   UNL A   1      52.141  29.716  24.515  1.00  0.00     0.029 A 
ATOM     61  N   UNL A   1      52.569  27.538  24.471  1.00  0.00    -0.354 N 
ATOM     62  N   UNL A   1      51.108  26.344  27.637  1.00  0.00    -0.248 NA
ATOM     63  C   UNL A   1      51.619  26.307  29.899  1.00  0.00     0.031 C 
ATOM     64  C   UNL A   1      52.581  29.308  25.801  1.00  0.00     0.029 A 
ATOM     65  C   UNL A   1      52.763  27.933  25.778  1.00  0.00     0.049 A 
ATOM     66  H   UNL A   1      52.735  26.629  24.132  1.00  0.00     0.167 HD
ATOM     67  C   UNL A   1      52.465  26.551  27.750  1.00  0.00     0.074 A 
ATOM     68  C   UNL A   1      52.744  26.444  29.177  1.00  0.00     0.031 C 
ATOM     69  C   UNL A   1      53.293  27.003  26.758  1.00  0.00     0.034 A 
BRANCH  56  70
ATOM     70  C   UNL A   1      51.700  29.078  21.144  1.00  0.00     0.023 A 
ATOM     71  C   UNL A   1      51.467  30.465  21.029  1.00  0.00     0.012 A 
ATOM     72  C   UNL A   1      52.177  28.428  19.986  1.00  0.00     0.148 A 
ATOM     73  C   UNL A   1      51.781  31.183  19.866  1.00  0.00     0.002 A 
ATOM     74  C   UNL A   1      52.449  29.135  18.816  1.00  0.00     0.091 A 
ATOM     75  F   UNL A   1      52.379  27.107  19.980  1.00  0.00    -0.205 F 
ATOM     76  C   UNL A   1      52.272  30.516  18.754  1.00  0.00     0.022 A 
BRANCH  74  77
ATOM     77  S   UNL A   1      52.994  28.222  17.371  1.00  0.00     0.127 S 
ATOM     78  O   UNL A   1      51.807  27.452  17.007  1.00  0.00    -0.237 OA
ATOM     79  O   UNL A   1      53.402  29.275  16.448  1.00  0.00    -0.237 OA
ATOM     80  O   UNL A   1      54.101  27.415  17.885  1.00  0.00    -0.744 OA
ENDBRANCH  74  77
ENDBRANCH  56  70
BRANCH  57  81
ATOM     81  C   UNL A   1      47.845  25.989  29.482  1.00  0.00     0.023 A 
ATOM     82  C   UNL A   1      46.756  25.066  28.456  1.00  0.00     0.012 A 
ATOM     83  C   UNL A   1      47.326  26.239  31.219  1.00  0.00     0.148 A 
ATOM     84  C   UNL A   1      45.286  24.278  29.100  1.00  0.00     0.002 A 
ATOM     85  C   UNL A   1      45.823  25.394  31.951  1.00  0.00     0.091 A 
ATOM     86  F   UNL A   1      48.212  26.991  31.828  1.00  0.00    -0.205 F 
ATOM     87  C   UNL A   1      44.816  24.420  30.817  1.00  0.00     0.022 A 
BRANCH  85  88
ATOM     88  S   UNL A   1      45.217  25.235  33.709  1.00  0.00     0.127 S 
ATOM     89  O   UNL A   1      45.755  26.426  34.359  1.00  0.00    -0.237 OA
ATOM     90  O   UNL A   1      43.764  25.128  33.626  1.00  0.00    -0.237 OA
ATOM     91  O   UNL A   1      45.861  24.002  34.154  1.00  0.00    -0.744 OA
ENDBRANCH  85  88
ENDBRANCH  57  81
BRANCH  69  92
ATOM     92  C   UNL A   1      54.766  26.701  26.689  1.00  0.00     0.023 A 
ATOM     93  C   UNL A   1      55.705  27.756  26.846  1.00  0.00     0.012 A 
ATOM     94  C   UNL A   1      55.275  25.457  26.304  1.00  0.00     0.148 A 
ATOM     95  C   UNL A   1      57.070  27.576  26.619  1.00  0.00     0.002 A 
ATOM     96  C   UNL A   1      56.644  25.252  26.204  1.00  0.00     0.091 A 
ATOM     97  F   UNL A   1      54.445  24.458  25.972  1.00  0.00    -0.205 F 
ATOM     98  C   UNL A   1      57.548  26.310  26.321  1.00  0.00     0.022 A 
BRANCH  96  99
ATOM     99  S   UNL A   1      57.210  23.562  26.072  1.00  0.00     0.127 S 
ATOM    100  O   UNL A   1      56.018  22.807  26.452  1.00  0.00    -0.237 OA
ATOM    101  O   UNL A   1      57.631  23.450  24.679  1.00  0.00    -0.237 OA
ATOM    102  O   UNL A   1      58.302  23.495  27.041  1.00  0.00    -0.744 OA
ENDBRANCH  96  99
ENDBRANCH  69  92
ENDBRANCH  43  44
ENDBRANCH  36  38
ENDBRANCH  35  36
ENDBRANCH  34  35
ENDBRANCH  33  34
ENDBRANCH  32  33
ENDBRANCH   1  32
TORSDOF 22
ENDMDL
MODEL 3
REMARK VINA RESULT:     -11.6      4.032      6.581
REMARK SMILES Cc1ccc(-c2cc(Cl)cc3c2O[C@H](C(F)(F)F)C(C(=O)OCCOCCOCCOC(=O)c2ccc(-c4c5nc(c(-c6cccc(S(=O)(=O)[O-])c6F)c6ccc([nH]6)c(-c6cccc(S(=O)(=O)[O-])c6F)c6nc(c(-c7cccc(S(=O)(=O)[O-])c7F)c7ccc4[nH]7)C=C6)C=C5)cc2)=C3)cc1F
REMARK SMILES IDX 27 1 26 2 25 3 24 4 23 5 22 6 20 7 21 8 19 9 6 10 7 11 12 12
REMARK SMILES IDX 8 13 11 14 13 15 9 16 10 17 97 18 14 19 5 20 1 21 2 22 3 23
REMARK SMILES IDX 99 24 4 25 98 26 100 27 15 28 16 29 17 30 18 31 28 32 29 33
REMARK SMILES IDX 30 34 31 35 32 36 33 37 34 38 35 39 96 40 36 41 95 42 37 43
REMARK SMILES IDX 38 44 39 45 89 46 40 47 94 48 88 49 90 50 41 51 93 52 87 53
REMARK SMILES IDX 86 54 42 56 74 57 54 58 73 59 55 60 58 61 72 62 91 63 56 64
REMARK SMILES IDX 57 65 71 67 92 68 59 69 43 70 44 71 52 72 45 73 47 74 53 75
REMARK SMILES IDX 46 76 48 77 49 78 50 79 51 80 75 81 76 82 84 83 77 84 79 85
REMARK SMILES IDX 85 86 78 87 80 88 81 89 82 90 83 91 60 92 61 93 69 94 62 95
REMARK SMILES IDX 64 96 70 97 63 98 65 99 66 100 67 101 68 102
REMARK H PARENT 90 55 58 66
REMARK Flexibility Score: inf
ROOT
ATOM      1  C   UNL A   1      34.558  30.631  27.571  1.00  0.00     0.188 C 
ENDROOT
BRANCH   1   2
ATOM      2  C   UNL A   1      32.890  30.462  27.174  1.00  0.00     0.188 C 
BRANCH   2   3
ATOM      3  O   UNL A   1      32.013  30.093  25.400  1.00  0.00    -0.376 OA
BRANCH   3   4
ATOM      4  C   UNL A   1      31.285  28.797  24.570  1.00  0.00     0.202 C 
BRANCH   4   5
ATOM      5  C   UNL A   1      31.308  28.435  22.869  1.00  0.00     0.261 C 
BRANCH   5   6
ATOM      6  O   UNL A   1      31.705  27.065  22.332  1.00  0.00    -0.460 OA
BRANCH   6   7
ATOM      7  C   UNL A   1      31.448  25.864  22.954  1.00  0.00     0.338 C 
ATOM      8  O   UNL A   1      30.346  25.580  23.423  1.00  0.00    -0.246 OA
BRANCH   7   9
ATOM      9  C   UNL A   1      32.511  24.730  22.866  1.00  0.00     0.087 C 
ATOM     10  C   UNL A   1      35.120  21.854  24.572  1.00  0.00     0.026 A 
ATOM     11  C   UNL A   1      34.646  20.574  24.893  1.00  0.00     0.033 A 
ATOM     12  C   UNL A   1      34.316  22.752  23.820  1.00  0.00     0.135 A 
ATOM     13  C   UNL A   1      33.385  20.200  24.465  1.00  0.00     0.042 A 
ATOM     14  C   UNL A   1      33.067  22.383  23.371  1.00  0.00     0.019 A 
ATOM     15  O   UNL A   1      34.820  23.990  23.501  1.00  0.00    -0.475 OA
ATOM     16  Cl  UNL A   1      32.779  18.636  24.870  1.00  0.00    -0.084 Cl
ATOM     17  C   UNL A   1      32.608  21.093  23.712  1.00  0.00     0.032 A 
ATOM     18  C   UNL A   1      32.282  23.412  22.656  1.00  0.00     0.027 C 
ATOM     19  C   UNL A   1      33.871  25.102  23.361  1.00  0.00     0.316 C 
BRANCH  10  20
ATOM     20  C   UNL A   1      36.428  22.294  25.036  1.00  0.00    -0.012 A 
ATOM     21  C   UNL A   1      40.001  23.090  27.255  1.00  0.00     0.047 C 
ATOM     22  C   UNL A   1      38.795  22.882  26.399  1.00  0.00    -0.015 A 
ATOM     23  C   UNL A   1      37.779  23.840  26.318  1.00  0.00     0.007 A 
ATOM     24  C   UNL A   1      38.648  21.671  25.721  1.00  0.00     0.126 A 
ATOM     25  C   UNL A   1      36.599  23.548  25.635  1.00  0.00     0.009 A 
ATOM     26  C   UNL A   1      37.491  21.383  25.025  1.00  0.00     0.048 A 
ATOM     27  F   UNL A   1      39.611  20.741  25.790  1.00  0.00    -0.207 F 
ENDBRANCH  10  20
BRANCH  19  28
ATOM     28  C   UNL A   1      33.859  25.921  24.642  1.00  0.00     0.430 C 
ATOM     29  F   UNL A   1      34.912  25.582  25.429  1.00  0.00    -0.167 F 
ATOM     30  F   UNL A   1      33.983  27.245  24.407  1.00  0.00    -0.167 F 
ATOM     31  F   UNL A   1      32.740  25.716  25.373  1.00  0.00    -0.167 F 
ENDBRANCH  19  28
ENDBRANCH   7   9
ENDBRANCH   6   7
ENDBRANCH   5   6
ENDBRANCH   4   5
ENDBRANCH   3   4
ENDBRANCH   2   3
ENDBRANCH   1   2
BRANCH   1  32
ATOM     32  O   UNL A   1      35.347  29.455  27.544  1.00  0.00    -0.376 OA
BRANCH  32  33
ATOM     33  C   UNL A   1      36.728  29.500  27.846  1.00  0.00     0.202 C 
BRANCH  33  34
ATOM     34  C   UNL A   1      36.967  30.477  29.013  1.00  0.00     0.261 C 
BRANCH  34  35
ATOM     35  O   UNL A   1      37.946  29.981  29.948  1.00  0.00    -0.460 OA
BRANCH  35  36
ATOM     36  C   UNL A   1      37.408  29.628  31.150  1.00  0.00     0.338 C 
ATOM     37  O   UNL A   1      36.223  29.441  31.378  1.00  0.00    -0.246 OA
BRANCH  36  38
ATOM     38  C   UNL A   1      38.514  29.194  32.051  1.00  0.00     0.060 A 
ATOM     39  C   UNL A   1      38.663  29.713  33.345  1.00  0.00     0.016 A 
ATOM     40  C   UNL A   1      39.560  28.477  31.449  1.00  0.00     0.016 A 
ATOM     41  C   UNL A   1      39.878  29.558  34.015  1.00  0.00     0.010 A 
ATOM     42  C   UNL A   1      40.777  28.358  32.102  1.00  0.00     0.010 A 
ATOM     43  C   UNL A   1      40.942  28.912  33.376  1.00  0.00    -0.014 A 
BRANCH  43  44
ATOM     44  C   UNL A   1      42.221  28.698  34.041  1.00  0.00     0.031 A 
ATOM     45  C   UNL A   1      42.350  27.514  34.878  1.00  0.00     0.074 A 
ATOM     46  C   UNL A   1      43.280  29.519  33.913  1.00  0.00     0.049 A 
ATOM     47  N   UNL A   1      43.025  27.476  35.967  1.00  0.00    -0.248 NA
ATOM     48  C   UNL A   1      41.690  26.259  34.545  1.00  0.00     0.031 C 
ATOM     49  C   UNL A   1      44.636  29.465  34.445  1.00  0.00     0.029 A 
ATOM     50  N   UNL A   1      43.262  30.764  33.342  1.00  0.00    -0.354 N 
ATOM     51  C   UNL A   1      43.247  26.147  36.216  1.00  0.00     0.074 A 
ATOM     52  C   UNL A   1      42.255  25.440  35.437  1.00  0.00     0.031 C 
ATOM     53  C   UNL A   1      45.070  30.733  34.615  1.00  0.00     0.029 A 
ATOM     54  C   UNL A   1      43.974  31.593  34.195  1.00  0.00     0.049 A 
ATOM     55  H   UNL A   1      42.831  31.018  32.495  1.00  0.00     0.167 HD
ATOM     56  C   UNL A   1      44.390  25.786  36.862  1.00  0.00     0.034 A 
ATOM     57  C   UNL A   1      43.346  32.644  34.755  1.00  0.00     0.034 A 
ATOM     58  C   UNL A   1      45.207  26.960  37.174  1.00  0.00     0.049 A 
ATOM     59  C   UNL A   1      43.656  32.500  36.221  1.00  0.00     0.074 A 
ATOM     60  C   UNL A   1      46.360  27.475  36.603  1.00  0.00     0.029 A 
ATOM     61  N   UNL A   1      44.678  27.975  37.964  1.00  0.00    -0.354 N 
ATOM     62  N   UNL A   1      43.653  31.324  36.815  1.00  0.00    -0.248 NA
ATOM     63  C   UNL A   1      44.344  33.529  37.005  1.00  0.00     0.031 C 
ATOM     64  C   UNL A   1      46.490  28.827  37.017  1.00  0.00     0.029 A 
ATOM     65  C   UNL A   1      45.388  29.145  37.797  1.00  0.00     0.049 A 
ATOM     66  H   UNL A   1      43.902  27.873  38.560  1.00  0.00     0.167 HD
ATOM     67  C   UNL A   1      44.486  31.395  37.910  1.00  0.00     0.074 A 
ATOM     68  C   UNL A   1      44.829  32.807  38.028  1.00  0.00     0.031 C 
ATOM     69  C   UNL A   1      45.046  30.330  38.562  1.00  0.00     0.034 A 
BRANCH  56  70
ATOM     70  C   UNL A   1      44.884  24.362  36.915  1.00  0.00     0.023 A 
ATOM     71  C   UNL A   1      44.897  23.531  35.774  1.00  0.00     0.012 A 
ATOM     72  C   UNL A   1      45.342  23.780  38.116  1.00  0.00     0.148 A 
ATOM     73  C   UNL A   1      45.425  22.233  35.801  1.00  0.00     0.002 A 
ATOM     74  C   UNL A   1      45.828  22.475  38.151  1.00  0.00     0.091 A 
ATOM     75  F   UNL A   1      45.320  24.470  39.260  1.00  0.00    -0.205 F 
ATOM     76  C   UNL A   1      45.891  21.700  36.994  1.00  0.00     0.022 A 
BRANCH  74  77
ATOM     77  S   UNL A   1      46.335  21.791  39.731  1.00  0.00     0.127 S 
ATOM     78  O   UNL A   1      46.135  20.357  39.543  1.00  0.00    -0.237 OA
ATOM     79  O   UNL A   1      47.712  22.251  39.865  1.00  0.00    -0.237 OA
ATOM     80  O   UNL A   1      45.403  22.410  40.675  1.00  0.00    -0.744 OA
ENDBRANCH  74  77
ENDBRANCH  56  70
BRANCH  57  81
ATOM     81  C   UNL A   1      42.227  33.167  33.857  1.00  0.00     0.023 A 
ATOM     82  C   UNL A   1      42.351  33.904  32.267  1.00  0.00     0.012 A 
ATOM     83  C   UNL A   1      40.553  33.070  34.593  1.00  0.00     0.148 A 
ATOM     84  C   UNL A   1      40.908  34.404  31.338  1.00  0.00     0.002 A 
ATOM     85  C   UNL A   1      39.009  33.533  33.640  1.00  0.00     0.091 A 
ATOM     86  F   UNL A   1      40.641  32.553  35.795  1.00  0.00    -0.205 F 
ATOM     87  C   UNL A   1      39.256  34.221  31.991  1.00  0.00     0.022 A 
BRANCH  85  88
ATOM     88  S   UNL A   1      37.196  33.287  34.009  1.00  0.00     0.127 S 
ATOM     89  O   UNL A   1      36.714  34.644  34.247  1.00  0.00    -0.237 OA
ATOM     90  O   UNL A   1      36.642  32.581  32.859  1.00  0.00    -0.237 OA
ATOM     91  O   UNL A   1      37.231  32.474  35.223  1.00  0.00    -0.744 OA
ENDBRANCH  85  88
ENDBRANCH  57  81
BRANCH  69  92
ATOM     92  C   UNL A   1      45.456  30.353  40.011  1.00  0.00     0.023 A 
ATOM     93  C   UNL A   1      44.595  30.946  40.973  1.00  0.00     0.012 A 
ATOM     94  C   UNL A   1      46.727  29.973  40.452  1.00  0.00     0.148 A 
ATOM     95  C   UNL A   1      44.990  31.157  42.294  1.00  0.00     0.002 A 
ATOM     96  C   UNL A   1      47.068  30.068  41.794  1.00  0.00     0.091 A 
ATOM     97  F   UNL A   1      47.655  29.564  39.576  1.00  0.00    -0.205 F 
ATOM     98  C   UNL A   1      46.225  30.692  42.717  1.00  0.00     0.022 A 
BRANCH  96  99
ATOM     99  S   UNL A   1      48.555  29.228  42.321  1.00  0.00     0.127 S 
ATOM    100  O   UNL A   1      49.603  30.049  41.716  1.00  0.00    -0.237 OA
ATOM    101  O   UNL A   1      48.469  29.259  43.777  1.00  0.00    -0.237 OA
ATOM    102  O   UNL A   1      48.417  27.896  41.733  1.00  0.00    -0.744 OA
ENDBRANCH  96  99
ENDBRANCH  69  92
ENDBRANCH  43  44
ENDBRANCH  36  38
ENDBRANCH  35  36
ENDBRANCH  34  35
ENDBRANCH  33  34
ENDBRANCH  32  33
ENDBRANCH   1  32
TORSDOF 22
ENDMDL
