MODEL 1
REMARK VINA RESULT:     -10.0      0.000      0.000
REMARK SMILES Cc1ccc([C@@H](C)[NH2+][C@@H](C)CCC(=O)OCCOCCOCCOC(=O)c2ccc(-c3c4nc(c(-c5cccc(S(=O)(=O)[O-])c5F)c5ccc([nH]5)c(-c5cccc(S(=O)(=O)[O-])c5F)c5nc(c(-c6cccc(S(=O)(=O)[O-])c6F)c6ccc3[nH]6)C=C5)C=C4)cc2)cc1F
REMARK SMILES IDX 19 1 18 2 17 3 16 4 15 5 13 6 14 7 12 8 11 9 9 10 10 11 8 12
REMARK SMILES IDX 6 15 7 16 5 17 1 18 2 19 3 20 91 21 4 22 90 23 92 24 20 25
REMARK SMILES IDX 21 26 22 27 23 28 24 29 25 30 26 31 27 32 28 33 89 34 29 35
REMARK SMILES IDX 88 36 30 37 31 38 32 39 82 40 33 41 87 42 81 43 83 44 34 45
REMARK SMILES IDX 86 46 80 47 79 48 35 50 67 51 47 52 66 53 48 54 51 55 65 56
REMARK SMILES IDX 84 57 49 58 50 59 64 61 85 62 52 63 36 64 37 65 45 66 38 67
REMARK SMILES IDX 40 68 46 69 39 70 41 71 42 72 43 73 44 74 68 75 69 76 77 77
REMARK SMILES IDX 70 78 72 79 78 80 71 81 73 82 74 83 75 84 76 85 53 86 54 87
REMARK SMILES IDX 62 88 55 89 57 90 63 91 56 92 58 93 59 94 60 95 61 96
REMARK H PARENT 8 13 8 14 83 49 51 60
REMARK Flexibility Score: inf
ROOT
ATOM      1  C   UNL A   1      38.231  21.275  25.303  1.00  0.00     0.188 C 
ENDROOT
BRANCH   1   2
ATOM      2  O   UNL A   1      38.079  19.862  25.172  1.00  0.00    -0.376 OA
BRANCH   2   3
ATOM      3  C   UNL A   1      36.807  19.443  24.681  1.00  0.00     0.202 C 
BRANCH   3   4
ATOM      4  C   UNL A   1      35.624  20.362  25.050  1.00  0.00     0.261 C 
BRANCH   4   5
ATOM      5  O   UNL A   1      34.326  19.720  25.054  1.00  0.00    -0.463 OA
BRANCH   5   6
ATOM      6  C   UNL A   1      33.246  20.503  25.292  1.00  0.00     0.306 C 
ATOM      7  O   UNL A   1      32.085  20.137  25.125  1.00  0.00    -0.252 OA
BRANCH   6   8
ATOM      8  C   UNL A   1      33.551  21.863  25.906  1.00  0.00     0.129 C 
BRANCH   8   9
ATOM      9  C   UNL A   1      33.126  23.187  25.253  1.00  0.00     0.076 C 
BRANCH   9  10
ATOM     10  C   UNL A   1      32.690  24.322  26.193  1.00  0.00     0.180 C 
ATOM     11  C   UNL A   1      31.279  24.032  26.722  1.00  0.00     0.075 C 
BRANCH  10  12
ATOM     12  N   UNL A   1      32.736  25.553  25.407  1.00  0.00    -0.338 N 
ATOM     13  H   UNL A   1      33.626  26.013  25.595  1.00  0.00     0.347 HD
ATOM     14  H   UNL A   1      32.621  25.268  24.434  1.00  0.00     0.347 HD
BRANCH  12  15
ATOM     15  C   UNL A   1      31.666  26.510  25.677  1.00  0.00     0.210 C 
ATOM     16  C   UNL A   1      30.813  26.840  24.447  1.00  0.00     0.081 C 
BRANCH  15  17
ATOM     17  C   UNL A   1      32.299  27.790  26.211  1.00  0.00     0.012 A 
ATOM     18  C   UNL A   1      34.091  31.408  27.741  1.00  0.00     0.047 C 
ATOM     19  C   UNL A   1      33.490  30.145  27.210  1.00  0.00    -0.015 A 
ATOM     20  C   UNL A   1      34.240  28.971  27.088  1.00  0.00     0.007 A 
ATOM     21  C   UNL A   1      32.150  30.129  26.821  1.00  0.00     0.126 A 
ATOM     22  C   UNL A   1      33.650  27.805  26.590  1.00  0.00     0.010 A 
ATOM     23  C   UNL A   1      31.553  28.972  26.336  1.00  0.00     0.049 A 
ATOM     24  F   UNL A   1      31.415  31.247  26.915  1.00  0.00    -0.207 F 
ENDBRANCH  15  17
ENDBRANCH  12  15
ENDBRANCH  10  12
ENDBRANCH   9  10
ENDBRANCH   8   9
ENDBRANCH   6   8
ENDBRANCH   5   6
ENDBRANCH   4   5
ENDBRANCH   3   4
ENDBRANCH   2   3
ENDBRANCH   1   2
BRANCH   1  25
ATOM     25  C   UNL A   1      39.303  21.722  26.302  1.00  0.00     0.188 C 
BRANCH  25  26
ATOM     26  O   UNL A   1      40.674  21.393  26.121  1.00  0.00    -0.376 OA
BRANCH  26  27
ATOM     27  C   UNL A   1      41.390  20.995  27.311  1.00  0.00     0.202 C 
BRANCH  27  28
ATOM     28  C   UNL A   1      42.151  22.043  28.173  1.00  0.00     0.261 C 
BRANCH  28  29
ATOM     29  O   UNL A   1      41.451  23.252  28.444  1.00  0.00    -0.460 OA
BRANCH  29  30
ATOM     30  C   UNL A   1      41.744  24.228  27.570  1.00  0.00     0.338 C 
ATOM     31  O   UNL A   1      42.790  24.395  26.953  1.00  0.00    -0.246 OA
BRANCH  30  32
ATOM     32  C   UNL A   1      40.514  24.979  27.239  1.00  0.00     0.060 A 
ATOM     33  C   UNL A   1      40.720  25.929  26.220  1.00  0.00     0.016 A 
ATOM     34  C   UNL A   1      39.699  25.187  28.338  1.00  0.00     0.016 A 
ATOM     35  C   UNL A   1      40.669  27.234  26.600  1.00  0.00     0.010 A 
ATOM     36  C   UNL A   1      39.687  26.476  28.743  1.00  0.00     0.010 A 
ATOM     37  C   UNL A   1      40.301  27.438  27.915  1.00  0.00    -0.014 A 
BRANCH  37  38
ATOM     38  C   UNL A   1      40.578  28.661  28.589  1.00  0.00     0.031 A 
ATOM     39  C   UNL A   1      39.479  29.614  28.531  1.00  0.00     0.074 A 
ATOM     40  C   UNL A   1      41.662  28.619  29.392  1.00  0.00     0.049 A 
ATOM     41  N   UNL A   1      39.596  30.870  28.727  1.00  0.00    -0.248 NA
ATOM     42  C   UNL A   1      38.124  29.233  28.100  1.00  0.00     0.031 C 
ATOM     43  C   UNL A   1      41.940  29.367  30.602  1.00  0.00     0.029 A 
ATOM     44  N   UNL A   1      42.855  27.942  29.129  1.00  0.00    -0.354 N 
ATOM     45  C   UNL A   1      38.318  31.296  29.000  1.00  0.00     0.074 A 
ATOM     46  C   UNL A   1      37.446  30.355  28.350  1.00  0.00     0.031 C 
ATOM     47  C   UNL A   1      43.263  29.319  30.851  1.00  0.00     0.029 A 
ATOM     48  C   UNL A   1      43.904  28.676  29.711  1.00  0.00     0.049 A 
ATOM     49  H   UNL A   1      42.946  27.101  28.625  1.00  0.00     0.167 HD
ATOM     50  C   UNL A   1      38.158  32.213  29.992  1.00  0.00     0.034 A 
ATOM     51  C   UNL A   1      44.814  29.284  28.887  1.00  0.00     0.034 A 
ATOM     52  C   UNL A   1      39.458  32.554  30.568  1.00  0.00     0.049 A 
ATOM     53  C   UNL A   1      44.627  30.793  28.832  1.00  0.00     0.074 A 
ATOM     54  C   UNL A   1      40.111  32.216  31.742  1.00  0.00     0.029 A 
ATOM     55  N   UNL A   1      40.433  33.052  29.729  1.00  0.00    -0.354 N 
ATOM     56  N   UNL A   1      43.586  31.416  29.317  1.00  0.00    -0.248 NA
ATOM     57  C   UNL A   1      45.554  31.713  28.179  1.00  0.00     0.031 C 
ATOM     58  C   UNL A   1      41.487  32.563  31.601  1.00  0.00     0.029 A 
ATOM     59  C   UNL A   1      41.663  33.098  30.340  1.00  0.00     0.049 A 
ATOM     60  H   UNL A   1      40.268  33.340  28.803  1.00  0.00     0.167 HD
ATOM     61  C   UNL A   1      43.698  32.764  29.106  1.00  0.00     0.074 A 
ATOM     62  C   UNL A   1      44.920  32.891  28.329  1.00  0.00     0.031 C 
ATOM     63  C   UNL A   1      42.769  33.651  29.578  1.00  0.00     0.034 A 
BRANCH  50  64
ATOM     64  C   UNL A   1      36.844  32.588  30.624  1.00  0.00     0.023 A 
ATOM     65  C   UNL A   1      36.395  32.083  31.864  1.00  0.00     0.012 A 
ATOM     66  C   UNL A   1      35.972  33.477  29.966  1.00  0.00     0.148 A 
ATOM     67  C   UNL A   1      35.190  32.491  32.450  1.00  0.00     0.002 A 
ATOM     68  C   UNL A   1      34.769  33.874  30.540  1.00  0.00     0.091 A 
ATOM     69  F   UNL A   1      36.280  33.952  28.753  1.00  0.00    -0.205 F 
ATOM     70  C   UNL A   1      34.374  33.395  31.787  1.00  0.00     0.022 A 
BRANCH  68  71
ATOM     71  S   UNL A   1      33.737  35.021  29.632  1.00  0.00     0.127 S 
ATOM     72  O   UNL A   1      34.645  35.529  28.609  1.00  0.00    -0.237 OA
ATOM     73  O   UNL A   1      32.631  34.183  29.180  1.00  0.00    -0.237 OA
ATOM     74  O   UNL A   1      33.364  36.006  30.649  1.00  0.00    -0.744 OA
ENDBRANCH  68  71
ENDBRANCH  50  64
BRANCH  51  75
ATOM     75  C   UNL A   1      45.179  28.407  27.726  1.00  0.00     0.023 A 
ATOM     76  C   UNL A   1      44.401  28.427  26.555  1.00  0.00     0.012 A 
ATOM     77  C   UNL A   1      45.982  27.268  27.988  1.00  0.00     0.148 A 
ATOM     78  C   UNL A   1      44.338  27.294  25.732  1.00  0.00     0.002 A 
ATOM     79  C   UNL A   1      45.874  26.128  27.195  1.00  0.00     0.091 A 
ATOM     80  F   UNL A   1      46.757  27.268  29.085  1.00  0.00    -0.205 F 
ATOM     81  C   UNL A   1      45.044  26.137  26.070  1.00  0.00     0.022 A 
BRANCH  79  82
ATOM     82  S   UNL A   1      46.629  24.589  27.758  1.00  0.00     0.127 S 
ATOM     83  O   UNL A   1      45.846  24.264  28.947  1.00  0.00    -0.237 OA
ATOM     84  O   UNL A   1      46.473  23.685  26.621  1.00  0.00    -0.237 OA
ATOM     85  O   UNL A   1      48.018  24.949  28.054  1.00  0.00    -0.744 OA
ENDBRANCH  79  82
ENDBRANCH  51  75
BRANCH  63  86
ATOM     86  C   UNL A   1      42.742  35.135  29.297  1.00  0.00     0.023 A 
ATOM     87  C   UNL A   1      42.079  35.619  28.136  1.00  0.00     0.012 A 
ATOM     88  C   UNL A   1      43.301  36.098  30.135  1.00  0.00     0.148 A 
ATOM     89  C   UNL A   1      42.071  36.961  27.766  1.00  0.00     0.002 A 
ATOM     90  C   UNL A   1      43.355  37.432  29.733  1.00  0.00     0.091 A 
ATOM     91  F   UNL A   1      43.741  35.750  31.351  1.00  0.00    -0.205 F 
ATOM     92  C   UNL A   1      42.748  37.872  28.551  1.00  0.00     0.022 A 
BRANCH  90  93
ATOM     93  S   UNL A   1      44.343  38.565  30.700  1.00  0.00     0.127 S 
ATOM     94  O   UNL A   1      43.964  39.874  30.181  1.00  0.00    -0.237 OA
ATOM     95  O   UNL A   1      43.920  38.260  32.064  1.00  0.00    -0.237 OA
ATOM     96  O   UNL A   1      45.717  38.164  30.393  1.00  0.00    -0.744 OA
ENDBRANCH  90  93
ENDBRANCH  63  86
ENDBRANCH  37  38
ENDBRANCH  30  32
ENDBRANCH  29  30
ENDBRANCH  28  29
ENDBRANCH  27  28
ENDBRANCH  26  27
ENDBRANCH  25  26
ENDBRANCH   1  25
TORSDOF 25
ENDMDL
MODEL 2
REMARK VINA RESULT:      -9.9      1.896      2.338
REMARK SMILES Cc1ccc([C@@H](C)[NH2+][C@@H](C)CCC(=O)OCCOCCOCCOC(=O)c2ccc(-c3c4nc(c(-c5cccc(S(=O)(=O)[O-])c5F)c5ccc([nH]5)c(-c5cccc(S(=O)(=O)[O-])c5F)c5nc(c(-c6cccc(S(=O)(=O)[O-])c6F)c6ccc3[nH]6)C=C5)C=C4)cc2)cc1F
REMARK SMILES IDX 19 1 18 2 17 3 16 4 15 5 13 6 14 7 12 8 11 9 9 10 10 11 8 12
REMARK SMILES IDX 6 15 7 16 5 17 1 18 2 19 3 20 91 21 4 22 90 23 92 24 20 25
REMARK SMILES IDX 21 26 22 27 23 28 24 29 25 30 26 31 27 32 28 33 89 34 29 35
REMARK SMILES IDX 88 36 30 37 31 38 32 39 82 40 33 41 87 42 81 43 83 44 34 45
REMARK SMILES IDX 86 46 80 47 79 48 35 50 67 51 47 52 66 53 48 54 51 55 65 56
REMARK SMILES IDX 84 57 49 58 50 59 64 61 85 62 52 63 36 64 37 65 45 66 38 67
REMARK SMILES IDX 40 68 46 69 39 70 41 71 42 72 43 73 44 74 68 75 69 76 77 77
REMARK SMILES IDX 70 78 72 79 78 80 71 81 73 82 74 83 75 84 76 85 53 86 54 87
REMARK SMILES IDX 62 88 55 89 57 90 63 91 56 92 58 93 59 94 60 95 61 96
REMARK H PARENT 8 13 8 14 83 49 51 60
REMARK Flexibility Score: inf
ROOT
ATOM      1  C   UNL A   1      37.808  21.090  25.407  1.00  0.00     0.188 C 
ENDROOT
BRANCH   1   2
ATOM      2  O   UNL A   1      36.799  21.251  24.411  1.00  0.00    -0.376 OA
BRANCH   2   3
ATOM      3  C   UNL A   1      35.663  22.004  24.833  1.00  0.00     0.202 C 
BRANCH   3   4
ATOM      4  C   UNL A   1      34.891  21.414  26.032  1.00  0.00     0.261 C 
BRANCH   4   5
ATOM      5  O   UNL A   1      33.769  20.567  25.682  1.00  0.00    -0.463 OA
BRANCH   5   6
ATOM      6  C   UNL A   1      32.823  21.093  24.867  1.00  0.00     0.306 C 
ATOM      7  O   UNL A   1      32.612  20.703  23.722  1.00  0.00    -0.252 OA
BRANCH   6   8
ATOM      8  C   UNL A   1      31.930  22.150  25.505  1.00  0.00     0.129 C 
BRANCH   8   9
ATOM      9  C   UNL A   1      32.343  23.624  25.634  1.00  0.00     0.076 C 
BRANCH   9  10
ATOM     10  C   UNL A   1      31.635  24.633  24.717  1.00  0.00     0.180 C 
ATOM     11  C   UNL A   1      30.821  23.874  23.660  1.00  0.00     0.075 C 
BRANCH  10  12
ATOM     12  N   UNL A   1      32.684  25.452  24.113  1.00  0.00    -0.338 N 
ATOM     13  H   UNL A   1      33.387  25.638  24.827  1.00  0.00     0.347 HD
ATOM     14  H   UNL A   1      33.037  24.916  23.320  1.00  0.00     0.347 HD
BRANCH  12  15
ATOM     15  C   UNL A   1      32.242  26.735  23.568  1.00  0.00     0.210 C 
ATOM     16  C   UNL A   1      32.888  27.085  22.224  1.00  0.00     0.081 C 
BRANCH  15  17
ATOM     17  C   UNL A   1      32.573  27.820  24.586  1.00  0.00     0.012 A 
ATOM     18  C   UNL A   1      33.515  30.905  27.457  1.00  0.00     0.047 C 
ATOM     19  C   UNL A   1      33.170  29.846  26.458  1.00  0.00    -0.015 A 
ATOM     20  C   UNL A   1      32.070  29.976  25.603  1.00  0.00     0.007 A 
ATOM     21  C   UNL A   1      33.955  28.696  26.371  1.00  0.00     0.126 A 
ATOM     22  C   UNL A   1      31.773  28.970  24.678  1.00  0.00     0.010 A 
ATOM     23  C   UNL A   1      33.673  27.697  25.448  1.00  0.00     0.049 A 
ATOM     24  F   UNL A   1      35.006  28.543  27.191  1.00  0.00    -0.207 F 
ENDBRANCH  15  17
ENDBRANCH  12  15
ENDBRANCH  10  12
ENDBRANCH   9  10
ENDBRANCH   8   9
ENDBRANCH   6   8
ENDBRANCH   5   6
ENDBRANCH   4   5
ENDBRANCH   3   4
ENDBRANCH   2   3
ENDBRANCH   1   2
BRANCH   1  25
ATOM     25  C   UNL A   1      38.901  20.073  25.063  1.00  0.00     0.188 C 
BRANCH  25  26
ATOM     26  O   UNL A   1      39.798  19.581  26.050  1.00  0.00    -0.376 OA
BRANCH  26  27
ATOM     27  C   UNL A   1      41.128  20.147  26.032  1.00  0.00     0.202 C 
BRANCH  27  28
ATOM     28  C   UNL A   1      41.353  21.664  26.290  1.00  0.00     0.261 C 
BRANCH  28  29
ATOM     29  O   UNL A   1      40.874  22.162  27.535  1.00  0.00    -0.460 OA
BRANCH  29  30
ATOM     30  C   UNL A   1      41.242  23.433  27.761  1.00  0.00     0.338 C 
ATOM     31  O   UNL A   1      42.342  23.845  28.115  1.00  0.00    -0.246 OA
BRANCH  30  32
ATOM     32  C   UNL A   1      40.184  24.346  27.280  1.00  0.00     0.060 A 
ATOM     33  C   UNL A   1      40.676  25.321  26.391  1.00  0.00     0.016 A 
ATOM     34  C   UNL A   1      39.210  24.589  28.232  1.00  0.00     0.016 A 
ATOM     35  C   UNL A   1      40.700  26.599  26.856  1.00  0.00     0.010 A 
ATOM     36  C   UNL A   1      39.266  25.845  28.729  1.00  0.00     0.010 A 
ATOM     37  C   UNL A   1      40.123  26.770  28.099  1.00  0.00    -0.014 A 
BRANCH  37  38
ATOM     38  C   UNL A   1      40.404  27.910  28.904  1.00  0.00     0.031 A 
ATOM     39  C   UNL A   1      39.503  29.026  28.661  1.00  0.00     0.074 A 
ATOM     40  C   UNL A   1      41.245  27.669  29.932  1.00  0.00     0.049 A 
ATOM     41  N   UNL A   1      39.751  30.240  28.968  1.00  0.00    -0.248 NA
ATOM     42  C   UNL A   1      38.251  28.881  27.900  1.00  0.00     0.031 C 
ATOM     43  C   UNL A   1      41.330  28.321  31.224  1.00  0.00     0.029 A 
ATOM     44  N   UNL A   1      42.355  26.820  29.905  1.00  0.00    -0.354 N 
ATOM     45  C   UNL A   1      38.521  30.854  28.966  1.00  0.00     0.074 A 
ATOM     46  C   UNL A   1      37.704  30.086  28.066  1.00  0.00     0.031 C 
ATOM     47  C   UNL A   1      42.533  28.054  31.769  1.00  0.00     0.029 A 
ATOM     48  C   UNL A   1      43.329  27.358  30.766  1.00  0.00     0.049 A 
ATOM     49  H   UNL A   1      42.441  25.994  29.377  1.00  0.00     0.167 HD
ATOM     50  C   UNL A   1      38.262  31.750  29.957  1.00  0.00     0.034 A 
ATOM     51  C   UNL A   1      44.489  27.843  30.222  1.00  0.00     0.034 A 
ATOM     52  C   UNL A   1      39.421  31.860  30.842  1.00  0.00     0.049 A 
ATOM     53  C   UNL A   1      44.543  29.363  30.233  1.00  0.00     0.074 A 
ATOM     54  C   UNL A   1      39.716  31.382  32.108  1.00  0.00     0.029 A 
ATOM     55  N   UNL A   1      40.631  32.226  30.290  1.00  0.00    -0.354 N 
ATOM     56  N   UNL A   1      43.517  30.126  30.506  1.00  0.00    -0.248 NA
ATOM     57  C   UNL A   1      45.723  30.147  29.881  1.00  0.00     0.031 C 
ATOM     58  C   UNL A   1      41.121  31.511  32.316  1.00  0.00     0.029 A 
ATOM     59  C   UNL A   1      41.671  32.055  31.172  1.00  0.00     0.049 A 
ATOM     60  H   UNL A   1      40.738  32.568  29.374  1.00  0.00     0.167 HD
ATOM     61  C   UNL A   1      43.872  31.446  30.424  1.00  0.00     0.074 A 
ATOM     62  C   UNL A   1      45.250  31.405  29.964  1.00  0.00     0.031 C 
ATOM     63  C   UNL A   1      42.996  32.452  30.729  1.00  0.00     0.034 A 
BRANCH  50  64
ATOM     64  C   UNL A   1      36.904  32.306  30.292  1.00  0.00     0.023 A 
ATOM     65  C   UNL A   1      36.240  32.075  31.516  1.00  0.00     0.012 A 
ATOM     66  C   UNL A   1      36.211  33.092  29.350  1.00  0.00     0.148 A 
ATOM     67  C   UNL A   1      34.998  32.650  31.817  1.00  0.00     0.002 A 
ATOM     68  C   UNL A   1      34.973  33.653  29.642  1.00  0.00     0.091 A 
ATOM     69  F   UNL A   1      36.731  33.305  28.134  1.00  0.00    -0.205 F 
ATOM     70  C   UNL A   1      34.362  33.447  30.877  1.00  0.00     0.022 A 
BRANCH  68  71
ATOM     71  S   UNL A   1      34.179  34.651  28.385  1.00  0.00     0.127 S 
ATOM     72  O   UNL A   1      34.413  36.011  28.861  1.00  0.00    -0.237 OA
ATOM     73  O   UNL A   1      34.867  34.250  27.162  1.00  0.00    -0.237 OA
ATOM     74  O   UNL A   1      32.782  34.220  28.455  1.00  0.00    -0.744 OA
ENDBRANCH  68  71
ENDBRANCH  50  64
BRANCH  51  75
ATOM     75  C   UNL A   1      44.991  26.960  29.117  1.00  0.00     0.023 A 
ATOM     76  C   UNL A   1      46.032  26.047  29.362  1.00  0.00     0.012 A 
ATOM     77  C   UNL A   1      44.751  27.374  27.783  1.00  0.00     0.148 A 
ATOM     78  C   UNL A   1      46.882  25.652  28.320  1.00  0.00     0.002 A 
ATOM     79  C   UNL A   1      45.630  27.020  26.763  1.00  0.00     0.091 A 
ATOM     80  F   UNL A   1      43.729  28.213  27.545  1.00  0.00    -0.205 F 
ATOM     81  C   UNL A   1      46.703  26.164  27.032  1.00  0.00     0.022 A 
BRANCH  79  82
ATOM     82  S   UNL A   1      45.503  27.846  25.164  1.00  0.00     0.127 S 
ATOM     83  O   UNL A   1      45.943  29.205  25.470  1.00  0.00    -0.237 OA
ATOM     84  O   UNL A   1      46.384  27.068  24.295  1.00  0.00    -0.237 OA
ATOM     85  O   UNL A   1      44.083  27.756  24.815  1.00  0.00    -0.744 OA
ENDBRANCH  79  82
ENDBRANCH  51  75
BRANCH  63  86
ATOM     86  C   UNL A   1      43.254  33.930  30.557  1.00  0.00     0.023 A 
ATOM     87  C   UNL A   1      43.482  34.743  31.702  1.00  0.00     0.012 A 
ATOM     88  C   UNL A   1      43.327  34.571  29.322  1.00  0.00     0.148 A 
ATOM     89  C   UNL A   1      43.654  36.123  31.636  1.00  0.00     0.002 A 
ATOM     90  C   UNL A   1      43.430  35.960  29.256  1.00  0.00     0.091 A 
ATOM     91  F   UNL A   1      43.350  33.847  28.195  1.00  0.00    -0.205 F 
ATOM     92  C   UNL A   1      43.590  36.743  30.405  1.00  0.00     0.022 A 
BRANCH  90  93
ATOM     93  S   UNL A   1      43.216  36.747  27.666  1.00  0.00     0.127 S 
ATOM     94  O   UNL A   1      44.221  36.100  26.829  1.00  0.00    -0.237 OA
ATOM     95  O   UNL A   1      41.821  36.446  27.355  1.00  0.00    -0.237 OA
ATOM     96  O   UNL A   1      43.478  38.160  27.947  1.00  0.00    -0.744 OA
ENDBRANCH  90  93
ENDBRANCH  63  86
ENDBRANCH  37  38
ENDBRANCH  30  32
ENDBRANCH  29  30
ENDBRANCH  28  29
ENDBRANCH  27  28
ENDBRANCH  26  27
ENDBRANCH  25  26
ENDBRANCH   1  25
TORSDOF 25
ENDMDL
MODEL 3
REMARK VINA RESULT:      -9.6      2.735      4.005
REMARK SMILES Cc1ccc([C@@H](C)[NH2+][C@@H](C)CCC(=O)OCCOCCOCCOC(=O)c2ccc(-c3c4nc(c(-c5cccc(S(=O)(=O)[O-])c5F)c5ccc([nH]5)c(-c5cccc(S(=O)(=O)[O-])c5F)c5nc(c(-c6cccc(S(=O)(=O)[O-])c6F)c6ccc3[nH]6)C=C5)C=C4)cc2)cc1F
REMARK SMILES IDX 19 1 18 2 17 3 16 4 15 5 13 6 14 7 12 8 11 9 9 10 10 11 8 12
REMARK SMILES IDX 6 15 7 16 5 17 1 18 2 19 3 20 91 21 4 22 90 23 92 24 20 25
REMARK SMILES IDX 21 26 22 27 23 28 24 29 25 30 26 31 27 32 28 33 89 34 29 35
REMARK SMILES IDX 88 36 30 37 31 38 32 39 82 40 33 41 87 42 81 43 83 44 34 45
REMARK SMILES IDX 86 46 80 47 79 48 35 50 67 51 47 52 66 53 48 54 51 55 65 56
REMARK SMILES IDX 84 57 49 58 50 59 64 61 85 62 52 63 36 64 37 65 45 66 38 67
REMARK SMILES IDX 40 68 46 69 39 70 41 71 42 72 43 73 44 74 68 75 69 76 77 77
REMARK SMILES IDX 70 78 72 79 78 80 71 81 73 82 74 83 75 84 76 85 53 86 54 87
REMARK SMILES IDX 62 88 55 89 57 90 63 91 56 92 58 93 59 94 60 95 61 96
REMARK H PARENT 8 13 8 14 83 49 51 60
REMARK Flexibility Score: inf
ROOT
ATOM      1  C   UNL A   1      37.432  20.825  24.868  1.00  0.00     0.188 C 
ENDROOT
BRANCH   1   2
ATOM      2  O   UNL A   1      36.215  21.026  25.587  1.00  0.00    -0.376 OA
BRANCH   2   3
ATOM      3  C   UNL A   1      35.058  20.475  24.962  1.00  0.00     0.202 C 
BRANCH   3   4
ATOM      4  C   UNL A   1      33.913  21.475  24.697  1.00  0.00     0.261 C 
BRANCH   4   5
ATOM      5  O   UNL A   1      33.030  21.708  25.821  1.00  0.00    -0.463 OA
BRANCH   5   6
ATOM      6  C   UNL A   1      33.133  22.901  26.456  1.00  0.00     0.306 C 
ATOM      7  O   UNL A   1      34.164  23.308  26.986  1.00  0.00    -0.252 OA
BRANCH   6   8
ATOM      8  C   UNL A   1      31.898  23.790  26.376  1.00  0.00     0.129 C 
BRANCH   8   9
ATOM      9  C   UNL A   1      30.715  23.491  25.443  1.00  0.00     0.076 C 
BRANCH   9  10
ATOM     10  C   UNL A   1      30.536  24.409  24.223  1.00  0.00     0.180 C 
ATOM     11  C   UNL A   1      31.646  24.121  23.204  1.00  0.00     0.075 C 
BRANCH  10  12
ATOM     12  N   UNL A   1      30.597  25.780  24.724  1.00  0.00    -0.338 N 
ATOM     13  H   UNL A   1      29.647  26.150  24.744  1.00  0.00     0.347 HD
ATOM     14  H   UNL A   1      31.033  25.724  25.644  1.00  0.00     0.347 HD
BRANCH  12  15
ATOM     15  C   UNL A   1      31.424  26.697  23.941  1.00  0.00     0.210 C 
ATOM     16  C   UNL A   1      32.506  27.403  24.766  1.00  0.00     0.081 C 
BRANCH  15  17
ATOM     17  C   UNL A   1      30.507  27.740  23.311  1.00  0.00     0.012 A 
ATOM     18  C   UNL A   1      27.916  30.704  21.539  1.00  0.00     0.047 C 
ATOM     19  C   UNL A   1      28.831  29.686  22.143  1.00  0.00    -0.015 A 
ATOM     20  C   UNL A   1      30.220  29.776  22.005  1.00  0.00     0.007 A 
ATOM     21  C   UNL A   1      28.295  28.614  22.858  1.00  0.00     0.126 A 
ATOM     22  C   UNL A   1      31.050  28.810  22.582  1.00  0.00     0.010 A 
ATOM     23  C   UNL A   1      29.113  27.656  23.443  1.00  0.00     0.049 A 
ATOM     24  F   UNL A   1      26.965  28.499  22.990  1.00  0.00    -0.207 F 
ENDBRANCH  15  17
ENDBRANCH  12  15
ENDBRANCH  10  12
ENDBRANCH   9  10
ENDBRANCH   8   9
ENDBRANCH   6   8
ENDBRANCH   5   6
ENDBRANCH   4   5
ENDBRANCH   3   4
ENDBRANCH   2   3
ENDBRANCH   1   2
BRANCH   1  25
ATOM     25  C   UNL A   1      38.006  19.408  24.950  1.00  0.00     0.188 C 
BRANCH  25  26
ATOM     26  O   UNL A   1      39.317  19.162  25.442  1.00  0.00    -0.376 OA
BRANCH  26  27
ATOM     27  C   UNL A   1      39.904  20.220  26.233  1.00  0.00     0.202 C 
BRANCH  27  28
ATOM     28  C   UNL A   1      41.391  20.148  26.683  1.00  0.00     0.261 C 
BRANCH  28  29
ATOM     29  O   UNL A   1      42.160  21.329  26.482  1.00  0.00    -0.460 OA
BRANCH  29  30
ATOM     30  C   UNL A   1      42.089  22.178  27.518  1.00  0.00     0.338 C 
ATOM     31  O   UNL A   1      41.087  22.535  28.129  1.00  0.00    -0.246 OA
BRANCH  30  32
ATOM     32  C   UNL A   1      43.450  22.463  28.018  1.00  0.00     0.060 A 
ATOM     33  C   UNL A   1      43.484  22.659  29.412  1.00  0.00     0.016 A 
ATOM     34  C   UNL A   1      44.214  23.183  27.117  1.00  0.00     0.016 A 
ATOM     35  C   UNL A   1      43.738  23.927  29.832  1.00  0.00     0.010 A 
ATOM     36  C   UNL A   1      44.425  24.458  27.514  1.00  0.00     0.010 A 
ATOM     37  C   UNL A   1      44.047  24.817  28.823  1.00  0.00    -0.014 A 
BRANCH  37  38
ATOM     38  C   UNL A   1      43.945  26.226  29.010  1.00  0.00     0.031 A 
ATOM     39  C   UNL A   1      42.622  26.753  28.714  1.00  0.00     0.074 A 
ATOM     40  C   UNL A   1      44.976  26.771  29.689  1.00  0.00     0.049 A 
ATOM     41  N   UNL A   1      42.370  27.977  28.455  1.00  0.00    -0.248 NA
ATOM     42  C   UNL A   1      41.443  25.887  28.550  1.00  0.00     0.031 C 
ATOM     43  C   UNL A   1      45.000  27.943  30.540  1.00  0.00     0.029 A 
ATOM     44  N   UNL A   1      46.320  26.401  29.581  1.00  0.00    -0.354 N 
ATOM     45  C   UNL A   1      41.017  28.102  28.665  1.00  0.00     0.074 A 
ATOM     46  C   UNL A   1      40.467  26.791  28.451  1.00  0.00     0.031 C 
ATOM     47  C   UNL A   1      46.275  28.353  30.684  1.00  0.00     0.029 A 
ATOM     48  C   UNL A   1      47.100  27.553  29.789  1.00  0.00     0.049 A 
ATOM     49  H   UNL A   1      46.659  25.497  29.392  1.00  0.00     0.167 HD
ATOM     50  C   UNL A   1      40.577  29.228  29.290  1.00  0.00     0.034 A 
ATOM     51  C   UNL A   1      47.818  28.057  28.736  1.00  0.00     0.034 A 
ATOM     52  C   UNL A   1      41.711  30.095  29.608  1.00  0.00     0.049 A 
ATOM     53  C   UNL A   1      47.208  29.335  28.180  1.00  0.00     0.074 A 
ATOM     54  C   UNL A   1      42.405  30.387  30.770  1.00  0.00     0.029 A 
ATOM     55  N   UNL A   1      42.523  30.513  28.574  1.00  0.00    -0.354 N 
ATOM     56  N   UNL A   1      46.021  29.776  28.501  1.00  0.00    -0.248 NA
ATOM     57  C   UNL A   1      47.848  30.183  27.177  1.00  0.00     0.031 C 
ATOM     58  C   UNL A   1      43.627  31.028  30.409  1.00  0.00     0.029 A 
ATOM     59  C   UNL A   1      43.673  31.109  29.031  1.00  0.00     0.049 A 
ATOM     60  H   UNL A   1      42.305  30.398  27.621  1.00  0.00     0.167 HD
ATOM     61  C   UNL A   1      45.747  30.937  27.830  1.00  0.00     0.074 A 
ATOM     62  C   UNL A   1      46.900  31.114  26.963  1.00  0.00     0.031 C 
ATOM     63  C   UNL A   1      44.592  31.640  28.040  1.00  0.00     0.034 A 
BRANCH  50  64
ATOM     64  C   UNL A   1      39.197  29.423  29.856  1.00  0.00     0.023 A 
ATOM     65  C   UNL A   1      38.747  28.830  31.057  1.00  0.00     0.012 A 
ATOM     66  C   UNL A   1      38.259  30.223  29.173  1.00  0.00     0.148 A 
ATOM     67  C   UNL A   1      37.472  29.073  31.583  1.00  0.00     0.002 A 
ATOM     68  C   UNL A   1      36.989  30.456  29.689  1.00  0.00     0.091 A 
ATOM     69  F   UNL A   1      38.571  30.769  27.991  1.00  0.00    -0.205 F 
ATOM     70  C   UNL A   1      36.589  29.894  30.899  1.00  0.00     0.022 A 
BRANCH  68  71
ATOM     71  S   UNL A   1      35.875  31.500  28.753  1.00  0.00     0.127 S 
ATOM     72  O   UNL A   1      36.704  32.663  28.451  1.00  0.00    -0.237 OA
ATOM     73  O   UNL A   1      35.491  30.650  27.631  1.00  0.00    -0.237 OA
ATOM     74  O   UNL A   1      34.792  31.763  29.704  1.00  0.00    -0.744 OA
ENDBRANCH  68  71
ENDBRANCH  50  64
BRANCH  51  75
ATOM     75  C   UNL A   1      48.446  26.964  27.923  1.00  0.00     0.023 A 
ATOM     76  C   UNL A   1      49.773  26.571  28.175  1.00  0.00     0.012 A 
ATOM     77  C   UNL A   1      47.885  26.683  26.652  1.00  0.00     0.148 A 
ATOM     78  C   UNL A   1      50.552  26.021  27.147  1.00  0.00     0.002 A 
ATOM     79  C   UNL A   1      48.679  26.184  25.622  1.00  0.00     0.091 A 
ATOM     80  F   UNL A   1      46.604  27.019  26.427  1.00  0.00    -0.205 F 
ATOM     81  C   UNL A   1      50.017  25.861  25.866  1.00  0.00     0.022 A 
BRANCH  79  82
ATOM     82  S   UNL A   1      48.033  26.176  23.938  1.00  0.00     0.127 S 
ATOM     83  O   UNL A   1      46.833  27.000  24.051  1.00  0.00    -0.237 OA
ATOM     84  O   UNL A   1      49.122  26.736  23.140  1.00  0.00    -0.237 OA
ATOM     85  O   UNL A   1      47.749  24.766  23.660  1.00  0.00    -0.744 OA
ENDBRANCH  79  82
ENDBRANCH  51  75
BRANCH  63  86
ATOM     86  C   UNL A   1      44.148  32.860  27.268  1.00  0.00     0.023 A 
ATOM     87  C   UNL A   1      44.064  32.803  25.849  1.00  0.00     0.012 A 
ATOM     88  C   UNL A   1      43.766  34.062  27.860  1.00  0.00     0.148 A 
ATOM     89  C   UNL A   1      43.737  33.901  25.060  1.00  0.00     0.002 A 
ATOM     90  C   UNL A   1      43.504  35.182  27.071  1.00  0.00     0.091 A 
ATOM     91  F   UNL A   1      43.599  34.129  29.188  1.00  0.00    -0.205 F 
ATOM     92  C   UNL A   1      43.491  35.113  25.673  1.00  0.00     0.022 A 
BRANCH  90  93
ATOM     93  S   UNL A   1      43.316  36.762  27.885  1.00  0.00     0.127 S 
ATOM     94  O   UNL A   1      42.085  36.603  28.652  1.00  0.00    -0.237 OA
ATOM     95  O   UNL A   1      44.553  36.864  28.656  1.00  0.00    -0.237 OA
ATOM     96  O   UNL A   1      43.221  37.709  26.773  1.00  0.00    -0.744 OA
ENDBRANCH  90  93
ENDBRANCH  63  86
ENDBRANCH  37  38
ENDBRANCH  30  32
ENDBRANCH  29  30
ENDBRANCH  28  29
ENDBRANCH  27  28
ENDBRANCH  26  27
ENDBRANCH  25  26
ENDBRANCH   1  25
TORSDOF 25
ENDMDL
