MODEL 1
REMARK VINA RESULT:     -11.5      0.000      0.000
REMARK SMILES Cc1ccc(Cn2c(C)c(C[NH2+]Cc3ccco3)c(C(=O)OCCOCCOCCOC(=O)c3ccc(-c4c5nc(c(-c6cccc(S(=O)(=O)[O-])c6F)c6ccc([nH]6)c(-c6cccc(S(=O)(=O)[O-])c6F)c6nc(c(-c7cccc(S(=O)(=O)[O-])c7F)c7ccc4[nH]7)C=C6)C=C5)cc3)c2C)cc1
REMARK SMILES IDX 26 1 25 2 24 3 23 4 22 5 20 6 21 7 19 8 7 9 8 10 97 11 9 12
REMARK SMILES IDX 10 13 98 14 6 15 5 16 1 17 2 18 3 19 100 20 4 21 99 22 11 23
REMARK SMILES IDX 12 24 13 27 14 28 15 29 18 30 16 31 17 32 27 33 28 34 29 35
REMARK SMILES IDX 30 36 31 37 32 38 33 39 34 40 35 41 96 42 36 43 95 44 37 45
REMARK SMILES IDX 38 46 39 47 89 48 40 49 94 50 88 51 90 52 41 53 93 54 87 55
REMARK SMILES IDX 86 56 42 58 74 59 54 60 73 61 55 62 58 63 72 64 91 65 56 66
REMARK SMILES IDX 57 67 71 69 92 70 59 71 43 72 44 73 52 74 45 75 47 76 53 77
REMARK SMILES IDX 46 78 48 79 49 80 50 81 51 82 75 83 76 84 84 85 77 86 79 87
REMARK SMILES IDX 85 88 78 89 80 90 81 91 82 92 83 93 60 94 61 95 69 96 62 97
REMARK SMILES IDX 64 98 70 99 63 100 65 101 66 102 67 103 68 104
REMARK H PARENT 12 25 12 26 90 57 58 68
REMARK Flexibility Score: inf
ROOT
ATOM      1  C   UNL A   1      38.069  21.005  24.880  1.00  0.00     0.188 C 
ENDROOT
BRANCH   1   2
ATOM      2  O   UNL A   1      36.757  21.591  24.730  1.00  0.00    -0.376 OA
BRANCH   2   3
ATOM      3  C   UNL A   1      36.244  22.542  23.770  1.00  0.00     0.202 C 
BRANCH   3   4
ATOM      4  C   UNL A   1      35.061  23.893  23.891  1.00  0.00     0.261 C 
BRANCH   4   5
ATOM      5  O   UNL A   1      34.231  24.927  22.720  1.00  0.00    -0.460 OA
BRANCH   5   6
ATOM      6  C   UNL A   1      33.160  26.025  22.643  1.00  0.00     0.340 C 
ATOM      7  O   UNL A   1      33.003  26.839  21.738  1.00  0.00    -0.246 OA
BRANCH   6   8
ATOM      8  C   UNL A   1      32.210  26.281  23.721  1.00  0.00     0.089 A 
ATOM      9  N   UNL A   1      31.186  25.386  25.420  1.00  0.00    -0.343 N 
ATOM     10  C   UNL A   1      31.599  26.637  25.879  1.00  0.00     0.025 A 
ATOM     11  C   UNL A   1      31.205  25.401  24.036  1.00  0.00     0.030 A 
ATOM     12  C   UNL A   1      31.404  27.164  27.261  1.00  0.00     0.065 C 
ATOM     13  C   UNL A   1      32.346  27.232  24.853  1.00  0.00     0.042 A 
ATOM     14  C   UNL A   1      30.583  24.435  23.107  1.00  0.00     0.065 C 
BRANCH   9  15
ATOM     15  C   UNL A   1      30.849  24.212  26.238  1.00  0.00     0.157 C 
BRANCH  15  16
ATOM     16  C   UNL A   1      31.701  22.974  25.973  1.00  0.00    -0.028 A 
ATOM     17  C   UNL A   1      34.168  19.459  25.258  1.00  0.00     0.044 C 
ATOM     18  C   UNL A   1      33.328  20.688  25.465  1.00  0.00    -0.051 A 
ATOM     19  C   UNL A   1      33.675  21.602  26.456  1.00  0.00     0.004 A 
ATOM     20  C   UNL A   1      32.159  20.915  24.730  1.00  0.00     0.004 A 
ATOM     21  C   UNL A   1      32.897  22.744  26.669  1.00  0.00     0.006 A 
ATOM     22  C   UNL A   1      31.348  22.036  24.989  1.00  0.00     0.006 A 
ENDBRANCH  15  16
ENDBRANCH   9  15
BRANCH  13  23
ATOM     23  C   UNL A   1      33.286  28.466  25.057  1.00  0.00     0.300 C 
BRANCH  23  24
ATOM     24  N   UNL A   1      32.741  29.719  24.461  1.00  0.00    -0.336 N 
ATOM     25  H   UNL A   1      32.647  29.578  23.455  1.00  0.00     0.346 HD
ATOM     26  H   UNL A   1      33.397  30.463  24.700  1.00  0.00     0.346 HD
BRANCH  24  27
ATOM     27  C   UNL A   1      31.419  30.132  24.999  1.00  0.00     0.337 C 
BRANCH  27  28
ATOM     28  C   UNL A   1      30.258  30.195  24.032  1.00  0.00     0.157 A 
ATOM     29  C   UNL A   1      29.200  31.076  23.868  1.00  0.00     0.052 A 
ATOM     30  O   UNL A   1      30.128  29.174  23.124  1.00  0.00    -0.463 OA
ATOM     31  C   UNL A   1      28.465  30.640  22.737  1.00  0.00     0.042 A 
ATOM     32  C   UNL A   1      29.087  29.492  22.306  1.00  0.00     0.195 A 
ENDBRANCH  27  28
ENDBRANCH  24  27
ENDBRANCH  23  24
ENDBRANCH  13  23
ENDBRANCH   6   8
ENDBRANCH   5   6
ENDBRANCH   4   5
ENDBRANCH   3   4
ENDBRANCH   2   3
ENDBRANCH   1   2
BRANCH   1  33
ATOM     33  C   UNL A   1      39.001  21.022  26.116  1.00  0.00     0.188 C 
BRANCH  33  34
ATOM     34  O   UNL A   1      40.190  21.780  25.980  1.00  0.00    -0.376 OA
BRANCH  34  35
ATOM     35  C   UNL A   1      41.335  21.204  26.622  1.00  0.00     0.202 C 
BRANCH  35  36
ATOM     36  C   UNL A   1      42.732  21.353  25.946  1.00  0.00     0.261 C 
BRANCH  36  37
ATOM     37  O   UNL A   1      42.826  22.394  24.940  1.00  0.00    -0.460 OA
BRANCH  37  38
ATOM     38  C   UNL A   1      43.816  23.366  25.112  1.00  0.00     0.338 C 
ATOM     39  O   UNL A   1      44.940  23.212  24.757  1.00  0.00    -0.246 OA
BRANCH  38  40
ATOM     40  C   UNL A   1      43.205  24.620  25.683  1.00  0.00     0.060 A 
ATOM     41  C   UNL A   1      43.043  25.885  25.125  1.00  0.00     0.016 A 
ATOM     42  C   UNL A   1      42.918  24.555  26.986  1.00  0.00     0.016 A 
ATOM     43  C   UNL A   1      42.864  27.121  25.937  1.00  0.00     0.010 A 
ATOM     44  C   UNL A   1      42.935  25.745  27.699  1.00  0.00     0.010 A 
ATOM     45  C   UNL A   1      42.826  27.120  27.330  1.00  0.00    -0.014 A 
BRANCH  45  46
ATOM     46  C   UNL A   1      42.517  28.421  28.443  1.00  0.00     0.031 A 
ATOM     47  C   UNL A   1      41.088  29.459  28.751  1.00  0.00     0.074 A 
ATOM     48  C   UNL A   1      43.550  28.872  29.189  1.00  0.00     0.049 A 
ATOM     49  N   UNL A   1      41.090  30.565  29.478  1.00  0.00    -0.248 NA
ATOM     50  C   UNL A   1      39.653  29.341  28.246  1.00  0.00     0.031 C 
ATOM     51  C   UNL A   1      43.475  29.730  30.367  1.00  0.00     0.029 A 
ATOM     52  N   UNL A   1      44.907  28.748  28.975  1.00  0.00    -0.354 N 
ATOM     53  C   UNL A   1      39.781  31.054  29.642  1.00  0.00     0.074 A 
ATOM     54  C   UNL A   1      38.930  30.233  28.887  1.00  0.00     0.031 C 
ATOM     55  C   UNL A   1      44.673  30.279  30.588  1.00  0.00     0.029 A 
ATOM     56  C   UNL A   1      45.560  29.844  29.535  1.00  0.00     0.049 A 
ATOM     57  H   UNL A   1      45.345  28.005  28.501  1.00  0.00     0.167 HD
ATOM     58  C   UNL A   1      39.422  32.094  30.440  1.00  0.00     0.034 A 
ATOM     59  C   UNL A   1      46.333  30.642  28.753  1.00  0.00     0.034 A 
ATOM     60  C   UNL A   1      40.588  32.816  30.881  1.00  0.00     0.049 A 
ATOM     61  C   UNL A   1      45.814  32.061  28.609  1.00  0.00     0.074 A 
ATOM     62  C   UNL A   1      41.449  32.747  31.956  1.00  0.00     0.029 A 
ATOM     63  N   UNL A   1      41.230  33.550  29.911  1.00  0.00    -0.354 N 
ATOM     64  N   UNL A   1      44.908  32.602  29.385  1.00  0.00    -0.248 NA
ATOM     65  C   UNL A   1      46.218  32.975  27.537  1.00  0.00     0.031 C 
ATOM     66  C   UNL A   1      42.675  33.370  31.559  1.00  0.00     0.029 A 
ATOM     67  C   UNL A   1      42.530  33.843  30.264  1.00  0.00     0.049 A 
ATOM     68  H   UNL A   1      40.812  33.831  29.066  1.00  0.00     0.167 HD
ATOM     69  C   UNL A   1      44.482  33.787  28.837  1.00  0.00     0.074 A 
ATOM     70  C   UNL A   1      45.393  34.022  27.732  1.00  0.00     0.031 C 
ATOM     71  C   UNL A   1      43.371  34.469  29.252  1.00  0.00     0.034 A 
BRANCH  58  72
ATOM     72  C   UNL A   1      38.000  32.229  30.981  1.00  0.00     0.023 A 
ATOM     73  C   UNL A   1      37.552  31.191  31.823  1.00  0.00     0.012 A 
ATOM     74  C   UNL A   1      37.014  33.166  30.574  1.00  0.00     0.148 A 
ATOM     75  C   UNL A   1      36.194  31.003  32.113  1.00  0.00     0.002 A 
ATOM     76  C   UNL A   1      35.649  32.909  30.756  1.00  0.00     0.091 A 
ATOM     77  F   UNL A   1      37.385  34.343  30.047  1.00  0.00    -0.205 F 
ATOM     78  C   UNL A   1      35.237  31.822  31.528  1.00  0.00     0.022 A 
BRANCH  76  79
ATOM     79  S   UNL A   1      34.387  33.793  29.806  1.00  0.00     0.127 S 
ATOM     80  O   UNL A   1      35.186  34.648  28.922  1.00  0.00    -0.237 OA
ATOM     81  O   UNL A   1      33.676  32.719  29.119  1.00  0.00    -0.237 OA
ATOM     82  O   UNL A   1      33.621  34.542  30.798  1.00  0.00    -0.744 OA
ENDBRANCH  76  79
ENDBRANCH  58  72
BRANCH  59  83
ATOM     83  C   UNL A   1      47.287  29.834  27.927  1.00  0.00     0.023 A 
ATOM     84  C   UNL A   1      48.115  28.975  28.693  1.00  0.00     0.012 A 
ATOM     85  C   UNL A   1      47.033  29.479  26.584  1.00  0.00     0.148 A 
ATOM     86  C   UNL A   1      48.602  27.770  28.179  1.00  0.00     0.002 A 
ATOM     87  C   UNL A   1      47.489  28.242  26.100  1.00  0.00     0.091 A 
ATOM     88  F   UNL A   1      46.246  30.283  25.856  1.00  0.00    -0.205 F 
ATOM     89  C   UNL A   1      48.267  27.394  26.893  1.00  0.00     0.022 A 
BRANCH  87  90
ATOM     90  S   UNL A   1      46.975  27.498  24.551  1.00  0.00     0.127 S 
ATOM     91  O   UNL A   1      48.042  27.887  23.629  1.00  0.00    -0.237 OA
ATOM     92  O   UNL A   1      46.991  26.078  24.908  1.00  0.00    -0.237 OA
ATOM     93  O   UNL A   1      45.678  28.089  24.277  1.00  0.00    -0.744 OA
ENDBRANCH  87  90
ENDBRANCH  59  83
BRANCH  71  94
ATOM     94  C   UNL A   1      42.980  35.841  28.737  1.00  0.00     0.023 A 
ATOM     95  C   UNL A   1      42.405  35.951  27.458  1.00  0.00     0.012 A 
ATOM     96  C   UNL A   1      43.419  37.037  29.358  1.00  0.00     0.148 A 
ATOM     97  C   UNL A   1      42.308  37.188  26.810  1.00  0.00     0.002 A 
ATOM     98  C   UNL A   1      43.433  38.241  28.663  1.00  0.00     0.091 A 
ATOM     99  F   UNL A   1      43.786  37.017  30.647  1.00  0.00    -0.205 F 
ATOM    100  C   UNL A   1      42.862  38.324  27.392  1.00  0.00     0.022 A 
BRANCH  98 101
ATOM    101  S   UNL A   1      44.359  39.668  29.260  1.00  0.00     0.127 S 
ATOM    102  O   UNL A   1      45.634  39.063  29.653  1.00  0.00    -0.237 OA
ATOM    103  O   UNL A   1      44.425  40.507  28.067  1.00  0.00    -0.237 OA
ATOM    104  O   UNL A   1      43.580  40.189  30.373  1.00  0.00    -0.744 OA
ENDBRANCH  98 101
ENDBRANCH  71  94
ENDBRANCH  45  46
ENDBRANCH  38  40
ENDBRANCH  37  38
ENDBRANCH  36  37
ENDBRANCH  35  36
ENDBRANCH  34  35
ENDBRANCH  33  34
ENDBRANCH   1  33
TORSDOF 26
ENDMDL
MODEL 2
REMARK VINA RESULT:     -11.5      1.767      2.276
REMARK SMILES Cc1ccc(Cn2c(C)c(C[NH2+]Cc3ccco3)c(C(=O)OCCOCCOCCOC(=O)c3ccc(-c4c5nc(c(-c6cccc(S(=O)(=O)[O-])c6F)c6ccc([nH]6)c(-c6cccc(S(=O)(=O)[O-])c6F)c6nc(c(-c7cccc(S(=O)(=O)[O-])c7F)c7ccc4[nH]7)C=C6)C=C5)cc3)c2C)cc1
REMARK SMILES IDX 26 1 25 2 24 3 23 4 22 5 20 6 21 7 19 8 7 9 8 10 97 11 9 12
REMARK SMILES IDX 10 13 98 14 6 15 5 16 1 17 2 18 3 19 100 20 4 21 99 22 11 23
REMARK SMILES IDX 12 24 13 27 14 28 15 29 18 30 16 31 17 32 27 33 28 34 29 35
REMARK SMILES IDX 30 36 31 37 32 38 33 39 34 40 35 41 96 42 36 43 95 44 37 45
REMARK SMILES IDX 38 46 39 47 89 48 40 49 94 50 88 51 90 52 41 53 93 54 87 55
REMARK SMILES IDX 86 56 42 58 74 59 54 60 73 61 55 62 58 63 72 64 91 65 56 66
REMARK SMILES IDX 57 67 71 69 92 70 59 71 43 72 44 73 52 74 45 75 47 76 53 77
REMARK SMILES IDX 46 78 48 79 49 80 50 81 51 82 75 83 76 84 84 85 77 86 79 87
REMARK SMILES IDX 85 88 78 89 80 90 81 91 82 92 83 93 60 94 61 95 69 96 62 97
REMARK SMILES IDX 64 98 70 99 63 100 65 101 66 102 67 103 68 104
REMARK H PARENT 12 25 12 26 90 57 58 68
REMARK Flexibility Score: inf
ROOT
ATOM      1  C   UNL A   1      37.317  21.426  24.389  1.00  0.00     0.188 C 
ENDROOT
BRANCH   1   2
ATOM      2  O   UNL A   1      36.107  22.189  24.587  1.00  0.00    -0.376 OA
BRANCH   2   3
ATOM      3  C   UNL A   1      35.788  23.564  24.277  1.00  0.00     0.202 C 
BRANCH   3   4
ATOM      4  C   UNL A   1      34.774  24.804  25.097  1.00  0.00     0.261 C 
BRANCH   4   5
ATOM      5  O   UNL A   1      34.444  26.520  24.821  1.00  0.00    -0.460 OA
BRANCH   5   6
ATOM      6  C   UNL A   1      33.732  27.456  23.832  1.00  0.00     0.340 C 
ATOM      7  O   UNL A   1      34.186  28.480  23.329  1.00  0.00    -0.246 OA
BRANCH   6   8
ATOM      8  C   UNL A   1      32.346  27.263  23.416  1.00  0.00     0.089 A 
ATOM      9  N   UNL A   1      30.798  25.772  23.075  1.00  0.00    -0.343 N 
ATOM     10  C   UNL A   1      30.147  26.805  23.749  1.00  0.00     0.025 A 
ATOM     11  C   UNL A   1      31.975  26.270  22.544  1.00  0.00     0.030 A 
ATOM     12  C   UNL A   1      28.715  26.804  24.168  1.00  0.00     0.065 C 
ATOM     13  C   UNL A   1      31.114  27.764  24.077  1.00  0.00     0.042 A 
ATOM     14  C   UNL A   1      32.843  25.654  21.519  1.00  0.00     0.065 C 
BRANCH   9  15
ATOM     15  C   UNL A   1      30.370  24.368  22.986  1.00  0.00     0.157 C 
BRANCH  15  16
ATOM     16  C   UNL A   1      31.185  23.389  23.828  1.00  0.00    -0.028 A 
ATOM     17  C   UNL A   1      33.490  20.624  26.275  1.00  0.00     0.044 C 
ATOM     18  C   UNL A   1      32.733  21.597  25.416  1.00  0.00    -0.051 A 
ATOM     19  C   UNL A   1      31.943  22.575  26.013  1.00  0.00     0.004 A 
ATOM     20  C   UNL A   1      32.743  21.511  24.019  1.00  0.00     0.004 A 
ATOM     21  C   UNL A   1      31.222  23.479  25.227  1.00  0.00     0.006 A 
ATOM     22  C   UNL A   1      31.968  22.386  23.235  1.00  0.00     0.006 A 
ENDBRANCH  15  16
ENDBRANCH   9  15
BRANCH  13  23
ATOM     23  C   UNL A   1      30.898  28.902  25.128  1.00  0.00     0.300 C 
BRANCH  23  24
ATOM     24  N   UNL A   1      31.018  30.268  24.543  1.00  0.00    -0.336 N 
ATOM     25  H   UNL A   1      31.477  30.186  23.636  1.00  0.00     0.346 HD
ATOM     26  H   UNL A   1      31.550  30.824  25.212  1.00  0.00     0.346 HD
BRANCH  24  27
ATOM     27  C   UNL A   1      29.722  30.969  24.347  1.00  0.00     0.337 C 
BRANCH  27  28
ATOM     28  C   UNL A   1      29.034  30.808  23.010  1.00  0.00     0.157 A 
ATOM     29  C   UNL A   1      28.037  29.963  22.545  1.00  0.00     0.052 A 
ATOM     30  O   UNL A   1      29.465  31.595  21.972  1.00  0.00    -0.463 OA
ATOM     31  C   UNL A   1      27.766  30.334  21.204  1.00  0.00     0.042 A 
ATOM     32  C   UNL A   1      28.645  31.350  20.912  1.00  0.00     0.195 A 
ENDBRANCH  27  28
ENDBRANCH  24  27
ENDBRANCH  23  24
ENDBRANCH  13  23
ENDBRANCH   6   8
ENDBRANCH   5   6
ENDBRANCH   4   5
ENDBRANCH   3   4
ENDBRANCH   2   3
ENDBRANCH   1   2
BRANCH   1  33
ATOM     33  C   UNL A   1      38.159  20.657  25.436  1.00  0.00     0.188 C 
BRANCH  33  34
ATOM     34  O   UNL A   1      39.415  21.230  25.758  1.00  0.00    -0.376 OA
BRANCH  34  35
ATOM     35  C   UNL A   1      40.358  20.309  26.319  1.00  0.00     0.202 C 
BRANCH  35  36
ATOM     36  C   UNL A   1      41.881  20.557  26.091  1.00  0.00     0.261 C 
BRANCH  36  37
ATOM     37  O   UNL A   1      42.208  21.769  25.364  1.00  0.00    -0.460 OA
BRANCH  37  38
ATOM     38  C   UNL A   1      43.199  22.594  25.905  1.00  0.00     0.338 C 
ATOM     39  O   UNL A   1      44.347  22.285  25.943  1.00  0.00    -0.246 OA
BRANCH  38  40
ATOM     40  C   UNL A   1      42.602  23.921  26.294  1.00  0.00     0.060 A 
ATOM     41  C   UNL A   1      42.866  25.206  25.829  1.00  0.00     0.016 A 
ATOM     42  C   UNL A   1      41.806  23.880  27.366  1.00  0.00     0.016 A 
ATOM     43  C   UNL A   1      42.558  26.438  26.609  1.00  0.00     0.010 A 
ATOM     44  C   UNL A   1      41.708  25.035  28.129  1.00  0.00     0.010 A 
ATOM     45  C   UNL A   1      41.960  26.416  27.866  1.00  0.00    -0.014 A 
BRANCH  45  46
ATOM     46  C   UNL A   1      41.423  27.728  28.875  1.00  0.00     0.031 A 
ATOM     47  C   UNL A   1      40.126  28.955  28.705  1.00  0.00     0.074 A 
ATOM     48  C   UNL A   1      42.148  28.013  29.979  1.00  0.00     0.049 A 
ATOM     49  N   UNL A   1      39.995  30.036  29.457  1.00  0.00    -0.248 NA
ATOM     50  C   UNL A   1      38.984  29.053  27.699  1.00  0.00     0.031 C 
ATOM     51  C   UNL A   1      41.745  28.852  31.104  1.00  0.00     0.029 A 
ATOM     52  N   UNL A   1      43.458  27.700  30.274  1.00  0.00    -0.354 N 
ATOM     53  C   UNL A   1      38.793  30.705  29.159  1.00  0.00     0.074 A 
ATOM     54  C   UNL A   1      38.191  30.027  28.087  1.00  0.00     0.031 C 
ATOM     55  C   UNL A   1      42.831  29.220  31.790  1.00  0.00     0.029 A 
ATOM     56  C   UNL A   1      43.986  28.681  31.111  1.00  0.00     0.049 A 
ATOM     57  H   UNL A   1      43.944  26.910  29.945  1.00  0.00     0.167 HD
ATOM     58  C   UNL A   1      38.295  31.771  29.838  1.00  0.00     0.034 A 
ATOM     59  C   UNL A   1      45.090  29.374  30.728  1.00  0.00     0.034 A 
ATOM     60  C   UNL A   1      39.290  32.310  30.729  1.00  0.00     0.049 A 
ATOM     61  C   UNL A   1      44.847  30.854  30.503  1.00  0.00     0.074 A 
ATOM     62  C   UNL A   1      39.668  32.100  32.038  1.00  0.00     0.029 A 
ATOM     63  N   UNL A   1      40.337  32.961  30.119  1.00  0.00    -0.354 N 
ATOM     64  N   UNL A   1      43.791  31.506  30.925  1.00  0.00    -0.248 NA
ATOM     65  C   UNL A   1      45.735  31.720  29.723  1.00  0.00     0.031 C 
ATOM     66  C   UNL A   1      41.022  32.547  32.167  1.00  0.00     0.029 A 
ATOM     67  C   UNL A   1      41.435  33.059  30.948  1.00  0.00     0.049 A 
ATOM     68  H   UNL A   1      40.306  33.315  29.201  1.00  0.00     0.167 HD
ATOM     69  C   UNL A   1      43.755  32.749  30.343  1.00  0.00     0.074 A 
ATOM     70  C   UNL A   1      45.037  32.871  29.672  1.00  0.00     0.031 C 
ATOM     71  C   UNL A   1      42.666  33.576  30.364  1.00  0.00     0.034 A 
BRANCH  58  72
ATOM     72  C   UNL A   1      36.802  32.098  29.824  1.00  0.00     0.023 A 
ATOM     73  C   UNL A   1      36.217  32.287  28.556  1.00  0.00     0.012 A 
ATOM     74  C   UNL A   1      35.989  32.431  30.939  1.00  0.00     0.148 A 
ATOM     75  C   UNL A   1      34.972  32.912  28.398  1.00  0.00     0.002 A 
ATOM     76  C   UNL A   1      34.808  33.168  30.781  1.00  0.00     0.091 A 
ATOM     77  F   UNL A   1      36.321  31.999  32.165  1.00  0.00    -0.205 F 
ATOM     78  C   UNL A   1      34.297  33.411  29.504  1.00  0.00     0.022 A 
BRANCH  76  79
ATOM     79  S   UNL A   1      34.049  34.045  32.170  1.00  0.00     0.127 S 
ATOM     80  O   UNL A   1      33.052  34.895  31.512  1.00  0.00    -0.237 OA
ATOM     81  O   UNL A   1      33.481  32.967  32.973  1.00  0.00    -0.237 OA
ATOM     82  O   UNL A   1      35.139  34.799  32.784  1.00  0.00    -0.744 OA
ENDBRANCH  76  79
ENDBRANCH  58  72
BRANCH  59  83
ATOM     83  C   UNL A   1      46.174  28.452  30.260  1.00  0.00     0.023 A 
ATOM     84  C   UNL A   1      46.966  27.925  31.310  1.00  0.00     0.012 A 
ATOM     85  C   UNL A   1      46.087  27.707  29.063  1.00  0.00     0.148 A 
ATOM     86  C   UNL A   1      47.577  26.671  31.215  1.00  0.00     0.002 A 
ATOM     87  C   UNL A   1      46.666  26.429  29.003  1.00  0.00     0.091 A 
ATOM     88  F   UNL A   1      45.335  28.196  28.068  1.00  0.00    -0.205 F 
ATOM     89  C   UNL A   1      47.405  25.915  30.072  1.00  0.00     0.022 A 
BRANCH  87  90
ATOM     90  S   UNL A   1      46.367  25.231  27.702  1.00  0.00     0.127 S 
ATOM     91  O   UNL A   1      46.130  26.071  26.529  1.00  0.00    -0.237 OA
ATOM     92  O   UNL A   1      47.651  24.527  27.675  1.00  0.00    -0.237 OA
ATOM     93  O   UNL A   1      45.216  24.475  28.161  1.00  0.00    -0.744 OA
ENDBRANCH  87  90
ENDBRANCH  59  83
BRANCH  71  94
ATOM     94  C   UNL A   1      42.674  34.999  29.839  1.00  0.00     0.023 A 
ATOM     95  C   UNL A   1      41.826  35.334  28.767  1.00  0.00     0.012 A 
ATOM     96  C   UNL A   1      43.686  35.929  30.184  1.00  0.00     0.148 A 
ATOM     97  C   UNL A   1      42.003  36.522  28.047  1.00  0.00     0.002 A 
ATOM     98  C   UNL A   1      43.934  37.043  29.390  1.00  0.00     0.091 A 
ATOM     99  F   UNL A   1      44.386  35.755  31.314  1.00  0.00    -0.205 F 
ATOM    100  C   UNL A   1      43.083  37.352  28.328  1.00  0.00     0.022 A 
BRANCH  98 101
ATOM    101  S   UNL A   1      45.454  38.001  29.553  1.00  0.00     0.127 S 
ATOM    102  O   UNL A   1      46.397  37.216  28.753  1.00  0.00    -0.237 OA
ATOM    103  O   UNL A   1      45.070  39.279  28.961  1.00  0.00    -0.237 OA
ATOM    104  O   UNL A   1      45.747  38.011  30.978  1.00  0.00    -0.744 OA
ENDBRANCH  98 101
ENDBRANCH  71  94
ENDBRANCH  45  46
ENDBRANCH  38  40
ENDBRANCH  37  38
ENDBRANCH  36  37
ENDBRANCH  35  36
ENDBRANCH  34  35
ENDBRANCH  33  34
ENDBRANCH   1  33
TORSDOF 26
ENDMDL
MODEL 3
REMARK VINA RESULT:     -11.2      1.685      2.966
REMARK SMILES Cc1ccc(Cn2c(C)c(C[NH2+]Cc3ccco3)c(C(=O)OCCOCCOCCOC(=O)c3ccc(-c4c5nc(c(-c6cccc(S(=O)(=O)[O-])c6F)c6ccc([nH]6)c(-c6cccc(S(=O)(=O)[O-])c6F)c6nc(c(-c7cccc(S(=O)(=O)[O-])c7F)c7ccc4[nH]7)C=C6)C=C5)cc3)c2C)cc1
REMARK SMILES IDX 26 1 25 2 24 3 23 4 22 5 20 6 21 7 19 8 7 9 8 10 97 11 9 12
REMARK SMILES IDX 10 13 98 14 6 15 5 16 1 17 2 18 3 19 100 20 4 21 99 22 11 23
REMARK SMILES IDX 12 24 13 27 14 28 15 29 18 30 16 31 17 32 27 33 28 34 29 35
REMARK SMILES IDX 30 36 31 37 32 38 33 39 34 40 35 41 96 42 36 43 95 44 37 45
REMARK SMILES IDX 38 46 39 47 89 48 40 49 94 50 88 51 90 52 41 53 93 54 87 55
REMARK SMILES IDX 86 56 42 58 74 59 54 60 73 61 55 62 58 63 72 64 91 65 56 66
REMARK SMILES IDX 57 67 71 69 92 70 59 71 43 72 44 73 52 74 45 75 47 76 53 77
REMARK SMILES IDX 46 78 48 79 49 80 50 81 51 82 75 83 76 84 84 85 77 86 79 87
REMARK SMILES IDX 85 88 78 89 80 90 81 91 82 92 83 93 60 94 61 95 69 96 62 97
REMARK SMILES IDX 64 98 70 99 63 100 65 101 66 102 67 103 68 104
REMARK H PARENT 12 25 12 26 90 57 58 68
REMARK Flexibility Score: inf
ROOT
ATOM      1  C   UNL A   1      39.734  21.325  26.293  1.00  0.00     0.188 C 
ENDROOT
BRANCH   1   2
ATOM      2  O   UNL A   1      38.554  21.959  25.753  1.00  0.00    -0.376 OA
BRANCH   2   3
ATOM      3  C   UNL A   1      37.152  21.635  25.891  1.00  0.00     0.202 C 
BRANCH   3   4
ATOM      4  C   UNL A   1      35.648  22.397  25.262  1.00  0.00     0.261 C 
BRANCH   4   5
ATOM      5  O   UNL A   1      34.305  23.285  25.995  1.00  0.00    -0.460 OA
BRANCH   5   6
ATOM      6  C   UNL A   1      33.536  24.609  25.867  1.00  0.00     0.340 C 
ATOM      7  O   UNL A   1      32.551  24.954  26.512  1.00  0.00    -0.246 OA
BRANCH   6   8
ATOM      8  C   UNL A   1      33.863  25.621  24.867  1.00  0.00     0.089 A 
ATOM      9  N   UNL A   1      33.146  26.629  23.077  1.00  0.00    -0.343 N 
ATOM     10  C   UNL A   1      33.682  27.649  23.862  1.00  0.00     0.025 A 
ATOM     11  C   UNL A   1      33.651  25.421  23.526  1.00  0.00     0.030 A 
ATOM     12  C   UNL A   1      33.681  29.102  23.521  1.00  0.00     0.065 C 
ATOM     13  C   UNL A   1      34.085  27.075  25.075  1.00  0.00     0.042 A 
ATOM     14  C   UNL A   1      33.614  24.110  22.845  1.00  0.00     0.065 C 
BRANCH   9  15
ATOM     15  C   UNL A   1      32.159  26.771  21.997  1.00  0.00     0.157 C 
BRANCH  15  16
ATOM     16  C   UNL A   1      30.775  27.236  22.443  1.00  0.00    -0.028 A 
ATOM     17  C   UNL A   1      26.821  28.513  23.741  1.00  0.00     0.044 C 
ATOM     18  C   UNL A   1      28.172  28.071  23.250  1.00  0.00    -0.051 A 
ATOM     19  C   UNL A   1      28.662  26.820  23.614  1.00  0.00     0.004 A 
ATOM     20  C   UNL A   1      28.989  28.910  22.486  1.00  0.00     0.004 A 
ATOM     21  C   UNL A   1      29.921  26.399  23.176  1.00  0.00     0.006 A 
ATOM     22  C   UNL A   1      30.281  28.505  22.099  1.00  0.00     0.006 A 
ENDBRANCH  15  16
ENDBRANCH   9  15
BRANCH  13  23
ATOM     23  C   UNL A   1      34.408  27.895  26.368  1.00  0.00     0.300 C 
BRANCH  23  24
ATOM     24  N   UNL A   1      33.197  28.207  27.179  1.00  0.00    -0.336 N 
ATOM     25  H   UNL A   1      33.248  27.670  28.046  1.00  0.00     0.346 HD
ATOM     26  H   UNL A   1      32.392  27.962  26.604  1.00  0.00     0.346 HD
BRANCH  24  27
ATOM     27  C   UNL A   1      33.046  29.644  27.530  1.00  0.00     0.337 C 
BRANCH  27  28
ATOM     28  C   UNL A   1      32.105  30.475  26.688  1.00  0.00     0.157 A 
ATOM     29  C   UNL A   1      31.328  30.199  25.573  1.00  0.00     0.052 A 
ATOM     30  O   UNL A   1      31.974  31.804  27.000  1.00  0.00    -0.463 OA
ATOM     31  C   UNL A   1      30.601  31.378  25.268  1.00  0.00     0.042 A 
ATOM     32  C   UNL A   1      31.013  32.318  26.183  1.00  0.00     0.195 A 
ENDBRANCH  27  28
ENDBRANCH  24  27
ENDBRANCH  23  24
ENDBRANCH  13  23
ENDBRANCH   6   8
ENDBRANCH   5   6
ENDBRANCH   4   5
ENDBRANCH   3   4
ENDBRANCH   2   3
ENDBRANCH   1   2
BRANCH   1  33
ATOM     33  C   UNL A   1      40.192  19.853  26.153  1.00  0.00     0.188 C 
BRANCH  33  34
ATOM     34  O   UNL A   1      41.452  19.544  26.722  1.00  0.00    -0.376 OA
BRANCH  34  35
ATOM     35  C   UNL A   1      42.562  19.720  25.833  1.00  0.00     0.202 C 
BRANCH  35  36
ATOM     36  C   UNL A   1      43.351  21.065  25.870  1.00  0.00     0.261 C 
BRANCH  36  37
ATOM     37  O   UNL A   1      42.819  22.118  25.025  1.00  0.00    -0.460 OA
BRANCH  37  38
ATOM     38  C   UNL A   1      43.739  22.940  24.367  1.00  0.00     0.338 C 
ATOM     39  O   UNL A   1      44.315  22.606  23.383  1.00  0.00    -0.246 OA
BRANCH  38  40
ATOM     40  C   UNL A   1      43.772  24.296  25.024  1.00  0.00     0.060 A 
ATOM     41  C   UNL A   1      44.847  25.096  25.399  1.00  0.00     0.016 A 
ATOM     42  C   UNL A   1      42.587  24.731  25.462  1.00  0.00     0.016 A 
ATOM     43  C   UNL A   1      44.752  26.162  26.436  1.00  0.00     0.010 A 
ATOM     44  C   UNL A   1      42.590  25.600  26.544  1.00  0.00     0.010 A 
ATOM     45  C   UNL A   1      43.574  26.466  27.113  1.00  0.00    -0.014 A 
BRANCH  45  46
ATOM     46  C   UNL A   1      43.233  27.730  28.259  1.00  0.00     0.031 A 
ATOM     47  C   UNL A   1      41.762  28.685  28.631  1.00  0.00     0.074 A 
ATOM     48  C   UNL A   1      44.265  28.222  28.980  1.00  0.00     0.049 A 
ATOM     49  N   UNL A   1      41.730  29.777  29.378  1.00  0.00    -0.248 NA
ATOM     50  C   UNL A   1      40.320  28.500  28.169  1.00  0.00     0.031 C 
ATOM     51  C   UNL A   1      44.183  29.055  30.176  1.00  0.00     0.029 A 
ATOM     52  N   UNL A   1      45.618  28.174  28.722  1.00  0.00    -0.354 N 
ATOM     53  C   UNL A   1      40.403  30.193  29.592  1.00  0.00     0.074 A 
ATOM     54  C   UNL A   1      39.572  29.340  28.849  1.00  0.00     0.031 C 
ATOM     55  C   UNL A   1      45.357  29.663  30.370  1.00  0.00     0.029 A 
ATOM     56  C   UNL A   1      46.230  29.294  29.281  1.00  0.00     0.049 A 
ATOM     57  H   UNL A   1      46.079  27.464  28.221  1.00  0.00     0.167 HD
ATOM     58  C   UNL A   1      40.015  31.199  30.420  1.00  0.00     0.034 A 
ATOM     59  C   UNL A   1      46.935  30.145  28.491  1.00  0.00     0.034 A 
ATOM     60  C   UNL A   1      41.155  31.974  30.838  1.00  0.00     0.049 A 
ATOM     61  C   UNL A   1      46.338  31.536  28.390  1.00  0.00     0.074 A 
ATOM     62  C   UNL A   1      42.053  31.933  31.884  1.00  0.00     0.029 A 
ATOM     63  N   UNL A   1      41.727  32.757  29.862  1.00  0.00    -0.354 N 
ATOM     64  N   UNL A   1      45.430  32.015  29.204  1.00  0.00    -0.248 NA
ATOM     65  C   UNL A   1      46.658  32.488  27.323  1.00  0.00     0.031 C 
ATOM     66  C   UNL A   1      43.232  32.627  31.460  1.00  0.00     0.029 A 
ATOM     67  C   UNL A   1      43.020  33.113  30.180  1.00  0.00     0.049 A 
ATOM     68  H   UNL A   1      41.267  33.030  29.036  1.00  0.00     0.167 HD
ATOM     69  C   UNL A   1      44.925  33.185  28.692  1.00  0.00     0.074 A 
ATOM     70  C   UNL A   1      45.786  33.487  27.563  1.00  0.00     0.031 C 
ATOM     71  C   UNL A   1      43.794  33.800  29.154  1.00  0.00     0.034 A 
BRANCH  58  72
ATOM     72  C   UNL A   1      38.606  31.248  31.008  1.00  0.00     0.023 A 
ATOM     73  C   UNL A   1      37.950  30.011  31.161  1.00  0.00     0.012 A 
ATOM     74  C   UNL A   1      37.810  32.403  31.226  1.00  0.00     0.148 A 
ATOM     75  C   UNL A   1      36.565  29.923  31.360  1.00  0.00     0.002 A 
ATOM     76  C   UNL A   1      36.414  32.319  31.297  1.00  0.00     0.091 A 
ATOM     77  F   UNL A   1      38.396  33.596  31.416  1.00  0.00    -0.205 F 
ATOM     78  C   UNL A   1      35.788  31.074  31.363  1.00  0.00     0.022 A 
BRANCH  76  79
ATOM     79  S   UNL A   1      35.366  33.774  31.045  1.00  0.00     0.127 S 
ATOM     80  O   UNL A   1      34.025  33.264  31.345  1.00  0.00    -0.237 OA
ATOM     81  O   UNL A   1      35.879  34.726  32.024  1.00  0.00    -0.237 OA
ATOM     82  O   UNL A   1      35.548  34.133  29.641  1.00  0.00    -0.744 OA
ENDBRANCH  76  79
ENDBRANCH  58  72
BRANCH  59  83
ATOM     83  C   UNL A   1      47.904  29.403  27.621  1.00  0.00     0.023 A 
ATOM     84  C   UNL A   1      48.705  28.471  28.328  1.00  0.00     0.012 A 
ATOM     85  C   UNL A   1      47.680  29.169  26.246  1.00  0.00     0.148 A 
ATOM     86  C   UNL A   1      49.195  27.311  27.722  1.00  0.00     0.002 A 
ATOM     87  C   UNL A   1      48.138  27.975  25.666  1.00  0.00     0.091 A 
ATOM     88  F   UNL A   1      46.919  30.043  25.573  1.00  0.00    -0.205 F 
ATOM     89  C   UNL A   1      48.890  27.053  26.400  1.00  0.00     0.022 A 
BRANCH  87  90
ATOM     90  S   UNL A   1      47.658  27.376  24.045  1.00  0.00     0.127 S 
ATOM     91  O   UNL A   1      48.682  27.941  23.168  1.00  0.00    -0.237 OA
ATOM     92  O   UNL A   1      47.779  25.929  24.239  1.00  0.00    -0.237 OA
ATOM     93  O   UNL A   1      46.319  27.899  23.846  1.00  0.00    -0.744 OA
ENDBRANCH  87  90
ENDBRANCH  59  83
BRANCH  71  94
ATOM     94  C   UNL A   1      43.315  35.158  28.677  1.00  0.00     0.023 A 
ATOM     95  C   UNL A   1      42.768  35.273  27.386  1.00  0.00     0.012 A 
ATOM     96  C   UNL A   1      43.646  36.359  29.353  1.00  0.00     0.148 A 
ATOM     97  C   UNL A   1      42.596  36.523  26.780  1.00  0.00     0.002 A 
ATOM     98  C   UNL A   1      43.588  37.586  28.702  1.00  0.00     0.091 A 
ATOM     99  F   UNL A   1      43.978  36.316  30.651  1.00  0.00    -0.205 F 
ATOM    100  C   UNL A   1      43.047  37.674  27.419  1.00  0.00     0.022 A 
BRANCH  98 101
ATOM    101  S   UNL A   1      44.387  39.054  29.378  1.00  0.00     0.127 S 
ATOM    102  O   UNL A   1      44.719  39.807  28.166  1.00  0.00    -0.237 OA
ATOM    103  O   UNL A   1      43.318  39.637  30.183  1.00  0.00    -0.237 OA
ATOM    104  O   UNL A   1      45.546  38.557  30.105  1.00  0.00    -0.744 OA
ENDBRANCH  98 101
ENDBRANCH  71  94
ENDBRANCH  45  46
ENDBRANCH  38  40
ENDBRANCH  37  38
ENDBRANCH  36  37
ENDBRANCH  35  36
ENDBRANCH  34  35
ENDBRANCH  33  34
ENDBRANCH   1  33
TORSDOF 26
ENDMDL
