MODEL 1
REMARK VINA RESULT:     -11.0      0.000      0.000
REMARK SMILES O=C(OCCOCCOCCOC(=O)c1cc(S[C@H]2CCOC3(CCC3)C2)ccn1)c1ccc(-c2c3nc(c(-c4cccc(S(=O)(=O)[O-])c4F)c4ccc([nH]4)c(-c4cccc(S(=O)(=O)[O-])c4F)c4nc(c(-c5cccc(S(=O)(=O)[O-])c5F)c5ccc2[nH]5)C=C4)C=C3)cc1
REMARK SMILES IDX 7 1 6 2 5 3 4 4 3 5 2 6 1 7 31 8 32 9 93 10 33 11 92 12
REMARK SMILES IDX 34 13 35 14 36 15 86 16 37 17 91 18 85 19 87 20 38 21 90 22
REMARK SMILES IDX 84 23 83 24 39 26 71 27 51 28 70 29 52 30 55 31 69 32 88 33
REMARK SMILES IDX 53 34 54 35 68 37 89 38 56 39 40 40 41 41 49 42 42 43 44 44
REMARK SMILES IDX 50 45 43 46 45 47 46 48 47 49 48 50 72 51 73 52 81 53 74 54
REMARK SMILES IDX 76 55 82 56 75 57 77 58 78 59 79 60 80 61 57 62 58 63 66 64
REMARK SMILES IDX 59 65 61 66 67 67 60 68 62 69 63 70 64 71 65 72 8 73 9 74
REMARK SMILES IDX 10 75 11 76 12 77 13 78 14 79 15 80 16 81 30 82 17 83 29 84
REMARK SMILES IDX 28 85 18 86 19 87 20 88 27 89 21 90 23 91 22 92 24 93 26 94
REMARK SMILES IDX 25 95
REMARK H PARENT 87 25 55 36
REMARK Flexibility Score: inf
ROOT
ATOM      1  C   UNL A   1      35.735  33.834  28.921  1.00  0.00     0.188 C 
ENDROOT
BRANCH   1   2
ATOM      2  O   UNL A   1      34.900  34.629  29.746  1.00  0.00    -0.376 OA
BRANCH   2   3
ATOM      3  C   UNL A   1      34.370  34.101  30.955  1.00  0.00     0.202 C 
BRANCH   3   4
ATOM      4  C   UNL A   1      34.596  32.642  31.395  1.00  0.00     0.261 C 
BRANCH   4   5
ATOM      5  O   UNL A   1      34.971  32.422  32.769  1.00  0.00    -0.460 OA
BRANCH   5   6
ATOM      6  C   UNL A   1      36.187  32.244  33.331  1.00  0.00     0.338 C 
ATOM      7  O   UNL A   1      36.395  32.708  34.450  1.00  0.00    -0.246 OA
BRANCH   6   8
ATOM      8  C   UNL A   1      37.309  31.572  32.614  1.00  0.00     0.060 A 
ATOM      9  C   UNL A   1      38.112  30.576  33.168  1.00  0.00     0.016 A 
ATOM     10  C   UNL A   1      37.486  31.874  31.257  1.00  0.00     0.016 A 
ATOM     11  C   UNL A   1      39.169  30.010  32.459  1.00  0.00     0.010 A 
ATOM     12  C   UNL A   1      38.483  31.241  30.508  1.00  0.00     0.010 A 
ATOM     13  C   UNL A   1      39.367  30.340  31.121  1.00  0.00    -0.014 A 
BRANCH  13  14
ATOM     14  C   UNL A   1      40.523  29.789  30.376  1.00  0.00     0.031 A 
ATOM     15  C   UNL A   1      41.739  30.650  30.200  1.00  0.00     0.074 A 
ATOM     16  C   UNL A   1      40.476  28.548  29.850  1.00  0.00     0.049 A 
ATOM     17  N   UNL A   1      42.839  30.388  29.551  1.00  0.00    -0.248 NA
ATOM     18  C   UNL A   1      41.727  31.970  30.857  1.00  0.00     0.031 C 
ATOM     19  C   UNL A   1      39.371  27.608  30.022  1.00  0.00     0.029 A 
ATOM     20  N   UNL A   1      41.352  27.875  29.031  1.00  0.00    -0.354 N 
ATOM     21  C   UNL A   1      43.627  31.523  29.675  1.00  0.00     0.074 A 
ATOM     22  C   UNL A   1      42.892  32.474  30.477  1.00  0.00     0.031 C 
ATOM     23  C   UNL A   1      39.602  26.521  29.271  1.00  0.00     0.029 A 
ATOM     24  C   UNL A   1      40.835  26.699  28.526  1.00  0.00     0.049 A 
ATOM     25  H   UNL A   1      42.258  28.199  28.825  1.00  0.00     0.167 HD
ATOM     26  C   UNL A   1      44.856  31.745  29.162  1.00  0.00     0.034 A 
ATOM     27  C   UNL A   1      41.277  25.882  27.548  1.00  0.00     0.034 A 
ATOM     28  C   UNL A   1      45.583  30.778  28.388  1.00  0.00     0.049 A 
ATOM     29  C   UNL A   1      42.644  26.184  26.989  1.00  0.00     0.074 A 
ATOM     30  C   UNL A   1      46.861  30.873  27.872  1.00  0.00     0.029 A 
ATOM     31  N   UNL A   1      45.074  29.553  27.990  1.00  0.00    -0.354 N 
ATOM     32  N   UNL A   1      43.480  27.134  27.339  1.00  0.00    -0.248 NA
ATOM     33  C   UNL A   1      43.172  25.274  25.964  1.00  0.00     0.031 C 
ATOM     34  C   UNL A   1      47.110  29.720  27.122  1.00  0.00     0.029 A 
ATOM     35  C   UNL A   1      45.993  28.903  27.189  1.00  0.00     0.049 A 
ATOM     36  H   UNL A   1      44.191  29.198  28.241  1.00  0.00     0.167 HD
ATOM     37  C   UNL A   1      44.642  26.900  26.619  1.00  0.00     0.074 A 
ATOM     38  C   UNL A   1      44.428  25.679  25.870  1.00  0.00     0.031 C 
ATOM     39  C   UNL A   1      45.770  27.643  26.534  1.00  0.00     0.034 A 
BRANCH  26  40
ATOM     40  C   UNL A   1      45.477  33.091  29.388  1.00  0.00     0.023 A 
ATOM     41  C   UNL A   1      46.237  33.339  30.548  1.00  0.00     0.012 A 
ATOM     42  C   UNL A   1      45.347  34.094  28.410  1.00  0.00     0.148 A 
ATOM     43  C   UNL A   1      46.851  34.578  30.735  1.00  0.00     0.002 A 
ATOM     44  C   UNL A   1      45.991  35.311  28.585  1.00  0.00     0.091 A 
ATOM     45  F   UNL A   1      44.594  33.836  27.331  1.00  0.00    -0.205 F 
ATOM     46  C   UNL A   1      46.736  35.557  29.751  1.00  0.00     0.022 A 
BRANCH  44  47
ATOM     47  S   UNL A   1      45.954  36.612  27.350  1.00  0.00     0.127 S 
ATOM     48  O   UNL A   1      47.045  37.476  27.801  1.00  0.00    -0.237 OA
ATOM     49  O   UNL A   1      46.230  35.870  26.121  1.00  0.00    -0.237 OA
ATOM     50  O   UNL A   1      44.626  37.205  27.426  1.00  0.00    -0.744 OA
ENDBRANCH  44  47
ENDBRANCH  26  40
BRANCH  27  51
ATOM     51  C   UNL A   1      40.469  24.713  27.046  1.00  0.00     0.023 A 
ATOM     52  C   UNL A   1      39.182  24.922  26.506  1.00  0.00     0.012 A 
ATOM     53  C   UNL A   1      40.936  23.383  27.130  1.00  0.00     0.148 A 
ATOM     54  C   UNL A   1      38.374  23.854  26.104  1.00  0.00     0.002 A 
ATOM     55  C   UNL A   1      40.154  22.326  26.663  1.00  0.00     0.091 A 
ATOM     56  F   UNL A   1      42.143  23.163  27.672  1.00  0.00    -0.205 F 
ATOM     57  C   UNL A   1      38.868  22.558  26.163  1.00  0.00     0.022 A 
BRANCH  55  58
ATOM     58  S   UNL A   1      40.750  20.629  26.623  1.00  0.00     0.127 S 
ATOM     59  O   UNL A   1      39.689  19.960  25.876  1.00  0.00    -0.237 OA
ATOM     60  O   UNL A   1      42.018  20.755  25.904  1.00  0.00    -0.237 OA
ATOM     61  O   UNL A   1      40.889  20.237  28.020  1.00  0.00    -0.744 OA
ENDBRANCH  55  58
ENDBRANCH  27  51
BRANCH  39  62
ATOM     62  C   UNL A   1      46.844  27.129  25.618  1.00  0.00     0.023 A 
ATOM     63  C   UNL A   1      47.602  26.006  26.005  1.00  0.00     0.012 A 
ATOM     64  C   UNL A   1      47.084  27.741  24.375  1.00  0.00     0.148 A 
ATOM     65  C   UNL A   1      48.626  25.532  25.190  1.00  0.00     0.002 A 
ATOM     66  C   UNL A   1      48.066  27.223  23.541  1.00  0.00     0.091 A 
ATOM     67  F   UNL A   1      46.357  28.815  24.037  1.00  0.00    -0.205 F 
ATOM     68  C   UNL A   1      48.851  26.134  23.955  1.00  0.00     0.022 A 
BRANCH  66  69
ATOM     69  S   UNL A   1      48.363  27.863  21.892  1.00  0.00     0.127 S 
ATOM     70  O   UNL A   1      47.263  28.814  21.739  1.00  0.00    -0.237 OA
ATOM     71  O   UNL A   1      49.684  28.473  22.034  1.00  0.00    -0.237 OA
ATOM     72  O   UNL A   1      48.318  26.713  20.998  1.00  0.00    -0.744 OA
ENDBRANCH  66  69
ENDBRANCH  39  62
ENDBRANCH  13  14
ENDBRANCH   6   8
ENDBRANCH   5   6
ENDBRANCH   4   5
ENDBRANCH   3   4
ENDBRANCH   2   3
ENDBRANCH   1   2
BRANCH   1  73
ATOM     73  C   UNL A   1      35.003  33.006  27.853  1.00  0.00     0.188 C 
BRANCH  73  74
ATOM     74  O   UNL A   1      34.692  31.645  28.111  1.00  0.00    -0.376 OA
BRANCH  74  75
ATOM     75  C   UNL A   1      33.562  31.074  27.468  1.00  0.00     0.202 C 
BRANCH  75  76
ATOM     76  C   UNL A   1      33.699  29.812  26.597  1.00  0.00     0.261 C 
BRANCH  76  77
ATOM     77  O   UNL A   1      32.494  29.182  26.157  1.00  0.00    -0.459 OA
BRANCH  77  78
ATOM     78  C   UNL A   1      32.531  28.821  24.852  1.00  0.00     0.357 C 
ATOM     79  O   UNL A   1      33.191  29.365  23.966  1.00  0.00    -0.244 OA
BRANCH  78  80
ATOM     80  C   UNL A   1      31.477  27.834  24.559  1.00  0.00     0.149 A 
ATOM     81  C   UNL A   1      31.577  26.655  25.274  1.00  0.00     0.051 A 
ATOM     82  N   UNL A   1      30.462  28.152  23.718  1.00  0.00    -0.249 NA
ATOM     83  C   UNL A   1      30.568  25.722  25.165  1.00  0.00     0.011 A 
ATOM     84  C   UNL A   1      29.453  27.248  23.679  1.00  0.00     0.113 A 
ATOM     85  C   UNL A   1      29.454  26.050  24.389  1.00  0.00     0.035 A 
BRANCH  83  86
ATOM     86  S   UNL A   1      30.636  24.209  26.092  1.00  0.00    -0.122 SA
BRANCH  86  87
ATOM     87  C   UNL A   1      31.527  23.014  24.979  1.00  0.00     0.057 C 
ATOM     88  C   UNL A   1      31.838  23.652  23.626  1.00  0.00     0.043 C 
ATOM     89  C   UNL A   1      32.819  22.636  25.714  1.00  0.00     0.050 C 
ATOM     90  C   UNL A   1      32.780  22.763  22.836  1.00  0.00     0.162 C 
ATOM     91  C   UNL A   1      33.879  21.959  24.843  1.00  0.00     0.069 C 
ATOM     92  O   UNL A   1      33.993  22.623  23.560  1.00  0.00    -0.375 OA
ATOM     93  C   UNL A   1      35.242  21.851  25.601  1.00  0.00     0.035 C 
ATOM     94  C   UNL A   1      33.907  20.397  24.797  1.00  0.00     0.035 C 
ATOM     95  C   UNL A   1      35.442  20.483  24.934  1.00  0.00     0.006 C 
ENDBRANCH  86  87
ENDBRANCH  83  86
ENDBRANCH  78  80
ENDBRANCH  77  78
ENDBRANCH  76  77
ENDBRANCH  75  76
ENDBRANCH  74  75
ENDBRANCH  73  74
ENDBRANCH   1  73
TORSDOF 22
ENDMDL
MODEL 2
REMARK VINA RESULT:      -9.6      3.581      9.394
REMARK SMILES O=C(OCCOCCOCCOC(=O)c1cc(S[C@H]2CCOC3(CCC3)C2)ccn1)c1ccc(-c2c3nc(c(-c4cccc(S(=O)(=O)[O-])c4F)c4ccc([nH]4)c(-c4cccc(S(=O)(=O)[O-])c4F)c4nc(c(-c5cccc(S(=O)(=O)[O-])c5F)c5ccc2[nH]5)C=C4)C=C3)cc1
REMARK SMILES IDX 7 1 6 2 5 3 4 4 3 5 2 6 1 7 31 8 32 9 93 10 33 11 92 12
REMARK SMILES IDX 34 13 35 14 36 15 86 16 37 17 91 18 85 19 87 20 38 21 90 22
REMARK SMILES IDX 84 23 83 24 39 26 71 27 51 28 70 29 52 30 55 31 69 32 88 33
REMARK SMILES IDX 53 34 54 35 68 37 89 38 56 39 40 40 41 41 49 42 42 43 44 44
REMARK SMILES IDX 50 45 43 46 45 47 46 48 47 49 48 50 72 51 73 52 81 53 74 54
REMARK SMILES IDX 76 55 82 56 75 57 77 58 78 59 79 60 80 61 57 62 58 63 66 64
REMARK SMILES IDX 59 65 61 66 67 67 60 68 62 69 63 70 64 71 65 72 8 73 9 74
REMARK SMILES IDX 10 75 11 76 12 77 13 78 14 79 15 80 16 81 30 82 17 83 29 84
REMARK SMILES IDX 28 85 18 86 19 87 20 88 27 89 21 90 23 91 22 92 24 93 26 94
REMARK SMILES IDX 25 95
REMARK H PARENT 87 25 55 36
REMARK Flexibility Score: inf
ROOT
ATOM      1  C   UNL A   1      41.867  23.895  26.209  1.00  0.00     0.188 C 
ENDROOT
BRANCH   1   2
ATOM      2  O   UNL A   1      42.861  23.312  25.383  1.00  0.00    -0.376 OA
BRANCH   2   3
ATOM      3  C   UNL A   1      43.400  22.035  25.699  1.00  0.00     0.202 C 
BRANCH   3   4
ATOM      4  C   UNL A   1      44.915  21.772  25.794  1.00  0.00     0.261 C 
BRANCH   4   5
ATOM      5  O   UNL A   1      45.761  22.902  26.081  1.00  0.00    -0.460 OA
BRANCH   5   6
ATOM      6  C   UNL A   1      46.049  23.996  25.342  1.00  0.00     0.338 C 
ATOM      7  O   UNL A   1      46.615  23.846  24.261  1.00  0.00    -0.246 OA
BRANCH   6   8
ATOM      8  C   UNL A   1      45.777  25.381  25.823  1.00  0.00     0.060 A 
ATOM      9  C   UNL A   1      45.375  26.434  25.002  1.00  0.00     0.016 A 
ATOM     10  C   UNL A   1      45.806  25.606  27.206  1.00  0.00     0.016 A 
ATOM     11  C   UNL A   1      45.169  27.717  25.506  1.00  0.00     0.010 A 
ATOM     12  C   UNL A   1      45.507  26.867  27.731  1.00  0.00     0.010 A 
ATOM     13  C   UNL A   1      45.237  27.946  26.877  1.00  0.00    -0.014 A 
BRANCH  13  14
ATOM     14  C   UNL A   1      45.078  29.317  27.416  1.00  0.00     0.031 A 
ATOM     15  C   UNL A   1      46.274  30.222  27.436  1.00  0.00     0.074 A 
ATOM     16  C   UNL A   1      43.890  29.735  27.897  1.00  0.00     0.049 A 
ATOM     17  N   UNL A   1      46.373  31.437  27.900  1.00  0.00    -0.248 NA
ATOM     18  C   UNL A   1      47.518  29.704  26.838  1.00  0.00     0.031 C 
ATOM     19  C   UNL A   1      42.653  28.959  27.861  1.00  0.00     0.029 A 
ATOM     20  N   UNL A   1      43.530  30.893  28.548  1.00  0.00    -0.354 N 
ATOM     21  C   UNL A   1      47.694  31.809  27.699  1.00  0.00     0.074 A 
ATOM     22  C   UNL A   1      48.362  30.702  27.054  1.00  0.00     0.031 C 
ATOM     23  C   UNL A   1      41.700  29.627  28.528  1.00  0.00     0.029 A 
ATOM     24  C   UNL A   1      42.258  30.847  29.081  1.00  0.00     0.049 A 
ATOM     25  H   UNL A   1      44.120  31.677  28.625  1.00  0.00     0.167 HD
ATOM     26  C   UNL A   1      48.290  32.976  28.026  1.00  0.00     0.034 A 
ATOM     27  C   UNL A   1      41.629  31.665  29.950  1.00  0.00     0.034 A 
ATOM     28  C   UNL A   1      47.604  34.075  28.644  1.00  0.00     0.049 A 
ATOM     29  C   UNL A   1      42.345  32.943  30.305  1.00  0.00     0.074 A 
ATOM     30  C   UNL A   1      48.096  35.327  28.962  1.00  0.00     0.029 A 
ATOM     31  N   UNL A   1      46.287  34.036  29.070  1.00  0.00    -0.354 N 
ATOM     32  N   UNL A   1      43.502  33.383  29.867  1.00  0.00    -0.248 NA
ATOM     33  C   UNL A   1      41.655  33.878  31.203  1.00  0.00     0.031 C 
ATOM     34  C   UNL A   1      47.085  36.032  29.623  1.00  0.00     0.029 A 
ATOM     35  C   UNL A   1      45.962  35.223  29.697  1.00  0.00     0.049 A 
ATOM     36  H   UNL A   1      45.674  33.276  28.944  1.00  0.00     0.167 HD
ATOM     37  C   UNL A   1      43.646  34.658  30.392  1.00  0.00     0.074 A 
ATOM     38  C   UNL A   1      42.429  34.948  31.119  1.00  0.00     0.031 C 
ATOM     39  C   UNL A   1      44.702  35.503  30.331  1.00  0.00     0.034 A 
BRANCH  26  40
ATOM     40  C   UNL A   1      49.760  33.111  27.758  1.00  0.00     0.023 A 
ATOM     41  C   UNL A   1      50.697  32.854  28.778  1.00  0.00     0.012 A 
ATOM     42  C   UNL A   1      50.206  33.440  26.464  1.00  0.00     0.148 A 
ATOM     43  C   UNL A   1      52.064  32.936  28.513  1.00  0.00     0.002 A 
ATOM     44  C   UNL A   1      51.568  33.483  26.199  1.00  0.00     0.091 A 
ATOM     45  F   UNL A   1      49.289  33.705  25.523  1.00  0.00    -0.205 F 
ATOM     46  C   UNL A   1      52.498  33.239  27.224  1.00  0.00     0.022 A 
BRANCH  44  47
ATOM     47  S   UNL A   1      52.225  33.805  24.561  1.00  0.00     0.127 S 
ATOM     48  O   UNL A   1      51.593  32.744  23.777  1.00  0.00    -0.237 OA
ATOM     49  O   UNL A   1      51.717  35.150  24.291  1.00  0.00    -0.237 OA
ATOM     50  O   UNL A   1      53.673  33.706  24.679  1.00  0.00    -0.744 OA
ENDBRANCH  44  47
ENDBRANCH  26  40
BRANCH  27  51
ATOM     51  C   UNL A   1      40.274  31.343  30.526  1.00  0.00     0.023 A 
ATOM     52  C   UNL A   1      39.113  31.919  29.968  1.00  0.00     0.012 A 
ATOM     53  C   UNL A   1      40.113  30.502  31.649  1.00  0.00     0.148 A 
ATOM     54  C   UNL A   1      37.848  31.704  30.525  1.00  0.00     0.002 A 
ATOM     55  C   UNL A   1      38.842  30.234  32.158  1.00  0.00     0.091 A 
ATOM     56  F   UNL A   1      41.209  29.973  32.213  1.00  0.00    -0.205 F 
ATOM     57  C   UNL A   1      37.710  30.845  31.606  1.00  0.00     0.022 A 
BRANCH  55  58
ATOM     58  S   UNL A   1      38.566  29.069  33.501  1.00  0.00     0.127 S 
ATOM     59  O   UNL A   1      38.166  29.958  34.587  1.00  0.00    -0.237 OA
ATOM     60  O   UNL A   1      37.493  28.227  32.973  1.00  0.00    -0.237 OA
ATOM     61  O   UNL A   1      39.838  28.380  33.679  1.00  0.00    -0.744 OA
ENDBRANCH  55  58
ENDBRANCH  27  51
BRANCH  39  62
ATOM     62  C   UNL A   1      44.556  36.812  31.053  1.00  0.00     0.023 A 
ATOM     63  C   UNL A   1      44.981  36.913  32.393  1.00  0.00     0.012 A 
ATOM     64  C   UNL A   1      44.022  37.938  30.402  1.00  0.00     0.148 A 
ATOM     65  C   UNL A   1      44.824  38.104  33.094  1.00  0.00     0.002 A 
ATOM     66  C   UNL A   1      43.926  39.140  31.091  1.00  0.00     0.091 A 
ATOM     67  F   UNL A   1      43.614  37.811  29.131  1.00  0.00    -0.205 F 
ATOM     68  C   UNL A   1      44.307  39.219  32.442  1.00  0.00     0.022 A 
BRANCH  66  69
ATOM     69  S   UNL A   1      43.369  40.655  30.310  1.00  0.00     0.127 S 
ATOM     70  O   UNL A   1      42.943  41.446  31.463  1.00  0.00    -0.237 OA
ATOM     71  O   UNL A   1      44.589  41.129  29.658  1.00  0.00    -0.237 OA
ATOM     72  O   UNL A   1      42.302  40.269  29.394  1.00  0.00    -0.744 OA
ENDBRANCH  66  69
ENDBRANCH  39  62
ENDBRANCH  13  14
ENDBRANCH   6   8
ENDBRANCH   5   6
ENDBRANCH   4   5
ENDBRANCH   3   4
ENDBRANCH   2   3
ENDBRANCH   1   2
BRANCH   1  73
ATOM     73  C   UNL A   1      41.167  22.926  27.175  1.00  0.00     0.188 C 
BRANCH  73  74
ATOM     74  O   UNL A   1      39.767  22.719  27.070  1.00  0.00    -0.376 OA
BRANCH  74  75
ATOM     75  C   UNL A   1      38.932  23.838  26.809  1.00  0.00     0.202 C 
BRANCH  75  76
ATOM     76  C   UNL A   1      37.811  23.762  25.757  1.00  0.00     0.261 C 
BRANCH  76  77
ATOM     77  O   UNL A   1      37.669  22.538  25.033  1.00  0.00    -0.459 OA
BRANCH  77  78
ATOM     78  C   UNL A   1      36.823  22.640  23.980  1.00  0.00     0.357 C 
ATOM     79  O   UNL A   1      36.962  23.380  23.006  1.00  0.00    -0.244 OA
BRANCH  78  80
ATOM     80  C   UNL A   1      35.565  21.928  24.257  1.00  0.00     0.149 A 
ATOM     81  C   UNL A   1      34.439  22.509  23.704  1.00  0.00     0.051 A 
ATOM     82  N   UNL A   1      35.583  20.748  24.926  1.00  0.00    -0.249 NA
ATOM     83  C   UNL A   1      33.232  21.849  23.799  1.00  0.00     0.011 A 
ATOM     84  C   UNL A   1      34.398  20.090  24.949  1.00  0.00     0.113 A 
ATOM     85  C   UNL A   1      33.223  20.585  24.391  1.00  0.00     0.035 A 
BRANCH  83  86
ATOM     86  S   UNL A   1      31.767  22.540  23.072  1.00  0.00    -0.122 SA
BRANCH  86  87
ATOM     87  C   UNL A   1      30.958  23.489  24.452  1.00  0.00     0.057 C 
ATOM     88  C   UNL A   1      30.810  22.621  25.702  1.00  0.00     0.043 C 
ATOM     89  C   UNL A   1      31.869  24.692  24.728  1.00  0.00     0.050 C 
ATOM     90  C   UNL A   1      30.391  23.477  26.882  1.00  0.00     0.162 C 
ATOM     91  C   UNL A   1      31.604  25.406  26.055  1.00  0.00     0.069 C 
ATOM     92  O   UNL A   1      31.396  24.450  27.123  1.00  0.00    -0.375 OA
ATOM     93  C   UNL A   1      32.735  26.440  26.370  1.00  0.00     0.035 C 
ATOM     94  C   UNL A   1      30.637  26.633  26.052  1.00  0.00     0.035 C 
ATOM     95  C   UNL A   1      31.655  27.360  26.955  1.00  0.00     0.006 C 
ENDBRANCH  86  87
ENDBRANCH  83  86
ENDBRANCH  78  80
ENDBRANCH  77  78
ENDBRANCH  76  77
ENDBRANCH  75  76
ENDBRANCH  74  75
ENDBRANCH  73  74
ENDBRANCH   1  73
TORSDOF 22
ENDMDL
MODEL 3
REMARK VINA RESULT:      -9.6     11.001     16.194
REMARK SMILES O=C(OCCOCCOCCOC(=O)c1cc(S[C@H]2CCOC3(CCC3)C2)ccn1)c1ccc(-c2c3nc(c(-c4cccc(S(=O)(=O)[O-])c4F)c4ccc([nH]4)c(-c4cccc(S(=O)(=O)[O-])c4F)c4nc(c(-c5cccc(S(=O)(=O)[O-])c5F)c5ccc2[nH]5)C=C4)C=C3)cc1
REMARK SMILES IDX 7 1 6 2 5 3 4 4 3 5 2 6 1 7 31 8 32 9 93 10 33 11 92 12
REMARK SMILES IDX 34 13 35 14 36 15 86 16 37 17 91 18 85 19 87 20 38 21 90 22
REMARK SMILES IDX 84 23 83 24 39 26 71 27 51 28 70 29 52 30 55 31 69 32 88 33
REMARK SMILES IDX 53 34 54 35 68 37 89 38 56 39 40 40 41 41 49 42 42 43 44 44
REMARK SMILES IDX 50 45 43 46 45 47 46 48 47 49 48 50 72 51 73 52 81 53 74 54
REMARK SMILES IDX 76 55 82 56 75 57 77 58 78 59 79 60 80 61 57 62 58 63 66 64
REMARK SMILES IDX 59 65 61 66 67 67 60 68 62 69 63 70 64 71 65 72 8 73 9 74
REMARK SMILES IDX 10 75 11 76 12 77 13 78 14 79 15 80 16 81 30 82 17 83 29 84
REMARK SMILES IDX 28 85 18 86 19 87 20 88 27 89 21 90 23 91 22 92 24 93 26 94
REMARK SMILES IDX 25 95
REMARK H PARENT 87 25 55 36
REMARK Flexibility Score: inf
ROOT
ATOM      1  C   UNL A   1      45.915  19.588  41.687  1.00  0.00     0.188 C 
ENDROOT
BRANCH   1   2
ATOM      2  O   UNL A   1      46.739  20.439  40.908  1.00  0.00    -0.376 OA
BRANCH   2   3
ATOM      3  C   UNL A   1      47.692  19.890  40.008  1.00  0.00     0.202 C 
BRANCH   3   4
ATOM      4  C   UNL A   1      48.200  20.650  38.768  1.00  0.00     0.261 C 
BRANCH   4   5
ATOM      5  O   UNL A   1      47.876  20.094  37.479  1.00  0.00    -0.460 OA
BRANCH   5   6
ATOM      6  C   UNL A   1      48.155  20.538  36.233  1.00  0.00     0.338 C 
ATOM      7  O   UNL A   1      49.066  20.003  35.606  1.00  0.00    -0.246 OA
BRANCH   6   8
ATOM      8  C   UNL A   1      47.451  21.702  35.623  1.00  0.00     0.060 A 
ATOM      9  C   UNL A   1      48.093  22.779  35.013  1.00  0.00     0.016 A 
ATOM     10  C   UNL A   1      46.053  21.650  35.549  1.00  0.00     0.016 A 
ATOM     11  C   UNL A   1      47.380  23.857  34.491  1.00  0.00     0.010 A 
ATOM     12  C   UNL A   1      45.329  22.681  34.941  1.00  0.00     0.010 A 
ATOM     13  C   UNL A   1      45.989  23.819  34.453  1.00  0.00    -0.014 A 
BRANCH  13  14
ATOM     14  C   UNL A   1      45.222  24.984  33.955  1.00  0.00     0.031 A 
ATOM     15  C   UNL A   1      44.714  24.957  32.544  1.00  0.00     0.074 A 
ATOM     16  C   UNL A   1      45.003  26.054  34.746  1.00  0.00     0.049 A 
ATOM     17  N   UNL A   1      44.063  25.880  31.892  1.00  0.00    -0.248 NA
ATOM     18  C   UNL A   1      44.948  23.724  31.770  1.00  0.00     0.031 C 
ATOM     19  C   UNL A   1      45.396  26.151  36.150  1.00  0.00     0.029 A 
ATOM     20  N   UNL A   1      44.440  27.280  34.479  1.00  0.00    -0.354 N 
ATOM     21  C   UNL A   1      43.855  25.365  30.620  1.00  0.00     0.074 A 
ATOM     22  C   UNL A   1      44.431  24.040  30.592  1.00  0.00     0.031 C 
ATOM     23  C   UNL A   1      45.131  27.390  36.591  1.00  0.00     0.029 A 
ATOM     24  C   UNL A   1      44.602  28.191  35.503  1.00  0.00     0.049 A 
ATOM     25  H   UNL A   1      43.966  27.488  33.641  1.00  0.00     0.167 HD
ATOM     26  C   UNL A   1      43.236  25.953  29.574  1.00  0.00     0.034 A 
ATOM     27  C   UNL A   1      44.393  29.524  35.549  1.00  0.00     0.034 A 
ATOM     28  C   UNL A   1      42.647  27.260  29.629  1.00  0.00     0.049 A 
ATOM     29  C   UNL A   1      43.722  30.138  34.347  1.00  0.00     0.074 A 
ATOM     30  C   UNL A   1      41.939  27.928  28.647  1.00  0.00     0.029 A 
ATOM     31  N   UNL A   1      42.732  28.112  30.718  1.00  0.00    -0.354 N 
ATOM     32  N   UNL A   1      43.293  29.546  33.257  1.00  0.00    -0.248 NA
ATOM     33  C   UNL A   1      43.431  31.577  34.397  1.00  0.00     0.031 C 
ATOM     34  C   UNL A   1      41.634  29.205  29.128  1.00  0.00     0.029 A 
ATOM     35  C   UNL A   1      42.135  29.321  30.415  1.00  0.00     0.049 A 
ATOM     36  H   UNL A   1      43.153  27.889  31.579  1.00  0.00     0.167 HD
ATOM     37  C   UNL A   1      42.639  30.526  32.526  1.00  0.00     0.074 A 
ATOM     38  C   UNL A   1      42.665  31.730  33.329  1.00  0.00     0.031 C 
ATOM     39  C   UNL A   1      42.107  30.466  31.282  1.00  0.00     0.034 A 
BRANCH  26  40
ATOM     40  C   UNL A   1      43.196  25.204  28.274  1.00  0.00     0.023 A 
ATOM     41  C   UNL A   1      41.989  24.643  27.813  1.00  0.00     0.012 A 
ATOM     42  C   UNL A   1      44.357  25.112  27.485  1.00  0.00     0.148 A 
ATOM     43  C   UNL A   1      41.944  23.987  26.583  1.00  0.00     0.002 A 
ATOM     44  C   UNL A   1      44.296  24.490  26.246  1.00  0.00     0.091 A 
ATOM     45  F   UNL A   1      45.495  25.632  27.965  1.00  0.00    -0.205 F 
ATOM     46  C   UNL A   1      43.093  23.920  25.797  1.00  0.00     0.022 A 
BRANCH  44  47
ATOM     47  S   UNL A   1      45.703  24.406  25.135  1.00  0.00     0.127 S 
ATOM     48  O   UNL A   1      45.909  25.818  24.814  1.00  0.00    -0.237 OA
ATOM     49  O   UNL A   1      46.730  23.818  25.994  1.00  0.00    -0.237 OA
ATOM     50  O   UNL A   1      45.286  23.573  24.016  1.00  0.00    -0.744 OA
ENDBRANCH  44  47
ENDBRANCH  26  40
BRANCH  27  51
ATOM     51  C   UNL A   1      44.783  30.361  36.739  1.00  0.00     0.023 A 
ATOM     52  C   UNL A   1      46.145  30.541  37.062  1.00  0.00     0.012 A 
ATOM     53  C   UNL A   1      43.824  30.956  37.589  1.00  0.00     0.148 A 
ATOM     54  C   UNL A   1      46.540  31.246  38.204  1.00  0.00     0.002 A 
ATOM     55  C   UNL A   1      44.225  31.717  38.687  1.00  0.00     0.091 A 
ATOM     56  F   UNL A   1      42.525  30.767  37.316  1.00  0.00    -0.205 F 
ATOM     57  C   UNL A   1      45.582  31.852  39.004  1.00  0.00     0.022 A 
BRANCH  55  58
ATOM     58  S   UNL A   1      43.054  32.605  39.724  1.00  0.00     0.127 S 
ATOM     59  O   UNL A   1      42.204  31.520  40.207  1.00  0.00    -0.237 OA
ATOM     60  O   UNL A   1      43.920  33.202  40.741  1.00  0.00    -0.237 OA
ATOM     61  O   UNL A   1      42.412  33.571  38.841  1.00  0.00    -0.744 OA
ENDBRANCH  55  58
ENDBRANCH  27  51
BRANCH  39  62
ATOM     62  C   UNL A   1      41.501  31.733  30.751  1.00  0.00     0.023 A 
ATOM     63  C   UNL A   1      42.342  32.728  30.213  1.00  0.00     0.012 A 
ATOM     64  C   UNL A   1      40.108  31.927  30.763  1.00  0.00     0.148 A 
ATOM     65  C   UNL A   1      41.809  33.926  29.747  1.00  0.00     0.002 A 
ATOM     66  C   UNL A   1      39.580  33.099  30.239  1.00  0.00     0.091 A 
ATOM     67  F   UNL A   1      39.332  30.970  31.292  1.00  0.00    -0.205 F 
ATOM     68  C   UNL A   1      40.429  34.107  29.750  1.00  0.00     0.022 A 
BRANCH  66  69
ATOM     69  S   UNL A   1      37.814  33.384  30.106  1.00  0.00     0.127 S 
ATOM     70  O   UNL A   1      37.417  33.458  31.511  1.00  0.00    -0.237 OA
ATOM     71  O   UNL A   1      37.763  34.656  29.387  1.00  0.00    -0.237 OA
ATOM     72  O   UNL A   1      37.277  32.248  29.368  1.00  0.00    -0.744 OA
ENDBRANCH  66  69
ENDBRANCH  39  62
ENDBRANCH  13  14
ENDBRANCH   6   8
ENDBRANCH   5   6
ENDBRANCH   4   5
ENDBRANCH   3   4
ENDBRANCH   2   3
ENDBRANCH   1   2
BRANCH   1  73
ATOM     73  C   UNL A   1      46.401  18.135  41.806  1.00  0.00     0.188 C 
BRANCH  73  74
ATOM     74  O   UNL A   1      45.593  17.081  41.305  1.00  0.00    -0.376 OA
BRANCH  74  75
ATOM     75  C   UNL A   1      45.925  16.508  40.049  1.00  0.00     0.202 C 
BRANCH  75  76
ATOM     76  C   UNL A   1      44.906  16.481  38.895  1.00  0.00     0.261 C 
BRANCH  76  77
ATOM     77  O   UNL A   1      43.890  15.478  38.939  1.00  0.00    -0.459 OA
BRANCH  77  78
ATOM     78  C   UNL A   1      42.829  15.832  39.704  1.00  0.00     0.357 C 
ATOM     79  O   UNL A   1      42.451  16.980  39.936  1.00  0.00    -0.244 OA
BRANCH  78  80
ATOM     80  C   UNL A   1      42.315  14.667  40.444  1.00  0.00     0.149 A 
ATOM     81  C   UNL A   1      42.305  14.815  41.819  1.00  0.00     0.051 A 
ATOM     82  N   UNL A   1      41.813  13.601  39.772  1.00  0.00    -0.249 NA
ATOM     83  C   UNL A   1      41.725  13.832  42.591  1.00  0.00     0.011 A 
ATOM     84  C   UNL A   1      41.192  12.681  40.550  1.00  0.00     0.113 A 
ATOM     85  C   UNL A   1      41.107  12.764  41.937  1.00  0.00     0.035 A 
BRANCH  83  86
ATOM     86  S   UNL A   1      41.658  13.996  44.358  1.00  0.00    -0.122 SA
BRANCH  86  87
ATOM     87  C   UNL A   1      43.395  13.654  44.929  1.00  0.00     0.057 C 
ATOM     88  C   UNL A   1      43.447  13.466  46.445  1.00  0.00     0.043 C 
ATOM     89  C   UNL A   1      43.833  12.375  44.205  1.00  0.00     0.050 C 
ATOM     90  C   UNL A   1      44.809  12.938  46.856  1.00  0.00     0.162 C 
ATOM     91  C   UNL A   1      45.076  11.700  44.788  1.00  0.00     0.069 C 
ATOM     92  O   UNL A   1      45.020  11.679  46.236  1.00  0.00    -0.375 OA
ATOM     93  C   UNL A   1      45.291  10.283  44.163  1.00  0.00     0.035 C 
ATOM     94  C   UNL A   1      46.467  12.061  44.175  1.00  0.00     0.035 C 
ATOM     95  C   UNL A   1      46.801  10.554  44.204  1.00  0.00     0.006 C 
ENDBRANCH  86  87
ENDBRANCH  83  86
ENDBRANCH  78  80
ENDBRANCH  77  78
ENDBRANCH  76  77
ENDBRANCH  75  76
ENDBRANCH  74  75
ENDBRANCH  73  74
ENDBRANCH   1  73
TORSDOF 22
ENDMDL
