MODEL 1
REMARK VINA RESULT:      -8.2      0.000      0.000
REMARK SMILES CC[C@H](NC(=O)N1CCO[C@@H](CC(=O)OCCOCCOCCOC(=O)c2ccc(-c3c4nc(c(-c5cccc(S(=O)(=O)[O-])c5F)c5ccc([nH]5)c(-c5cccc(S(=O)(=O)[O-])c5F)c5nc(c(-c6cccc(S(=O)(=O)[O-])c6F)c6ccc3[nH]6)C=C5)C=C4)cc2)C1)c1cccs1
REMARK SMILES IDX 19 1 18 2 17 3 16 4 15 5 13 6 14 7 12 8 11 9 7 10 8 11 90 12
REMARK SMILES IDX 9 13 10 14 5 15 4 16 6 18 3 19 2 20 1 21 91 22 92 23 95 24
REMARK SMILES IDX 93 25 94 26 20 27 21 28 22 29 23 30 24 31 25 32 26 33 27 34
REMARK SMILES IDX 28 35 89 36 29 37 88 38 30 39 31 40 32 41 82 42 33 43 87 44
REMARK SMILES IDX 81 45 83 46 34 47 86 48 80 49 79 50 35 52 67 53 47 54 66 55
REMARK SMILES IDX 48 56 51 57 65 58 84 59 49 60 50 61 64 63 85 64 52 65 36 66
REMARK SMILES IDX 37 67 45 68 38 69 40 70 46 71 39 72 41 73 42 74 43 75 44 76
REMARK SMILES IDX 68 77 69 78 77 79 70 80 72 81 78 82 71 83 73 84 74 85 75 86
REMARK SMILES IDX 76 87 53 88 54 89 62 90 55 91 57 92 63 93 56 94 58 95 59 96
REMARK SMILES IDX 60 97 61 98
REMARK H PARENT 4 17 83 51 51 62
REMARK Flexibility Score: inf
ROOT
ATOM      1  C   UNL A   1      43.024  19.172  25.731  1.00  0.00     0.188 C 
ENDROOT
BRANCH   1   2
ATOM      2  O   UNL A   1      42.691  20.553  25.829  1.00  0.00    -0.376 OA
BRANCH   2   3
ATOM      3  C   UNL A   1      41.722  20.927  26.806  1.00  0.00     0.202 C 
BRANCH   3   4
ATOM      4  C   UNL A   1      41.619  22.423  27.138  1.00  0.00     0.261 C 
BRANCH   4   5
ATOM      5  O   UNL A   1      40.661  23.145  26.335  1.00  0.00    -0.463 OA
BRANCH   5   6
ATOM      6  C   UNL A   1      40.063  24.186  26.957  1.00  0.00     0.308 C 
ATOM      7  O   UNL A   1      39.259  24.077  27.879  1.00  0.00    -0.252 OA
BRANCH   6   8
ATOM      8  C   UNL A   1      40.511  25.549  26.502  1.00  0.00     0.156 C 
BRANCH   8   9
ATOM      9  C   UNL A   1      40.227  26.877  27.209  1.00  0.00     0.149 C 
ATOM     10  N   UNL A   1      39.914  28.316  29.236  1.00  0.00    -0.320 N 
ATOM     11  C   UNL A   1      41.106  29.073  28.861  1.00  0.00     0.150 C 
ATOM     12  C   UNL A   1      39.935  26.914  28.728  1.00  0.00     0.154 C 
ATOM     13  C   UNL A   1      41.352  28.991  27.356  1.00  0.00     0.182 C 
ATOM     14  O   UNL A   1      41.445  27.632  26.934  1.00  0.00    -0.374 OA
BRANCH  10  15
ATOM     15  C   UNL A   1      39.064  28.681  30.257  1.00  0.00     0.318 C 
ATOM     16  N   UNL A   1      38.768  30.009  30.436  1.00  0.00    -0.330 N 
ATOM     17  H   UNL A   1      39.330  30.533  31.052  1.00  0.00     0.166 HD
ATOM     18  O   UNL A   1      38.653  27.883  31.100  1.00  0.00    -0.249 OA
BRANCH  16  19
ATOM     19  C   UNL A   1      37.648  30.695  29.751  1.00  0.00     0.124 C 
BRANCH  19  20
ATOM     20  C   UNL A   1      36.595  29.713  29.149  1.00  0.00     0.027 C 
ATOM     21  C   UNL A   1      36.347  29.779  27.651  1.00  0.00     0.006 C 
ENDBRANCH  19  20
BRANCH  19  22
ATOM     22  C   UNL A   1      36.990  31.640  30.754  1.00  0.00     0.027 A 
ATOM     23  C   UNL A   1      35.774  31.475  31.392  1.00  0.00     0.017 A 
ATOM     24  S   UNL A   1      37.697  33.143  31.225  1.00  0.00    -0.147 S 
ATOM     25  C   UNL A   1      35.325  32.666  32.039  1.00  0.00     0.012 A 
ATOM     26  C   UNL A   1      36.301  33.632  32.067  1.00  0.00     0.065 A 
ENDBRANCH  19  22
ENDBRANCH  16  19
ENDBRANCH  10  15
ENDBRANCH   8   9
ENDBRANCH   6   8
ENDBRANCH   5   6
ENDBRANCH   4   5
ENDBRANCH   3   4
ENDBRANCH   2   3
ENDBRANCH   1   2
BRANCH   1  27
ATOM     27  C   UNL A   1      44.027  18.792  24.642  1.00  0.00     0.188 C 
BRANCH  27  28
ATOM     28  O   UNL A   1      45.174  18.086  25.091  1.00  0.00    -0.376 OA
BRANCH  28  29
ATOM     29  C   UNL A   1      46.285  18.886  25.511  1.00  0.00     0.202 C 
BRANCH  29  30
ATOM     30  C   UNL A   1      46.626  20.118  24.644  1.00  0.00     0.261 C 
BRANCH  30  31
ATOM     31  O   UNL A   1      46.350  21.409  25.231  1.00  0.00    -0.460 OA
BRANCH  31  32
ATOM     32  C   UNL A   1      45.596  22.283  24.518  1.00  0.00     0.338 C 
ATOM     33  O   UNL A   1      44.984  22.044  23.498  1.00  0.00    -0.246 OA
BRANCH  32  34
ATOM     34  C   UNL A   1      45.412  23.525  25.326  1.00  0.00     0.060 A 
ATOM     35  C   UNL A   1      46.495  23.967  26.101  1.00  0.00     0.016 A 
ATOM     36  C   UNL A   1      44.233  24.275  25.299  1.00  0.00     0.016 A 
ATOM     37  C   UNL A   1      46.376  25.101  26.909  1.00  0.00     0.010 A 
ATOM     38  C   UNL A   1      44.110  25.410  26.114  1.00  0.00     0.010 A 
ATOM     39  C   UNL A   1      45.161  25.795  26.968  1.00  0.00    -0.014 A 
BRANCH  39  40
ATOM     40  C   UNL A   1      44.909  26.730  28.100  1.00  0.00     0.031 A 
ATOM     41  C   UNL A   1      44.934  28.212  27.805  1.00  0.00     0.074 A 
ATOM     42  C   UNL A   1      44.621  26.307  29.345  1.00  0.00     0.049 A 
ATOM     43  N   UNL A   1      44.746  29.226  28.610  1.00  0.00    -0.248 NA
ATOM     44  C   UNL A   1      45.208  28.600  26.411  1.00  0.00     0.031 C 
ATOM     45  C   UNL A   1      44.543  24.912  29.773  1.00  0.00     0.029 A 
ATOM     46  N   UNL A   1      44.355  27.024  30.488  1.00  0.00    -0.354 N 
ATOM     47  C   UNL A   1      44.905  30.365  27.829  1.00  0.00     0.074 A 
ATOM     48  C   UNL A   1      45.227  29.920  26.492  1.00  0.00     0.031 C 
ATOM     49  C   UNL A   1      44.270  24.876  31.092  1.00  0.00     0.029 A 
ATOM     50  C   UNL A   1      44.176  26.242  31.606  1.00  0.00     0.049 A 
ATOM     51  H   UNL A   1      44.298  28.007  30.504  1.00  0.00     0.167 HD
ATOM     52  C   UNL A   1      44.777  31.666  28.178  1.00  0.00     0.034 A 
ATOM     53  C   UNL A   1      43.979  26.589  32.896  1.00  0.00     0.034 A 
ATOM     54  C   UNL A   1      44.440  32.121  29.499  1.00  0.00     0.049 A 
ATOM     55  C   UNL A   1      43.882  28.051  33.268  1.00  0.00     0.074 A 
ATOM     56  C   UNL A   1      44.261  33.421  29.939  1.00  0.00     0.029 A 
ATOM     57  N   UNL A   1      44.245  31.297  30.595  1.00  0.00    -0.354 N 
ATOM     58  N   UNL A   1      43.932  29.110  32.495  1.00  0.00    -0.248 NA
ATOM     59  C   UNL A   1      43.663  28.362  34.690  1.00  0.00     0.031 C 
ATOM     60  C   UNL A   1      43.989  33.384  31.311  1.00  0.00     0.029 A 
ATOM     61  C   UNL A   1      43.956  32.059  31.713  1.00  0.00     0.049 A 
ATOM     62  H   UNL A   1      44.304  30.314  30.580  1.00  0.00     0.167 HD
ATOM     63  C   UNL A   1      43.706  30.203  33.329  1.00  0.00     0.074 A 
ATOM     64  C   UNL A   1      43.495  29.677  34.660  1.00  0.00     0.031 C 
ATOM     65  C   UNL A   1      43.688  31.526  33.024  1.00  0.00     0.034 A 
BRANCH  52  66
ATOM     66  C   UNL A   1      44.983  32.700  27.102  1.00  0.00     0.023 A 
ATOM     67  C   UNL A   1      43.924  33.023  26.229  1.00  0.00     0.012 A 
ATOM     68  C   UNL A   1      46.206  33.389  26.991  1.00  0.00     0.148 A 
ATOM     69  C   UNL A   1      44.089  33.992  25.240  1.00  0.00     0.002 A 
ATOM     70  C   UNL A   1      46.347  34.388  26.036  1.00  0.00     0.091 A 
ATOM     71  F   UNL A   1      47.207  33.052  27.816  1.00  0.00    -0.205 F 
ATOM     72  C   UNL A   1      45.295  34.682  25.152  1.00  0.00     0.022 A 
BRANCH  70  73
ATOM     73  S   UNL A   1      47.830  35.390  25.890  1.00  0.00     0.127 S 
ATOM     74  O   UNL A   1      47.271  36.696  25.542  1.00  0.00    -0.237 OA
ATOM     75  O   UNL A   1      48.388  35.305  27.240  1.00  0.00    -0.237 OA
ATOM     76  O   UNL A   1      48.640  34.765  24.854  1.00  0.00    -0.744 OA
ENDBRANCH  70  73
ENDBRANCH  52  66
BRANCH  53  77
ATOM     77  C   UNL A   1      43.838  25.544  33.953  1.00  0.00     0.023 A 
ATOM     78  C   UNL A   1      42.557  25.196  34.428  1.00  0.00     0.012 A 
ATOM     79  C   UNL A   1      44.970  24.926  34.522  1.00  0.00     0.148 A 
ATOM     80  C   UNL A   1      42.408  24.290  35.480  1.00  0.00     0.002 A 
ATOM     81  C   UNL A   1      44.810  23.981  35.529  1.00  0.00     0.091 A 
ATOM     82  F   UNL A   1      46.180  25.284  34.073  1.00  0.00    -0.205 F 
ATOM     83  C   UNL A   1      43.532  23.677  36.024  1.00  0.00     0.022 A 
BRANCH  81  84
ATOM     84  S   UNL A   1      46.191  23.058  36.212  1.00  0.00     0.127 S 
ATOM     85  O   UNL A   1      47.080  22.953  35.058  1.00  0.00    -0.237 OA
ATOM     86  O   UNL A   1      46.657  23.956  37.270  1.00  0.00    -0.237 OA
ATOM     87  O   UNL A   1      45.627  21.803  36.691  1.00  0.00    -0.744 OA
ENDBRANCH  81  84
ENDBRANCH  53  77
BRANCH  65  88
ATOM     88  C   UNL A   1      43.369  32.502  34.129  1.00  0.00     0.023 A 
ATOM     89  C   UNL A   1      44.409  33.112  34.860  1.00  0.00     0.012 A 
ATOM     90  C   UNL A   1      42.033  32.858  34.405  1.00  0.00     0.148 A 
ATOM     91  C   UNL A   1      44.122  34.021  35.879  1.00  0.00     0.002 A 
ATOM     92  C   UNL A   1      41.758  33.807  35.384  1.00  0.00     0.091 A 
ATOM     93  F   UNL A   1      41.055  32.260  33.711  1.00  0.00    -0.205 F 
ATOM     94  C   UNL A   1      42.798  34.376  36.134  1.00  0.00     0.022 A 
BRANCH  92  95
ATOM     95  S   UNL A   1      40.093  34.399  35.711  1.00  0.00     0.127 S 
ATOM     96  O   UNL A   1      39.421  33.175  36.144  1.00  0.00    -0.237 OA
ATOM     97  O   UNL A   1      40.316  35.381  36.771  1.00  0.00    -0.237 OA
ATOM     98  O   UNL A   1      39.615  34.964  34.456  1.00  0.00    -0.744 OA
ENDBRANCH  92  95
ENDBRANCH  65  88
ENDBRANCH  39  40
ENDBRANCH  32  34
ENDBRANCH  31  32
ENDBRANCH  30  31
ENDBRANCH  29  30
ENDBRANCH  28  29
ENDBRANCH  27  28
ENDBRANCH   1  27
TORSDOF 25
ENDMDL
MODEL 2
REMARK VINA RESULT:      -8.0      3.315      8.097
REMARK SMILES CC[C@H](NC(=O)N1CCO[C@@H](CC(=O)OCCOCCOCCOC(=O)c2ccc(-c3c4nc(c(-c5cccc(S(=O)(=O)[O-])c5F)c5ccc([nH]5)c(-c5cccc(S(=O)(=O)[O-])c5F)c5nc(c(-c6cccc(S(=O)(=O)[O-])c6F)c6ccc3[nH]6)C=C5)C=C4)cc2)C1)c1cccs1
REMARK SMILES IDX 19 1 18 2 17 3 16 4 15 5 13 6 14 7 12 8 11 9 7 10 8 11 90 12
REMARK SMILES IDX 9 13 10 14 5 15 4 16 6 18 3 19 2 20 1 21 91 22 92 23 95 24
REMARK SMILES IDX 93 25 94 26 20 27 21 28 22 29 23 30 24 31 25 32 26 33 27 34
REMARK SMILES IDX 28 35 89 36 29 37 88 38 30 39 31 40 32 41 82 42 33 43 87 44
REMARK SMILES IDX 81 45 83 46 34 47 86 48 80 49 79 50 35 52 67 53 47 54 66 55
REMARK SMILES IDX 48 56 51 57 65 58 84 59 49 60 50 61 64 63 85 64 52 65 36 66
REMARK SMILES IDX 37 67 45 68 38 69 40 70 46 71 39 72 41 73 42 74 43 75 44 76
REMARK SMILES IDX 68 77 69 78 77 79 70 80 72 81 78 82 71 83 73 84 74 85 75 86
REMARK SMILES IDX 76 87 53 88 54 89 62 90 55 91 57 92 63 93 56 94 58 95 59 96
REMARK SMILES IDX 60 97 61 98
REMARK H PARENT 4 17 83 51 51 62
REMARK Flexibility Score: inf
ROOT
ATOM      1  C   UNL A   1      42.780  18.657  26.145  1.00  0.00     0.188 C 
ENDROOT
BRANCH   1   2
ATOM      2  O   UNL A   1      43.720  18.608  25.077  1.00  0.00    -0.376 OA
BRANCH   2   3
ATOM      3  C   UNL A   1      45.084  18.880  25.389  1.00  0.00     0.202 C 
BRANCH   3   4
ATOM      4  C   UNL A   1      45.631  20.248  24.958  1.00  0.00     0.261 C 
BRANCH   4   5
ATOM      5  O   UNL A   1      44.824  20.927  23.971  1.00  0.00    -0.463 OA
BRANCH   5   6
ATOM      6  C   UNL A   1      44.412  22.165  24.322  1.00  0.00     0.308 C 
ATOM      7  O   UNL A   1      43.294  22.618  24.088  1.00  0.00    -0.252 OA
BRANCH   6   8
ATOM      8  C   UNL A   1      45.401  22.969  25.122  1.00  0.00     0.156 C 
BRANCH   8   9
ATOM      9  C   UNL A   1      45.073  23.900  26.294  1.00  0.00     0.149 C 
ATOM     10  N   UNL A   1      45.684  25.409  28.196  1.00  0.00    -0.320 N 
ATOM     11  C   UNL A   1      45.079  26.529  27.480  1.00  0.00     0.150 C 
ATOM     12  C   UNL A   1      46.177  24.337  27.285  1.00  0.00     0.154 C 
ATOM     13  C   UNL A   1      44.008  26.039  26.508  1.00  0.00     0.182 C 
ATOM     14  O   UNL A   1      44.549  25.076  25.606  1.00  0.00    -0.374 OA
BRANCH  10  15
ATOM     15  C   UNL A   1      46.127  25.483  29.499  1.00  0.00     0.318 C 
ATOM     16  N   UNL A   1      45.252  25.877  30.480  1.00  0.00    -0.330 N 
ATOM     17  H   UNL A   1      45.205  26.834  30.705  1.00  0.00     0.166 HD
ATOM     18  O   UNL A   1      47.309  25.332  29.811  1.00  0.00    -0.249 OA
BRANCH  16  19
ATOM     19  C   UNL A   1      44.376  24.938  31.217  1.00  0.00     0.124 C 
BRANCH  19  20
ATOM     20  C   UNL A   1      44.492  23.462  30.721  1.00  0.00     0.027 C 
ATOM     21  C   UNL A   1      43.472  22.979  29.704  1.00  0.00     0.006 C 
ENDBRANCH  19  20
BRANCH  19  22
ATOM     22  C   UNL A   1      44.721  25.035  32.701  1.00  0.00     0.027 A 
ATOM     23  C   UNL A   1      45.472  26.013  33.328  1.00  0.00     0.017 A 
ATOM     24  S   UNL A   1      44.222  23.853  33.857  1.00  0.00    -0.147 S 
ATOM     25  C   UNL A   1      45.841  25.655  34.660  1.00  0.00     0.012 A 
ATOM     26  C   UNL A   1      45.182  24.528  35.089  1.00  0.00     0.065 A 
ENDBRANCH  19  22
ENDBRANCH  16  19
ENDBRANCH  10  15
ENDBRANCH   8   9
ENDBRANCH   6   8
ENDBRANCH   5   6
ENDBRANCH   4   5
ENDBRANCH   3   4
ENDBRANCH   2   3
ENDBRANCH   1   2
BRANCH   1  27
ATOM     27  C   UNL A   1      41.421  19.280  25.825  1.00  0.00     0.188 C 
BRANCH  27  28
ATOM     28  O   UNL A   1      41.389  20.700  25.818  1.00  0.00    -0.376 OA
BRANCH  28  29
ATOM     29  C   UNL A   1      41.721  21.346  27.051  1.00  0.00     0.202 C 
BRANCH  29  30
ATOM     30  C   UNL A   1      40.750  22.437  27.552  1.00  0.00     0.261 C 
BRANCH  30  31
ATOM     31  O   UNL A   1      40.845  23.724  26.903  1.00  0.00    -0.460 OA
BRANCH  31  32
ATOM     32  C   UNL A   1      39.692  24.381  26.619  1.00  0.00     0.338 C 
ATOM     33  O   UNL A   1      38.758  23.953  25.973  1.00  0.00    -0.246 OA
BRANCH  32  34
ATOM     34  C   UNL A   1      39.629  25.618  27.452  1.00  0.00     0.060 A 
ATOM     35  C   UNL A   1      39.989  26.831  26.847  1.00  0.00     0.016 A 
ATOM     36  C   UNL A   1      39.184  25.614  28.777  1.00  0.00     0.016 A 
ATOM     37  C   UNL A   1      39.988  28.021  27.582  1.00  0.00     0.010 A 
ATOM     38  C   UNL A   1      39.188  26.805  29.517  1.00  0.00     0.010 A 
ATOM     39  C   UNL A   1      39.647  28.005  28.941  1.00  0.00    -0.014 A 
BRANCH  39  40
ATOM     40  C   UNL A   1      40.026  29.159  29.802  1.00  0.00     0.031 A 
ATOM     41  C   UNL A   1      41.493  29.358  30.106  1.00  0.00     0.074 A 
ATOM     42  C   UNL A   1      39.126  30.043  30.273  1.00  0.00     0.049 A 
ATOM     43  N   UNL A   1      42.078  30.281  30.825  1.00  0.00    -0.248 NA
ATOM     44  C   UNL A   1      42.424  28.380  29.517  1.00  0.00     0.031 C 
ATOM     45  C   UNL A   1      37.683  29.991  30.047  1.00  0.00     0.029 A 
ATOM     46  N   UNL A   1      39.302  31.156  31.061  1.00  0.00    -0.354 N 
ATOM     47  C   UNL A   1      43.435  29.980  30.796  1.00  0.00     0.074 A 
ATOM     48  C   UNL A   1      43.586  28.778  30.008  1.00  0.00     0.031 C 
ATOM     49  C   UNL A   1      37.103  31.015  30.701  1.00  0.00     0.029 A 
ATOM     50  C   UNL A   1      38.127  31.782  31.410  1.00  0.00     0.049 A 
ATOM     51  H   UNL A   1      40.188  31.475  31.349  1.00  0.00     0.167 HD
ATOM     52  C   UNL A   1      44.472  30.649  31.353  1.00  0.00     0.034 A 
ATOM     53  C   UNL A   1      37.904  32.837  32.222  1.00  0.00     0.034 A 
ATOM     54  C   UNL A   1      44.337  31.855  32.124  1.00  0.00     0.049 A 
ATOM     55  C   UNL A   1      39.076  33.542  32.867  1.00  0.00     0.074 A 
ATOM     56  C   UNL A   1      45.335  32.618  32.704  1.00  0.00     0.029 A 
ATOM     57  N   UNL A   1      43.134  32.467  32.433  1.00  0.00    -0.354 N 
ATOM     58  N   UNL A   1      40.360  33.303  32.743  1.00  0.00    -0.248 NA
ATOM     59  C   UNL A   1      38.765  34.687  33.738  1.00  0.00     0.031 C 
ATOM     60  C   UNL A   1      44.731  33.675  33.393  1.00  0.00     0.029 A 
ATOM     61  C   UNL A   1      43.361  33.594  33.204  1.00  0.00     0.049 A 
ATOM     62  H   UNL A   1      42.248  32.147  32.147  1.00  0.00     0.167 HD
ATOM     63  C   UNL A   1      41.006  34.294  33.480  1.00  0.00     0.074 A 
ATOM     64  C   UNL A   1      39.974  35.148  34.026  1.00  0.00     0.031 C 
ATOM     65  C   UNL A   1      42.334  34.474  33.696  1.00  0.00     0.034 A 
BRANCH  52  66
ATOM     66  C   UNL A   1      45.857  30.099  31.131  1.00  0.00     0.023 A 
ATOM     67  C   UNL A   1      46.362  29.107  31.997  1.00  0.00     0.012 A 
ATOM     68  C   UNL A   1      46.633  30.524  30.037  1.00  0.00     0.148 A 
ATOM     69  C   UNL A   1      47.633  28.570  31.795  1.00  0.00     0.002 A 
ATOM     70  C   UNL A   1      47.878  29.949  29.813  1.00  0.00     0.091 A 
ATOM     71  F   UNL A   1      46.142  31.483  29.239  1.00  0.00    -0.205 F 
ATOM     72  C   UNL A   1      48.384  28.982  30.698  1.00  0.00     0.022 A 
BRANCH  70  73
ATOM     73  S   UNL A   1      48.891  30.351  28.386  1.00  0.00     0.127 S 
ATOM     74  O   UNL A   1      50.043  29.473  28.586  1.00  0.00    -0.237 OA
ATOM     75  O   UNL A   1      48.018  29.970  27.276  1.00  0.00    -0.237 OA
ATOM     76  O   UNL A   1      49.173  31.776  28.480  1.00  0.00    -0.744 OA
ENDBRANCH  70  73
ENDBRANCH  52  66
BRANCH  53  77
ATOM     77  C   UNL A   1      36.515  33.325  32.473  1.00  0.00     0.023 A 
ATOM     78  C   UNL A   1      35.874  33.017  33.690  1.00  0.00     0.012 A 
ATOM     79  C   UNL A   1      35.810  34.051  31.493  1.00  0.00     0.148 A 
ATOM     80  C   UNL A   1      34.544  33.382  33.908  1.00  0.00     0.002 A 
ATOM     81  C   UNL A   1      34.505  34.462  31.741  1.00  0.00     0.091 A 
ATOM     82  F   UNL A   1      36.426  34.316  30.333  1.00  0.00    -0.205 F 
ATOM     83  C   UNL A   1      33.863  34.111  32.938  1.00  0.00     0.022 A 
BRANCH  81  84
ATOM     84  S   UNL A   1      33.588  35.500  30.597  1.00  0.00     0.127 S 
ATOM     85  O   UNL A   1      33.910  36.839  31.083  1.00  0.00    -0.237 OA
ATOM     86  O   UNL A   1      34.200  35.145  29.316  1.00  0.00    -0.237 OA
ATOM     87  O   UNL A   1      32.195  35.098  30.732  1.00  0.00    -0.744 OA
ENDBRANCH  81  84
ENDBRANCH  53  77
BRANCH  65  88
ATOM     88  C   UNL A   1      42.762  35.672  34.507  1.00  0.00     0.023 A 
ATOM     89  C   UNL A   1      42.940  35.560  35.901  1.00  0.00     0.012 A 
ATOM     90  C   UNL A   1      43.044  36.900  33.874  1.00  0.00     0.148 A 
ATOM     91  C   UNL A   1      43.342  36.662  36.657  1.00  0.00     0.002 A 
ATOM     92  C   UNL A   1      43.499  37.977  34.626  1.00  0.00     0.091 A 
ATOM     93  F   UNL A   1      42.858  36.995  32.550  1.00  0.00    -0.205 F 
ATOM     94  C   UNL A   1      43.632  37.866  36.018  1.00  0.00     0.022 A 
BRANCH  92  95
ATOM     95  S   UNL A   1      43.992  39.535  33.877  1.00  0.00     0.127 S 
ATOM     96  O   UNL A   1      44.138  40.396  35.050  1.00  0.00    -0.237 OA
ATOM     97  O   UNL A   1      45.250  39.179  33.221  1.00  0.00    -0.237 OA
ATOM     98  O   UNL A   1      42.917  39.899  32.964  1.00  0.00    -0.744 OA
ENDBRANCH  92  95
ENDBRANCH  65  88
ENDBRANCH  39  40
ENDBRANCH  32  34
ENDBRANCH  31  32
ENDBRANCH  30  31
ENDBRANCH  29  30
ENDBRANCH  28  29
ENDBRANCH  27  28
ENDBRANCH   1  27
TORSDOF 25
ENDMDL
MODEL 3
REMARK VINA RESULT:      -8.0      3.633      8.896
REMARK SMILES CC[C@H](NC(=O)N1CCO[C@@H](CC(=O)OCCOCCOCCOC(=O)c2ccc(-c3c4nc(c(-c5cccc(S(=O)(=O)[O-])c5F)c5ccc([nH]5)c(-c5cccc(S(=O)(=O)[O-])c5F)c5nc(c(-c6cccc(S(=O)(=O)[O-])c6F)c6ccc3[nH]6)C=C5)C=C4)cc2)C1)c1cccs1
REMARK SMILES IDX 19 1 18 2 17 3 16 4 15 5 13 6 14 7 12 8 11 9 7 10 8 11 90 12
REMARK SMILES IDX 9 13 10 14 5 15 4 16 6 18 3 19 2 20 1 21 91 22 92 23 95 24
REMARK SMILES IDX 93 25 94 26 20 27 21 28 22 29 23 30 24 31 25 32 26 33 27 34
REMARK SMILES IDX 28 35 89 36 29 37 88 38 30 39 31 40 32 41 82 42 33 43 87 44
REMARK SMILES IDX 81 45 83 46 34 47 86 48 80 49 79 50 35 52 67 53 47 54 66 55
REMARK SMILES IDX 48 56 51 57 65 58 84 59 49 60 50 61 64 63 85 64 52 65 36 66
REMARK SMILES IDX 37 67 45 68 38 69 40 70 46 71 39 72 41 73 42 74 43 75 44 76
REMARK SMILES IDX 68 77 69 78 77 79 70 80 72 81 78 82 71 83 73 84 74 85 75 86
REMARK SMILES IDX 76 87 53 88 54 89 62 90 55 91 57 92 63 93 56 94 58 95 59 96
REMARK SMILES IDX 60 97 61 98
REMARK H PARENT 4 17 83 51 51 62
REMARK Flexibility Score: inf
ROOT
ATOM      1  C   UNL A   1      44.093  18.484  25.997  1.00  0.00     0.188 C 
ENDROOT
BRANCH   1   2
ATOM      2  O   UNL A   1      44.657  18.366  24.694  1.00  0.00    -0.376 OA
BRANCH   2   3
ATOM      3  C   UNL A   1      45.847  19.103  24.424  1.00  0.00     0.202 C 
BRANCH   3   4
ATOM      4  C   UNL A   1      45.764  20.628  24.582  1.00  0.00     0.261 C 
BRANCH   4   5
ATOM      5  O   UNL A   1      44.582  21.222  24.004  1.00  0.00    -0.463 OA
BRANCH   5   6
ATOM      6  C   UNL A   1      44.119  22.317  24.648  1.00  0.00     0.308 C 
ATOM      7  O   UNL A   1      43.270  23.081  24.196  1.00  0.00    -0.252 OA
BRANCH   6   8
ATOM      8  C   UNL A   1      44.654  22.519  26.039  1.00  0.00     0.156 C 
BRANCH   8   9
ATOM      9  C   UNL A   1      45.775  23.481  26.447  1.00  0.00     0.149 C 
ATOM     10  N   UNL A   1      47.078  25.611  26.259  1.00  0.00    -0.320 N 
ATOM     11  C   UNL A   1      46.631  25.983  27.599  1.00  0.00     0.150 C 
ATOM     12  C   UNL A   1      46.125  24.700  25.562  1.00  0.00     0.154 C 
ATOM     13  C   UNL A   1      46.286  24.743  28.421  1.00  0.00     0.182 C 
ATOM     14  O   UNL A   1      45.312  23.948  27.750  1.00  0.00    -0.374 OA
BRANCH  10  15
ATOM     15  C   UNL A   1      48.032  26.308  25.549  1.00  0.00     0.318 C 
ATOM     16  N   UNL A   1      48.921  27.103  26.228  1.00  0.00    -0.330 N 
ATOM     17  H   UNL A   1      48.689  28.050  26.364  1.00  0.00     0.166 HD
ATOM     18  O   UNL A   1      48.048  26.351  24.319  1.00  0.00    -0.249 OA
BRANCH  16  19
ATOM     19  C   UNL A   1      50.209  26.610  26.767  1.00  0.00     0.124 C 
BRANCH  19  20
ATOM     20  C   UNL A   1      51.222  26.184  25.659  1.00  0.00     0.027 C 
ATOM     21  C   UNL A   1      52.181  25.049  25.981  1.00  0.00     0.006 C 
ENDBRANCH  19  20
BRANCH  19  22
ATOM     22  C   UNL A   1      50.805  27.708  27.646  1.00  0.00     0.027 A 
ATOM     23  C   UNL A   1      51.598  27.549  28.768  1.00  0.00     0.017 A 
ATOM     24  S   UNL A   1      50.526  29.388  27.361  1.00  0.00    -0.147 S 
ATOM     25  C   UNL A   1      51.747  28.759  29.513  1.00  0.00     0.012 A 
ATOM     26  C   UNL A   1      51.255  29.845  28.829  1.00  0.00     0.065 A 
ENDBRANCH  19  22
ENDBRANCH  16  19
ENDBRANCH  10  15
ENDBRANCH   8   9
ENDBRANCH   6   8
ENDBRANCH   5   6
ENDBRANCH   4   5
ENDBRANCH   3   4
ENDBRANCH   2   3
ENDBRANCH   1   2
BRANCH   1  27
ATOM     27  C   UNL A   1      42.613  18.126  26.129  1.00  0.00     0.188 C 
BRANCH  27  28
ATOM     28  O   UNL A   1      41.729  19.229  26.269  1.00  0.00    -0.376 OA
BRANCH  28  29
ATOM     29  C   UNL A   1      42.019  20.140  27.334  1.00  0.00     0.202 C 
BRANCH  29  30
ATOM     30  C   UNL A   1      40.997  21.270  27.583  1.00  0.00     0.261 C 
BRANCH  30  31
ATOM     31  O   UNL A   1      40.903  22.285  26.559  1.00  0.00    -0.460 OA
BRANCH  31  32
ATOM     32  C   UNL A   1      39.695  22.865  26.346  1.00  0.00     0.338 C 
ATOM     33  O   UNL A   1      38.696  22.317  25.928  1.00  0.00    -0.246 OA
BRANCH  32  34
ATOM     34  C   UNL A   1      39.703  24.227  26.958  1.00  0.00     0.060 A 
ATOM     35  C   UNL A   1      40.350  25.254  26.256  1.00  0.00     0.016 A 
ATOM     36  C   UNL A   1      39.057  24.515  28.164  1.00  0.00     0.016 A 
ATOM     37  C   UNL A   1      40.425  26.543  26.792  1.00  0.00     0.010 A 
ATOM     38  C   UNL A   1      39.138  25.806  28.705  1.00  0.00     0.010 A 
ATOM     39  C   UNL A   1      39.874  26.812  28.051  1.00  0.00    -0.014 A 
BRANCH  39  40
ATOM     40  C   UNL A   1      40.294  28.038  28.785  1.00  0.00     0.031 A 
ATOM     41  C   UNL A   1      41.703  28.085  29.328  1.00  0.00     0.074 A 
ATOM     42  C   UNL A   1      39.489  29.107  28.939  1.00  0.00     0.049 A 
ATOM     43  N   UNL A   1      42.308  29.031  29.998  1.00  0.00    -0.248 NA
ATOM     44  C   UNL A   1      42.541  26.899  29.080  1.00  0.00     0.031 C 
ATOM     45  C   UNL A   1      38.114  29.214  28.455  1.00  0.00     0.029 A 
ATOM     46  N   UNL A   1      39.717  30.307  29.571  1.00  0.00    -0.354 N 
ATOM     47  C   UNL A   1      43.582  28.547  30.272  1.00  0.00     0.074 A 
ATOM     48  C   UNL A   1      43.657  27.214  29.716  1.00  0.00     0.031 C 
ATOM     49  C   UNL A   1      37.614  30.409  28.826  1.00  0.00     0.029 A 
ATOM     50  C   UNL A   1      38.622  31.141  29.593  1.00  0.00     0.049 A 
ATOM     51  H   UNL A   1      40.584  30.548  29.970  1.00  0.00     0.167 HD
ATOM     52  C   UNL A   1      44.610  29.155  30.909  1.00  0.00     0.034 A 
ATOM     53  C   UNL A   1      38.449  32.344  30.179  1.00  0.00     0.034 A 
ATOM     54  C   UNL A   1      44.555  30.485  31.450  1.00  0.00     0.049 A 
ATOM     55  C   UNL A   1      39.599  32.984  30.922  1.00  0.00     0.074 A 
ATOM     56  C   UNL A   1      45.557  31.195  32.087  1.00  0.00     0.029 A 
ATOM     57  N   UNL A   1      43.436  31.302  31.430  1.00  0.00    -0.354 N 
ATOM     58  N   UNL A   1      40.828  32.553  31.080  1.00  0.00    -0.248 NA
ATOM     59  C   UNL A   1      39.346  34.298  31.536  1.00  0.00     0.031 C 
ATOM     60  C   UNL A   1      45.034  32.430  32.483  1.00  0.00     0.029 A 
ATOM     61  C   UNL A   1      43.720  32.505  32.052  1.00  0.00     0.049 A 
ATOM     62  H   UNL A   1      42.568  31.061  31.033  1.00  0.00     0.167 HD
ATOM     63  C   UNL A   1      41.501  33.561  31.769  1.00  0.00     0.074 A 
ATOM     64  C   UNL A   1      40.551  34.632  31.975  1.00  0.00     0.031 C 
ATOM     65  C   UNL A   1      42.787  33.592  32.203  1.00  0.00     0.034 A 
BRANCH  52  66
ATOM     66  C   UNL A   1      45.901  28.389  31.039  1.00  0.00     0.023 A 
ATOM     67  C   UNL A   1      46.953  28.630  30.131  1.00  0.00     0.012 A 
ATOM     68  C   UNL A   1      46.091  27.472  32.090  1.00  0.00     0.148 A 
ATOM     69  C   UNL A   1      48.162  27.946  30.248  1.00  0.00     0.002 A 
ATOM     70  C   UNL A   1      47.316  26.831  32.230  1.00  0.00     0.091 A 
ATOM     71  F   UNL A   1      45.071  27.242  32.930  1.00  0.00    -0.205 F 
ATOM     72  C   UNL A   1      48.347  27.057  31.303  1.00  0.00     0.022 A 
BRANCH  70  73
ATOM     73  S   UNL A   1      47.684  25.729  33.599  1.00  0.00     0.127 S 
ATOM     74  O   UNL A   1      47.514  26.618  34.747  1.00  0.00    -0.237 OA
ATOM     75  O   UNL A   1      46.645  24.709  33.457  1.00  0.00    -0.237 OA
ATOM     76  O   UNL A   1      49.042  25.252  33.378  1.00  0.00    -0.744 OA
ENDBRANCH  70  73
ENDBRANCH  52  66
BRANCH  53  77
ATOM     77  C   UNL A   1      37.139  33.055  30.086  1.00  0.00     0.023 A 
ATOM     78  C   UNL A   1      36.701  33.558  28.844  1.00  0.00     0.012 A 
ATOM     79  C   UNL A   1      36.346  33.275  31.230  1.00  0.00     0.148 A 
ATOM     80  C   UNL A   1      35.526  34.306  28.751  1.00  0.00     0.002 A 
ATOM     81  C   UNL A   1      35.147  33.970  31.119  1.00  0.00     0.091 A 
ATOM     82  F   UNL A   1      36.787  32.809  32.406  1.00  0.00    -0.205 F 
ATOM     83  C   UNL A   1      34.746  34.505  29.885  1.00  0.00     0.022 A 
BRANCH  81  84
ATOM     84  S   UNL A   1      34.022  34.178  32.503  1.00  0.00     0.127 S 
ATOM     85  O   UNL A   1      34.830  34.966  33.430  1.00  0.00    -0.237 OA
ATOM     86  O   UNL A   1      32.913  34.903  31.881  1.00  0.00    -0.237 OA
ATOM     87  O   UNL A   1      33.689  32.830  32.945  1.00  0.00    -0.744 OA
ENDBRANCH  81  84
ENDBRANCH  53  77
BRANCH  65  88
ATOM     88  C   UNL A   1      43.270  34.844  32.891  1.00  0.00     0.023 A 
ATOM     89  C   UNL A   1      43.694  35.954  32.132  1.00  0.00     0.012 A 
ATOM     90  C   UNL A   1      43.253  34.939  34.298  1.00  0.00     0.148 A 
ATOM     91  C   UNL A   1      44.137  37.118  32.762  1.00  0.00     0.002 A 
ATOM     92  C   UNL A   1      43.642  36.122  34.916  1.00  0.00     0.091 A 
ATOM     93  F   UNL A   1      42.860  33.871  35.007  1.00  0.00    -0.205 F 
ATOM     94  C   UNL A   1      44.101  37.206  34.152  1.00  0.00     0.022 A 
BRANCH  92  95
ATOM     95  S   UNL A   1      43.533  36.361  36.694  1.00  0.00     0.127 S 
ATOM     96  O   UNL A   1      42.179  36.892  36.841  1.00  0.00    -0.237 OA
ATOM     97  O   UNL A   1      43.713  35.001  37.201  1.00  0.00    -0.237 OA
ATOM     98  O   UNL A   1      44.607  37.281  37.042  1.00  0.00    -0.744 OA
ENDBRANCH  92  95
ENDBRANCH  65  88
ENDBRANCH  39  40
ENDBRANCH  32  34
ENDBRANCH  31  32
ENDBRANCH  30  31
ENDBRANCH  29  30
ENDBRANCH  28  29
ENDBRANCH  27  28
ENDBRANCH   1  27
TORSDOF 25
ENDMDL
