MODEL 1
REMARK VINA RESULT:     -10.6      0.000      0.000
REMARK SMILES C[C@H](Oc1ccc(/C=C2\SC(=S)N(N)C2=O)cc1)C(=O)OCCOCCOCCOC(=O)c1ccc(-c2c3nc(c(-c4cccc(S(=O)(=O)[O-])c4F)c4ccc([nH]4)c(-c4cccc(S(=O)(=O)[O-])c4F)c4nc(c(-c5cccc(S(=O)(=O)[O-])c5F)c5ccc2[nH]5)C=C4)C=C3)cc1
REMARK SMILES IDX 25 1 24 2 23 3 22 4 21 5 19 6 20 7 2 8 1 9 3 10 4 11 5 12
REMARK SMILES IDX 18 13 6 14 17 15 7 16 8 17 9 18 10 19 15 20 11 21 13 22
REMARK SMILES IDX 16 23 12 24 14 25 26 28 27 29 28 30 29 31 30 32 31 33 32 34
REMARK SMILES IDX 33 35 34 36 95 37 35 38 94 39 36 40 37 41 38 42 88 43 39 44
REMARK SMILES IDX 93 45 87 46 89 47 40 48 92 49 86 50 85 51 41 53 73 54 53 55
REMARK SMILES IDX 72 56 54 57 57 58 71 59 90 60 55 61 56 62 70 64 91 65 58 66
REMARK SMILES IDX 42 67 43 68 51 69 44 70 46 71 52 72 45 73 47 74 48 75 49 76
REMARK SMILES IDX 50 77 74 78 75 79 83 80 76 81 78 82 84 83 77 84 79 85 80 86
REMARK SMILES IDX 81 87 82 88 59 89 60 90 68 91 61 92 63 93 69 94 62 95 64 96
REMARK SMILES IDX 65 97 66 98 67 99
REMARK H PARENT 14 26 14 27 89 52 57 63
REMARK Flexibility Score: inf
ROOT
ATOM      1  C   UNL A   1      36.788  23.406  24.845  1.00  0.00     0.188 C 
ENDROOT
BRANCH   1   2
ATOM      2  O   UNL A   1      35.393  23.599  24.785  1.00  0.00    -0.376 OA
BRANCH   2   3
ATOM      3  C   UNL A   1      34.657  23.897  25.959  1.00  0.00     0.202 C 
BRANCH   3   4
ATOM      4  C   UNL A   1      33.231  23.409  26.262  1.00  0.00     0.261 C 
BRANCH   4   5
ATOM      5  O   UNL A   1      33.054  22.034  26.620  1.00  0.00    -0.461 OA
BRANCH   5   6
ATOM      6  C   UNL A   1      33.450  21.135  25.675  1.00  0.00     0.347 C 
ATOM      7  O   UNL A   1      34.463  20.446  25.757  1.00  0.00    -0.248 OA
BRANCH   6   8
ATOM      8  C   UNL A   1      32.553  21.102  24.431  1.00  0.00     0.279 C 
ATOM      9  C   UNL A   1      32.297  19.612  24.189  1.00  0.00     0.066 C 
BRANCH   8  10
ATOM     10  O   UNL A   1      33.093  21.763  23.287  1.00  0.00    -0.479 OA
BRANCH  10  11
ATOM     11  C   UNL A   1      32.467  22.894  22.833  1.00  0.00     0.120 A 
ATOM     12  C   UNL A   1      33.033  23.833  21.975  1.00  0.00     0.047 A 
ATOM     13  C   UNL A   1      31.202  23.141  23.368  1.00  0.00     0.047 A 
ATOM     14  C   UNL A   1      32.472  25.104  21.875  1.00  0.00     0.012 A 
ATOM     15  C   UNL A   1      30.634  24.416  23.266  1.00  0.00     0.012 A 
ATOM     16  C   UNL A   1      31.338  25.437  22.621  1.00  0.00    -0.024 A 
BRANCH  16  17
ATOM     17  C   UNL A   1      30.955  26.844  22.824  1.00  0.00     0.029 C 
ATOM     18  C   UNL A   1      31.438  27.623  23.809  1.00  0.00     0.082 C 
ATOM     19  S   UNL A   1      32.602  27.197  25.021  1.00  0.00    -0.053 SA
ATOM     20  C   UNL A   1      30.990  29.031  24.014  1.00  0.00     0.280 C 
ATOM     21  C   UNL A   1      32.571  28.777  25.779  1.00  0.00     0.162 C 
ATOM     22  N   UNL A   1      31.652  29.570  25.116  1.00  0.00    -0.226 N 
ATOM     23  O   UNL A   1      30.187  29.617  23.299  1.00  0.00    -0.267 OA
ATOM     24  S   UNL A   1      33.542  29.201  27.068  1.00  0.00    -0.050 S 
BRANCH  22  25
ATOM     25  N   UNL A   1      31.358  30.901  25.530  1.00  0.00    -0.239 NA
ATOM     26  H   UNL A   1      31.679  31.038  26.489  1.00  0.00     0.144 HD
ATOM     27  H   UNL A   1      30.351  31.058  25.483  1.00  0.00     0.144 HD
ENDBRANCH  22  25
ENDBRANCH  16  17
ENDBRANCH  10  11
ENDBRANCH   8  10
ENDBRANCH   6   8
ENDBRANCH   5   6
ENDBRANCH   4   5
ENDBRANCH   3   4
ENDBRANCH   2   3
ENDBRANCH   1   2
BRANCH   1  28
ATOM     28  C   UNL A   1      37.303  22.255  25.728  1.00  0.00     0.188 C 
BRANCH  28  29
ATOM     29  O   UNL A   1      38.517  21.596  25.428  1.00  0.00    -0.376 OA
BRANCH  29  30
ATOM     30  C   UNL A   1      38.503  20.196  25.194  1.00  0.00     0.202 C 
BRANCH  30  31
ATOM     31  C   UNL A   1      39.488  19.213  25.858  1.00  0.00     0.261 C 
BRANCH  31  32
ATOM     32  O   UNL A   1      40.886  19.492  25.716  1.00  0.00    -0.460 OA
BRANCH  32  33
ATOM     33  C   UNL A   1      41.554  19.767  26.866  1.00  0.00     0.338 C 
ATOM     34  O   UNL A   1      42.090  18.969  27.619  1.00  0.00    -0.246 OA
BRANCH  33  35
ATOM     35  C   UNL A   1      41.720  21.230  26.976  1.00  0.00     0.060 A 
ATOM     36  C   UNL A   1      41.803  21.998  25.804  1.00  0.00     0.016 A 
ATOM     37  C   UNL A   1      41.785  21.841  28.227  1.00  0.00     0.016 A 
ATOM     38  C   UNL A   1      41.926  23.386  25.880  1.00  0.00     0.010 A 
ATOM     39  C   UNL A   1      41.947  23.227  28.300  1.00  0.00     0.010 A 
ATOM     40  C   UNL A   1      42.024  24.006  27.130  1.00  0.00    -0.014 A 
BRANCH  40  41
ATOM     41  C   UNL A   1      42.328  25.452  27.239  1.00  0.00     0.031 A 
ATOM     42  C   UNL A   1      43.668  25.944  26.773  1.00  0.00     0.074 A 
ATOM     43  C   UNL A   1      41.458  26.299  27.820  1.00  0.00     0.049 A 
ATOM     44  N   UNL A   1      44.213  27.122  26.922  1.00  0.00    -0.248 NA
ATOM     45  C   UNL A   1      44.508  24.976  26.047  1.00  0.00     0.031 C 
ATOM     46  C   UNL A   1      40.124  25.944  28.301  1.00  0.00     0.029 A 
ATOM     47  N   UNL A   1      41.596  27.625  28.155  1.00  0.00    -0.354 N 
ATOM     48  C   UNL A   1      45.480  27.024  26.361  1.00  0.00     0.074 A 
ATOM     49  C   UNL A   1      45.614  25.679  25.845  1.00  0.00     0.031 C 
ATOM     50  C   UNL A   1      39.589  27.007  28.926  1.00  0.00     0.029 A 
ATOM     51  C   UNL A   1      40.558  28.102  28.925  1.00  0.00     0.049 A 
ATOM     52  H   UNL A   1      42.360  28.178  27.874  1.00  0.00     0.167 HD
ATOM     53  C   UNL A   1      46.445  27.968  26.291  1.00  0.00     0.034 A 
ATOM     54  C   UNL A   1      40.432  29.264  29.598  1.00  0.00     0.034 A 
ATOM     55  C   UNL A   1      46.301  29.311  26.786  1.00  0.00     0.049 A 
ATOM     56  C   UNL A   1      41.541  30.285  29.528  1.00  0.00     0.074 A 
ATOM     57  C   UNL A   1      47.195  30.361  26.680  1.00  0.00     0.029 A 
ATOM     58  N   UNL A   1      45.214  29.777  27.505  1.00  0.00    -0.354 N 
ATOM     59  N   UNL A   1      42.671  30.236  28.866  1.00  0.00    -0.248 NA
ATOM     60  C   UNL A   1      41.350  31.533  30.285  1.00  0.00     0.031 C 
ATOM     61  C   UNL A   1      46.669  31.452  27.379  1.00  0.00     0.029 A 
ATOM     62  C   UNL A   1      45.429  31.092  27.881  1.00  0.00     0.049 A 
ATOM     63  H   UNL A   1      44.408  29.253  27.716  1.00  0.00     0.167 HD
ATOM     64  C   UNL A   1      43.308  31.451  29.102  1.00  0.00     0.074 A 
ATOM     65  C   UNL A   1      42.426  32.229  29.945  1.00  0.00     0.031 C 
ATOM     66  C   UNL A   1      44.522  31.878  28.675  1.00  0.00     0.034 A 
BRANCH  53  67
ATOM     67  C   UNL A   1      47.759  27.598  25.660  1.00  0.00     0.023 A 
ATOM     68  C   UNL A   1      48.767  26.994  26.436  1.00  0.00     0.012 A 
ATOM     69  C   UNL A   1      47.946  27.754  24.273  1.00  0.00     0.148 A 
ATOM     70  C   UNL A   1      49.950  26.559  25.840  1.00  0.00     0.002 A 
ATOM     71  C   UNL A   1      49.109  27.279  23.680  1.00  0.00     0.091 A 
ATOM     72  F   UNL A   1      46.980  28.353  23.562  1.00  0.00    -0.205 F 
ATOM     73  C   UNL A   1      50.114  26.689  24.463  1.00  0.00     0.022 A 
BRANCH  71  74
ATOM     74  S   UNL A   1      49.380  27.323  21.905  1.00  0.00     0.127 S 
ATOM     75  O   UNL A   1      49.319  28.759  21.634  1.00  0.00    -0.237 OA
ATOM     76  O   UNL A   1      50.715  26.737  21.786  1.00  0.00    -0.237 OA
ATOM     77  O   UNL A   1      48.310  26.535  21.312  1.00  0.00    -0.744 OA
ENDBRANCH  71  74
ENDBRANCH  53  67
BRANCH  54  78
ATOM     78  C   UNL A   1      39.221  29.528  30.428  1.00  0.00     0.023 A 
ATOM     79  C   UNL A   1      39.028  28.816  31.628  1.00  0.00     0.012 A 
ATOM     80  C   UNL A   1      38.244  30.457  30.018  1.00  0.00     0.148 A 
ATOM     81  C   UNL A   1      37.864  28.991  32.380  1.00  0.00     0.002 A 
ATOM     82  C   UNL A   1      37.117  30.670  30.802  1.00  0.00     0.091 A 
ATOM     83  F   UNL A   1      38.431  31.108  28.860  1.00  0.00    -0.205 F 
ATOM     84  C   UNL A   1      36.915  29.924  31.972  1.00  0.00     0.022 A 
BRANCH  82  85
ATOM     85  S   UNL A   1      35.905  31.939  30.416  1.00  0.00     0.127 S 
ATOM     86  O   UNL A   1      35.207  31.349  29.276  1.00  0.00    -0.237 OA
ATOM     87  O   UNL A   1      35.124  31.997  31.653  1.00  0.00    -0.237 OA
ATOM     88  O   UNL A   1      36.675  33.143  30.136  1.00  0.00    -0.744 OA
ENDBRANCH  82  85
ENDBRANCH  54  78
BRANCH  66  89
ATOM     89  C   UNL A   1      44.970  33.261  29.075  1.00  0.00     0.023 A 
ATOM     90  C   UNL A   1      45.665  33.451  30.285  1.00  0.00     0.012 A 
ATOM     91  C   UNL A   1      44.784  34.354  28.206  1.00  0.00     0.148 A 
ATOM     92  C   UNL A   1      46.146  34.712  30.636  1.00  0.00     0.002 A 
ATOM     93  C   UNL A   1      45.310  35.597  28.538  1.00  0.00     0.091 A 
ATOM     94  F   UNL A   1      44.110  34.156  27.064  1.00  0.00    -0.205 F 
ATOM     95  C   UNL A   1      45.981  35.781  29.758  1.00  0.00     0.022 A 
BRANCH  93  96
ATOM     96  S   UNL A   1      45.233  37.009  27.429  1.00  0.00     0.127 S 
ATOM     97  O   UNL A   1      45.849  36.471  26.217  1.00  0.00    -0.237 OA
ATOM     98  O   UNL A   1      43.793  37.244  27.329  1.00  0.00    -0.237 OA
ATOM     99  O   UNL A   1      45.978  38.077  28.081  1.00  0.00    -0.744 OA
ENDBRANCH  93  96
ENDBRANCH  66  89
ENDBRANCH  40  41
ENDBRANCH  33  35
ENDBRANCH  32  33
ENDBRANCH  31  32
ENDBRANCH  30  31
ENDBRANCH  29  30
ENDBRANCH  28  29
ENDBRANCH   1  28
TORSDOF 24
ENDMDL
MODEL 2
REMARK VINA RESULT:     -10.1      2.187      3.040
REMARK SMILES C[C@H](Oc1ccc(/C=C2\SC(=S)N(N)C2=O)cc1)C(=O)OCCOCCOCCOC(=O)c1ccc(-c2c3nc(c(-c4cccc(S(=O)(=O)[O-])c4F)c4ccc([nH]4)c(-c4cccc(S(=O)(=O)[O-])c4F)c4nc(c(-c5cccc(S(=O)(=O)[O-])c5F)c5ccc2[nH]5)C=C4)C=C3)cc1
REMARK SMILES IDX 25 1 24 2 23 3 22 4 21 5 19 6 20 7 2 8 1 9 3 10 4 11 5 12
REMARK SMILES IDX 18 13 6 14 17 15 7 16 8 17 9 18 10 19 15 20 11 21 13 22
REMARK SMILES IDX 16 23 12 24 14 25 26 28 27 29 28 30 29 31 30 32 31 33 32 34
REMARK SMILES IDX 33 35 34 36 95 37 35 38 94 39 36 40 37 41 38 42 88 43 39 44
REMARK SMILES IDX 93 45 87 46 89 47 40 48 92 49 86 50 85 51 41 53 73 54 53 55
REMARK SMILES IDX 72 56 54 57 57 58 71 59 90 60 55 61 56 62 70 64 91 65 58 66
REMARK SMILES IDX 42 67 43 68 51 69 44 70 46 71 52 72 45 73 47 74 48 75 49 76
REMARK SMILES IDX 50 77 74 78 75 79 83 80 76 81 78 82 84 83 77 84 79 85 80 86
REMARK SMILES IDX 81 87 82 88 59 89 60 90 68 91 61 92 63 93 69 94 62 95 64 96
REMARK SMILES IDX 65 97 66 98 67 99
REMARK H PARENT 14 26 14 27 89 52 57 63
REMARK Flexibility Score: inf
ROOT
ATOM      1  C   UNL A   1      39.735  21.901  26.770  1.00  0.00     0.188 C 
ENDROOT
BRANCH   1   2
ATOM      2  O   UNL A   1      38.931  22.901  26.187  1.00  0.00    -0.376 OA
BRANCH   2   3
ATOM      3  C   UNL A   1      37.827  22.551  25.370  1.00  0.00     0.202 C 
BRANCH   3   4
ATOM      4  C   UNL A   1      36.860  21.385  25.633  1.00  0.00     0.261 C 
BRANCH   4   5
ATOM      5  O   UNL A   1      35.625  21.361  24.907  1.00  0.00    -0.461 OA
BRANCH   5   6
ATOM      6  C   UNL A   1      34.502  21.437  25.676  1.00  0.00     0.347 C 
ATOM      7  O   UNL A   1      34.506  21.526  26.900  1.00  0.00    -0.248 OA
BRANCH   6   8
ATOM      8  C   UNL A   1      33.195  21.322  24.882  1.00  0.00     0.279 C 
ATOM      9  C   UNL A   1      32.729  19.884  25.123  1.00  0.00     0.066 C 
BRANCH   8  10
ATOM     10  O   UNL A   1      33.308  21.641  23.494  1.00  0.00    -0.479 OA
BRANCH  10  11
ATOM     11  C   UNL A   1      32.631  22.733  23.020  1.00  0.00     0.120 A 
ATOM     12  C   UNL A   1      33.141  23.662  22.118  1.00  0.00     0.047 A 
ATOM     13  C   UNL A   1      31.371  22.953  23.579  1.00  0.00     0.047 A 
ATOM     14  C   UNL A   1      32.532  24.909  21.991  1.00  0.00     0.012 A 
ATOM     15  C   UNL A   1      30.754  24.202  23.450  1.00  0.00     0.012 A 
ATOM     16  C   UNL A   1      31.404  25.226  22.754  1.00  0.00    -0.024 A 
BRANCH  16  17
ATOM     17  C   UNL A   1      30.976  26.625  22.922  1.00  0.00     0.029 C 
ATOM     18  C   UNL A   1      31.497  27.470  23.829  1.00  0.00     0.082 C 
ATOM     19  S   UNL A   1      32.767  27.153  24.965  1.00  0.00    -0.053 SA
ATOM     20  C   UNL A   1      31.004  28.867  24.003  1.00  0.00     0.280 C 
ATOM     21  C   UNL A   1      32.722  28.766  25.649  1.00  0.00     0.162 C 
ATOM     22  N   UNL A   1      31.722  29.487  25.023  1.00  0.00    -0.226 N 
ATOM     23  O   UNL A   1      30.123  29.383  23.326  1.00  0.00    -0.267 OA
ATOM     24  S   UNL A   1      33.769  29.292  26.838  1.00  0.00    -0.050 S 
BRANCH  22  25
ATOM     25  N   UNL A   1      31.401  30.824  25.397  1.00  0.00    -0.239 NA
ATOM     26  H   UNL A   1      30.700  30.811  26.138  1.00  0.00     0.144 HD
ATOM     27  H   UNL A   1      31.031  31.324  24.588  1.00  0.00     0.144 HD
ENDBRANCH  22  25
ENDBRANCH  16  17
ENDBRANCH  10  11
ENDBRANCH   8  10
ENDBRANCH   6   8
ENDBRANCH   5   6
ENDBRANCH   4   5
ENDBRANCH   3   4
ENDBRANCH   2   3
ENDBRANCH   1   2
BRANCH   1  28
ATOM     28  C   UNL A   1      41.117  21.650  26.139  1.00  0.00     0.188 C 
BRANCH  28  29
ATOM     29  O   UNL A   1      42.028  20.742  26.722  1.00  0.00    -0.376 OA
BRANCH  29  30
ATOM     30  C   UNL A   1      41.956  19.370  26.370  1.00  0.00     0.202 C 
BRANCH  30  31
ATOM     31  C   UNL A   1      43.129  18.589  25.745  1.00  0.00     0.261 C 
BRANCH  31  32
ATOM     32  O   UNL A   1      43.585  19.013  24.454  1.00  0.00    -0.460 OA
BRANCH  32  33
ATOM     33  C   UNL A   1      44.870  19.447  24.393  1.00  0.00     0.338 C 
ATOM     34  O   UNL A   1      45.840  18.829  23.983  1.00  0.00    -0.246 OA
BRANCH  33  35
ATOM     35  C   UNL A   1      44.897  20.888  24.717  1.00  0.00     0.060 A 
ATOM     36  C   UNL A   1      44.540  21.817  23.726  1.00  0.00     0.016 A 
ATOM     37  C   UNL A   1      45.266  21.319  25.989  1.00  0.00     0.016 A 
ATOM     38  C   UNL A   1      44.525  23.181  24.016  1.00  0.00     0.010 A 
ATOM     39  C   UNL A   1      45.287  22.689  26.265  1.00  0.00     0.010 A 
ATOM     40  C   UNL A   1      44.923  23.627  25.280  1.00  0.00    -0.014 A 
BRANCH  40  41
ATOM     41  C   UNL A   1      45.082  25.073  25.561  1.00  0.00     0.031 A 
ATOM     42  C   UNL A   1      46.466  25.656  25.575  1.00  0.00     0.074 A 
ATOM     43  C   UNL A   1      44.021  25.836  25.880  1.00  0.00     0.049 A 
ATOM     44  N   UNL A   1      46.859  26.842  25.956  1.00  0.00    -0.248 NA
ATOM     45  C   UNL A   1      47.554  24.781  25.103  1.00  0.00     0.031 C 
ATOM     46  C   UNL A   1      42.629  25.389  25.888  1.00  0.00     0.029 A 
ATOM     47  N   UNL A   1      43.960  27.139  26.315  1.00  0.00    -0.354 N 
ATOM     48  C   UNL A   1      48.242  26.840  25.825  1.00  0.00     0.074 A 
ATOM     49  C   UNL A   1      48.619  25.544  25.304  1.00  0.00     0.031 C 
ATOM     50  C   UNL A   1      41.856  26.379  26.368  1.00  0.00     0.029 A 
ATOM     51  C   UNL A   1      42.704  27.513  26.737  1.00  0.00     0.049 A 
ATOM     52  H   UNL A   1      44.736  27.744  26.323  1.00  0.00     0.167 HD
ATOM     53  C   UNL A   1      49.117  27.828  26.120  1.00  0.00     0.034 A 
ATOM     54  C   UNL A   1      42.297  28.616  27.399  1.00  0.00     0.034 A 
ATOM     55  C   UNL A   1      48.738  29.123  26.617  1.00  0.00     0.049 A 
ATOM     56  C   UNL A   1      43.303  29.687  27.744  1.00  0.00     0.074 A 
ATOM     57  C   UNL A   1      49.550  30.217  26.861  1.00  0.00     0.029 A 
ATOM     58  N   UNL A   1      47.451  29.488  26.975  1.00  0.00    -0.354 N 
ATOM     59  N   UNL A   1      44.585  29.735  27.476  1.00  0.00    -0.248 NA
ATOM     60  C   UNL A   1      42.802  30.866  28.468  1.00  0.00     0.031 C 
ATOM     61  C   UNL A   1      48.761  31.229  27.415  1.00  0.00     0.029 A 
ATOM     62  C   UNL A   1      47.451  30.780  27.473  1.00  0.00     0.049 A 
ATOM     63  H   UNL A   1      46.655  28.916  26.889  1.00  0.00     0.167 HD
ATOM     64  C   UNL A   1      45.035  30.956  27.970  1.00  0.00     0.074 A 
ATOM     65  C   UNL A   1      43.883  31.631  28.529  1.00  0.00     0.031 C 
ATOM     66  C   UNL A   1      46.291  31.465  27.978  1.00  0.00     0.034 A 
BRANCH  53  67
ATOM     67  C   UNL A   1      50.584  27.563  25.922  1.00  0.00     0.023 A 
ATOM     68  C   UNL A   1      51.359  27.068  26.988  1.00  0.00     0.012 A 
ATOM     69  C   UNL A   1      51.162  27.703  24.646  1.00  0.00     0.148 A 
ATOM     70  C   UNL A   1      52.697  26.728  26.789  1.00  0.00     0.002 A 
ATOM     71  C   UNL A   1      52.482  27.321  24.445  1.00  0.00     0.091 A 
ATOM     72  F   UNL A   1      50.408  28.197  23.654  1.00  0.00    -0.205 F 
ATOM     73  C   UNL A   1      53.253  26.841  25.517  1.00  0.00     0.022 A 
BRANCH  71  74
ATOM     74  S   UNL A   1      53.264  27.349  22.828  1.00  0.00     0.127 S 
ATOM     75  O   UNL A   1      54.488  26.588  23.080  1.00  0.00    -0.237 OA
ATOM     76  O   UNL A   1      52.277  26.657  22.000  1.00  0.00    -0.237 OA
ATOM     77  O   UNL A   1      53.465  28.752  22.499  1.00  0.00    -0.744 OA
ENDBRANCH  71  74
ENDBRANCH  53  67
BRANCH  54  78
ATOM     78  C   UNL A   1      40.871  28.765  27.811  1.00  0.00     0.023 A 
ATOM     79  C   UNL A   1      39.917  29.214  26.877  1.00  0.00     0.012 A 
ATOM     80  C   UNL A   1      40.463  28.498  29.133  1.00  0.00     0.148 A 
ATOM     81  C   UNL A   1      38.593  29.434  27.263  1.00  0.00     0.002 A 
ATOM     82  C   UNL A   1      39.131  28.662  29.495  1.00  0.00     0.091 A 
ATOM     83  F   UNL A   1      41.389  28.096  30.016  1.00  0.00    -0.205 F 
ATOM     84  C   UNL A   1      38.199  29.149  28.568  1.00  0.00     0.022 A 
BRANCH  82  85
ATOM     85  S   UNL A   1      38.513  28.203  31.118  1.00  0.00     0.127 S 
ATOM     86  O   UNL A   1      38.537  26.744  31.045  1.00  0.00    -0.237 OA
ATOM     87  O   UNL A   1      39.520  28.792  32.002  1.00  0.00    -0.237 OA
ATOM     88  O   UNL A   1      37.194  28.812  31.221  1.00  0.00    -0.744 OA
ENDBRANCH  82  85
ENDBRANCH  54  78
BRANCH  66  89
ATOM     89  C   UNL A   1      46.499  32.833  28.577  1.00  0.00     0.023 A 
ATOM     90  C   UNL A   1      46.814  32.961  29.944  1.00  0.00     0.012 A 
ATOM     91  C   UNL A   1      46.477  33.983  27.762  1.00  0.00     0.148 A 
ATOM     92  C   UNL A   1      47.077  34.214  30.497  1.00  0.00     0.002 A 
ATOM     93  C   UNL A   1      46.790  35.222  28.309  1.00  0.00     0.091 A 
ATOM     94  F   UNL A   1      46.164  33.843  26.466  1.00  0.00    -0.205 F 
ATOM     95  C   UNL A   1      47.078  35.341  29.678  1.00  0.00     0.022 A 
BRANCH  93  96
ATOM     96  S   UNL A   1      46.913  36.716  27.317  1.00  0.00     0.127 S 
ATOM     97  O   UNL A   1      46.071  37.644  28.071  1.00  0.00    -0.237 OA
ATOM     98  O   UNL A   1      48.346  37.007  27.374  1.00  0.00    -0.237 OA
ATOM     99  O   UNL A   1      46.418  36.365  25.993  1.00  0.00    -0.744 OA
ENDBRANCH  93  96
ENDBRANCH  66  89
ENDBRANCH  40  41
ENDBRANCH  33  35
ENDBRANCH  32  33
ENDBRANCH  31  32
ENDBRANCH  30  31
ENDBRANCH  29  30
ENDBRANCH  28  29
ENDBRANCH   1  28
TORSDOF 24
ENDMDL
MODEL 3
REMARK VINA RESULT:     -10.1      3.270      9.302
REMARK SMILES C[C@H](Oc1ccc(/C=C2\SC(=S)N(N)C2=O)cc1)C(=O)OCCOCCOCCOC(=O)c1ccc(-c2c3nc(c(-c4cccc(S(=O)(=O)[O-])c4F)c4ccc([nH]4)c(-c4cccc(S(=O)(=O)[O-])c4F)c4nc(c(-c5cccc(S(=O)(=O)[O-])c5F)c5ccc2[nH]5)C=C4)C=C3)cc1
REMARK SMILES IDX 25 1 24 2 23 3 22 4 21 5 19 6 20 7 2 8 1 9 3 10 4 11 5 12
REMARK SMILES IDX 18 13 6 14 17 15 7 16 8 17 9 18 10 19 15 20 11 21 13 22
REMARK SMILES IDX 16 23 12 24 14 25 26 28 27 29 28 30 29 31 30 32 31 33 32 34
REMARK SMILES IDX 33 35 34 36 95 37 35 38 94 39 36 40 37 41 38 42 88 43 39 44
REMARK SMILES IDX 93 45 87 46 89 47 40 48 92 49 86 50 85 51 41 53 73 54 53 55
REMARK SMILES IDX 72 56 54 57 57 58 71 59 90 60 55 61 56 62 70 64 91 65 58 66
REMARK SMILES IDX 42 67 43 68 51 69 44 70 46 71 52 72 45 73 47 74 48 75 49 76
REMARK SMILES IDX 50 77 74 78 75 79 83 80 76 81 78 82 84 83 77 84 79 85 80 86
REMARK SMILES IDX 81 87 82 88 59 89 60 90 68 91 61 92 63 93 69 94 62 95 64 96
REMARK SMILES IDX 65 97 66 98 67 99
REMARK H PARENT 14 26 14 27 89 52 57 63
REMARK Flexibility Score: inf
ROOT
ATOM      1  C   UNL A   1      34.451  32.514  28.145  1.00  0.00     0.188 C 
ENDROOT
BRANCH   1   2
ATOM      2  O   UNL A   1      33.622  31.429  27.798  1.00  0.00    -0.376 OA
BRANCH   2   3
ATOM      3  C   UNL A   1      34.177  30.247  27.246  1.00  0.00     0.202 C 
BRANCH   3   4
ATOM      4  C   UNL A   1      33.462  28.890  27.149  1.00  0.00     0.261 C 
BRANCH   4   5
ATOM      5  O   UNL A   1      32.076  28.885  26.792  1.00  0.00    -0.461 OA
BRANCH   5   6
ATOM      6  C   UNL A   1      31.816  29.150  25.480  1.00  0.00     0.347 C 
ATOM      7  O   UNL A   1      31.126  30.087  25.087  1.00  0.00    -0.248 OA
BRANCH   6   8
ATOM      8  C   UNL A   1      32.401  28.118  24.508  1.00  0.00     0.279 C 
ATOM      9  C   UNL A   1      32.924  28.955  23.337  1.00  0.00     0.066 C 
BRANCH   8  10
ATOM     10  O   UNL A   1      31.489  27.100  24.096  1.00  0.00    -0.479 OA
BRANCH  10  11
ATOM     11  C   UNL A   1      31.859  25.791  24.254  1.00  0.00     0.120 A 
ATOM     12  C   UNL A   1      31.894  25.109  25.466  1.00  0.00     0.047 A 
ATOM     13  C   UNL A   1      32.325  25.152  23.104  1.00  0.00     0.047 A 
ATOM     14  C   UNL A   1      32.626  23.928  25.575  1.00  0.00     0.012 A 
ATOM     15  C   UNL A   1      33.057  23.964  23.209  1.00  0.00     0.012 A 
ATOM     16  C   UNL A   1      33.314  23.419  24.471  1.00  0.00    -0.024 A 
BRANCH  16  17
ATOM     17  C   UNL A   1      34.375  22.412  24.642  1.00  0.00     0.029 C 
ATOM     18  C   UNL A   1      34.166  21.084  24.617  1.00  0.00     0.082 C 
ATOM     19  S   UNL A   1      32.666  20.253  24.364  1.00  0.00    -0.053 SA
ATOM     20  C   UNL A   1      35.257  20.093  24.843  1.00  0.00     0.280 C 
ATOM     21  C   UNL A   1      33.385  18.661  24.503  1.00  0.00     0.162 C 
ATOM     22  N   UNL A   1      34.734  18.804  24.775  1.00  0.00    -0.226 N 
ATOM     23  O   UNL A   1      36.433  20.384  25.029  1.00  0.00    -0.267 OA
ATOM     24  S   UNL A   1      32.531  17.242  24.297  1.00  0.00    -0.050 S 
BRANCH  22  25
ATOM     25  N   UNL A   1      35.587  17.685  24.997  1.00  0.00    -0.239 NA
ATOM     26  H   UNL A   1      35.919  17.697  25.962  1.00  0.00     0.144 HD
ATOM     27  H   UNL A   1      36.385  17.735  24.363  1.00  0.00     0.144 HD
ENDBRANCH  22  25
ENDBRANCH  16  17
ENDBRANCH  10  11
ENDBRANCH   8  10
ENDBRANCH   6   8
ENDBRANCH   5   6
ENDBRANCH   4   5
ENDBRANCH   3   4
ENDBRANCH   2   3
ENDBRANCH   1   2
BRANCH   1  28
ATOM     28  C   UNL A   1      33.851  33.927  28.021  1.00  0.00     0.188 C 
BRANCH  28  29
ATOM     29  O   UNL A   1      34.277  34.975  28.868  1.00  0.00    -0.376 OA
BRANCH  29  30
ATOM     30  C   UNL A   1      33.633  35.155  30.120  1.00  0.00     0.202 C 
BRANCH  30  31
ATOM     31  C   UNL A   1      34.087  34.459  31.418  1.00  0.00     0.261 C 
BRANCH  31  32
ATOM     32  O   UNL A   1      34.571  33.115  31.307  1.00  0.00    -0.460 OA
BRANCH  32  33
ATOM     33  C   UNL A   1      35.348  32.680  32.332  1.00  0.00     0.338 C 
ATOM     34  O   UNL A   1      35.084  32.707  33.523  1.00  0.00    -0.246 OA
BRANCH  33  35
ATOM     35  C   UNL A   1      36.510  31.961  31.770  1.00  0.00     0.060 A 
ATOM     36  C   UNL A   1      37.243  31.095  32.597  1.00  0.00     0.016 A 
ATOM     37  C   UNL A   1      36.869  32.135  30.435  1.00  0.00     0.016 A 
ATOM     38  C   UNL A   1      38.323  30.378  32.083  1.00  0.00     0.010 A 
ATOM     39  C   UNL A   1      37.976  31.445  29.933  1.00  0.00     0.010 A 
ATOM     40  C   UNL A   1      38.712  30.569  30.753  1.00  0.00    -0.014 A 
BRANCH  40  41
ATOM     41  C   UNL A   1      39.956  29.957  30.229  1.00  0.00     0.031 A 
ATOM     42  C   UNL A   1      41.203  30.791  30.177  1.00  0.00     0.074 A 
ATOM     43  C   UNL A   1      39.953  28.707  29.731  1.00  0.00     0.049 A 
ATOM     44  N   UNL A   1      42.351  30.527  29.612  1.00  0.00    -0.248 NA
ATOM     45  C   UNL A   1      41.146  32.102  30.847  1.00  0.00     0.031 C 
ATOM     46  C   UNL A   1      38.810  27.795  29.737  1.00  0.00     0.029 A 
ATOM     47  N   UNL A   1      40.937  28.010  29.071  1.00  0.00    -0.354 N 
ATOM     48  C   UNL A   1      43.135  31.656  29.806  1.00  0.00     0.074 A 
ATOM     49  C   UNL A   1      42.343  32.600  30.564  1.00  0.00     0.031 C 
ATOM     50  C   UNL A   1      39.136  26.684  29.054  1.00  0.00     0.029 A 
ATOM     51  C   UNL A   1      40.495  26.823  28.531  1.00  0.00     0.049 A 
ATOM     52  H   UNL A   1      41.866  28.327  28.992  1.00  0.00     0.167 HD
ATOM     53  C   UNL A   1      44.399  31.887  29.383  1.00  0.00     0.034 A 
ATOM     54  C   UNL A   1      41.095  25.978  27.666  1.00  0.00     0.034 A 
ATOM     55  C   UNL A   1      45.192  30.939  28.648  1.00  0.00     0.049 A 
ATOM     56  C   UNL A   1      42.493  26.280  27.185  1.00  0.00     0.074 A 
ATOM     57  C   UNL A   1      46.513  31.053  28.253  1.00  0.00     0.029 A 
ATOM     58  N   UNL A   1      44.732  29.723  28.171  1.00  0.00    -0.354 N 
ATOM     59  N   UNL A   1      43.279  27.281  27.501  1.00  0.00    -0.248 NA
ATOM     60  C   UNL A   1      43.096  25.325  26.242  1.00  0.00     0.031 C 
ATOM     61  C   UNL A   1      46.839  29.927  27.493  1.00  0.00     0.029 A 
ATOM     62  C   UNL A   1      45.733  29.092  27.453  1.00  0.00     0.049 A 
ATOM     63  H   UNL A   1      43.829  29.362  28.320  1.00  0.00     0.167 HD
ATOM     64  C   UNL A   1      44.473  27.060  26.821  1.00  0.00     0.074 A 
ATOM     65  C   UNL A   1      44.319  25.816  26.098  1.00  0.00     0.031 C 
ATOM     66  C   UNL A   1      45.590  27.827  26.782  1.00  0.00     0.034 A 
BRANCH  53  67
ATOM     67  C   UNL A   1      45.021  33.221  29.693  1.00  0.00     0.023 A 
ATOM     68  C   UNL A   1      45.814  33.377  30.845  1.00  0.00     0.012 A 
ATOM     69  C   UNL A   1      44.902  34.285  28.778  1.00  0.00     0.148 A 
ATOM     70  C   UNL A   1      46.473  34.581  31.090  1.00  0.00     0.002 A 
ATOM     71  C   UNL A   1      45.597  35.466  29.007  1.00  0.00     0.091 A 
ATOM     72  F   UNL A   1      44.123  34.118  27.700  1.00  0.00    -0.205 F 
ATOM     73  C   UNL A   1      46.376  35.618  30.165  1.00  0.00     0.022 A 
BRANCH  71  74
ATOM     74  S   UNL A   1      45.604  36.829  27.836  1.00  0.00     0.127 S 
ATOM     75  O   UNL A   1      45.597  37.985  28.732  1.00  0.00    -0.237 OA
ATOM     76  O   UNL A   1      46.865  36.615  27.128  1.00  0.00    -0.237 OA
ATOM     77  O   UNL A   1      44.408  36.670  27.022  1.00  0.00    -0.744 OA
ENDBRANCH  71  74
ENDBRANCH  53  67
BRANCH  54  78
ATOM     78  C   UNL A   1      40.374  24.772  27.168  1.00  0.00     0.023 A 
ATOM     79  C   UNL A   1      39.128  24.917  26.527  1.00  0.00     0.012 A 
ATOM     80  C   UNL A   1      40.901  23.478  27.354  1.00  0.00     0.148 A 
ATOM     81  C   UNL A   1      38.401  23.796  26.121  1.00  0.00     0.002 A 
ATOM     82  C   UNL A   1      40.200  22.370  26.894  1.00  0.00     0.091 A 
ATOM     83  F   UNL A   1      42.076  23.356  27.989  1.00  0.00    -0.205 F 
ATOM     84  C   UNL A   1      38.941  22.525  26.296  1.00  0.00     0.022 A 
BRANCH  82  85
ATOM     85  S   UNL A   1      40.876  20.708  26.968  1.00  0.00     0.127 S 
ATOM     86  O   UNL A   1      42.234  20.915  26.473  1.00  0.00    -0.237 OA
ATOM     87  O   UNL A   1      40.781  20.406  28.398  1.00  0.00    -0.237 OA
ATOM     88  O   UNL A   1      40.009  19.895  26.126  1.00  0.00    -0.744 OA
ENDBRANCH  82  85
ENDBRANCH  54  78
BRANCH  66  89
ATOM     89  C   UNL A   1      46.758  27.341  25.961  1.00  0.00     0.023 A 
ATOM     90  C   UNL A   1      46.794  27.588  24.576  1.00  0.00     0.012 A 
ATOM     91  C   UNL A   1      47.862  26.724  26.582  1.00  0.00     0.148 A 
ATOM     92  C   UNL A   1      47.898  27.205  23.815  1.00  0.00     0.002 A 
ATOM     93  C   UNL A   1      48.981  26.392  25.828  1.00  0.00     0.091 A 
ATOM     94  F   UNL A   1      47.805  26.487  27.901  1.00  0.00    -0.205 F 
ATOM     95  C   UNL A   1      48.996  26.620  24.442  1.00  0.00     0.022 A 
BRANCH  93  96
ATOM     96  S   UNL A   1      50.480  25.724  26.560  1.00  0.00     0.127 S 
ATOM     97  O   UNL A   1      51.342  25.570  25.388  1.00  0.00    -0.237 OA
ATOM     98  O   UNL A   1      50.880  26.793  27.475  1.00  0.00    -0.237 OA
ATOM     99  O   UNL A   1      50.094  24.480  27.213  1.00  0.00    -0.744 OA
ENDBRANCH  93  96
ENDBRANCH  66  89
ENDBRANCH  40  41
ENDBRANCH  33  35
ENDBRANCH  32  33
ENDBRANCH  31  32
ENDBRANCH  30  31
ENDBRANCH  29  30
ENDBRANCH  28  29
ENDBRANCH   1  28
TORSDOF 24
ENDMDL
