MODEL 1
REMARK VINA RESULT:      -8.6      0.000      0.000
REMARK SMILES CCC(C)(C)[C@@H]([NH3+])C(C)(C)C(=O)OCCOCCOCCOC(=O)c1ccc(-c2c3nc(c(-c4cccc(S(=O)(=O)[O-])c4F)c4ccc([nH]4)c(-c4cccc(S(=O)(=O)[O-])c4F)c4nc(c(-c5cccc(S(=O)(=O)[O-])c5F)c5ccc2[nH]5)C=C4)C=C3)cc1
REMARK SMILES IDX 17 1 16 2 15 3 14 4 13 5 11 6 12 7 8 8 9 9 10 10 6 11 3 12
REMARK SMILES IDX 4 13 5 14 2 15 1 16 7 17 18 21 19 22 20 23 21 24 22 25 23 26
REMARK SMILES IDX 24 27 25 28 26 29 87 30 27 31 86 32 28 33 29 34 30 35 80 36
REMARK SMILES IDX 31 37 85 38 79 39 81 40 32 41 84 42 78 43 77 44 33 46 65 47
REMARK SMILES IDX 45 48 64 49 46 50 49 51 63 52 82 53 47 54 48 55 62 57 83 58
REMARK SMILES IDX 50 59 34 60 35 61 43 62 36 63 38 64 44 65 37 66 39 67 40 68
REMARK SMILES IDX 41 69 42 70 66 71 67 72 75 73 68 74 70 75 76 76 69 77 71 78
REMARK SMILES IDX 72 79 73 80 74 81 51 82 52 83 60 84 53 85 55 86 61 87 54 88
REMARK SMILES IDX 56 89 57 90 58 91 59 92
REMARK H PARENT 7 18 7 19 7 20 81 45 49 56
REMARK Flexibility Score: inf
ROOT
ATOM      1  C   UNL A   1      35.908  22.486  25.659  1.00  0.00     0.188 C 
ENDROOT
BRANCH   1   2
ATOM      2  O   UNL A   1      34.968  23.451  25.213  1.00  0.00    -0.376 OA
BRANCH   2   3
ATOM      3  C   UNL A   1      33.623  23.032  25.114  1.00  0.00     0.202 C 
BRANCH   3   4
ATOM      4  C   UNL A   1      32.645  23.392  26.262  1.00  0.00     0.261 C 
BRANCH   4   5
ATOM      5  O   UNL A   1      32.663  24.684  26.914  1.00  0.00    -0.463 OA
BRANCH   5   6
ATOM      6  C   UNL A   1      31.637  25.500  26.576  1.00  0.00     0.317 C 
ATOM      7  O   UNL A   1      30.497  25.083  26.613  1.00  0.00    -0.251 OA
BRANCH   6   8
ATOM      8  C   UNL A   1      32.027  26.904  26.100  1.00  0.00     0.114 C 
ATOM      9  C   UNL A   1      33.470  26.815  25.579  1.00  0.00     0.030 C 
ATOM     10  C   UNL A   1      32.105  27.919  27.287  1.00  0.00     0.030 C 
BRANCH   8  11
ATOM     11  C   UNL A   1      30.990  27.440  25.001  1.00  0.00     0.203 C 
BRANCH  11  12
ATOM     12  C   UNL A   1      31.160  28.854  24.215  1.00  0.00     0.017 C 
ATOM     13  C   UNL A   1      32.380  28.807  23.272  1.00  0.00     0.017 C 
ATOM     14  C   UNL A   1      31.514  29.959  25.269  1.00  0.00     0.017 C 
BRANCH  12  15
ATOM     15  C   UNL A   1      29.928  29.449  23.456  1.00  0.00     0.009 C 
ATOM     16  C   UNL A   1      30.085  29.735  21.956  1.00  0.00     0.005 C 
ENDBRANCH  12  15
ENDBRANCH  11  12
BRANCH  11  17
ATOM     17  N   UNL A   1      30.677  26.318  24.079  1.00  0.00    -0.354 N 
ATOM     18  H   UNL A   1      30.732  25.435  24.586  1.00  0.00     0.344 HD
ATOM     19  H   UNL A   1      31.349  26.311  23.311  1.00  0.00     0.344 HD
ATOM     20  H   UNL A   1      29.736  26.437  23.705  1.00  0.00     0.344 HD
ENDBRANCH  11  17
ENDBRANCH   8  11
ENDBRANCH   6   8
ENDBRANCH   5   6
ENDBRANCH   4   5
ENDBRANCH   3   4
ENDBRANCH   2   3
ENDBRANCH   1   2
BRANCH   1  21
ATOM     21  C   UNL A   1      36.160  21.418  24.591  1.00  0.00     0.188 C 
BRANCH  21  22
ATOM     22  O   UNL A   1      36.000  20.042  24.914  1.00  0.00    -0.376 OA
BRANCH  22  23
ATOM     23  C   UNL A   1      37.175  19.253  24.991  1.00  0.00     0.202 C 
BRANCH  23  24
ATOM     24  C   UNL A   1      38.538  19.950  24.837  1.00  0.00     0.261 C 
BRANCH  24  25
ATOM     25  O   UNL A   1      38.898  20.904  25.857  1.00  0.00    -0.460 OA
BRANCH  25  26
ATOM     26  C   UNL A   1      40.159  20.818  26.351  1.00  0.00     0.338 C 
ATOM     27  O   UNL A   1      40.939  19.887  26.199  1.00  0.00    -0.246 OA
BRANCH  26  28
ATOM     28  C   UNL A   1      40.561  22.112  26.961  1.00  0.00     0.060 A 
ATOM     29  C   UNL A   1      40.154  23.308  26.346  1.00  0.00     0.016 A 
ATOM     30  C   UNL A   1      41.373  22.163  28.094  1.00  0.00     0.016 A 
ATOM     31  C   UNL A   1      40.533  24.548  26.866  1.00  0.00     0.010 A 
ATOM     32  C   UNL A   1      41.791  23.408  28.587  1.00  0.00     0.010 A 
ATOM     33  C   UNL A   1      41.385  24.608  27.971  1.00  0.00    -0.014 A 
BRANCH  33  34
ATOM     34  C   UNL A   1      41.982  25.904  28.388  1.00  0.00     0.031 A 
ATOM     35  C   UNL A   1      41.080  26.966  28.953  1.00  0.00     0.074 A 
ATOM     36  C   UNL A   1      43.299  26.151  28.252  1.00  0.00     0.049 A 
ATOM     37  N   UNL A   1      41.341  28.216  29.232  1.00  0.00    -0.248 NA
ATOM     38  C   UNL A   1      39.696  26.559  29.245  1.00  0.00     0.031 C 
ATOM     39  C   UNL A   1      44.299  25.196  27.781  1.00  0.00     0.029 A 
ATOM     40  N   UNL A   1      44.011  27.310  28.462  1.00  0.00    -0.354 N 
ATOM     41  C   UNL A   1      40.144  28.761  29.680  1.00  0.00     0.074 A 
ATOM     42  C   UNL A   1      39.161  27.700  29.656  1.00  0.00     0.031 C 
ATOM     43  C   UNL A   1      45.485  25.821  27.683  1.00  0.00     0.029 A 
ATOM     44  C   UNL A   1      45.318  27.231  28.041  1.00  0.00     0.049 A 
ATOM     45  H   UNL A   1      43.623  28.117  28.874  1.00  0.00     0.167 HD
ATOM     46  C   UNL A   1      39.885  30.031  30.074  1.00  0.00     0.034 A 
ATOM     47  C   UNL A   1      46.254  28.193  27.903  1.00  0.00     0.034 A 
ATOM     48  C   UNL A   1      40.863  31.083  30.113  1.00  0.00     0.049 A 
ATOM     49  C   UNL A   1      45.921  29.619  28.275  1.00  0.00     0.074 A 
ATOM     50  C   UNL A   1      40.699  32.392  30.535  1.00  0.00     0.029 A 
ATOM     51  N   UNL A   1      42.178  30.960  29.696  1.00  0.00    -0.354 N 
ATOM     52  N   UNL A   1      44.813  30.104  28.782  1.00  0.00    -0.248 NA
ATOM     53  C   UNL A   1      46.973  30.628  28.071  1.00  0.00     0.031 C 
ATOM     54  C   UNL A   1      41.904  33.071  30.331  1.00  0.00     0.029 A 
ATOM     55  C   UNL A   1      42.830  32.174  29.823  1.00  0.00     0.049 A 
ATOM     56  H   UNL A   1      42.588  30.131  29.358  1.00  0.00     0.167 HD
ATOM     57  C   UNL A   1      45.046  31.463  28.983  1.00  0.00     0.074 A 
ATOM     58  C   UNL A   1      46.408  31.720  28.566  1.00  0.00     0.031 C 
ATOM     59  C   UNL A   1      44.203  32.415  29.455  1.00  0.00     0.034 A 
BRANCH  46  60
ATOM     60  C   UNL A   1      38.474  30.362  30.484  1.00  0.00     0.023 A 
ATOM     61  C   UNL A   1      38.082  30.232  31.832  1.00  0.00     0.012 A 
ATOM     62  C   UNL A   1      37.556  30.860  29.540  1.00  0.00     0.148 A 
ATOM     63  C   UNL A   1      36.787  30.564  32.226  1.00  0.00     0.002 A 
ATOM     64  C   UNL A   1      36.281  31.233  29.949  1.00  0.00     0.091 A 
ATOM     65  F   UNL A   1      37.944  30.958  28.260  1.00  0.00    -0.205 F 
ATOM     66  C   UNL A   1      35.892  31.074  31.289  1.00  0.00     0.022 A 
BRANCH  64  67
ATOM     67  S   UNL A   1      35.083  31.974  28.836  1.00  0.00     0.127 S 
ATOM     68  O   UNL A   1      34.100  32.510  29.776  1.00  0.00    -0.237 OA
ATOM     69  O   UNL A   1      35.887  32.987  28.152  1.00  0.00    -0.237 OA
ATOM     70  O   UNL A   1      34.604  30.896  27.982  1.00  0.00    -0.744 OA
ENDBRANCH  64  67
ENDBRANCH  46  60
BRANCH  47  71
ATOM     71  C   UNL A   1      47.605  27.857  27.362  1.00  0.00     0.023 A 
ATOM     72  C   UNL A   1      47.831  27.906  25.974  1.00  0.00     0.012 A 
ATOM     73  C   UNL A   1      48.658  27.474  28.216  1.00  0.00     0.148 A 
ATOM     74  C   UNL A   1      49.071  27.549  25.441  1.00  0.00     0.002 A 
ATOM     75  C   UNL A   1      49.907  27.176  27.685  1.00  0.00     0.091 A 
ATOM     76  F   UNL A   1      48.416  27.409  29.533  1.00  0.00    -0.205 F 
ATOM     77  C   UNL A   1      50.111  27.195  26.297  1.00  0.00     0.022 A 
BRANCH  75  78
ATOM     78  S   UNL A   1      51.336  26.822  28.714  1.00  0.00     0.127 S 
ATOM     79  O   UNL A   1      51.454  28.049  29.497  1.00  0.00    -0.237 OA
ATOM     80  O   UNL A   1      50.879  25.653  29.466  1.00  0.00    -0.237 OA
ATOM     81  O   UNL A   1      52.431  26.555  27.793  1.00  0.00    -0.744 OA
ENDBRANCH  75  78
ENDBRANCH  47  71
BRANCH  59  82
ATOM     82  C   UNL A   1      44.721  33.825  29.589  1.00  0.00     0.023 A 
ATOM     83  C   UNL A   1      45.314  34.245  30.795  1.00  0.00     0.012 A 
ATOM     84  C   UNL A   1      44.708  34.703  28.484  1.00  0.00     0.148 A 
ATOM     85  C   UNL A   1      45.864  35.522  30.910  1.00  0.00     0.002 A 
ATOM     86  C   UNL A   1      45.303  35.956  28.590  1.00  0.00     0.091 A 
ATOM     87  F   UNL A   1      44.128  34.290  27.348  1.00  0.00    -0.205 F 
ATOM     88  C   UNL A   1      45.870  36.372  29.805  1.00  0.00     0.022 A 
BRANCH  86  89
ATOM     89  S   UNL A   1      45.445  37.082  27.197  1.00  0.00     0.127 S 
ATOM     90  O   UNL A   1      46.137  38.219  27.803  1.00  0.00    -0.237 OA
ATOM     91  O   UNL A   1      46.253  36.308  26.256  1.00  0.00    -0.237 OA
ATOM     92  O   UNL A   1      44.084  37.351  26.752  1.00  0.00    -0.744 OA
ENDBRANCH  86  89
ENDBRANCH  59  82
ENDBRANCH  33  34
ENDBRANCH  26  28
ENDBRANCH  25  26
ENDBRANCH  24  25
ENDBRANCH  23  24
ENDBRANCH  22  23
ENDBRANCH  21  22
ENDBRANCH   1  21
TORSDOF 24
ENDMDL
MODEL 2
REMARK VINA RESULT:      -8.6      2.112      7.962
REMARK SMILES CCC(C)(C)[C@@H]([NH3+])C(C)(C)C(=O)OCCOCCOCCOC(=O)c1ccc(-c2c3nc(c(-c4cccc(S(=O)(=O)[O-])c4F)c4ccc([nH]4)c(-c4cccc(S(=O)(=O)[O-])c4F)c4nc(c(-c5cccc(S(=O)(=O)[O-])c5F)c5ccc2[nH]5)C=C4)C=C3)cc1
REMARK SMILES IDX 17 1 16 2 15 3 14 4 13 5 11 6 12 7 8 8 9 9 10 10 6 11 3 12
REMARK SMILES IDX 4 13 5 14 2 15 1 16 7 17 18 21 19 22 20 23 21 24 22 25 23 26
REMARK SMILES IDX 24 27 25 28 26 29 87 30 27 31 86 32 28 33 29 34 30 35 80 36
REMARK SMILES IDX 31 37 85 38 79 39 81 40 32 41 84 42 78 43 77 44 33 46 65 47
REMARK SMILES IDX 45 48 64 49 46 50 49 51 63 52 82 53 47 54 48 55 62 57 83 58
REMARK SMILES IDX 50 59 34 60 35 61 43 62 36 63 38 64 44 65 37 66 39 67 40 68
REMARK SMILES IDX 41 69 42 70 66 71 67 72 75 73 68 74 70 75 76 76 69 77 71 78
REMARK SMILES IDX 72 79 73 80 74 81 51 82 52 83 60 84 53 85 55 86 61 87 54 88
REMARK SMILES IDX 56 89 57 90 58 91 59 92
REMARK H PARENT 7 18 7 19 7 20 81 45 49 56
REMARK Flexibility Score: inf
ROOT
ATOM      1  C   UNL A   1      35.744  21.143  25.115  1.00  0.00     0.188 C 
ENDROOT
BRANCH   1   2
ATOM      2  O   UNL A   1      35.738  21.462  26.499  1.00  0.00    -0.376 OA
BRANCH   2   3
ATOM      3  C   UNL A   1      34.604  22.143  26.990  1.00  0.00     0.202 C 
BRANCH   3   4
ATOM      4  C   UNL A   1      33.583  22.719  25.973  1.00  0.00     0.261 C 
BRANCH   4   5
ATOM      5  O   UNL A   1      33.320  24.138  25.864  1.00  0.00    -0.463 OA
BRANCH   5   6
ATOM      6  C   UNL A   1      32.075  24.511  26.246  1.00  0.00     0.317 C 
ATOM      7  O   UNL A   1      31.564  23.998  27.221  1.00  0.00    -0.251 OA
BRANCH   6   8
ATOM      8  C   UNL A   1      31.377  25.536  25.343  1.00  0.00     0.114 C 
ATOM      9  C   UNL A   1      30.041  25.887  26.014  1.00  0.00     0.030 C 
ATOM     10  C   UNL A   1      30.970  24.914  23.967  1.00  0.00     0.030 C 
BRANCH   8  11
ATOM     11  C   UNL A   1      32.318  26.811  25.100  1.00  0.00     0.203 C 
BRANCH  11  12
ATOM     12  C   UNL A   1      31.769  28.248  24.568  1.00  0.00     0.017 C 
ATOM     13  C   UNL A   1      32.809  28.919  23.647  1.00  0.00     0.017 C 
ATOM     14  C   UNL A   1      31.647  29.209  25.800  1.00  0.00     0.017 C 
BRANCH  12  15
ATOM     15  C   UNL A   1      30.353  28.316  23.905  1.00  0.00     0.009 C 
ATOM     16  C   UNL A   1      30.288  28.525  22.386  1.00  0.00     0.005 C 
ENDBRANCH  12  15
ENDBRANCH  11  12
BRANCH  11  17
ATOM     17  N   UNL A   1      33.214  26.953  26.277  1.00  0.00    -0.354 N 
ATOM     18  H   UNL A   1      33.574  27.906  26.319  1.00  0.00     0.344 HD
ATOM     19  H   UNL A   1      33.993  26.300  26.192  1.00  0.00     0.344 HD
ATOM     20  H   UNL A   1      32.692  26.748  27.128  1.00  0.00     0.344 HD
ENDBRANCH  11  17
ENDBRANCH   8  11
ENDBRANCH   6   8
ENDBRANCH   5   6
ENDBRANCH   4   5
ENDBRANCH   3   4
ENDBRANCH   2   3
ENDBRANCH   1   2
BRANCH   1  21
ATOM     21  C   UNL A   1      37.168  21.132  24.552  1.00  0.00     0.188 C 
BRANCH  21  22
ATOM     22  O   UNL A   1      38.266  21.459  25.395  1.00  0.00    -0.376 OA
BRANCH  22  23
ATOM     23  C   UNL A   1      39.257  20.464  25.581  1.00  0.00     0.202 C 
BRANCH  23  24
ATOM     24  C   UNL A   1      40.251  20.625  26.746  1.00  0.00     0.261 C 
BRANCH  24  25
ATOM     25  O   UNL A   1      41.347  19.690  26.795  1.00  0.00    -0.460 OA
BRANCH  25  26
ATOM     26  C   UNL A   1      42.382  19.921  25.947  1.00  0.00     0.338 C 
ATOM     27  O   UNL A   1      42.779  19.174  25.063  1.00  0.00    -0.246 OA
BRANCH  26  28
ATOM     28  C   UNL A   1      42.872  21.315  26.103  1.00  0.00     0.060 A 
ATOM     29  C   UNL A   1      43.144  21.799  27.393  1.00  0.00     0.016 A 
ATOM     30  C   UNL A   1      43.016  22.164  25.005  1.00  0.00     0.016 A 
ATOM     31  C   UNL A   1      43.578  23.112  27.592  1.00  0.00     0.010 A 
ATOM     32  C   UNL A   1      43.406  23.496  25.211  1.00  0.00     0.010 A 
ATOM     33  C   UNL A   1      43.678  23.983  26.505  1.00  0.00    -0.014 A 
BRANCH  33  34
ATOM     34  C   UNL A   1      43.907  25.435  26.726  1.00  0.00     0.031 A 
ATOM     35  C   UNL A   1      45.284  25.992  26.491  1.00  0.00     0.074 A 
ATOM     36  C   UNL A   1      42.922  26.250  27.149  1.00  0.00     0.049 A 
ATOM     37  N   UNL A   1      45.759  27.178  26.767  1.00  0.00    -0.248 NA
ATOM     38  C   UNL A   1      46.255  25.087  25.853  1.00  0.00     0.031 C 
ATOM     39  C   UNL A   1      41.529  25.862  27.356  1.00  0.00     0.029 A 
ATOM     40  N   UNL A   1      42.963  27.574  27.521  1.00  0.00    -0.354 N 
ATOM     41  C   UNL A   1      47.096  27.147  26.390  1.00  0.00     0.074 A 
ATOM     42  C   UNL A   1      47.351  25.831  25.845  1.00  0.00     0.031 C 
ATOM     43  C   UNL A   1      40.858  26.907  27.871  1.00  0.00     0.029 A 
ATOM     44  C   UNL A   1      41.785  28.022  28.073  1.00  0.00     0.049 A 
ATOM     45  H   UNL A   1      43.757  28.145  27.404  1.00  0.00     0.167 HD
ATOM     46  C   UNL A   1      48.029  28.124  26.490  1.00  0.00     0.034 A 
ATOM     47  C   UNL A   1      41.502  29.173  28.719  1.00  0.00     0.034 A 
ATOM     48  C   UNL A   1      47.774  29.437  27.017  1.00  0.00     0.049 A 
ATOM     49  C   UNL A   1      42.579  30.219  28.888  1.00  0.00     0.074 A 
ATOM     50  C   UNL A   1      48.650  30.504  27.122  1.00  0.00     0.029 A 
ATOM     51  N   UNL A   1      46.567  29.858  27.549  1.00  0.00    -0.354 N 
ATOM     52  N   UNL A   1      43.814  30.214  28.448  1.00  0.00    -0.248 NA
ATOM     53  C   UNL A   1      42.217  31.438  29.630  1.00  0.00     0.031 C 
ATOM     54  C   UNL A   1      47.983  31.556  27.757  1.00  0.00     0.029 A 
ATOM     55  C   UNL A   1      46.680  31.159  28.009  1.00  0.00     0.049 A 
ATOM     56  H   UNL A   1      45.748  29.313  27.594  1.00  0.00     0.167 HD
ATOM     57  C   UNL A   1      44.364  31.435  28.834  1.00  0.00     0.074 A 
ATOM     58  C   UNL A   1      43.321  32.164  29.521  1.00  0.00     0.031 C 
ATOM     59  C   UNL A   1      45.624  31.902  28.648  1.00  0.00     0.034 A 
BRANCH  46  60
ATOM     60  C   UNL A   1      49.427  27.806  26.030  1.00  0.00     0.023 A 
ATOM     61  C   UNL A   1      49.738  27.819  24.656  1.00  0.00     0.012 A 
ATOM     62  C   UNL A   1      50.446  27.554  26.970  1.00  0.00     0.148 A 
ATOM     63  C   UNL A   1      51.037  27.554  24.223  1.00  0.00     0.002 A 
ATOM     64  C   UNL A   1      51.747  27.338  26.533  1.00  0.00     0.091 A 
ATOM     65  F   UNL A   1      50.124  27.528  28.271  1.00  0.00    -0.205 F 
ATOM     66  C   UNL A   1      52.042  27.325  25.161  1.00  0.00     0.022 A 
BRANCH  64  67
ATOM     67  S   UNL A   1      53.124  27.113  27.663  1.00  0.00     0.127 S 
ATOM     68  O   UNL A   1      54.172  26.640  26.760  1.00  0.00    -0.237 OA
ATOM     69  O   UNL A   1      53.326  28.469  28.173  1.00  0.00    -0.237 OA
ATOM     70  O   UNL A   1      52.678  26.147  28.658  1.00  0.00    -0.744 OA
ENDBRANCH  64  67
ENDBRANCH  46  60
BRANCH  47  71
ATOM     71  C   UNL A   1      40.140  29.402  29.285  1.00  0.00     0.023 A 
ATOM     72  C   UNL A   1      39.123  29.926  28.465  1.00  0.00     0.012 A 
ATOM     73  C   UNL A   1      39.854  29.116  30.635  1.00  0.00     0.148 A 
ATOM     74  C   UNL A   1      37.856  30.193  28.984  1.00  0.00     0.002 A 
ATOM     75  C   UNL A   1      38.574  29.330  31.131  1.00  0.00     0.091 A 
ATOM     76  F   UNL A   1      40.841  28.641  31.406  1.00  0.00    -0.205 F 
ATOM     77  C   UNL A   1      37.578  29.885  30.314  1.00  0.00     0.022 A 
BRANCH  75  78
ATOM     78  S   UNL A   1      38.091  28.857  32.796  1.00  0.00     0.127 S 
ATOM     79  O   UNL A   1      38.960  29.701  33.612  1.00  0.00    -0.237 OA
ATOM     80  O   UNL A   1      36.676  29.232  32.813  1.00  0.00    -0.237 OA
ATOM     81  O   UNL A   1      38.336  27.425  32.888  1.00  0.00    -0.744 OA
ENDBRANCH  75  78
ENDBRANCH  47  71
BRANCH  59  82
ATOM     82  C   UNL A   1      45.956  33.282  29.159  1.00  0.00     0.023 A 
ATOM     83  C   UNL A   1      46.518  33.441  30.441  1.00  0.00     0.012 A 
ATOM     84  C   UNL A   1      45.803  34.412  28.328  1.00  0.00     0.148 A 
ATOM     85  C   UNL A   1      46.898  34.703  30.899  1.00  0.00     0.002 A 
ATOM     86  C   UNL A   1      46.230  35.659  28.772  1.00  0.00     0.091 A 
ATOM     87  F   UNL A   1      45.255  34.242  27.116  1.00  0.00    -0.205 F 
ATOM     88  C   UNL A   1      46.766  35.808  30.061  1.00  0.00     0.022 A 
BRANCH  86  89
ATOM     89  S   UNL A   1      46.191  37.123  27.731  1.00  0.00     0.127 S 
ATOM     90  O   UNL A   1      46.546  36.569  26.425  1.00  0.00    -0.237 OA
ATOM     91  O   UNL A   1      44.798  37.552  27.854  1.00  0.00    -0.237 OA
ATOM     92  O   UNL A   1      47.164  38.048  28.296  1.00  0.00    -0.744 OA
ENDBRANCH  86  89
ENDBRANCH  59  82
ENDBRANCH  33  34
ENDBRANCH  26  28
ENDBRANCH  25  26
ENDBRANCH  24  25
ENDBRANCH  23  24
ENDBRANCH  22  23
ENDBRANCH  21  22
ENDBRANCH   1  21
TORSDOF 24
ENDMDL
MODEL 3
REMARK VINA RESULT:      -8.2      2.418      2.963
REMARK SMILES CCC(C)(C)[C@@H]([NH3+])C(C)(C)C(=O)OCCOCCOCCOC(=O)c1ccc(-c2c3nc(c(-c4cccc(S(=O)(=O)[O-])c4F)c4ccc([nH]4)c(-c4cccc(S(=O)(=O)[O-])c4F)c4nc(c(-c5cccc(S(=O)(=O)[O-])c5F)c5ccc2[nH]5)C=C4)C=C3)cc1
REMARK SMILES IDX 17 1 16 2 15 3 14 4 13 5 11 6 12 7 8 8 9 9 10 10 6 11 3 12
REMARK SMILES IDX 4 13 5 14 2 15 1 16 7 17 18 21 19 22 20 23 21 24 22 25 23 26
REMARK SMILES IDX 24 27 25 28 26 29 87 30 27 31 86 32 28 33 29 34 30 35 80 36
REMARK SMILES IDX 31 37 85 38 79 39 81 40 32 41 84 42 78 43 77 44 33 46 65 47
REMARK SMILES IDX 45 48 64 49 46 50 49 51 63 52 82 53 47 54 48 55 62 57 83 58
REMARK SMILES IDX 50 59 34 60 35 61 43 62 36 63 38 64 44 65 37 66 39 67 40 68
REMARK SMILES IDX 41 69 42 70 66 71 67 72 75 73 68 74 70 75 76 76 69 77 71 78
REMARK SMILES IDX 72 79 73 80 74 81 51 82 52 83 60 84 53 85 55 86 61 87 54 88
REMARK SMILES IDX 56 89 57 90 58 91 59 92
REMARK H PARENT 7 18 7 19 7 20 81 45 49 56
REMARK Flexibility Score: inf
ROOT
ATOM      1  C   UNL A   1      36.476  23.043  23.473  1.00  0.00     0.188 C 
ENDROOT
BRANCH   1   2
ATOM      2  O   UNL A   1      35.381  23.681  22.835  1.00  0.00    -0.376 OA
BRANCH   2   3
ATOM      3  C   UNL A   1      34.103  23.120  23.050  1.00  0.00     0.202 C 
BRANCH   3   4
ATOM      4  C   UNL A   1      32.904  23.662  22.228  1.00  0.00     0.261 C 
BRANCH   4   5
ATOM      5  O   UNL A   1      32.150  24.826  22.642  1.00  0.00    -0.463 OA
BRANCH   5   6
ATOM      6  C   UNL A   1      31.308  24.612  23.681  1.00  0.00     0.317 C 
ATOM      7  O   UNL A   1      30.385  23.831  23.558  1.00  0.00    -0.251 OA
BRANCH   6   8
ATOM      8  C   UNL A   1      31.567  25.451  24.937  1.00  0.00     0.114 C 
ATOM      9  C   UNL A   1      32.169  24.508  25.990  1.00  0.00     0.030 C 
ATOM     10  C   UNL A   1      30.236  25.957  25.583  1.00  0.00     0.030 C 
BRANCH   8  11
ATOM     11  C   UNL A   1      32.509  26.704  24.598  1.00  0.00     0.203 C 
BRANCH  11  12
ATOM     12  C   UNL A   1      31.951  28.129  24.047  1.00  0.00     0.017 C 
ATOM     13  C   UNL A   1      31.481  29.016  25.218  1.00  0.00     0.017 C 
ATOM     14  C   UNL A   1      30.654  27.854  23.210  1.00  0.00     0.017 C 
BRANCH  12  15
ATOM     15  C   UNL A   1      32.847  28.967  23.076  1.00  0.00     0.009 C 
ATOM     16  C   UNL A   1      33.945  28.226  22.302  1.00  0.00     0.005 C 
ENDBRANCH  12  15
ENDBRANCH  11  12
BRANCH  11  17
ATOM     17  N   UNL A   1      33.471  26.872  25.718  1.00  0.00    -0.354 N 
ATOM     18  H   UNL A   1      33.698  27.860  25.827  1.00  0.00     0.344 HD
ATOM     19  H   UNL A   1      34.323  26.348  25.516  1.00  0.00     0.344 HD
ATOM     20  H   UNL A   1      33.054  26.521  26.580  1.00  0.00     0.344 HD
ENDBRANCH  11  17
ENDBRANCH   8  11
ENDBRANCH   6   8
ENDBRANCH   5   6
ENDBRANCH   4   5
ENDBRANCH   3   4
ENDBRANCH   2   3
ENDBRANCH   1   2
BRANCH   1  21
ATOM     21  C   UNL A   1      36.002  21.942  24.427  1.00  0.00     0.188 C 
BRANCH  21  22
ATOM     22  O   UNL A   1      36.447  21.936  25.778  1.00  0.00    -0.376 OA
BRANCH  22  23
ATOM     23  C   UNL A   1      37.711  22.518  26.046  1.00  0.00     0.202 C 
BRANCH  23  24
ATOM     24  C   UNL A   1      38.973  21.665  25.834  1.00  0.00     0.261 C 
BRANCH  24  25
ATOM     25  O   UNL A   1      40.021  21.804  26.815  1.00  0.00    -0.460 OA
BRANCH  25  26
ATOM     26  C   UNL A   1      41.161  22.415  26.404  1.00  0.00     0.338 C 
ATOM     27  O   UNL A   1      41.901  22.044  25.502  1.00  0.00    -0.246 OA
BRANCH  26  28
ATOM     28  C   UNL A   1      41.310  23.732  27.076  1.00  0.00     0.060 A 
ATOM     29  C   UNL A   1      41.022  24.901  26.351  1.00  0.00     0.016 A 
ATOM     30  C   UNL A   1      41.778  23.833  28.386  1.00  0.00     0.016 A 
ATOM     31  C   UNL A   1      41.176  26.162  26.930  1.00  0.00     0.010 A 
ATOM     32  C   UNL A   1      41.978  25.102  28.951  1.00  0.00     0.010 A 
ATOM     33  C   UNL A   1      41.689  26.275  28.225  1.00  0.00    -0.014 A 
BRANCH  33  34
ATOM     34  C   UNL A   1      42.079  27.604  28.764  1.00  0.00     0.031 A 
ATOM     35  C   UNL A   1      40.997  28.541  29.223  1.00  0.00     0.074 A 
ATOM     36  C   UNL A   1      43.367  27.990  28.829  1.00  0.00     0.049 A 
ATOM     37  N   UNL A   1      41.079  29.798  29.576  1.00  0.00    -0.248 NA
ATOM     38  C   UNL A   1      39.637  27.983  29.298  1.00  0.00     0.031 C 
ATOM     39  C   UNL A   1      44.521  27.165  28.480  1.00  0.00     0.029 A 
ATOM     40  N   UNL A   1      43.913  29.205  29.177  1.00  0.00    -0.354 N 
ATOM     41  C   UNL A   1      39.780  30.197  29.861  1.00  0.00     0.074 A 
ATOM     42  C   UNL A   1      38.930  29.043  29.661  1.00  0.00     0.031 C 
ATOM     43  C   UNL A   1      45.635  27.911  28.576  1.00  0.00     0.029 A 
ATOM     44  C   UNL A   1      45.269  29.279  28.949  1.00  0.00     0.049 A 
ATOM     45  H   UNL A   1      43.387  29.948  29.552  1.00  0.00     0.167 HD
ATOM     46  C   UNL A   1      39.332  31.414  30.252  1.00  0.00     0.034 A 
ATOM     47  C   UNL A   1      46.106  30.337  28.979  1.00  0.00     0.034 A 
ATOM     48  C   UNL A   1      40.176  32.558  30.466  1.00  0.00     0.049 A 
ATOM     49  C   UNL A   1      45.572  31.702  29.342  1.00  0.00     0.074 A 
ATOM     50  C   UNL A   1      39.815  33.822  30.899  1.00  0.00     0.029 A 
ATOM     51  N   UNL A   1      41.543  32.588  30.241  1.00  0.00    -0.354 N 
ATOM     52  N   UNL A   1      44.357  32.049  29.696  1.00  0.00    -0.248 NA
ATOM     53  C   UNL A   1      46.527  32.821  29.324  1.00  0.00     0.031 C 
ATOM     54  C   UNL A   1      40.956  34.629  30.895  1.00  0.00     0.029 A 
ATOM     55  C   UNL A   1      42.036  33.856  30.500  1.00  0.00     0.049 A 
ATOM     56  H   UNL A   1      42.084  31.822  29.942  1.00  0.00     0.167 HD
ATOM     57  C   UNL A   1      44.412  33.414  29.971  1.00  0.00     0.074 A 
ATOM     58  C   UNL A   1      45.784  33.826  29.765  1.00  0.00     0.031 C 
ATOM     59  C   UNL A   1      43.413  34.252  30.344  1.00  0.00     0.034 A 
BRANCH  46  60
ATOM     60  C   UNL A   1      37.850  31.580  30.462  1.00  0.00     0.023 A 
ATOM     61  C   UNL A   1      37.252  31.131  31.657  1.00  0.00     0.012 A 
ATOM     62  C   UNL A   1      37.063  32.238  29.497  1.00  0.00     0.148 A 
ATOM     63  C   UNL A   1      35.886  31.307  31.872  1.00  0.00     0.002 A 
ATOM     64  C   UNL A   1      35.712  32.451  29.740  1.00  0.00     0.091 A 
ATOM     65  F   UNL A   1      37.649  32.639  28.360  1.00  0.00    -0.205 F 
ATOM     66  C   UNL A   1      35.120  31.976  30.920  1.00  0.00     0.022 A 
BRANCH  64  67
ATOM     67  S   UNL A   1      34.658  33.370  28.613  1.00  0.00     0.127 S 
ATOM     68  O   UNL A   1      35.413  34.612  28.452  1.00  0.00    -0.237 OA
ATOM     69  O   UNL A   1      34.644  32.507  27.433  1.00  0.00    -0.237 OA
ATOM     70  O   UNL A   1      33.372  33.507  29.284  1.00  0.00    -0.744 OA
ENDBRANCH  64  67
ENDBRANCH  46  60
BRANCH  47  71
ATOM     71  C   UNL A   1      47.547  30.165  28.631  1.00  0.00     0.023 A 
ATOM     72  C   UNL A   1      47.968  30.337  27.298  1.00  0.00     0.012 A 
ATOM     73  C   UNL A   1      48.498  29.818  29.611  1.00  0.00     0.148 A 
ATOM     74  C   UNL A   1      49.302  30.134  26.941  1.00  0.00     0.002 A 
ATOM     75  C   UNL A   1      49.835  29.674  29.259  1.00  0.00     0.091 A 
ATOM     76  F   UNL A   1      48.075  29.634  30.869  1.00  0.00    -0.205 F 
ATOM     77  C   UNL A   1      50.236  29.814  27.922  1.00  0.00     0.022 A 
BRANCH  75  78
ATOM     78  S   UNL A   1      51.127  29.376  30.471  1.00  0.00     0.127 S 
ATOM     79  O   UNL A   1      52.324  29.356  29.634  1.00  0.00    -0.237 OA
ATOM     80  O   UNL A   1      51.001  30.550  31.335  1.00  0.00    -0.237 OA
ATOM     81  O   UNL A   1      50.785  28.115  31.113  1.00  0.00    -0.744 OA
ENDBRANCH  75  78
ENDBRANCH  47  71
BRANCH  59  82
ATOM     82  C   UNL A   1      43.752  35.699  30.595  1.00  0.00     0.023 A 
ATOM     83  C   UNL A   1      43.864  36.594  29.512  1.00  0.00     0.012 A 
ATOM     84  C   UNL A   1      43.862  36.194  31.912  1.00  0.00     0.148 A 
ATOM     85  C   UNL A   1      44.105  37.950  29.733  1.00  0.00     0.002 A 
ATOM     86  C   UNL A   1      44.052  37.555  32.125  1.00  0.00     0.091 A 
ATOM     87  F   UNL A   1      43.764  35.326  32.929  1.00  0.00    -0.205 F 
ATOM     88  C   UNL A   1      44.186  38.433  31.037  1.00  0.00     0.022 A 
BRANCH  86  89
ATOM     89  S   UNL A   1      44.073  38.285  33.767  1.00  0.00     0.127 S 
ATOM     90  O   UNL A   1      44.340  39.691  33.465  1.00  0.00    -0.237 OA
ATOM     91  O   UNL A   1      42.718  38.010  34.244  1.00  0.00    -0.237 OA
ATOM     92  O   UNL A   1      45.127  37.599  34.503  1.00  0.00    -0.744 OA
ENDBRANCH  86  89
ENDBRANCH  59  82
ENDBRANCH  33  34
ENDBRANCH  26  28
ENDBRANCH  25  26
ENDBRANCH  24  25
ENDBRANCH  23  24
ENDBRANCH  22  23
ENDBRANCH  21  22
ENDBRANCH   1  21
TORSDOF 24
ENDMDL
