MODEL 1
REMARK VINA RESULT:     -11.5      0.000      0.000
REMARK SMILES O=C1C[C@H](c2cn[nH]c2C(=O)OCCOCCOCCOC(=O)c2ccc(-c3c4nc(c(-c5cccc(S(=O)(=O)[O-])c5F)c5ccc([nH]5)c(-c5cccc(S(=O)(=O)[O-])c5F)c5nc(c(-c6cccc(S(=O)(=O)[O-])c6F)c6ccc3[nH]6)C=C5)C=C4)cc2)c2c(-c3cccs3)n[nH]c2N1
REMARK SMILES IDX 17 1 16 2 15 3 14 4 13 5 12 6 10 7 11 8 9 9 5 10 6 11 7 12
REMARK SMILES IDX 8 13 4 15 1 16 2 17 3 18 97 19 96 20 87 22 95 23 88 24 94 25
REMARK SMILES IDX 89 27 90 28 93 29 91 30 92 31 18 32 19 33 20 34 21 35 22 36
REMARK SMILES IDX 23 37 24 38 25 39 86 40 26 41 85 42 27 43 28 44 29 45 79 46
REMARK SMILES IDX 30 47 84 48 78 49 80 50 31 51 83 52 77 53 76 54 32 56 64 57
REMARK SMILES IDX 44 58 63 59 45 60 48 61 62 62 81 63 46 64 47 65 61 67 82 68
REMARK SMILES IDX 49 69 33 70 34 71 42 72 35 73 37 74 43 75 36 76 38 77 39 78
REMARK SMILES IDX 40 79 41 80 65 81 66 82 74 83 67 84 69 85 75 86 68 87 70 88
REMARK SMILES IDX 71 89 72 90 73 91 50 92 51 93 59 94 52 95 54 96 60 97 53 98
REMARK SMILES IDX 55 99 56 100 57 101 58 102
REMARK H PARENT 8 14 97 21 95 26 80 55 48 66
REMARK Flexibility Score: inf
ROOT
ATOM      1  C   UNL A   1      35.166  32.409  28.044  1.00  0.00     0.188 C 
ENDROOT
BRANCH   1   2
ATOM      2  C   UNL A   1      34.649  31.042  27.539  1.00  0.00     0.188 C 
BRANCH   2   3
ATOM      3  O   UNL A   1      33.329  30.618  27.815  1.00  0.00    -0.376 OA
BRANCH   3   4
ATOM      4  C   UNL A   1      32.339  30.658  26.802  1.00  0.00     0.202 C 
BRANCH   4   5
ATOM      5  C   UNL A   1      31.907  29.396  26.042  1.00  0.00     0.261 C 
BRANCH   5   6
ATOM      6  O   UNL A   1      32.029  28.165  26.775  1.00  0.00    -0.459 OA
BRANCH   6   7
ATOM      7  C   UNL A   1      32.626  27.137  26.125  1.00  0.00     0.356 C 
ATOM      8  O   UNL A   1      33.788  27.152  25.728  1.00  0.00    -0.244 OA
BRANCH   7   9
ATOM      9  C   UNL A   1      31.820  25.940  26.106  1.00  0.00     0.147 A 
ATOM     10  C   UNL A   1      30.976  25.248  25.230  1.00  0.00     0.013 A 
ATOM     11  C   UNL A   1      30.596  24.100  25.995  1.00  0.00     0.140 A 
ATOM     12  N   UNL A   1      31.103  24.080  27.221  1.00  0.00    -0.183 NA
ATOM     13  N   UNL A   1      31.832  25.195  27.263  1.00  0.00    -0.271 N 
ATOM     14  H   UNL A   1      32.342  25.465  28.061  1.00  0.00     0.190 HD
BRANCH  10  15
ATOM     15  C   UNL A   1      30.535  25.405  23.779  1.00  0.00     0.069 C 
ATOM     16  O   UNL A   1      28.914  28.698  22.962  1.00  0.00    -0.275 OA
ATOM     17  C   UNL A   1      29.692  27.745  22.898  1.00  0.00     0.226 C 
ATOM     18  C   UNL A   1      29.384  26.432  23.608  1.00  0.00     0.114 C 
ATOM     19  N   UNL A   1      30.781  27.814  22.071  1.00  0.00    -0.311 N 
ATOM     20  C   UNL A   1      31.682  26.789  22.051  1.00  0.00     0.132 A 
ATOM     21  H   UNL A   1      30.914  28.600  21.495  1.00  0.00     0.171 HD
ATOM     22  C   UNL A   1      31.604  25.637  22.780  1.00  0.00     0.031 A 
ATOM     23  N   UNL A   1      32.867  26.759  21.388  1.00  0.00    -0.262 N 
ATOM     24  C   UNL A   1      32.736  24.889  22.378  1.00  0.00     0.108 A 
ATOM     25  N   UNL A   1      33.544  25.604  21.577  1.00  0.00    -0.173 NA
ATOM     26  H   UNL A   1      33.200  27.499  20.830  1.00  0.00     0.192 HD
BRANCH  24  27
ATOM     27  C   UNL A   1      33.091  23.532  22.891  1.00  0.00     0.055 A 
ATOM     28  C   UNL A   1      34.277  23.236  23.525  1.00  0.00     0.022 A 
ATOM     29  S   UNL A   1      32.030  22.195  22.859  1.00  0.00    -0.142 S 
ATOM     30  C   UNL A   1      34.250  21.936  24.112  1.00  0.00     0.012 A 
ATOM     31  C   UNL A   1      33.109  21.242  23.778  1.00  0.00     0.065 A 
ENDBRANCH  24  27
ENDBRANCH  10  15
ENDBRANCH   7   9
ENDBRANCH   6   7
ENDBRANCH   5   6
ENDBRANCH   4   5
ENDBRANCH   3   4
ENDBRANCH   2   3
ENDBRANCH   1   2
BRANCH   1  32
ATOM     32  O   UNL A   1      34.550  33.594  27.590  1.00  0.00    -0.376 OA
BRANCH  32  33
ATOM     33  C   UNL A   1      33.383  34.173  28.145  1.00  0.00     0.202 C 
BRANCH  33  34
ATOM     34  C   UNL A   1      33.299  35.002  29.411  1.00  0.00     0.261 C 
BRANCH  34  35
ATOM     35  O   UNL A   1      33.309  34.246  30.587  1.00  0.00    -0.460 OA
BRANCH  35  36
ATOM     36  C   UNL A   1      33.507  34.992  31.690  1.00  0.00     0.338 C 
ATOM     37  O   UNL A   1      32.956  36.036  31.994  1.00  0.00    -0.246 OA
BRANCH  36  38
ATOM     38  C   UNL A   1      34.576  34.365  32.453  1.00  0.00     0.060 A 
ATOM     39  C   UNL A   1      35.626  35.197  32.831  1.00  0.00     0.016 A 
ATOM     40  C   UNL A   1      34.676  32.967  32.394  1.00  0.00     0.016 A 
ATOM     41  C   UNL A   1      36.875  34.641  32.851  1.00  0.00     0.010 A 
ATOM     42  C   UNL A   1      35.925  32.422  32.382  1.00  0.00     0.010 A 
ATOM     43  C   UNL A   1      37.001  33.291  32.501  1.00  0.00    -0.014 A 
BRANCH  43  44
ATOM     44  C   UNL A   1      38.325  32.765  32.336  1.00  0.00     0.031 A 
ATOM     45  C   UNL A   1      39.071  32.806  33.601  1.00  0.00     0.074 A 
ATOM     46  C   UNL A   1      38.752  32.255  31.168  1.00  0.00     0.049 A 
ATOM     47  N   UNL A   1      39.965  33.674  33.933  1.00  0.00    -0.248 NA
ATOM     48  C   UNL A   1      38.590  31.969  34.711  1.00  0.00     0.031 C 
ATOM     49  C   UNL A   1      37.972  31.927  29.971  1.00  0.00     0.029 A 
ATOM     50  N   UNL A   1      39.989  31.794  30.864  1.00  0.00    -0.354 N 
ATOM     51  C   UNL A   1      40.358  33.295  35.208  1.00  0.00     0.074 A 
ATOM     52  C   UNL A   1      39.316  32.447  35.721  1.00  0.00     0.031 C 
ATOM     53  C   UNL A   1      38.699  31.093  29.189  1.00  0.00     0.029 A 
ATOM     54  C   UNL A   1      40.026  30.947  29.764  1.00  0.00     0.049 A 
ATOM     55  H   UNL A   1      40.791  32.038  31.379  1.00  0.00     0.167 HD
ATOM     56  C   UNL A   1      41.653  33.434  35.593  1.00  0.00     0.034 A 
ATOM     57  C   UNL A   1      41.055  30.127  29.437  1.00  0.00     0.034 A 
ATOM     58  C   UNL A   1      42.373  34.312  34.704  1.00  0.00     0.049 A 
ATOM     59  C   UNL A   1      42.261  30.645  30.132  1.00  0.00     0.074 A 
ATOM     60  C   UNL A   1      42.228  35.623  34.299  1.00  0.00     0.029 A 
ATOM     61  N   UNL A   1      43.177  33.706  33.767  1.00  0.00    -0.354 N 
ATOM     62  N   UNL A   1      42.817  31.789  29.847  1.00  0.00    -0.248 NA
ATOM     63  C   UNL A   1      42.572  30.110  31.448  1.00  0.00     0.031 C 
ATOM     64  C   UNL A   1      42.581  35.626  32.918  1.00  0.00     0.029 A 
ATOM     65  C   UNL A   1      42.988  34.337  32.566  1.00  0.00     0.049 A 
ATOM     66  H   UNL A   1      43.786  32.950  33.932  1.00  0.00     0.167 HD
ATOM     67  C   UNL A   1      43.140  32.331  31.085  1.00  0.00     0.074 A 
ATOM     68  C   UNL A   1      43.071  31.210  32.021  1.00  0.00     0.031 C 
ATOM     69  C   UNL A   1      43.132  33.683  31.283  1.00  0.00     0.034 A 
BRANCH  56  70
ATOM     70  C   UNL A   1      42.366  32.466  36.501  1.00  0.00     0.023 A 
ATOM     71  C   UNL A   1      43.107  33.020  37.565  1.00  0.00     0.012 A 
ATOM     72  C   UNL A   1      42.573  31.096  36.215  1.00  0.00     0.148 A 
ATOM     73  C   UNL A   1      44.037  32.258  38.278  1.00  0.00     0.002 A 
ATOM     74  C   UNL A   1      43.432  30.322  36.983  1.00  0.00     0.091 A 
ATOM     75  F   UNL A   1      42.056  30.549  35.112  1.00  0.00    -0.205 F 
ATOM     76  C   UNL A   1      44.193  30.906  37.996  1.00  0.00     0.022 A 
BRANCH  74  77
ATOM     77  S   UNL A   1      43.630  28.560  36.688  1.00  0.00     0.127 S 
ATOM     78  O   UNL A   1      42.242  28.108  36.678  1.00  0.00    -0.237 OA
ATOM     79  O   UNL A   1      44.296  28.553  35.385  1.00  0.00    -0.237 OA
ATOM     80  O   UNL A   1      44.455  28.066  37.783  1.00  0.00    -0.744 OA
ENDBRANCH  74  77
ENDBRANCH  56  70
BRANCH  57  81
ATOM     81  C   UNL A   1      41.031  28.772  28.836  1.00  0.00     0.023 A 
ATOM     82  C   UNL A   1      39.982  27.889  29.164  1.00  0.00     0.012 A 
ATOM     83  C   UNL A   1      41.849  28.453  27.729  1.00  0.00     0.148 A 
ATOM     84  C   UNL A   1      39.729  26.749  28.391  1.00  0.00     0.002 A 
ATOM     85  C   UNL A   1      41.597  27.316  26.966  1.00  0.00     0.091 A 
ATOM     86  F   UNL A   1      42.811  29.312  27.368  1.00  0.00    -0.205 F 
ATOM     87  C   UNL A   1      40.528  26.468  27.287  1.00  0.00     0.022 A 
BRANCH  85  88
ATOM     88  S   UNL A   1      42.562  26.906  25.506  1.00  0.00     0.127 S 
ATOM     89  O   UNL A   1      41.891  25.696  25.030  1.00  0.00    -0.237 OA
ATOM     90  O   UNL A   1      42.363  28.086  24.669  1.00  0.00    -0.237 OA
ATOM     91  O   UNL A   1      43.926  26.688  25.975  1.00  0.00    -0.744 OA
ENDBRANCH  85  88
ENDBRANCH  57  81
BRANCH  69  92
ATOM     92  C   UNL A   1      43.039  34.573  30.067  1.00  0.00     0.023 A 
ATOM     93  C   UNL A   1      41.807  34.983  29.510  1.00  0.00     0.012 A 
ATOM     94  C   UNL A   1      44.226  35.140  29.577  1.00  0.00     0.148 A 
ATOM     95  C   UNL A   1      41.769  35.920  28.472  1.00  0.00     0.002 A 
ATOM     96  C   UNL A   1      44.181  36.104  28.579  1.00  0.00     0.091 A 
ATOM     97  F   UNL A   1      45.387  34.741  30.120  1.00  0.00    -0.205 F 
ATOM     98  C   UNL A   1      42.955  36.490  28.015  1.00  0.00     0.022 A 
BRANCH  96  99
ATOM     99  S   UNL A   1      45.663  36.960  28.040  1.00  0.00     0.127 S 
ATOM    100  O   UNL A   1      46.225  37.423  29.307  1.00  0.00    -0.237 OA
ATOM    101  O   UNL A   1      46.423  35.892  27.387  1.00  0.00    -0.237 OA
ATOM    102  O   UNL A   1      45.213  38.007  27.133  1.00  0.00    -0.744 OA
ENDBRANCH  96  99
ENDBRANCH  69  92
ENDBRANCH  43  44
ENDBRANCH  36  38
ENDBRANCH  35  36
ENDBRANCH  34  35
ENDBRANCH  33  34
ENDBRANCH  32  33
ENDBRANCH   1  32
TORSDOF 22
ENDMDL
MODEL 2
REMARK VINA RESULT:     -10.9      4.758      9.397
REMARK SMILES O=C1C[C@H](c2cn[nH]c2C(=O)OCCOCCOCCOC(=O)c2ccc(-c3c4nc(c(-c5cccc(S(=O)(=O)[O-])c5F)c5ccc([nH]5)c(-c5cccc(S(=O)(=O)[O-])c5F)c5nc(c(-c6cccc(S(=O)(=O)[O-])c6F)c6ccc3[nH]6)C=C5)C=C4)cc2)c2c(-c3cccs3)n[nH]c2N1
REMARK SMILES IDX 17 1 16 2 15 3 14 4 13 5 12 6 10 7 11 8 9 9 5 10 6 11 7 12
REMARK SMILES IDX 8 13 4 15 1 16 2 17 3 18 97 19 96 20 87 22 95 23 88 24 94 25
REMARK SMILES IDX 89 27 90 28 93 29 91 30 92 31 18 32 19 33 20 34 21 35 22 36
REMARK SMILES IDX 23 37 24 38 25 39 86 40 26 41 85 42 27 43 28 44 29 45 79 46
REMARK SMILES IDX 30 47 84 48 78 49 80 50 31 51 83 52 77 53 76 54 32 56 64 57
REMARK SMILES IDX 44 58 63 59 45 60 48 61 62 62 81 63 46 64 47 65 61 67 82 68
REMARK SMILES IDX 49 69 33 70 34 71 42 72 35 73 37 74 43 75 36 76 38 77 39 78
REMARK SMILES IDX 40 79 41 80 65 81 66 82 74 83 67 84 69 85 75 86 68 87 70 88
REMARK SMILES IDX 71 89 72 90 73 91 50 92 51 93 59 94 52 95 54 96 60 97 53 98
REMARK SMILES IDX 55 99 56 100 57 101 58 102
REMARK H PARENT 8 14 97 21 95 26 80 55 48 66
REMARK Flexibility Score: inf
ROOT
ATOM      1  C   UNL A   1      34.402  21.515  24.565  1.00  0.00     0.188 C 
ENDROOT
BRANCH   1   2
ATOM      2  C   UNL A   1      33.798  22.076  25.874  1.00  0.00     0.188 C 
BRANCH   2   3
ATOM      3  O   UNL A   1      32.530  21.646  26.331  1.00  0.00    -0.376 OA
BRANCH   3   4
ATOM      4  C   UNL A   1      31.347  22.185  25.769  1.00  0.00     0.202 C 
BRANCH   4   5
ATOM      5  C   UNL A   1      30.709  23.473  26.310  1.00  0.00     0.261 C 
BRANCH   5   6
ATOM      6  O   UNL A   1      30.412  24.474  25.322  1.00  0.00    -0.459 OA
BRANCH   6   7
ATOM      7  C   UNL A   1      30.366  25.755  25.762  1.00  0.00     0.356 C 
ATOM      8  O   UNL A   1      30.866  26.142  26.816  1.00  0.00    -0.244 OA
BRANCH   7   9
ATOM      9  C   UNL A   1      29.835  26.668  24.779  1.00  0.00     0.147 A 
ATOM     10  C   UNL A   1      30.177  27.882  24.171  1.00  0.00     0.013 A 
ATOM     11  C   UNL A   1      29.100  28.093  23.253  1.00  0.00     0.140 A 
ATOM     12  N   UNL A   1      28.166  27.151  23.298  1.00  0.00    -0.183 NA
ATOM     13  N   UNL A   1      28.630  26.309  24.221  1.00  0.00    -0.271 N 
ATOM     14  H   UNL A   1      28.148  25.492  24.483  1.00  0.00     0.190 HD
BRANCH  10  15
ATOM     15  C   UNL A   1      31.369  28.832  24.213  1.00  0.00     0.069 C 
ATOM     16  O   UNL A   1      31.036  31.687  26.639  1.00  0.00    -0.275 OA
ATOM     17  C   UNL A   1      31.507  30.699  26.073  1.00  0.00     0.226 C 
ATOM     18  C   UNL A   1      30.988  30.252  24.712  1.00  0.00     0.114 C 
ATOM     19  N   UNL A   1      32.602  30.072  26.605  1.00  0.00    -0.311 N 
ATOM     20  C   UNL A   1      33.084  28.937  26.020  1.00  0.00     0.132 A 
ATOM     21  H   UNL A   1      33.039  30.437  27.407  1.00  0.00     0.171 HD
ATOM     22  C   UNL A   1      32.588  28.342  24.896  1.00  0.00     0.031 A 
ATOM     23  N   UNL A   1      34.073  28.133  26.491  1.00  0.00    -0.262 N 
ATOM     24  C   UNL A   1      33.448  27.239  24.674  1.00  0.00     0.108 A 
ATOM     25  N   UNL A   1      34.314  27.074  25.687  1.00  0.00    -0.173 NA
ATOM     26  H   UNL A   1      34.562  28.304  27.328  1.00  0.00     0.192 HD
BRANCH  24  27
ATOM     27  C   UNL A   1      33.324  26.272  23.542  1.00  0.00     0.055 A 
ATOM     28  C   UNL A   1      33.295  24.904  23.700  1.00  0.00     0.022 A 
ATOM     29  S   UNL A   1      33.091  26.735  21.916  1.00  0.00    -0.142 S 
ATOM     30  C   UNL A   1      32.936  24.242  22.489  1.00  0.00     0.012 A 
ATOM     31  C   UNL A   1      32.852  25.116  21.428  1.00  0.00     0.065 A 
ENDBRANCH  24  27
ENDBRANCH  10  15
ENDBRANCH   7   9
ENDBRANCH   6   7
ENDBRANCH   5   6
ENDBRANCH   4   5
ENDBRANCH   3   4
ENDBRANCH   2   3
ENDBRANCH   1   2
BRANCH   1  32
ATOM     32  O   UNL A   1      35.791  21.613  24.344  1.00  0.00    -0.376 OA
BRANCH  32  33
ATOM     33  C   UNL A   1      36.782  20.872  25.033  1.00  0.00     0.202 C 
BRANCH  33  34
ATOM     34  C   UNL A   1      37.911  21.434  25.874  1.00  0.00     0.261 C 
BRANCH  34  35
ATOM     35  O   UNL A   1      39.156  21.412  25.241  1.00  0.00    -0.460 OA
BRANCH  35  36
ATOM     36  C   UNL A   1      39.977  20.460  25.725  1.00  0.00     0.338 C 
ATOM     37  O   UNL A   1      39.829  19.252  25.674  1.00  0.00    -0.246 OA
BRANCH  36  38
ATOM     38  C   UNL A   1      41.071  21.135  26.407  1.00  0.00     0.060 A 
ATOM     39  C   UNL A   1      41.106  20.995  27.792  1.00  0.00     0.016 A 
ATOM     40  C   UNL A   1      41.727  22.164  25.714  1.00  0.00     0.016 A 
ATOM     41  C   UNL A   1      41.548  22.072  28.509  1.00  0.00     0.010 A 
ATOM     42  C   UNL A   1      42.136  23.248  26.430  1.00  0.00     0.010 A 
ATOM     43  C   UNL A   1      41.933  23.219  27.803  1.00  0.00    -0.014 A 
BRANCH  43  44
ATOM     44  C   UNL A   1      42.210  24.407  28.559  1.00  0.00     0.031 A 
ATOM     45  C   UNL A   1      41.147  25.405  28.380  1.00  0.00     0.074 A 
ATOM     46  C   UNL A   1      43.283  24.512  29.360  1.00  0.00     0.049 A 
ATOM     47  N   UNL A   1      41.195  26.444  27.618  1.00  0.00    -0.248 NA
ATOM     48  C   UNL A   1      39.804  25.078  28.882  1.00  0.00     0.031 C 
ATOM     49  C   UNL A   1      44.208  23.461  29.796  1.00  0.00     0.029 A 
ATOM     50  N   UNL A   1      43.692  25.593  30.066  1.00  0.00    -0.354 N 
ATOM     51  C   UNL A   1      39.961  27.053  27.785  1.00  0.00     0.074 A 
ATOM     52  C   UNL A   1      39.082  26.054  28.330  1.00  0.00     0.031 C 
ATOM     53  C   UNL A   1      44.893  23.902  30.879  1.00  0.00     0.029 A 
ATOM     54  C   UNL A   1      44.551  25.295  31.116  1.00  0.00     0.049 A 
ATOM     55  H   UNL A   1      43.403  26.510  29.855  1.00  0.00     0.167 HD
ATOM     56  C   UNL A   1      39.861  28.408  27.781  1.00  0.00     0.034 A 
ATOM     57  C   UNL A   1      44.860  26.128  32.141  1.00  0.00     0.034 A 
ATOM     58  C   UNL A   1      41.047  29.019  27.232  1.00  0.00     0.049 A 
ATOM     59  C   UNL A   1      44.537  27.507  31.693  1.00  0.00     0.074 A 
ATOM     60  C   UNL A   1      41.714  28.945  26.027  1.00  0.00     0.029 A 
ATOM     61  N   UNL A   1      41.946  29.529  28.140  1.00  0.00    -0.354 N 
ATOM     62  N   UNL A   1      45.177  28.118  30.737  1.00  0.00    -0.248 NA
ATOM     63  C   UNL A   1      43.211  28.027  31.990  1.00  0.00     0.031 C 
ATOM     64  C   UNL A   1      43.097  28.993  26.364  1.00  0.00     0.029 A 
ATOM     65  C   UNL A   1      43.206  29.162  27.747  1.00  0.00     0.049 A 
ATOM     66  H   UNL A   1      41.723  30.066  28.934  1.00  0.00     0.167 HD
ATOM     67  C   UNL A   1      44.180  28.760  30.011  1.00  0.00     0.074 A 
ATOM     68  C   UNL A   1      43.012  28.761  30.890  1.00  0.00     0.031 C 
ATOM     69  C   UNL A   1      44.306  28.951  28.664  1.00  0.00     0.034 A 
BRANCH  56  70
ATOM     70  C   UNL A   1      38.898  29.180  28.644  1.00  0.00     0.023 A 
ATOM     71  C   UNL A   1      38.797  28.787  29.995  1.00  0.00     0.012 A 
ATOM     72  C   UNL A   1      37.908  30.066  28.155  1.00  0.00     0.148 A 
ATOM     73  C   UNL A   1      37.741  29.220  30.802  1.00  0.00     0.002 A 
ATOM     74  C   UNL A   1      36.913  30.562  28.985  1.00  0.00     0.091 A 
ATOM     75  F   UNL A   1      37.825  30.332  26.850  1.00  0.00    -0.205 F 
ATOM     76  C   UNL A   1      36.804  30.116  30.302  1.00  0.00     0.022 A 
BRANCH  74  77
ATOM     77  S   UNL A   1      35.709  31.760  28.398  1.00  0.00     0.127 S 
ATOM     78  O   UNL A   1      35.101  31.041  27.282  1.00  0.00    -0.237 OA
ATOM     79  O   UNL A   1      34.853  31.920  29.575  1.00  0.00    -0.237 OA
ATOM     80  O   UNL A   1      36.473  32.951  28.051  1.00  0.00    -0.744 OA
ENDBRANCH  74  77
ENDBRANCH  56  70
BRANCH  57  81
ATOM     81  C   UNL A   1      45.112  25.818  33.568  1.00  0.00     0.023 A 
ATOM     82  C   UNL A   1      46.440  25.755  34.038  1.00  0.00     0.012 A 
ATOM     83  C   UNL A   1      44.072  25.882  34.521  1.00  0.00     0.148 A 
ATOM     84  C   UNL A   1      46.725  25.797  35.409  1.00  0.00     0.002 A 
ATOM     85  C   UNL A   1      44.358  25.919  35.883  1.00  0.00     0.091 A 
ATOM     86  F   UNL A   1      42.809  26.004  34.092  1.00  0.00    -0.205 F 
ATOM     87  C   UNL A   1      45.686  25.890  36.330  1.00  0.00     0.022 A 
BRANCH  85  88
ATOM     88  S   UNL A   1      43.074  26.075  37.132  1.00  0.00     0.127 S 
ATOM     89  O   UNL A   1      43.837  25.920  38.371  1.00  0.00    -0.237 OA
ATOM     90  O   UNL A   1      42.573  27.424  36.885  1.00  0.00    -0.237 OA
ATOM     91  O   UNL A   1      42.130  24.994  36.872  1.00  0.00    -0.744 OA
ENDBRANCH  85  88
ENDBRANCH  57  81
BRANCH  69  92
ATOM     92  C   UNL A   1      45.657  28.705  28.040  1.00  0.00     0.023 A 
ATOM     93  C   UNL A   1      46.717  29.636  28.114  1.00  0.00     0.012 A 
ATOM     94  C   UNL A   1      45.912  27.432  27.506  1.00  0.00     0.148 A 
ATOM     95  C   UNL A   1      47.992  29.307  27.644  1.00  0.00     0.002 A 
ATOM     96  C   UNL A   1      47.190  27.092  27.084  1.00  0.00     0.091 A 
ATOM     97  F   UNL A   1      44.894  26.559  27.445  1.00  0.00    -0.205 F 
ATOM     98  C   UNL A   1      48.233  28.031  27.141  1.00  0.00     0.022 A 
BRANCH  96  99
ATOM     99  S   UNL A   1      47.583  25.428  26.543  1.00  0.00     0.127 S 
ATOM    100  O   UNL A   1      48.998  25.547  26.196  1.00  0.00    -0.237 OA
ATOM    101  O   UNL A   1      47.313  24.635  27.744  1.00  0.00    -0.237 OA
ATOM    102  O   UNL A   1      46.685  25.145  25.431  1.00  0.00    -0.744 OA
ENDBRANCH  96  99
ENDBRANCH  69  92
ENDBRANCH  43  44
ENDBRANCH  36  38
ENDBRANCH  35  36
ENDBRANCH  34  35
ENDBRANCH  33  34
ENDBRANCH  32  33
ENDBRANCH   1  32
TORSDOF 22
ENDMDL
MODEL 3
REMARK VINA RESULT:     -10.9      4.005      8.403
REMARK SMILES O=C1C[C@H](c2cn[nH]c2C(=O)OCCOCCOCCOC(=O)c2ccc(-c3c4nc(c(-c5cccc(S(=O)(=O)[O-])c5F)c5ccc([nH]5)c(-c5cccc(S(=O)(=O)[O-])c5F)c5nc(c(-c6cccc(S(=O)(=O)[O-])c6F)c6ccc3[nH]6)C=C5)C=C4)cc2)c2c(-c3cccs3)n[nH]c2N1
REMARK SMILES IDX 17 1 16 2 15 3 14 4 13 5 12 6 10 7 11 8 9 9 5 10 6 11 7 12
REMARK SMILES IDX 8 13 4 15 1 16 2 17 3 18 97 19 96 20 87 22 95 23 88 24 94 25
REMARK SMILES IDX 89 27 90 28 93 29 91 30 92 31 18 32 19 33 20 34 21 35 22 36
REMARK SMILES IDX 23 37 24 38 25 39 86 40 26 41 85 42 27 43 28 44 29 45 79 46
REMARK SMILES IDX 30 47 84 48 78 49 80 50 31 51 83 52 77 53 76 54 32 56 64 57
REMARK SMILES IDX 44 58 63 59 45 60 48 61 62 62 81 63 46 64 47 65 61 67 82 68
REMARK SMILES IDX 49 69 33 70 34 71 42 72 35 73 37 74 43 75 36 76 38 77 39 78
REMARK SMILES IDX 40 79 41 80 65 81 66 82 74 83 67 84 69 85 75 86 68 87 70 88
REMARK SMILES IDX 71 89 72 90 73 91 50 92 51 93 59 94 52 95 54 96 60 97 53 98
REMARK SMILES IDX 55 99 56 100 57 101 58 102
REMARK H PARENT 8 14 97 21 95 26 80 55 48 66
REMARK Flexibility Score: inf
ROOT
ATOM      1  C   UNL A   1      34.373  32.267  27.961  1.00  0.00     0.188 C 
ENDROOT
BRANCH   1   2
ATOM      2  C   UNL A   1      33.472  31.095  27.505  1.00  0.00     0.188 C 
BRANCH   2   3
ATOM      3  O   UNL A   1      34.025  29.827  27.209  1.00  0.00    -0.376 OA
BRANCH   3   4
ATOM      4  C   UNL A   1      33.992  29.325  25.884  1.00  0.00     0.202 C 
BRANCH   4   5
ATOM      5  C   UNL A   1      32.745  28.636  25.311  1.00  0.00     0.261 C 
BRANCH   5   6
ATOM      6  O   UNL A   1      32.705  27.207  25.469  1.00  0.00    -0.459 OA
BRANCH   6   7
ATOM      7  C   UNL A   1      31.955  26.738  26.495  1.00  0.00     0.356 C 
ATOM      8  O   UNL A   1      31.594  27.416  27.453  1.00  0.00    -0.244 OA
BRANCH   7   9
ATOM      9  C   UNL A   1      31.456  25.404  26.263  1.00  0.00     0.147 A 
ATOM     10  C   UNL A   1      30.859  24.662  25.236  1.00  0.00     0.013 A 
ATOM     11  C   UNL A   1      30.708  23.368  25.825  1.00  0.00     0.140 A 
ATOM     12  N   UNL A   1      31.120  23.300  27.084  1.00  0.00    -0.183 NA
ATOM     13  N   UNL A   1      31.563  24.534  27.324  1.00  0.00    -0.271 N 
ATOM     14  H   UNL A   1      31.939  24.803  28.192  1.00  0.00     0.190 HD
BRANCH  10  15
ATOM     15  C   UNL A   1      30.495  24.908  23.776  1.00  0.00     0.069 C 
ATOM     16  O   UNL A   1      29.333  28.399  22.997  1.00  0.00    -0.275 OA
ATOM     17  C   UNL A   1      29.986  27.356  22.933  1.00  0.00     0.226 C 
ATOM     18  C   UNL A   1      29.489  26.077  23.595  1.00  0.00     0.114 C 
ATOM     19  N   UNL A   1      31.105  27.305  22.144  1.00  0.00    -0.311 N 
ATOM     20  C   UNL A   1      31.869  26.175  22.125  1.00  0.00     0.132 A 
ATOM     21  H   UNL A   1      31.356  28.080  21.594  1.00  0.00     0.171 HD
ATOM     22  C   UNL A   1      31.619  25.025  22.819  1.00  0.00     0.031 A 
ATOM     23  N   UNL A   1      33.064  26.009  21.501  1.00  0.00    -0.262 N 
ATOM     24  C   UNL A   1      32.662  24.149  22.434  1.00  0.00     0.108 A 
ATOM     25  N   UNL A   1      33.582  24.774  21.680  1.00  0.00    -0.173 NA
ATOM     26  H   UNL A   1      33.507  26.713  20.975  1.00  0.00     0.192 HD
BRANCH  24  27
ATOM     27  C   UNL A   1      32.824  22.746  22.921  1.00  0.00     0.055 A 
ATOM     28  C   UNL A   1      33.714  22.371  23.903  1.00  0.00     0.022 A 
ATOM     29  S   UNL A   1      31.851  21.441  22.405  1.00  0.00    -0.142 S 
ATOM     30  C   UNL A   1      33.492  21.028  24.330  1.00  0.00     0.012 A 
ATOM     31  C   UNL A   1      32.546  20.391  23.559  1.00  0.00     0.065 A 
ENDBRANCH  24  27
ENDBRANCH  10  15
ENDBRANCH   7   9
ENDBRANCH   6   7
ENDBRANCH   5   6
ENDBRANCH   4   5
ENDBRANCH   3   4
ENDBRANCH   2   3
ENDBRANCH   1   2
BRANCH   1  32
ATOM     32  O   UNL A   1      34.351  32.673  29.311  1.00  0.00    -0.376 OA
BRANCH  32  33
ATOM     33  C   UNL A   1      35.295  32.289  30.295  1.00  0.00     0.202 C 
BRANCH  33  34
ATOM     34  C   UNL A   1      36.716  31.821  30.051  1.00  0.00     0.261 C 
BRANCH  34  35
ATOM     35  O   UNL A   1      36.808  30.671  29.261  1.00  0.00    -0.460 OA
BRANCH  35  36
ATOM     36  C   UNL A   1      36.904  29.540  29.987  1.00  0.00     0.338 C 
ATOM     37  O   UNL A   1      36.379  29.296  31.059  1.00  0.00    -0.246 OA
BRANCH  36  38
ATOM     38  C   UNL A   1      37.827  28.656  29.292  1.00  0.00     0.060 A 
ATOM     39  C   UNL A   1      38.429  27.670  30.070  1.00  0.00     0.016 A 
ATOM     40  C   UNL A   1      38.339  29.094  28.062  1.00  0.00     0.016 A 
ATOM     41  C   UNL A   1      39.719  27.341  29.757  1.00  0.00     0.010 A 
ATOM     42  C   UNL A   1      39.635  28.790  27.771  1.00  0.00     0.010 A 
ATOM     43  C   UNL A   1      40.327  28.009  28.686  1.00  0.00    -0.014 A 
BRANCH  43  44
ATOM     44  C   UNL A   1      41.733  27.804  28.484  1.00  0.00     0.031 A 
ATOM     45  C   UNL A   1      41.998  26.469  27.932  1.00  0.00     0.074 A 
ATOM     46  C   UNL A   1      42.638  28.768  28.725  1.00  0.00     0.049 A 
ATOM     47  N   UNL A   1      42.420  25.441  28.587  1.00  0.00    -0.248 NA
ATOM     48  C   UNL A   1      41.490  26.168  26.585  1.00  0.00     0.031 C 
ATOM     49  C   UNL A   1      42.413  30.191  28.997  1.00  0.00     0.029 A 
ATOM     50  N   UNL A   1      43.987  28.681  28.642  1.00  0.00    -0.354 N 
ATOM     51  C   UNL A   1      42.499  24.435  27.637  1.00  0.00     0.074 A 
ATOM     52  C   UNL A   1      41.676  24.849  26.533  1.00  0.00     0.031 C 
ATOM     53  C   UNL A   1      43.571  30.864  28.796  1.00  0.00     0.029 A 
ATOM     54  C   UNL A   1      44.630  29.906  28.519  1.00  0.00     0.049 A 
ATOM     55  H   UNL A   1      44.470  27.824  28.665  1.00  0.00     0.167 HD
ATOM     56  C   UNL A   1      43.497  23.515  27.697  1.00  0.00     0.034 A 
ATOM     57  C   UNL A   1      45.914  30.085  28.123  1.00  0.00     0.034 A 
ATOM     58  C   UNL A   1      44.138  23.521  28.989  1.00  0.00     0.049 A 
ATOM     59  C   UNL A   1      46.616  28.793  28.327  1.00  0.00     0.074 A 
ATOM     60  C   UNL A   1      43.717  23.325  30.288  1.00  0.00     0.029 A 
ATOM     61  N   UNL A   1      45.341  24.183  29.070  1.00  0.00    -0.354 N 
ATOM     62  N   UNL A   1      46.839  28.275  29.502  1.00  0.00    -0.248 NA
ATOM     63  C   UNL A   1      46.658  27.857  27.214  1.00  0.00     0.031 C 
ATOM     64  C   UNL A   1      44.458  24.262  31.065  1.00  0.00     0.029 A 
ATOM     65  C   UNL A   1      45.342  24.933  30.216  1.00  0.00     0.049 A 
ATOM     66  H   UNL A   1      46.076  24.125  28.418  1.00  0.00     0.167 HD
ATOM     67  C   UNL A   1      46.573  26.920  29.337  1.00  0.00     0.074 A 
ATOM     68  C   UNL A   1      46.579  26.706  27.891  1.00  0.00     0.031 C 
ATOM     69  C   UNL A   1      46.075  26.172  30.366  1.00  0.00     0.034 A 
BRANCH  56  70
ATOM     70  C   UNL A   1      44.163  22.920  26.484  1.00  0.00     0.023 A 
ATOM     71  C   UNL A   1      44.760  23.823  25.579  1.00  0.00     0.012 A 
ATOM     72  C   UNL A   1      44.003  21.584  26.049  1.00  0.00     0.148 A 
ATOM     73  C   UNL A   1      45.137  23.423  24.294  1.00  0.00     0.002 A 
ATOM     74  C   UNL A   1      44.459  21.171  24.805  1.00  0.00     0.091 A 
ATOM     75  F   UNL A   1      43.280  20.721  26.768  1.00  0.00    -0.205 F 
ATOM     76  C   UNL A   1      44.996  22.094  23.909  1.00  0.00     0.022 A 
BRANCH  74  77
ATOM     77  S   UNL A   1      44.345  19.455  24.283  1.00  0.00     0.127 S 
ATOM     78  O   UNL A   1      43.041  19.073  24.816  1.00  0.00    -0.237 OA
ATOM     79  O   UNL A   1      44.408  19.586  22.826  1.00  0.00    -0.237 OA
ATOM     80  O   UNL A   1      45.497  18.785  24.871  1.00  0.00    -0.744 OA
ENDBRANCH  74  77
ENDBRANCH  56  70
BRANCH  57  81
ATOM     81  C   UNL A   1      46.508  31.166  27.302  1.00  0.00     0.023 A 
ATOM     82  C   UNL A   1      45.678  32.188  26.797  1.00  0.00     0.012 A 
ATOM     83  C   UNL A   1      47.906  31.367  27.266  1.00  0.00     0.148 A 
ATOM     84  C   UNL A   1      46.218  33.385  26.310  1.00  0.00     0.002 A 
ATOM     85  C   UNL A   1      48.440  32.556  26.777  1.00  0.00     0.091 A 
ATOM     86  F   UNL A   1      48.707  30.434  27.797  1.00  0.00    -0.205 F 
ATOM     87  C   UNL A   1      47.597  33.574  26.310  1.00  0.00     0.022 A 
BRANCH  85  88
ATOM     88  S   UNL A   1      50.207  32.889  26.777  1.00  0.00     0.127 S 
ATOM     89  O   UNL A   1      50.246  34.320  26.477  1.00  0.00    -0.237 OA
ATOM     90  O   UNL A   1      50.581  32.539  28.145  1.00  0.00    -0.237 OA
ATOM     91  O   UNL A   1      50.774  32.043  25.733  1.00  0.00    -0.744 OA
ENDBRANCH  85  88
ENDBRANCH  57  81
BRANCH  69  92
ATOM     92  C   UNL A   1      46.084  26.779  31.748  1.00  0.00     0.023 A 
ATOM     93  C   UNL A   1      47.225  26.772  32.580  1.00  0.00     0.012 A 
ATOM     94  C   UNL A   1      44.959  27.517  32.148  1.00  0.00     0.148 A 
ATOM     95  C   UNL A   1      47.229  27.468  33.793  1.00  0.00     0.002 A 
ATOM     96  C   UNL A   1      44.983  28.245  33.330  1.00  0.00     0.091 A 
ATOM     97  F   UNL A   1      43.884  27.515  31.343  1.00  0.00    -0.205 F 
ATOM     98  C   UNL A   1      46.113  28.215  34.162  1.00  0.00     0.022 A 
BRANCH  96  99
ATOM     99  S   UNL A   1      43.624  29.321  33.791  1.00  0.00     0.127 S 
ATOM    100  O   UNL A   1      44.294  30.317  34.625  1.00  0.00    -0.237 OA
ATOM    101  O   UNL A   1      43.162  29.819  32.494  1.00  0.00    -0.237 OA
ATOM    102  O   UNL A   1      42.659  28.474  34.479  1.00  0.00    -0.744 OA
ENDBRANCH  96  99
ENDBRANCH  69  92
ENDBRANCH  43  44
ENDBRANCH  36  38
ENDBRANCH  35  36
ENDBRANCH  34  35
ENDBRANCH  33  34
ENDBRANCH  32  33
ENDBRANCH   1  32
TORSDOF 22
ENDMDL
