MODEL 1
REMARK VINA RESULT:     -10.7      0.000      0.000
REMARK SMILES C[C@H](NC(=O)N1CC[C@@H](C(=O)OCCOCCOCCOC(=O)c2ccc(-c3c4nc(c(-c5cccc(S(=O)(=O)[O-])c5F)c5ccc([nH]5)c(-c5cccc(S(=O)(=O)[O-])c5F)c5nc(c(-c6cccc(S(=O)(=O)[O-])c6F)c6ccc3[nH]6)C=C5)C=C4)cc2)[C@@H]1C)c1cccc(Cl)c1
REMARK SMILES IDX 16 1 15 2 14 3 13 4 12 5 10 6 11 7 9 8 6 9 7 10 87 11 8 12
REMARK SMILES IDX 88 13 4 14 3 15 5 17 2 18 1 19 89 20 90 21 95 22 91 23 93 24
REMARK SMILES IDX 92 25 94 26 17 27 18 28 19 29 20 30 21 31 22 32 23 33 24 34
REMARK SMILES IDX 25 35 86 36 26 37 85 38 27 39 28 40 29 41 79 42 30 43 84 44
REMARK SMILES IDX 78 45 80 46 31 47 83 48 77 49 76 50 32 52 64 53 44 54 63 55
REMARK SMILES IDX 45 56 48 57 62 58 81 59 46 60 47 61 61 63 82 64 49 65 33 66
REMARK SMILES IDX 34 67 42 68 35 69 37 70 43 71 36 72 38 73 39 74 40 75 41 76
REMARK SMILES IDX 65 77 66 78 74 79 67 80 69 81 75 82 68 83 70 84 71 85 72 86
REMARK SMILES IDX 73 87 50 88 51 89 59 90 52 91 54 92 60 93 53 94 55 95 56 96
REMARK SMILES IDX 57 97 58 98
REMARK H PARENT 3 16 80 51 48 62
REMARK Flexibility Score: inf
ROOT
ATOM      1  C   UNL A   1      29.512  31.941  24.533  1.00  0.00     0.188 C 
ENDROOT
BRANCH   1   2
ATOM      2  O   UNL A   1      28.856  31.802  23.283  1.00  0.00    -0.376 OA
BRANCH   2   3
ATOM      3  C   UNL A   1      27.663  31.027  23.246  1.00  0.00     0.202 C 
BRANCH   3   4
ATOM      4  C   UNL A   1      27.715  29.652  22.563  1.00  0.00     0.261 C 
BRANCH   4   5
ATOM      5  O   UNL A   1      28.582  28.669  23.172  1.00  0.00    -0.463 OA
BRANCH   5   6
ATOM      6  C   UNL A   1      29.790  28.519  22.567  1.00  0.00     0.311 C 
ATOM      7  O   UNL A   1      30.177  29.207  21.626  1.00  0.00    -0.252 OA
BRANCH   6   8
ATOM      8  C   UNL A   1      30.668  27.411  23.121  1.00  0.00     0.123 C 
ATOM      9  N   UNL A   1      32.148  26.057  21.833  1.00  0.00    -0.321 N 
ATOM     10  C   UNL A   1      32.988  26.838  22.717  1.00  0.00     0.122 C 
ATOM     11  C   UNL A   1      30.778  26.078  22.353  1.00  0.00     0.098 C 
ATOM     12  C   UNL A   1      32.099  27.971  23.166  1.00  0.00     0.039 C 
ATOM     13  C   UNL A   1      30.563  24.889  23.313  1.00  0.00     0.032 C 
BRANCH   9  14
ATOM     14  C   UNL A   1      32.753  25.102  21.085  1.00  0.00     0.318 C 
ATOM     15  N   UNL A   1      33.172  23.929  21.568  1.00  0.00    -0.331 N 
ATOM     16  H   UNL A   1      33.839  23.531  20.963  1.00  0.00     0.165 HD
ATOM     17  O   UNL A   1      32.907  25.255  19.868  1.00  0.00    -0.249 OA
BRANCH  15  18
ATOM     18  C   UNL A   1      32.946  23.059  22.713  1.00  0.00     0.111 C 
ATOM     19  C   UNL A   1      32.438  21.655  22.446  1.00  0.00     0.036 C 
BRANCH  18  20
ATOM     20  C   UNL A   1      34.050  23.052  23.756  1.00  0.00    -0.024 A 
ATOM     21  C   UNL A   1      35.403  22.978  23.397  1.00  0.00     0.006 A 
ATOM     22  C   UNL A   1      33.715  22.962  25.120  1.00  0.00     0.026 A 
ATOM     23  C   UNL A   1      36.390  22.753  24.361  1.00  0.00     0.002 A 
ATOM     24  C   UNL A   1      34.704  22.739  26.079  1.00  0.00     0.041 A 
ATOM     25  C   UNL A   1      36.038  22.619  25.703  1.00  0.00     0.020 A 
ATOM     26  Cl  UNL A   1      34.263  22.561  27.734  1.00  0.00    -0.084 Cl
ENDBRANCH  18  20
ENDBRANCH  15  18
ENDBRANCH   9  14
ENDBRANCH   6   8
ENDBRANCH   5   6
ENDBRANCH   4   5
ENDBRANCH   3   4
ENDBRANCH   2   3
ENDBRANCH   1   2
BRANCH   1  27
ATOM     27  C   UNL A   1      30.643  30.954  24.849  1.00  0.00     0.188 C 
BRANCH  27  28
ATOM     28  O   UNL A   1      31.020  30.883  26.214  1.00  0.00    -0.376 OA
BRANCH  28  29
ATOM     29  C   UNL A   1      32.195  31.582  26.617  1.00  0.00     0.202 C 
BRANCH  29  30
ATOM     30  C   UNL A   1      32.060  33.090  26.887  1.00  0.00     0.261 C 
BRANCH  30  31
ATOM     31  O   UNL A   1      32.557  33.552  28.159  1.00  0.00    -0.460 OA
BRANCH  31  32
ATOM     32  C   UNL A   1      33.670  34.322  28.179  1.00  0.00     0.338 C 
ATOM     33  O   UNL A   1      33.717  35.539  28.097  1.00  0.00    -0.246 OA
BRANCH  32  34
ATOM     34  C   UNL A   1      34.808  33.464  28.608  1.00  0.00     0.060 A 
ATOM     35  C   UNL A   1      34.521  32.238  29.226  1.00  0.00     0.016 A 
ATOM     36  C   UNL A   1      36.133  33.807  28.320  1.00  0.00     0.016 A 
ATOM     37  C   UNL A   1      35.558  31.374  29.593  1.00  0.00     0.010 A 
ATOM     38  C   UNL A   1      37.168  32.946  28.693  1.00  0.00     0.010 A 
ATOM     39  C   UNL A   1      36.890  31.743  29.366  1.00  0.00    -0.014 A 
BRANCH  39  40
ATOM     40  C   UNL A   1      37.994  31.000  30.024  1.00  0.00     0.031 A 
ATOM     41  C   UNL A   1      38.328  31.356  31.448  1.00  0.00     0.074 A 
ATOM     42  C   UNL A   1      38.695  30.042  29.390  1.00  0.00     0.049 A 
ATOM     43  N   UNL A   1      39.281  30.901  32.219  1.00  0.00    -0.248 NA
ATOM     44  C   UNL A   1      37.473  32.372  32.084  1.00  0.00     0.031 C 
ATOM     45  C   UNL A   1      38.468  29.588  28.019  1.00  0.00     0.029 A 
ATOM     46  N   UNL A   1      39.765  29.295  29.819  1.00  0.00    -0.354 N 
ATOM     47  C   UNL A   1      39.160  31.597  33.416  1.00  0.00     0.074 A 
ATOM     48  C   UNL A   1      38.055  32.516  33.264  1.00  0.00     0.031 C 
ATOM     49  C   UNL A   1      39.387  28.654  27.713  1.00  0.00     0.029 A 
ATOM     50  C   UNL A   1      40.285  28.467  28.852  1.00  0.00     0.049 A 
ATOM     51  H   UNL A   1      40.126  29.347  30.734  1.00  0.00     0.167 HD
ATOM     52  C   UNL A   1      39.892  31.476  34.549  1.00  0.00     0.034 A 
ATOM     53  C   UNL A   1      41.374  27.669  28.877  1.00  0.00     0.034 A 
ATOM     54  C   UNL A   1      40.984  30.557  34.709  1.00  0.00     0.049 A 
ATOM     55  C   UNL A   1      42.202  27.582  30.136  1.00  0.00     0.074 A 
ATOM     56  C   UNL A   1      41.765  30.336  35.829  1.00  0.00     0.029 A 
ATOM     57  N   UNL A   1      41.463  29.718  33.715  1.00  0.00    -0.354 N 
ATOM     58  N   UNL A   1      42.016  28.172  31.293  1.00  0.00    -0.248 NA
ATOM     59  C   UNL A   1      43.376  26.696  30.101  1.00  0.00     0.031 C 
ATOM     60  C   UNL A   1      42.739  29.387  35.502  1.00  0.00     0.029 A 
ATOM     61  C   UNL A   1      42.538  28.986  34.191  1.00  0.00     0.049 A 
ATOM     62  H   UNL A   1      41.095  29.651  32.805  1.00  0.00     0.167 HD
ATOM     63  C   UNL A   1      43.022  27.698  32.131  1.00  0.00     0.074 A 
ATOM     64  C   UNL A   1      43.804  26.760  31.355  1.00  0.00     0.031 C 
ATOM     65  C   UNL A   1      43.280  28.017  33.425  1.00  0.00     0.034 A 
BRANCH  52  66
ATOM     66  C   UNL A   1      39.521  32.364  35.707  1.00  0.00     0.023 A 
ATOM     67  C   UNL A   1      38.650  31.886  36.708  1.00  0.00     0.012 A 
ATOM     68  C   UNL A   1      40.050  33.665  35.814  1.00  0.00     0.148 A 
ATOM     69  C   UNL A   1      38.278  32.703  37.774  1.00  0.00     0.002 A 
ATOM     70  C   UNL A   1      39.713  34.455  36.906  1.00  0.00     0.091 A 
ATOM     71  F   UNL A   1      40.854  34.111  34.839  1.00  0.00    -0.205 F 
ATOM     72  C   UNL A   1      38.816  33.983  37.878  1.00  0.00     0.022 A 
BRANCH  70  73
ATOM     73  S   UNL A   1      40.415  36.088  37.170  1.00  0.00     0.127 S 
ATOM     74  O   UNL A   1      41.847  35.796  37.162  1.00  0.00    -0.237 OA
ATOM     75  O   UNL A   1      39.935  36.820  35.997  1.00  0.00    -0.237 OA
ATOM     76  O   UNL A   1      39.878  36.554  38.440  1.00  0.00    -0.744 OA
ENDBRANCH  70  73
ENDBRANCH  52  66
BRANCH  53  77
ATOM     77  C   UNL A   1      41.737  26.860  27.678  1.00  0.00     0.023 A 
ATOM     78  C   UNL A   1      42.308  27.496  26.558  1.00  0.00     0.012 A 
ATOM     79  C   UNL A   1      41.521  25.469  27.640  1.00  0.00     0.148 A 
ATOM     80  C   UNL A   1      42.630  26.767  25.411  1.00  0.00     0.002 A 
ATOM     81  C   UNL A   1      41.895  24.740  26.517  1.00  0.00     0.091 A 
ATOM     82  F   UNL A   1      40.960  24.886  28.708  1.00  0.00    -0.205 F 
ATOM     83  C   UNL A   1      42.434  25.389  25.394  1.00  0.00     0.022 A 
BRANCH  81  84
ATOM     84  S   UNL A   1      41.787  22.948  26.445  1.00  0.00     0.127 S 
ATOM     85  O   UNL A   1      40.344  22.732  26.504  1.00  0.00    -0.237 OA
ATOM     86  O   UNL A   1      42.402  22.665  25.148  1.00  0.00    -0.237 OA
ATOM     87  O   UNL A   1      42.542  22.462  27.593  1.00  0.00    -0.744 OA
ENDBRANCH  81  84
ENDBRANCH  53  77
BRANCH  65  88
ATOM     88  C   UNL A   1      44.425  27.315  34.111  1.00  0.00     0.023 A 
ATOM     89  C   UNL A   1      45.727  27.853  34.045  1.00  0.00     0.012 A 
ATOM     90  C   UNL A   1      44.195  26.161  34.888  1.00  0.00     0.148 A 
ATOM     91  C   UNL A   1      46.785  27.233  34.710  1.00  0.00     0.002 A 
ATOM     92  C   UNL A   1      45.244  25.579  35.590  1.00  0.00     0.091 A 
ATOM     93  F   UNL A   1      42.953  25.655  34.928  1.00  0.00    -0.205 F 
ATOM     94  C   UNL A   1      46.542  26.104  35.490  1.00  0.00     0.022 A 
BRANCH  92  95
ATOM     95  S   UNL A   1      45.007  24.186  36.699  1.00  0.00     0.127 S 
ATOM     96  O   UNL A   1      44.125  24.759  37.714  1.00  0.00    -0.237 OA
ATOM     97  O   UNL A   1      44.371  23.198  35.826  1.00  0.00    -0.237 OA
ATOM     98  O   UNL A   1      46.335  23.812  37.166  1.00  0.00    -0.744 OA
ENDBRANCH  92  95
ENDBRANCH  65  88
ENDBRANCH  39  40
ENDBRANCH  32  34
ENDBRANCH  31  32
ENDBRANCH  30  31
ENDBRANCH  29  30
ENDBRANCH  28  29
ENDBRANCH  27  28
ENDBRANCH   1  27
TORSDOF 23
ENDMDL
MODEL 2
REMARK VINA RESULT:     -10.6      2.311      3.231
REMARK SMILES C[C@H](NC(=O)N1CC[C@@H](C(=O)OCCOCCOCCOC(=O)c2ccc(-c3c4nc(c(-c5cccc(S(=O)(=O)[O-])c5F)c5ccc([nH]5)c(-c5cccc(S(=O)(=O)[O-])c5F)c5nc(c(-c6cccc(S(=O)(=O)[O-])c6F)c6ccc3[nH]6)C=C5)C=C4)cc2)[C@@H]1C)c1cccc(Cl)c1
REMARK SMILES IDX 16 1 15 2 14 3 13 4 12 5 10 6 11 7 9 8 6 9 7 10 87 11 8 12
REMARK SMILES IDX 88 13 4 14 3 15 5 17 2 18 1 19 89 20 90 21 95 22 91 23 93 24
REMARK SMILES IDX 92 25 94 26 17 27 18 28 19 29 20 30 21 31 22 32 23 33 24 34
REMARK SMILES IDX 25 35 86 36 26 37 85 38 27 39 28 40 29 41 79 42 30 43 84 44
REMARK SMILES IDX 78 45 80 46 31 47 83 48 77 49 76 50 32 52 64 53 44 54 63 55
REMARK SMILES IDX 45 56 48 57 62 58 81 59 46 60 47 61 61 63 82 64 49 65 33 66
REMARK SMILES IDX 34 67 42 68 35 69 37 70 43 71 36 72 38 73 39 74 40 75 41 76
REMARK SMILES IDX 65 77 66 78 74 79 67 80 69 81 75 82 68 83 70 84 71 85 72 86
REMARK SMILES IDX 73 87 50 88 51 89 59 90 52 91 54 92 60 93 53 94 55 95 56 96
REMARK SMILES IDX 57 97 58 98
REMARK H PARENT 3 16 80 51 48 62
REMARK Flexibility Score: inf
ROOT
ATOM      1  C   UNL A   1      30.339  29.339  23.623  1.00  0.00     0.188 C 
ENDROOT
BRANCH   1   2
ATOM      2  O   UNL A   1      30.949  28.731  22.495  1.00  0.00    -0.376 OA
BRANCH   2   3
ATOM      3  C   UNL A   1      30.855  27.315  22.376  1.00  0.00     0.202 C 
BRANCH   3   4
ATOM      4  C   UNL A   1      30.194  26.536  23.523  1.00  0.00     0.261 C 
BRANCH   4   5
ATOM      5  O   UNL A   1      30.233  25.095  23.423  1.00  0.00    -0.463 OA
BRANCH   5   6
ATOM      6  C   UNL A   1      31.199  24.495  24.166  1.00  0.00     0.311 C 
ATOM      7  O   UNL A   1      31.989  25.101  24.885  1.00  0.00    -0.252 OA
BRANCH   6   8
ATOM      8  C   UNL A   1      31.269  22.983  24.053  1.00  0.00     0.123 C 
ATOM      9  N   UNL A   1      33.167  21.649  24.603  1.00  0.00    -0.321 N 
ATOM     10  C   UNL A   1      32.139  21.292  25.556  1.00  0.00     0.122 C 
ATOM     11  C   UNL A   1      32.535  22.326  23.466  1.00  0.00     0.098 C 
ATOM     12  C   UNL A   1      31.155  22.432  25.484  1.00  0.00     0.039 C 
ATOM     13  C   UNL A   1      32.150  21.291  22.388  1.00  0.00     0.032 C 
BRANCH   9  14
ATOM     14  C   UNL A   1      34.312  20.924  24.623  1.00  0.00     0.318 C 
ATOM     15  N   UNL A   1      35.536  21.460  24.591  1.00  0.00    -0.331 N 
ATOM     16  H   UNL A   1      36.194  20.786  24.304  1.00  0.00     0.165 HD
ATOM     17  O   UNL A   1      34.280  19.693  24.726  1.00  0.00    -0.249 OA
BRANCH  15  18
ATOM     18  C   UNL A   1      36.195  22.731  24.849  1.00  0.00     0.111 C 
ATOM     19  C   UNL A   1      35.387  23.825  25.524  1.00  0.00     0.036 C 
BRANCH  18  20
ATOM     20  C   UNL A   1      37.589  22.637  25.444  1.00  0.00    -0.024 A 
ATOM     21  C   UNL A   1      38.341  21.455  25.373  1.00  0.00     0.006 A 
ATOM     22  C   UNL A   1      38.087  23.700  26.218  1.00  0.00     0.026 A 
ATOM     23  C   UNL A   1      39.522  21.312  26.107  1.00  0.00     0.002 A 
ATOM     24  C   UNL A   1      39.268  23.553  26.947  1.00  0.00     0.041 A 
ATOM     25  C   UNL A   1      39.978  22.357  26.907  1.00  0.00     0.020 A 
ATOM     26  Cl  UNL A   1      39.820  24.843  27.946  1.00  0.00    -0.084 Cl
ENDBRANCH  18  20
ENDBRANCH  15  18
ENDBRANCH   9  14
ENDBRANCH   6   8
ENDBRANCH   5   6
ENDBRANCH   4   5
ENDBRANCH   3   4
ENDBRANCH   2   3
ENDBRANCH   1   2
BRANCH   1  27
ATOM     27  C   UNL A   1      31.259  29.786  24.765  1.00  0.00     0.188 C 
BRANCH  27  28
ATOM     28  O   UNL A   1      31.685  28.754  25.638  1.00  0.00    -0.376 OA
BRANCH  28  29
ATOM     29  C   UNL A   1      32.104  29.121  26.950  1.00  0.00     0.202 C 
BRANCH  29  30
ATOM     30  C   UNL A   1      32.358  30.615  27.215  1.00  0.00     0.261 C 
BRANCH  30  31
ATOM     31  O   UNL A   1      33.688  31.092  26.929  1.00  0.00    -0.460 OA
BRANCH  31  32
ATOM     32  C   UNL A   1      34.203  32.077  27.701  1.00  0.00     0.338 C 
ATOM     33  O   UNL A   1      33.649  33.117  28.023  1.00  0.00    -0.246 OA
BRANCH  32  34
ATOM     34  C   UNL A   1      35.445  31.557  28.333  1.00  0.00     0.060 A 
ATOM     35  C   UNL A   1      35.504  30.196  28.666  1.00  0.00     0.016 A 
ATOM     36  C   UNL A   1      36.573  32.365  28.505  1.00  0.00     0.016 A 
ATOM     37  C   UNL A   1      36.672  29.651  29.207  1.00  0.00     0.010 A 
ATOM     38  C   UNL A   1      37.739  31.822  29.052  1.00  0.00     0.010 A 
ATOM     39  C   UNL A   1      37.783  30.471  29.443  1.00  0.00    -0.014 A 
BRANCH  39  40
ATOM     40  C   UNL A   1      38.899  29.992  30.296  1.00  0.00     0.031 A 
ATOM     41  C   UNL A   1      39.020  30.567  31.682  1.00  0.00     0.074 A 
ATOM     42  C   UNL A   1      39.793  29.082  29.867  1.00  0.00     0.049 A 
ATOM     43  N   UNL A   1      39.934  30.361  32.593  1.00  0.00    -0.248 NA
ATOM     44  C   UNL A   1      37.965  31.511  32.090  1.00  0.00     0.031 C 
ATOM     45  C   UNL A   1      39.785  28.434  28.557  1.00  0.00     0.029 A 
ATOM     46  N   UNL A   1      40.902  28.565  30.492  1.00  0.00    -0.354 N 
ATOM     47  C   UNL A   1      39.585  31.171  33.667  1.00  0.00     0.074 A 
ATOM     48  C   UNL A   1      38.387  31.886  33.288  1.00  0.00     0.031 C 
ATOM     49  C   UNL A   1      40.854  27.621  28.469  1.00  0.00     0.029 A 
ATOM     50  C   UNL A   1      41.636  27.714  29.700  1.00  0.00     0.049 A 
ATOM     51  H   UNL A   1      41.148  28.784  31.421  1.00  0.00     0.167 HD
ATOM     52  C   UNL A   1      40.195  31.304  34.868  1.00  0.00     0.034 A 
ATOM     53  C   UNL A   1      42.816  27.101  29.936  1.00  0.00     0.034 A 
ATOM     54  C   UNL A   1      41.380  30.589  35.253  1.00  0.00     0.049 A 
ATOM     55  C   UNL A   1      43.502  27.297  31.266  1.00  0.00     0.074 A 
ATOM     56  C   UNL A   1      42.054  30.629  36.461  1.00  0.00     0.029 A 
ATOM     57  N   UNL A   1      42.079  29.717  34.433  1.00  0.00    -0.354 N 
ATOM     58  N   UNL A   1      43.109  27.988  32.309  1.00  0.00    -0.248 NA
ATOM     59  C   UNL A   1      44.785  26.602  31.461  1.00  0.00     0.031 C 
ATOM     60  C   UNL A   1      43.181  29.806  36.359  1.00  0.00     0.029 A 
ATOM     61  C   UNL A   1      43.185  29.222  35.102  1.00  0.00     0.049 A 
ATOM     62  H   UNL A   1      41.827  29.484  33.511  1.00  0.00     0.167 HD
ATOM     63  C   UNL A   1      44.071  27.780  33.293  1.00  0.00     0.074 A 
ATOM     64  C   UNL A   1      45.057  26.884  32.729  1.00  0.00     0.031 C 
ATOM     65  C   UNL A   1      44.136  28.291  34.549  1.00  0.00     0.034 A 
BRANCH  52  66
ATOM     66  C   UNL A   1      39.578  32.260  35.853  1.00  0.00     0.023 A 
ATOM     67  C   UNL A   1      38.539  31.822  36.702  1.00  0.00     0.012 A 
ATOM     68  C   UNL A   1      40.038  33.587  35.954  1.00  0.00     0.148 A 
ATOM     69  C   UNL A   1      37.940  32.700  37.603  1.00  0.00     0.002 A 
ATOM     70  C   UNL A   1      39.469  34.443  36.889  1.00  0.00     0.091 A 
ATOM     71  F   UNL A   1      41.007  33.993  35.121  1.00  0.00    -0.205 F 
ATOM     72  C   UNL A   1      38.411  34.006  37.703  1.00  0.00     0.022 A 
BRANCH  70  73
ATOM     73  S   UNL A   1      40.059  36.119  37.149  1.00  0.00     0.127 S 
ATOM     74  O   UNL A   1      39.712  36.753  35.878  1.00  0.00    -0.237 OA
ATOM     75  O   UNL A   1      39.251  36.555  38.288  1.00  0.00    -0.237 OA
ATOM     76  O   UNL A   1      41.484  36.005  37.422  1.00  0.00    -0.744 OA
ENDBRANCH  70  73
ENDBRANCH  52  66
BRANCH  53  77
ATOM     77  C   UNL A   1      43.420  26.216  28.899  1.00  0.00     0.023 A 
ATOM     78  C   UNL A   1      43.174  24.829  28.940  1.00  0.00     0.012 A 
ATOM     79  C   UNL A   1      44.236  26.737  27.876  1.00  0.00     0.148 A 
ATOM     80  C   UNL A   1      43.751  23.974  27.998  1.00  0.00     0.002 A 
ATOM     81  C   UNL A   1      44.763  25.888  26.910  1.00  0.00     0.091 A 
ATOM     82  F   UNL A   1      44.474  28.056  27.866  1.00  0.00    -0.205 F 
ATOM     83  C   UNL A   1      44.536  24.504  26.978  1.00  0.00     0.022 A 
BRANCH  81  84
ATOM     84  S   UNL A   1      45.691  26.489  25.493  1.00  0.00     0.127 S 
ATOM     85  O   UNL A   1      45.702  25.316  24.623  1.00  0.00    -0.237 OA
ATOM     86  O   UNL A   1      44.848  27.592  25.032  1.00  0.00    -0.237 OA
ATOM     87  O   UNL A   1      46.989  26.896  26.015  1.00  0.00    -0.744 OA
ENDBRANCH  81  84
ENDBRANCH  53  77
BRANCH  65  88
ATOM     88  C   UNL A   1      45.284  27.862  35.428  1.00  0.00     0.023 A 
ATOM     89  C   UNL A   1      46.440  28.663  35.525  1.00  0.00     0.012 A 
ATOM     90  C   UNL A   1      45.183  26.699  36.219  1.00  0.00     0.148 A 
ATOM     91  C   UNL A   1      47.490  28.294  36.366  1.00  0.00     0.002 A 
ATOM     92  C   UNL A   1      46.211  26.366  37.094  1.00  0.00     0.091 A 
ATOM     93  F   UNL A   1      44.083  25.941  36.104  1.00  0.00    -0.205 F 
ATOM     94  C   UNL A   1      47.371  27.155  37.158  1.00  0.00     0.022 A 
BRANCH  92  95
ATOM     95  S   UNL A   1      46.102  24.975  38.225  1.00  0.00     0.127 S 
ATOM     96  O   UNL A   1      46.111  23.840  37.303  1.00  0.00    -0.237 OA
ATOM     97  O   UNL A   1      47.322  25.125  39.020  1.00  0.00    -0.237 OA
ATOM     98  O   UNL A   1      44.866  25.160  38.974  1.00  0.00    -0.744 OA
ENDBRANCH  92  95
ENDBRANCH  65  88
ENDBRANCH  39  40
ENDBRANCH  32  34
ENDBRANCH  31  32
ENDBRANCH  30  31
ENDBRANCH  29  30
ENDBRANCH  28  29
ENDBRANCH  27  28
ENDBRANCH   1  27
TORSDOF 23
ENDMDL
MODEL 3
REMARK VINA RESULT:     -10.6      1.668      7.890
REMARK SMILES C[C@H](NC(=O)N1CC[C@@H](C(=O)OCCOCCOCCOC(=O)c2ccc(-c3c4nc(c(-c5cccc(S(=O)(=O)[O-])c5F)c5ccc([nH]5)c(-c5cccc(S(=O)(=O)[O-])c5F)c5nc(c(-c6cccc(S(=O)(=O)[O-])c6F)c6ccc3[nH]6)C=C5)C=C4)cc2)[C@@H]1C)c1cccc(Cl)c1
REMARK SMILES IDX 16 1 15 2 14 3 13 4 12 5 10 6 11 7 9 8 6 9 7 10 87 11 8 12
REMARK SMILES IDX 88 13 4 14 3 15 5 17 2 18 1 19 89 20 90 21 95 22 91 23 93 24
REMARK SMILES IDX 92 25 94 26 17 27 18 28 19 29 20 30 21 31 22 32 23 33 24 34
REMARK SMILES IDX 25 35 86 36 26 37 85 38 27 39 28 40 29 41 79 42 30 43 84 44
REMARK SMILES IDX 78 45 80 46 31 47 83 48 77 49 76 50 32 52 64 53 44 54 63 55
REMARK SMILES IDX 45 56 48 57 62 58 81 59 46 60 47 61 61 63 82 64 49 65 33 66
REMARK SMILES IDX 34 67 42 68 35 69 37 70 43 71 36 72 38 73 39 74 40 75 41 76
REMARK SMILES IDX 65 77 66 78 74 79 67 80 69 81 75 82 68 83 70 84 71 85 72 86
REMARK SMILES IDX 73 87 50 88 51 89 59 90 52 91 54 92 60 93 53 94 55 95 56 96
REMARK SMILES IDX 57 97 58 98
REMARK H PARENT 3 16 80 51 48 62
REMARK Flexibility Score: inf
ROOT
ATOM      1  C   UNL A   1      29.720  28.467  22.630  1.00  0.00     0.188 C 
ENDROOT
BRANCH   1   2
ATOM      2  O   UNL A   1      30.868  28.255  21.823  1.00  0.00    -0.376 OA
BRANCH   2   3
ATOM      3  C   UNL A   1      31.981  29.120  22.020  1.00  0.00     0.202 C 
BRANCH   3   4
ATOM      4  C   UNL A   1      33.366  28.484  22.212  1.00  0.00     0.261 C 
BRANCH   4   5
ATOM      5  O   UNL A   1      33.471  27.076  21.898  1.00  0.00    -0.463 OA
BRANCH   5   6
ATOM      6  C   UNL A   1      33.319  26.241  22.959  1.00  0.00     0.311 C 
ATOM      7  O   UNL A   1      33.726  26.486  24.091  1.00  0.00    -0.252 OA
BRANCH   6   8
ATOM      8  C   UNL A   1      32.606  24.933  22.666  1.00  0.00     0.123 C 
ATOM      9  N   UNL A   1      31.955  23.326  24.303  1.00  0.00    -0.321 N 
ATOM     10  C   UNL A   1      30.726  23.846  23.742  1.00  0.00     0.122 C 
ATOM     11  C   UNL A   1      33.056  23.647  23.391  1.00  0.00     0.098 C 
ATOM     12  C   UNL A   1      31.138  25.135  23.077  1.00  0.00     0.039 C 
ATOM     13  C   UNL A   1      33.248  22.501  22.376  1.00  0.00     0.032 C 
BRANCH   9  14
ATOM     14  C   UNL A   1      31.852  22.291  25.171  1.00  0.00     0.318 C 
ATOM     15  N   UNL A   1      32.744  22.030  26.131  1.00  0.00    -0.331 N 
ATOM     16  H   UNL A   1      32.658  21.096  26.431  1.00  0.00     0.165 HD
ATOM     17  O   UNL A   1      30.870  21.540  25.147  1.00  0.00    -0.249 OA
BRANCH  15  18
ATOM     18  C   UNL A   1      33.802  22.701  26.871  1.00  0.00     0.111 C 
ATOM     19  C   UNL A   1      33.822  22.544  28.380  1.00  0.00     0.036 C 
BRANCH  18  20
ATOM     20  C   UNL A   1      35.198  22.561  26.288  1.00  0.00    -0.024 A 
ATOM     21  C   UNL A   1      35.957  23.681  25.919  1.00  0.00     0.006 A 
ATOM     22  C   UNL A   1      35.690  21.284  25.964  1.00  0.00     0.026 A 
ATOM     23  C   UNL A   1      37.140  23.536  25.188  1.00  0.00     0.002 A 
ATOM     24  C   UNL A   1      36.872  21.144  25.236  1.00  0.00     0.041 A 
ATOM     25  C   UNL A   1      37.591  22.265  24.834  1.00  0.00     0.020 A 
ATOM     26  Cl  UNL A   1      37.418  19.573  24.789  1.00  0.00    -0.084 Cl
ENDBRANCH  18  20
ENDBRANCH  15  18
ENDBRANCH   9  14
ENDBRANCH   6   8
ENDBRANCH   5   6
ENDBRANCH   4   5
ENDBRANCH   3   4
ENDBRANCH   2   3
ENDBRANCH   1   2
BRANCH   1  27
ATOM     27  C   UNL A   1      29.951  28.860  24.094  1.00  0.00     0.188 C 
BRANCH  27  28
ATOM     28  O   UNL A   1      30.824  28.010  24.817  1.00  0.00    -0.376 OA
BRANCH  28  29
ATOM     29  C   UNL A   1      31.518  28.563  25.933  1.00  0.00     0.202 C 
BRANCH  29  30
ATOM     30  C   UNL A   1      31.845  30.065  25.885  1.00  0.00     0.261 C 
BRANCH  30  31
ATOM     31  O   UNL A   1      33.217  30.423  26.145  1.00  0.00    -0.460 OA
BRANCH  31  32
ATOM     32  C   UNL A   1      33.471  31.425  27.019  1.00  0.00     0.338 C 
ATOM     33  O   UNL A   1      32.690  32.289  27.386  1.00  0.00    -0.246 OA
BRANCH  32  34
ATOM     34  C   UNL A   1      34.770  31.131  27.683  1.00  0.00     0.060 A 
ATOM     35  C   UNL A   1      35.093  29.792  27.950  1.00  0.00     0.016 A 
ATOM     36  C   UNL A   1      35.702  32.139  27.947  1.00  0.00     0.016 A 
ATOM     37  C   UNL A   1      36.328  29.465  28.519  1.00  0.00     0.010 A 
ATOM     38  C   UNL A   1      36.934  31.812  28.520  1.00  0.00     0.010 A 
ATOM     39  C   UNL A   1      37.239  30.478  28.846  1.00  0.00    -0.014 A 
BRANCH  39  40
ATOM     40  C   UNL A   1      38.398  30.186  29.726  1.00  0.00     0.031 A 
ATOM     41  C   UNL A   1      39.451  29.242  29.208  1.00  0.00     0.074 A 
ATOM     42  C   UNL A   1      38.525  30.725  30.952  1.00  0.00     0.049 A 
ATOM     43  N   UNL A   1      40.521  28.781  29.802  1.00  0.00    -0.248 NA
ATOM     44  C   UNL A   1      39.264  28.747  27.834  1.00  0.00     0.031 C 
ATOM     45  C   UNL A   1      37.590  31.664  31.569  1.00  0.00     0.029 A 
ATOM     46  N   UNL A   1      39.491  30.534  31.909  1.00  0.00    -0.354 N 
ATOM     47  C   UNL A   1      41.115  27.918  28.889  1.00  0.00     0.074 A 
ATOM     48  C   UNL A   1      40.278  27.905  27.710  1.00  0.00     0.031 C 
ATOM     49  C   UNL A   1      38.018  31.949  32.813  1.00  0.00     0.029 A 
ATOM     50  C   UNL A   1      39.237  31.192  33.090  1.00  0.00     0.049 A 
ATOM     51  H   UNL A   1      40.291  29.977  31.764  1.00  0.00     0.167 HD
ATOM     52  C   UNL A   1      42.261  27.207  29.010  1.00  0.00     0.034 A 
ATOM     53  C   UNL A   1      39.902  31.166  34.265  1.00  0.00     0.034 A 
ATOM     54  C   UNL A   1      43.100  27.224  30.175  1.00  0.00     0.049 A 
ATOM     55  C   UNL A   1      41.154  30.332  34.393  1.00  0.00     0.074 A 
ATOM     56  C   UNL A   1      44.299  26.565  30.380  1.00  0.00     0.029 A 
ATOM     57  N   UNL A   1      42.823  27.922  31.339  1.00  0.00    -0.354 N 
ATOM     58  N   UNL A   1      41.757  29.599  33.488  1.00  0.00    -0.248 NA
ATOM     59  C   UNL A   1      41.832  30.345  35.699  1.00  0.00     0.031 C 
ATOM     60  C   UNL A   1      44.730  26.838  31.683  1.00  0.00     0.029 A 
ATOM     61  C   UNL A   1      43.820  27.701  32.273  1.00  0.00     0.049 A 
ATOM     62  H   UNL A   1      42.033  28.492  31.482  1.00  0.00     0.167 HD
ATOM     63  C   UNL A   1      42.903  29.099  34.101  1.00  0.00     0.074 A 
ATOM     64  C   UNL A   1      42.918  29.626  35.449  1.00  0.00     0.031 C 
ATOM     65  C   UNL A   1      43.853  28.271  33.597  1.00  0.00     0.034 A 
BRANCH  52  66
ATOM     66  C   UNL A   1      42.669  26.354  27.838  1.00  0.00     0.023 A 
ATOM     67  C   UNL A   1      43.551  26.872  26.866  1.00  0.00     0.012 A 
ATOM     68  C   UNL A   1      42.197  25.034  27.710  1.00  0.00     0.148 A 
ATOM     69  C   UNL A   1      43.921  26.104  25.763  1.00  0.00     0.002 A 
ATOM     70  C   UNL A   1      42.610  24.258  26.633  1.00  0.00     0.091 A 
ATOM     71  F   UNL A   1      41.340  24.568  28.629  1.00  0.00    -0.205 F 
ATOM     72  C   UNL A   1      43.459  24.796  25.652  1.00  0.00     0.022 A 
BRANCH  70  73
ATOM     73  S   UNL A   1      42.132  22.537  26.444  1.00  0.00     0.127 S 
ATOM     74  O   UNL A   1      42.792  21.920  27.593  1.00  0.00    -0.237 OA
ATOM     75  O   UNL A   1      40.674  22.611  26.545  1.00  0.00    -0.237 OA
ATOM     76  O   UNL A   1      42.631  22.124  25.140  1.00  0.00    -0.744 OA
ENDBRANCH  70  73
ENDBRANCH  52  66
BRANCH  53  77
ATOM     77  C   UNL A   1      39.416  31.978  35.418  1.00  0.00     0.023 A 
ATOM     78  C   UNL A   1      38.489  31.418  36.320  1.00  0.00     0.012 A 
ATOM     79  C   UNL A   1      39.863  33.297  35.626  1.00  0.00     0.148 A 
ATOM     80  C   UNL A   1      37.995  32.166  37.391  1.00  0.00     0.002 A 
ATOM     81  C   UNL A   1      39.410  34.017  36.724  1.00  0.00     0.091 A 
ATOM     82  F   UNL A   1      40.729  33.817  34.746  1.00  0.00    -0.205 F 
ATOM     83  C   UNL A   1      38.463  33.461  37.599  1.00  0.00     0.022 A 
BRANCH  81  84
ATOM     84  S   UNL A   1      40.040  35.648  37.141  1.00  0.00     0.127 S 
ATOM     85  O   UNL A   1      39.601  36.439  35.995  1.00  0.00    -0.237 OA
ATOM     86  O   UNL A   1      39.335  35.928  38.392  1.00  0.00    -0.237 OA
ATOM     87  O   UNL A   1      41.481  35.490  37.279  1.00  0.00    -0.744 OA
ENDBRANCH  81  84
ENDBRANCH  53  77
BRANCH  65  88
ATOM     88  C   UNL A   1      45.022  27.914  34.481  1.00  0.00     0.023 A 
ATOM     89  C   UNL A   1      46.173  28.728  34.495  1.00  0.00     0.012 A 
ATOM     90  C   UNL A   1      44.946  26.812  35.356  1.00  0.00     0.148 A 
ATOM     91  C   UNL A   1      47.243  28.429  35.339  1.00  0.00     0.002 A 
ATOM     92  C   UNL A   1      45.994  26.550  36.232  1.00  0.00     0.091 A 
ATOM     93  F   UNL A   1      43.850  26.040  35.319  1.00  0.00    -0.205 F 
ATOM     94  C   UNL A   1      47.149  27.349  36.214  1.00  0.00     0.022 A 
BRANCH  92  95
ATOM     95  S   UNL A   1      45.919  25.244  37.463  1.00  0.00     0.127 S 
ATOM     96  O   UNL A   1      45.064  25.846  38.484  1.00  0.00    -0.237 OA
ATOM     97  O   UNL A   1      45.300  24.149  36.716  1.00  0.00    -0.237 OA
ATOM     98  O   UNL A   1      47.296  24.996  37.870  1.00  0.00    -0.744 OA
ENDBRANCH  92  95
ENDBRANCH  65  88
ENDBRANCH  39  40
ENDBRANCH  32  34
ENDBRANCH  31  32
ENDBRANCH  30  31
ENDBRANCH  29  30
ENDBRANCH  28  29
ENDBRANCH  27  28
ENDBRANCH   1  27
TORSDOF 23
ENDMDL
