MODEL 1
REMARK VINA RESULT:      -9.1      0.000      0.000
REMARK SMILES CC(C)N1C[C@@H](C(=O)N2CCC(C(=O)OCCOCCOCCOC(=O)c3ccc(-c4c5nc(c(-c6cccc(S(=O)(=O)[O-])c6F)c6ccc([nH]6)c(-c6cccc(S(=O)(=O)[O-])c6F)c6nc(c(-c7cccc(S(=O)(=O)[O-])c7F)c7ccc4[nH]7)C=C6)C=C5)cc3)CC2)CC1=O
REMARK SMILES IDX 20 1 19 2 18 3 17 4 16 5 15 6 13 7 14 8 12 9 7 10 8 11 9 12
REMARK SMILES IDX 10 13 91 14 11 15 90 16 6 17 4 18 5 19 93 20 92 21 94 22
REMARK SMILES IDX 2 23 1 24 3 25 21 26 22 27 23 28 24 29 25 30 26 31 27 32
REMARK SMILES IDX 28 33 89 34 29 35 88 36 30 37 31 38 32 39 82 40 33 41 87 42
REMARK SMILES IDX 81 43 83 44 34 45 86 46 80 47 79 48 35 50 67 51 47 52 66 53
REMARK SMILES IDX 48 54 51 55 65 56 84 57 49 58 50 59 64 61 85 62 52 63 36 64
REMARK SMILES IDX 37 65 45 66 38 67 40 68 46 69 39 70 41 71 42 72 43 73 44 74
REMARK SMILES IDX 68 75 69 76 77 77 70 78 72 79 78 80 71 81 73 82 74 83 75 84
REMARK SMILES IDX 76 85 53 86 54 87 62 88 55 89 57 90 63 91 56 92 58 93 59 94
REMARK SMILES IDX 60 95 61 96
REMARK H PARENT 83 49 51 60
REMARK Flexibility Score: inf
ROOT
ATOM      1  C   UNL A   1      39.051  23.576  26.944  1.00  0.00     0.188 C 
ENDROOT
BRANCH   1   2
ATOM      2  C   UNL A   1      38.444  23.066  25.638  1.00  0.00     0.188 C 
BRANCH   2   3
ATOM      3  O   UNL A   1      37.362  22.154  25.771  1.00  0.00    -0.376 OA
BRANCH   3   4
ATOM      4  C   UNL A   1      37.221  21.155  24.763  1.00  0.00     0.202 C 
BRANCH   4   5
ATOM      5  C   UNL A   1      36.174  20.057  25.008  1.00  0.00     0.261 C 
BRANCH   5   6
ATOM      6  O   UNL A   1      34.880  20.535  25.438  1.00  0.00    -0.463 OA
BRANCH   6   7
ATOM      7  C   UNL A   1      33.836  20.157  24.660  1.00  0.00     0.309 C 
ATOM      8  O   UNL A   1      33.641  19.009  24.267  1.00  0.00    -0.252 OA
BRANCH   7   9
ATOM      9  C   UNL A   1      32.852  21.270  24.337  1.00  0.00     0.103 C 
ATOM     10  C   UNL A   1      32.136  25.064  25.476  1.00  0.00     0.227 C 
ATOM     11  O   UNL A   1      31.987  24.917  26.695  1.00  0.00    -0.274 OA
ATOM     12  N   UNL A   1      31.938  24.004  24.609  1.00  0.00    -0.342 N 
ATOM     13  C   UNL A   1      31.055  22.915  25.024  1.00  0.00     0.120 C 
ATOM     14  C   UNL A   1      32.817  23.654  23.505  1.00  0.00     0.120 C 
ATOM     15  C   UNL A   1      31.840  21.662  25.425  1.00  0.00     0.037 C 
ATOM     16  C   UNL A   1      33.694  22.481  23.915  1.00  0.00     0.037 C 
BRANCH  10  17
ATOM     17  C   UNL A   1      32.284  26.484  24.940  1.00  0.00     0.107 C 
ATOM     18  N   UNL A   1      32.763  28.665  25.656  1.00  0.00    -0.339 N 
ATOM     19  C   UNL A   1      33.124  27.295  25.917  1.00  0.00     0.133 C 
ATOM     20  C   UNL A   1      31.582  28.767  24.940  1.00  0.00     0.223 C 
ATOM     21  C   UNL A   1      31.104  27.378  24.589  1.00  0.00     0.115 C 
ATOM     22  O   UNL A   1      30.989  29.795  24.654  1.00  0.00    -0.275 OA
BRANCH  18  23
ATOM     23  C   UNL A   1      33.438  29.802  26.281  1.00  0.00     0.078 C 
ATOM     24  C   UNL A   1      32.478  30.582  27.181  1.00  0.00     0.031 C 
ATOM     25  C   UNL A   1      34.685  29.373  27.052  1.00  0.00     0.031 C 
ENDBRANCH  18  23
ENDBRANCH  10  17
ENDBRANCH   7   9
ENDBRANCH   6   7
ENDBRANCH   5   6
ENDBRANCH   4   5
ENDBRANCH   3   4
ENDBRANCH   2   3
ENDBRANCH   1   2
BRANCH   1  26
ATOM     26  O   UNL A   1      40.049  22.755  27.522  1.00  0.00    -0.376 OA
BRANCH  26  27
ATOM     27  C   UNL A   1      40.268  21.467  26.948  1.00  0.00     0.202 C 
BRANCH  27  28
ATOM     28  C   UNL A   1      41.580  21.186  26.174  1.00  0.00     0.261 C 
BRANCH  28  29
ATOM     29  O   UNL A   1      42.111  22.240  25.340  1.00  0.00    -0.460 OA
BRANCH  29  30
ATOM     30  C   UNL A   1      43.329  22.750  25.652  1.00  0.00     0.338 C 
ATOM     31  O   UNL A   1      44.395  22.360  25.220  1.00  0.00    -0.246 OA
BRANCH  30  32
ATOM     32  C   UNL A   1      43.140  24.049  26.375  1.00  0.00     0.060 A 
ATOM     33  C   UNL A   1      42.827  25.183  25.609  1.00  0.00     0.016 A 
ATOM     34  C   UNL A   1      43.183  24.158  27.769  1.00  0.00     0.016 A 
ATOM     35  C   UNL A   1      42.606  26.424  26.218  1.00  0.00     0.010 A 
ATOM     36  C   UNL A   1      42.982  25.409  28.379  1.00  0.00     0.010 A 
ATOM     37  C   UNL A   1      42.730  26.559  27.606  1.00  0.00    -0.014 A 
BRANCH  37  38
ATOM     38  C   UNL A   1      42.816  27.916  28.220  1.00  0.00     0.031 A 
ATOM     39  C   UNL A   1      44.185  28.519  28.420  1.00  0.00     0.074 A 
ATOM     40  C   UNL A   1      41.727  28.620  28.587  1.00  0.00     0.049 A 
ATOM     41  N   UNL A   1      44.526  29.649  28.983  1.00  0.00    -0.248 NA
ATOM     42  C   UNL A   1      45.323  27.733  27.914  1.00  0.00     0.031 C 
ATOM     43  C   UNL A   1      40.340  28.186  28.432  1.00  0.00     0.029 A 
ATOM     44  N   UNL A   1      41.626  29.851  29.195  1.00  0.00    -0.354 N 
ATOM     45  C   UNL A   1      45.914  29.698  28.925  1.00  0.00     0.074 A 
ATOM     46  C   UNL A   1      46.354  28.478  28.286  1.00  0.00     0.031 C 
ATOM     47  C   UNL A   1      39.528  29.120  28.961  1.00  0.00     0.029 A 
ATOM     48  C   UNL A   1      40.336  30.205  29.522  1.00  0.00     0.049 A 
ATOM     49  H   UNL A   1      42.404  30.426  29.379  1.00  0.00     0.167 HD
ATOM     50  C   UNL A   1      46.755  30.673  29.348  1.00  0.00     0.034 A 
ATOM     51  C   UNL A   1      39.863  31.262  30.217  1.00  0.00     0.034 A 
ATOM     52  C   UNL A   1      46.330  31.894  29.978  1.00  0.00     0.049 A 
ATOM     53  C   UNL A   1      40.825  32.307  30.735  1.00  0.00     0.074 A 
ATOM     54  C   UNL A   1      47.110  32.948  30.420  1.00  0.00     0.029 A 
ATOM     55  N   UNL A   1      45.016  32.221  30.268  1.00  0.00    -0.354 N 
ATOM     56  N   UNL A   1      42.125  32.382  30.589  1.00  0.00    -0.248 NA
ATOM     57  C   UNL A   1      40.246  33.431  31.491  1.00  0.00     0.031 C 
ATOM     58  C   UNL A   1      46.270  33.898  31.009  1.00  0.00     0.029 A 
ATOM     59  C   UNL A   1      44.962  33.456  30.892  1.00  0.00     0.049 A 
ATOM     60  H   UNL A   1      44.235  31.659  30.061  1.00  0.00     0.167 HD
ATOM     61  C   UNL A   1      42.511  33.579  31.191  1.00  0.00     0.074 A 
ATOM     62  C   UNL A   1      41.306  34.204  31.688  1.00  0.00     0.031 C 
ATOM     63  C   UNL A   1      43.753  34.104  31.329  1.00  0.00     0.034 A 
BRANCH  50  64
ATOM     64  C   UNL A   1      48.230  30.466  29.125  1.00  0.00     0.023 A 
ATOM     65  C   UNL A   1      48.966  29.661  30.019  1.00  0.00     0.012 A 
ATOM     66  C   UNL A   1      48.877  31.022  28.004  1.00  0.00     0.148 A 
ATOM     67  C   UNL A   1      50.328  29.443  29.822  1.00  0.00     0.002 A 
ATOM     68  C   UNL A   1      50.224  30.761  27.787  1.00  0.00     0.091 A 
ATOM     69  F   UNL A   1      48.165  31.799  27.175  1.00  0.00    -0.205 F 
ATOM     70  C   UNL A   1      50.954  29.982  28.701  1.00  0.00     0.022 A 
BRANCH  68  71
ATOM     71  S   UNL A   1      51.105  31.341  26.333  1.00  0.00     0.127 S 
ATOM     72  O   UNL A   1      50.267  32.465  25.912  1.00  0.00    -0.237 OA
ATOM     73  O   UNL A   1      52.400  31.723  26.893  1.00  0.00    -0.237 OA
ATOM     74  O   UNL A   1      51.146  30.217  25.410  1.00  0.00    -0.744 OA
ENDBRANCH  68  71
ENDBRANCH  50  64
BRANCH  51  75
ATOM     75  C   UNL A   1      38.399  31.411  30.472  1.00  0.00     0.023 A 
ATOM     76  C   UNL A   1      37.803  30.721  31.548  1.00  0.00     0.012 A 
ATOM     77  C   UNL A   1      37.587  32.200  29.634  1.00  0.00     0.148 A 
ATOM     78  C   UNL A   1      36.424  30.780  31.756  1.00  0.00     0.002 A 
ATOM     79  C   UNL A   1      36.223  32.302  29.883  1.00  0.00     0.091 A 
ATOM     80  F   UNL A   1      38.167  32.830  28.602  1.00  0.00    -0.205 F 
ATOM     81  C   UNL A   1      35.636  31.577  30.931  1.00  0.00     0.022 A 
BRANCH  79  82
ATOM     82  S   UNL A   1      35.150  33.393  28.944  1.00  0.00     0.127 S 
ATOM     83  O   UNL A   1      35.178  32.775  27.622  1.00  0.00    -0.237 OA
ATOM     84  O   UNL A   1      33.882  33.256  29.663  1.00  0.00    -0.237 OA
ATOM     85  O   UNL A   1      35.755  34.715  29.037  1.00  0.00    -0.744 OA
ENDBRANCH  79  82
ENDBRANCH  51  75
BRANCH  63  86
ATOM     86  C   UNL A   1      43.883  35.457  31.987  1.00  0.00     0.023 A 
ATOM     87  C   UNL A   1      43.867  36.631  31.208  1.00  0.00     0.012 A 
ATOM     88  C   UNL A   1      43.944  35.564  33.392  1.00  0.00     0.148 A 
ATOM     89  C   UNL A   1      43.949  37.886  31.814  1.00  0.00     0.002 A 
ATOM     90  C   UNL A   1      43.971  36.818  33.990  1.00  0.00     0.091 A 
ATOM     91  F   UNL A   1      43.971  34.437  34.118  1.00  0.00    -0.205 F 
ATOM     92  C   UNL A   1      43.989  37.981  33.203  1.00  0.00     0.022 A 
BRANCH  90  93
ATOM     93  S   UNL A   1      43.924  37.040  35.773  1.00  0.00     0.127 S 
ATOM     94  O   UNL A   1      45.165  36.389  36.188  1.00  0.00    -0.237 OA
ATOM     95  O   UNL A   1      43.928  38.498  35.904  1.00  0.00    -0.237 OA
ATOM     96  O   UNL A   1      42.700  36.394  36.228  1.00  0.00    -0.744 OA
ENDBRANCH  90  93
ENDBRANCH  63  86
ENDBRANCH  37  38
ENDBRANCH  30  32
ENDBRANCH  29  30
ENDBRANCH  28  29
ENDBRANCH  27  28
ENDBRANCH  26  27
ENDBRANCH   1  26
TORSDOF 22
ENDMDL
MODEL 2
REMARK VINA RESULT:      -8.8      4.119      6.591
REMARK SMILES CC(C)N1C[C@@H](C(=O)N2CCC(C(=O)OCCOCCOCCOC(=O)c3ccc(-c4c5nc(c(-c6cccc(S(=O)(=O)[O-])c6F)c6ccc([nH]6)c(-c6cccc(S(=O)(=O)[O-])c6F)c6nc(c(-c7cccc(S(=O)(=O)[O-])c7F)c7ccc4[nH]7)C=C6)C=C5)cc3)CC2)CC1=O
REMARK SMILES IDX 20 1 19 2 18 3 17 4 16 5 15 6 13 7 14 8 12 9 7 10 8 11 9 12
REMARK SMILES IDX 10 13 91 14 11 15 90 16 6 17 4 18 5 19 93 20 92 21 94 22
REMARK SMILES IDX 2 23 1 24 3 25 21 26 22 27 23 28 24 29 25 30 26 31 27 32
REMARK SMILES IDX 28 33 89 34 29 35 88 36 30 37 31 38 32 39 82 40 33 41 87 42
REMARK SMILES IDX 81 43 83 44 34 45 86 46 80 47 79 48 35 50 67 51 47 52 66 53
REMARK SMILES IDX 48 54 51 55 65 56 84 57 49 58 50 59 64 61 85 62 52 63 36 64
REMARK SMILES IDX 37 65 45 66 38 67 40 68 46 69 39 70 41 71 42 72 43 73 44 74
REMARK SMILES IDX 68 75 69 76 77 77 70 78 72 79 78 80 71 81 73 82 74 83 75 84
REMARK SMILES IDX 76 85 53 86 54 87 62 88 55 89 57 90 63 91 56 92 58 93 59 94
REMARK SMILES IDX 60 95 61 96
REMARK H PARENT 83 49 51 60
REMARK Flexibility Score: inf
ROOT
ATOM      1  C   UNL A   1      38.610  23.950  26.534  1.00  0.00     0.188 C 
ENDROOT
BRANCH   1   2
ATOM      2  C   UNL A   1      37.668  23.202  25.592  1.00  0.00     0.188 C 
BRANCH   2   3
ATOM      3  O   UNL A   1      36.326  23.060  26.042  1.00  0.00    -0.376 OA
BRANCH   3   4
ATOM      4  C   UNL A   1      35.694  21.799  25.826  1.00  0.00     0.202 C 
BRANCH   4   5
ATOM      5  C   UNL A   1      34.353  21.560  26.536  1.00  0.00     0.261 C 
BRANCH   5   6
ATOM      6  O   UNL A   1      33.580  22.751  26.796  1.00  0.00    -0.463 OA
BRANCH   6   7
ATOM      7  C   UNL A   1      32.426  22.859  26.091  1.00  0.00     0.309 C 
ATOM      8  O   UNL A   1      31.642  21.935  25.897  1.00  0.00    -0.252 OA
BRANCH   7   9
ATOM      9  C   UNL A   1      32.124  24.260  25.583  1.00  0.00     0.103 C 
ATOM     10  C   UNL A   1      32.276  28.043  26.949  1.00  0.00     0.227 C 
ATOM     11  O   UNL A   1      31.557  27.958  27.951  1.00  0.00    -0.274 OA
ATOM     12  N   UNL A   1      32.149  27.136  25.912  1.00  0.00    -0.342 N 
ATOM     13  C   UNL A   1      30.870  26.453  25.731  1.00  0.00     0.120 C 
ATOM     14  C   UNL A   1      33.258  26.488  25.230  1.00  0.00     0.120 C 
ATOM     15  C   UNL A   1      30.926  24.997  26.202  1.00  0.00     0.037 C 
ATOM     16  C   UNL A   1      33.413  25.071  25.762  1.00  0.00     0.037 C 
BRANCH  10  17
ATOM     17  C   UNL A   1      33.110  29.308  26.773  1.00  0.00     0.107 C 
ATOM     18  N   UNL A   1      34.917  30.452  27.734  1.00  0.00    -0.339 N 
ATOM     19  C   UNL A   1      34.451  29.116  27.466  1.00  0.00     0.133 C 
ATOM     20  C   UNL A   1      33.901  31.389  27.639  1.00  0.00     0.223 C 
ATOM     21  C   UNL A   1      32.638  30.693  27.192  1.00  0.00     0.115 C 
ATOM     22  O   UNL A   1      33.981  32.579  27.899  1.00  0.00    -0.275 OA
BRANCH  18  23
ATOM     23  C   UNL A   1      36.245  30.742  28.273  1.00  0.00     0.078 C 
ATOM     24  C   UNL A   1      36.186  30.968  29.784  1.00  0.00     0.031 C 
ATOM     25  C   UNL A   1      37.255  29.651  27.922  1.00  0.00     0.031 C 
ENDBRANCH  18  23
ENDBRANCH  10  17
ENDBRANCH   7   9
ENDBRANCH   6   7
ENDBRANCH   5   6
ENDBRANCH   4   5
ENDBRANCH   3   4
ENDBRANCH   2   3
ENDBRANCH   1   2
BRANCH   1  26
ATOM     26  O   UNL A   1      39.527  23.147  27.254  1.00  0.00    -0.376 OA
BRANCH  26  27
ATOM     27  C   UNL A   1      40.147  22.061  26.566  1.00  0.00     0.202 C 
BRANCH  27  28
ATOM     28  C   UNL A   1      41.612  22.199  26.081  1.00  0.00     0.261 C 
BRANCH  28  29
ATOM     29  O   UNL A   1      42.291  23.449  26.333  1.00  0.00    -0.460 OA
BRANCH  29  30
ATOM     30  C   UNL A   1      43.246  23.475  27.296  1.00  0.00     0.338 C 
ATOM     31  O   UNL A   1      43.452  22.605  28.117  1.00  0.00    -0.246 OA
BRANCH  30  32
ATOM     32  C   UNL A   1      44.193  24.601  27.009  1.00  0.00     0.060 A 
ATOM     33  C   UNL A   1      44.841  25.203  28.099  1.00  0.00     0.016 A 
ATOM     34  C   UNL A   1      44.514  25.016  25.712  1.00  0.00     0.016 A 
ATOM     35  C   UNL A   1      45.763  26.240  27.906  1.00  0.00     0.010 A 
ATOM     36  C   UNL A   1      45.422  26.071  25.519  1.00  0.00     0.010 A 
ATOM     37  C   UNL A   1      46.025  26.716  26.616  1.00  0.00    -0.014 A 
BRANCH  37  38
ATOM     38  C   UNL A   1      46.744  28.010  26.430  1.00  0.00     0.031 A 
ATOM     39  C   UNL A   1      48.234  27.967  26.198  1.00  0.00     0.074 A 
ATOM     40  C   UNL A   1      46.115  29.202  26.448  1.00  0.00     0.049 A 
ATOM     41  N   UNL A   1      49.088  28.949  26.069  1.00  0.00    -0.248 NA
ATOM     42  C   UNL A   1      48.840  26.629  26.100  1.00  0.00     0.031 C 
ATOM     43  C   UNL A   1      44.680  29.405  26.631  1.00  0.00     0.029 A 
ATOM     44  N   UNL A   1      46.621  30.478  26.334  1.00  0.00    -0.354 N 
ATOM     45  C   UNL A   1      50.333  28.351  25.904  1.00  0.00     0.074 A 
ATOM     46  C   UNL A   1      50.125  26.920  25.963  1.00  0.00     0.031 C 
ATOM     47  C   UNL A   1      44.424  30.727  26.651  1.00  0.00     0.029 A 
ATOM     48  C   UNL A   1      45.680  31.466  26.513  1.00  0.00     0.049 A 
ATOM     49  H   UNL A   1      47.568  30.666  26.142  1.00  0.00     0.167 HD
ATOM     50  C   UNL A   1      51.542  28.930  25.703  1.00  0.00     0.034 A 
ATOM     51  C   UNL A   1      45.817  32.808  26.587  1.00  0.00     0.034 A 
ATOM     52  C   UNL A   1      51.760  30.349  25.634  1.00  0.00     0.049 A 
ATOM     53  C   UNL A   1      47.185  33.430  26.424  1.00  0.00     0.074 A 
ATOM     54  C   UNL A   1      52.948  31.025  25.413  1.00  0.00     0.029 A 
ATOM     55  N   UNL A   1      50.777  31.311  25.797  1.00  0.00    -0.354 N 
ATOM     56  N   UNL A   1      48.335  32.852  26.176  1.00  0.00    -0.248 NA
ATOM     57  C   UNL A   1      47.268  34.897  26.523  1.00  0.00     0.031 C 
ATOM     58  C   UNL A   1      52.689  32.397  25.477  1.00  0.00     0.029 A 
ATOM     59  C   UNL A   1      51.332  32.576  25.692  1.00  0.00     0.049 A 
ATOM     60  H   UNL A   1      49.826  31.124  25.964  1.00  0.00     0.167 HD
ATOM     61  C   UNL A   1      49.263  33.883  26.043  1.00  0.00     0.074 A 
ATOM     62  C   UNL A   1      48.539  35.122  26.221  1.00  0.00     0.031 C 
ATOM     63  C   UNL A   1      50.596  33.808  25.807  1.00  0.00     0.034 A 
BRANCH  50  64
ATOM     64  C   UNL A   1      52.729  28.019  25.524  1.00  0.00     0.023 A 
ATOM     65  C   UNL A   1      53.081  27.576  24.233  1.00  0.00     0.012 A 
ATOM     66  C   UNL A   1      53.525  27.646  26.625  1.00  0.00     0.148 A 
ATOM     67  C   UNL A   1      54.186  26.747  24.044  1.00  0.00     0.002 A 
ATOM     68  C   UNL A   1      54.653  26.859  26.423  1.00  0.00     0.091 A 
ATOM     69  F   UNL A   1      53.163  28.062  27.847  1.00  0.00    -0.205 F 
ATOM     70  C   UNL A   1      54.977  26.399  25.136  1.00  0.00     0.022 A 
BRANCH  68  71
ATOM     71  S   UNL A   1      55.782  26.420  27.748  1.00  0.00     0.127 S 
ATOM     72  O   UNL A   1      56.766  25.602  27.038  1.00  0.00    -0.237 OA
ATOM     73  O   UNL A   1      56.273  27.729  28.177  1.00  0.00    -0.237 OA
ATOM     74  O   UNL A   1      54.985  25.712  28.740  1.00  0.00    -0.744 OA
ENDBRANCH  68  71
ENDBRANCH  50  64
BRANCH  51  75
ATOM     75  C   UNL A   1      44.629  33.682  26.823  1.00  0.00     0.023 A 
ATOM     76  C   UNL A   1      44.069  34.405  25.749  1.00  0.00     0.012 A 
ATOM     77  C   UNL A   1      44.074  33.831  28.109  1.00  0.00     0.148 A 
ATOM     78  C   UNL A   1      43.010  35.290  25.960  1.00  0.00     0.002 A 
ATOM     79  C   UNL A   1      42.981  34.669  28.301  1.00  0.00     0.091 A 
ATOM     80  F   UNL A   1      44.633  33.154  29.122  1.00  0.00    -0.205 F 
ATOM     81  C   UNL A   1      42.460  35.415  27.233  1.00  0.00     0.022 A 
BRANCH  79  82
ATOM     82  S   UNL A   1      42.136  34.805  29.880  1.00  0.00     0.127 S 
ATOM     83  O   UNL A   1      42.142  33.420  30.343  1.00  0.00    -0.237 OA
ATOM     84  O   UNL A   1      43.024  35.706  30.617  1.00  0.00    -0.237 OA
ATOM     85  O   UNL A   1      40.826  35.364  29.578  1.00  0.00    -0.744 OA
ENDBRANCH  79  82
ENDBRANCH  51  75
BRANCH  63  86
ATOM     86  C   UNL A   1      51.365  35.099  25.658  1.00  0.00     0.023 A 
ATOM     87  C   UNL A   1      51.513  35.696  24.390  1.00  0.00     0.012 A 
ATOM     88  C   UNL A   1      51.877  35.760  26.793  1.00  0.00     0.148 A 
ATOM     89  C   UNL A   1      52.190  36.908  24.250  1.00  0.00     0.002 A 
ATOM     90  C   UNL A   1      52.503  36.993  26.653  1.00  0.00     0.091 A 
ATOM     91  F   UNL A   1      51.740  35.172  27.990  1.00  0.00    -0.205 F 
ATOM     92  C   UNL A   1      52.674  37.562  25.381  1.00  0.00     0.022 A 
BRANCH  90  93
ATOM     93  S   UNL A   1      53.070  37.955  28.061  1.00  0.00     0.127 S 
ATOM     94  O   UNL A   1      51.884  38.748  28.378  1.00  0.00    -0.237 OA
ATOM     95  O   UNL A   1      53.387  36.913  29.040  1.00  0.00    -0.237 OA
ATOM     96  O   UNL A   1      54.221  38.716  27.593  1.00  0.00    -0.744 OA
ENDBRANCH  90  93
ENDBRANCH  63  86
ENDBRANCH  37  38
ENDBRANCH  30  32
ENDBRANCH  29  30
ENDBRANCH  28  29
ENDBRANCH  27  28
ENDBRANCH  26  27
ENDBRANCH   1  26
TORSDOF 22
ENDMDL
MODEL 3
REMARK VINA RESULT:      -8.8      4.152      7.758
REMARK SMILES CC(C)N1C[C@@H](C(=O)N2CCC(C(=O)OCCOCCOCCOC(=O)c3ccc(-c4c5nc(c(-c6cccc(S(=O)(=O)[O-])c6F)c6ccc([nH]6)c(-c6cccc(S(=O)(=O)[O-])c6F)c6nc(c(-c7cccc(S(=O)(=O)[O-])c7F)c7ccc4[nH]7)C=C6)C=C5)cc3)CC2)CC1=O
REMARK SMILES IDX 20 1 19 2 18 3 17 4 16 5 15 6 13 7 14 8 12 9 7 10 8 11 9 12
REMARK SMILES IDX 10 13 91 14 11 15 90 16 6 17 4 18 5 19 93 20 92 21 94 22
REMARK SMILES IDX 2 23 1 24 3 25 21 26 22 27 23 28 24 29 25 30 26 31 27 32
REMARK SMILES IDX 28 33 89 34 29 35 88 36 30 37 31 38 32 39 82 40 33 41 87 42
REMARK SMILES IDX 81 43 83 44 34 45 86 46 80 47 79 48 35 50 67 51 47 52 66 53
REMARK SMILES IDX 48 54 51 55 65 56 84 57 49 58 50 59 64 61 85 62 52 63 36 64
REMARK SMILES IDX 37 65 45 66 38 67 40 68 46 69 39 70 41 71 42 72 43 73 44 74
REMARK SMILES IDX 68 75 69 76 77 77 70 78 72 79 78 80 71 81 73 82 74 83 75 84
REMARK SMILES IDX 76 85 53 86 54 87 62 88 55 89 57 90 63 91 56 92 58 93 59 94
REMARK SMILES IDX 60 95 61 96
REMARK H PARENT 83 49 51 60
REMARK Flexibility Score: inf
ROOT
ATOM      1  C   UNL A   1      46.178  23.118  24.392  1.00  0.00     0.188 C 
ENDROOT
BRANCH   1   2
ATOM      2  C   UNL A   1      47.064  24.320  24.713  1.00  0.00     0.188 C 
BRANCH   2   3
ATOM      3  O   UNL A   1      47.315  24.554  26.093  1.00  0.00    -0.376 OA
BRANCH   3   4
ATOM      4  C   UNL A   1      46.189  24.839  26.923  1.00  0.00     0.202 C 
BRANCH   4   5
ATOM      5  C   UNL A   1      46.087  24.071  28.249  1.00  0.00     0.261 C 
BRANCH   5   6
ATOM      6  O   UNL A   1      45.166  24.633  29.209  1.00  0.00    -0.463 OA
BRANCH   6   7
ATOM      7  C   UNL A   1      45.737  25.358  30.203  1.00  0.00     0.309 C 
ATOM      8  O   UNL A   1      46.789  25.982  30.092  1.00  0.00    -0.252 OA
BRANCH   7   9
ATOM      9  C   UNL A   1      44.938  25.399  31.496  1.00  0.00     0.103 C 
ATOM     10  C   UNL A   1      44.422  27.874  34.628  1.00  0.00     0.227 C 
ATOM     11  O   UNL A   1      45.586  27.990  35.027  1.00  0.00    -0.274 OA
ATOM     12  N   UNL A   1      44.040  26.775  33.880  1.00  0.00    -0.342 N 
ATOM     13  C   UNL A   1      44.800  25.534  34.019  1.00  0.00     0.120 C 
ATOM     14  C   UNL A   1      43.223  26.826  32.678  1.00  0.00     0.120 C 
ATOM     15  C   UNL A   1      45.715  25.284  32.817  1.00  0.00     0.037 C 
ATOM     16  C   UNL A   1      44.120  26.696  31.457  1.00  0.00     0.037 C 
BRANCH  10  17
ATOM     17  C   UNL A   1      43.373  28.826  35.194  1.00  0.00     0.107 C 
ATOM     18  N   UNL A   1      42.962  31.114  35.503  1.00  0.00    -0.339 N 
ATOM     19  C   UNL A   1      43.564  30.200  34.567  1.00  0.00     0.133 C 
ATOM     20  C   UNL A   1      42.774  30.538  36.748  1.00  0.00     0.223 C 
ATOM     21  C   UNL A   1      43.191  29.088  36.682  1.00  0.00     0.115 C 
ATOM     22  O   UNL A   1      42.370  31.097  37.756  1.00  0.00    -0.275 OA
BRANCH  18  23
ATOM     23  C   UNL A   1      42.796  32.542  35.232  1.00  0.00     0.078 C 
ATOM     24  C   UNL A   1      44.003  33.338  35.730  1.00  0.00     0.031 C 
ATOM     25  C   UNL A   1      42.533  32.815  33.752  1.00  0.00     0.031 C 
ENDBRANCH  18  23
ENDBRANCH  10  17
ENDBRANCH   7   9
ENDBRANCH   6   7
ENDBRANCH   5   6
ENDBRANCH   4   5
ENDBRANCH   3   4
ENDBRANCH   2   3
ENDBRANCH   1   2
BRANCH   1  26
ATOM     26  O   UNL A   1      44.820  23.408  24.117  1.00  0.00    -0.376 OA
BRANCH  26  27
ATOM     27  C   UNL A   1      43.837  22.470  24.554  1.00  0.00     0.202 C 
BRANCH  27  28
ATOM     28  C   UNL A   1      42.743  22.917  25.555  1.00  0.00     0.261 C 
BRANCH  28  29
ATOM     29  O   UNL A   1      41.453  22.271  25.478  1.00  0.00    -0.460 OA
BRANCH  29  30
ATOM     30  C   UNL A   1      40.627  22.363  26.550  1.00  0.00     0.338 C 
ATOM     31  O   UNL A   1      40.076  21.434  27.105  1.00  0.00    -0.246 OA
BRANCH  30  32
ATOM     32  C   UNL A   1      40.730  23.743  27.125  1.00  0.00     0.060 A 
ATOM     33  C   UNL A   1      40.070  24.782  26.451  1.00  0.00     0.016 A 
ATOM     34  C   UNL A   1      41.382  24.019  28.332  1.00  0.00     0.016 A 
ATOM     35  C   UNL A   1      40.097  26.092  26.946  1.00  0.00     0.010 A 
ATOM     36  C   UNL A   1      41.427  25.338  28.818  1.00  0.00     0.010 A 
ATOM     37  C   UNL A   1      40.817  26.390  28.109  1.00  0.00    -0.014 A 
BRANCH  37  38
ATOM     38  C   UNL A   1      41.116  27.810  28.459  1.00  0.00     0.031 A 
ATOM     39  C   UNL A   1      42.553  28.268  28.395  1.00  0.00     0.074 A 
ATOM     40  C   UNL A   1      40.160  28.690  28.813  1.00  0.00     0.049 A 
ATOM     41  N   UNL A   1      43.075  29.426  28.706  1.00  0.00    -0.248 NA
ATOM     42  C   UNL A   1      43.532  27.279  27.913  1.00  0.00     0.031 C 
ATOM     43  C   UNL A   1      38.729  28.407  28.893  1.00  0.00     0.029 A 
ATOM     44  N   UNL A   1      40.262  30.008  29.200  1.00  0.00    -0.354 N 
ATOM     45  C   UNL A   1      44.442  29.298  28.486  1.00  0.00     0.074 A 
ATOM     46  C   UNL A   1      44.671  27.945  28.029  1.00  0.00     0.031 C 
ATOM     47  C   UNL A   1      38.090  29.506  29.335  1.00  0.00     0.029 A 
ATOM     48  C   UNL A   1      39.067  30.562  29.601  1.00  0.00     0.049 A 
ATOM     49  H   UNL A   1      41.110  30.507  29.192  1.00  0.00     0.167 HD
ATOM     50  C   UNL A   1      45.423  30.221  28.633  1.00  0.00     0.034 A 
ATOM     51  C   UNL A   1      38.796  31.769  30.144  1.00  0.00     0.034 A 
ATOM     52  C   UNL A   1      45.207  31.571  29.079  1.00  0.00     0.049 A 
ATOM     53  C   UNL A   1      39.916  32.761  30.358  1.00  0.00     0.074 A 
ATOM     54  C   UNL A   1      46.139  32.582  29.237  1.00  0.00     0.029 A 
ATOM     55  N   UNL A   1      43.981  32.097  29.450  1.00  0.00    -0.354 N 
ATOM     56  N   UNL A   1      41.188  32.655  30.058  1.00  0.00    -0.248 NA
ATOM     57  C   UNL A   1      39.556  34.055  30.962  1.00  0.00     0.031 C 
ATOM     58  C   UNL A   1      45.481  33.709  29.738  1.00  0.00     0.029 A 
ATOM     59  C   UNL A   1      44.132  33.414  29.847  1.00  0.00     0.049 A 
ATOM     60  H   UNL A   1      43.128  31.606  29.435  1.00  0.00     0.167 HD
ATOM     61  C   UNL A   1      41.765  33.878  30.391  1.00  0.00     0.074 A 
ATOM     62  C   UNL A   1      40.703  34.717  30.900  1.00  0.00     0.031 C 
ATOM     63  C   UNL A   1      43.061  34.267  30.294  1.00  0.00     0.034 A 
BRANCH  50  64
ATOM     64  C   UNL A   1      46.829  29.804  28.287  1.00  0.00     0.023 A 
ATOM     65  C   UNL A   1      47.296  29.949  26.965  1.00  0.00     0.012 A 
ATOM     66  C   UNL A   1      47.703  29.320  29.280  1.00  0.00     0.148 A 
ATOM     67  C   UNL A   1      48.599  29.585  26.628  1.00  0.00     0.002 A 
ATOM     68  C   UNL A   1      49.015  29.004  28.947  1.00  0.00     0.091 A 
ATOM     69  F   UNL A   1      47.235  29.172  30.527  1.00  0.00    -0.205 F 
ATOM     70  C   UNL A   1      49.460  29.124  27.620  1.00  0.00     0.022 A 
BRANCH  68  71
ATOM     71  S   UNL A   1      50.227  28.478  30.163  1.00  0.00     0.127 S 
ATOM     72  O   UNL A   1      51.417  28.294  29.332  1.00  0.00    -0.237 OA
ATOM     73  O   UNL A   1      50.282  29.633  31.058  1.00  0.00    -0.237 OA
ATOM     74  O   UNL A   1      49.695  27.264  30.765  1.00  0.00    -0.744 OA
ENDBRANCH  68  71
ENDBRANCH  50  64
BRANCH  51  75
ATOM     75  C   UNL A   1      37.400  32.133  30.530  1.00  0.00     0.023 A 
ATOM     76  C   UNL A   1      36.935  31.841  31.830  1.00  0.00     0.012 A 
ATOM     77  C   UNL A   1      36.518  32.729  29.608  1.00  0.00     0.148 A 
ATOM     78  C   UNL A   1      35.610  32.098  32.187  1.00  0.00     0.002 A 
ATOM     79  C   UNL A   1      35.217  33.036  29.990  1.00  0.00     0.091 A 
ATOM     80  F   UNL A   1      36.969  32.977  28.370  1.00  0.00    -0.205 F 
ATOM     81  C   UNL A   1      34.754  32.703  31.272  1.00  0.00     0.022 A 
BRANCH  79  82
ATOM     82  S   UNL A   1      34.079  33.918  28.916  1.00  0.00     0.127 S 
ATOM     83  O   UNL A   1      34.952  34.925  28.319  1.00  0.00    -0.237 OA
ATOM     84  O   UNL A   1      33.646  32.858  28.004  1.00  0.00    -0.237 OA
ATOM     85  O   UNL A   1      33.031  34.428  29.788  1.00  0.00    -0.744 OA
ENDBRANCH  79  82
ENDBRANCH  51  75
BRANCH  63  86
ATOM     86  C   UNL A   1      43.409  35.683  30.682  1.00  0.00     0.023 A 
ATOM     87  C   UNL A   1      43.790  35.985  32.005  1.00  0.00     0.012 A 
ATOM     88  C   UNL A   1      43.431  36.705  29.710  1.00  0.00     0.148 A 
ATOM     89  C   UNL A   1      44.149  37.286  32.361  1.00  0.00     0.002 A 
ATOM     90  C   UNL A   1      43.841  37.986  30.061  1.00  0.00     0.091 A 
ATOM     91  F   UNL A   1      43.052  36.404  28.460  1.00  0.00    -0.205 F 
ATOM     92  C   UNL A   1      44.186  38.283  31.389  1.00  0.00     0.022 A 
BRANCH  90  93
ATOM     93  S   UNL A   1      44.014  39.308  28.857  1.00  0.00     0.127 S 
ATOM     94  O   UNL A   1      44.945  38.718  27.896  1.00  0.00    -0.237 OA
ATOM     95  O   UNL A   1      42.644  39.460  28.364  1.00  0.00    -0.237 OA
ATOM     96  O   UNL A   1      44.525  40.458  29.591  1.00  0.00    -0.744 OA
ENDBRANCH  90  93
ENDBRANCH  63  86
ENDBRANCH  37  38
ENDBRANCH  30  32
ENDBRANCH  29  30
ENDBRANCH  28  29
ENDBRANCH  27  28
ENDBRANCH  26  27
ENDBRANCH   1  26
TORSDOF 22
ENDMDL
