MODEL 1
REMARK VINA RESULT:     -10.4      0.000      0.000
REMARK SMILES Cc1ccnc(C(=O)c2[nH]c3cc(Cl)c(F)cc3c2CC(=O)OCCOCCOCCOC(=O)c2ccc(-c3c4nc(c(-c5cccc(S(=O)(=O)[O-])c5F)c5ccc([nH]5)c(-c5cccc(S(=O)(=O)[O-])c5F)c5nc(c(-c6cccc(S(=O)(=O)[O-])c6F)c6ccc3[nH]6)C=C5)C=C4)cc2)c1
REMARK SMILES IDX 27 1 26 2 25 3 24 4 23 5 21 6 22 7 20 8 19 9 9 10 10 11
REMARK SMILES IDX 11 12 18 14 12 15 17 16 13 17 15 18 14 19 16 20 7 21 8 22
REMARK SMILES IDX 6 23 1 24 2 25 3 26 98 27 4 28 5 29 28 30 29 31 30 32 31 33
REMARK SMILES IDX 32 34 33 35 34 36 35 37 36 38 97 39 37 40 96 41 38 42 39 43
REMARK SMILES IDX 40 44 90 45 41 46 95 47 89 48 91 49 42 50 94 51 88 52 87 53
REMARK SMILES IDX 43 55 75 56 55 57 74 58 56 59 59 60 73 61 92 62 57 63 58 64
REMARK SMILES IDX 72 66 93 67 60 68 44 69 45 70 53 71 46 72 48 73 54 74 47 75
REMARK SMILES IDX 49 76 50 77 51 78 52 79 76 80 77 81 85 82 78 83 80 84 86 85
REMARK SMILES IDX 79 86 81 87 82 88 83 89 84 90 61 91 62 92 70 93 63 94 65 95
REMARK SMILES IDX 71 96 64 97 66 98 67 99 68 100 69 101
REMARK H PARENT 10 13 91 54 59 65
REMARK Flexibility Score: inf
ROOT
ATOM      1  C   UNL A   1      46.013  24.359  26.090  1.00  0.00     0.188 C 
ENDROOT
BRANCH   1   2
ATOM      2  O   UNL A   1      45.018  23.436  25.638  1.00  0.00    -0.376 OA
BRANCH   2   3
ATOM      3  C   UNL A   1      45.478  22.059  25.816  1.00  0.00     0.202 C 
BRANCH   3   4
ATOM      4  C   UNL A   1      44.337  21.109  25.396  1.00  0.00     0.261 C 
BRANCH   4   5
ATOM      5  O   UNL A   1      43.076  21.444  26.032  1.00  0.00    -0.463 OA
BRANCH   5   6
ATOM      6  C   UNL A   1      42.141  20.484  25.917  1.00  0.00     0.310 C 
ATOM      7  O   UNL A   1      42.419  19.391  25.425  1.00  0.00    -0.252 OA
BRANCH   6   8
ATOM      8  C   UNL A   1      40.818  20.682  26.609  1.00  0.00     0.161 C 
BRANCH   8   9
ATOM      9  C   UNL A   1      39.767  21.751  26.599  1.00  0.00     0.000 A 
ATOM     10  C   UNL A   1      38.520  21.792  25.930  1.00  0.00     0.093 A 
ATOM     11  N   UNL A   1      38.273  23.195  25.871  1.00  0.00    -0.351 N 
ATOM     12  C   UNL A   1      39.047  23.946  26.695  1.00  0.00     0.048 A 
ATOM     13  H   UNL A   1      37.593  23.589  25.278  1.00  0.00     0.167 HD
ATOM     14  C   UNL A   1      40.053  23.093  27.113  1.00  0.00     0.007 A 
ATOM     15  C   UNL A   1      38.960  25.306  27.046  1.00  0.00     0.050 A 
ATOM     16  C   UNL A   1      41.104  23.662  27.864  1.00  0.00     0.051 A 
ATOM     17  C   UNL A   1      39.951  25.807  27.892  1.00  0.00     0.078 A 
ATOM     18  C   UNL A   1      41.018  25.000  28.273  1.00  0.00     0.142 A 
ATOM     19  Cl  UNL A   1      39.812  27.421  28.489  1.00  0.00    -0.081 Cl
ATOM     20  F   UNL A   1      41.972  25.478  29.088  1.00  0.00    -0.205 F 
BRANCH  10  21
ATOM     21  C   UNL A   1      37.395  21.004  25.239  1.00  0.00     0.227 C 
ATOM     22  O   UNL A   1      38.001  20.166  24.574  1.00  0.00    -0.285 OA
BRANCH  21  23
ATOM     23  C   UNL A   1      35.691  21.153  24.875  1.00  0.00     0.113 A 
ATOM     24  C   UNL A   1      32.607  19.041  23.998  1.00  0.00     0.044 C 
ATOM     25  C   UNL A   1      33.359  20.269  24.443  1.00  0.00    -0.047 A 
ATOM     26  C   UNL A   1      32.854  21.530  24.504  1.00  0.00     0.023 A 
ATOM     27  C   UNL A   1      34.709  20.130  24.793  1.00  0.00     0.036 A 
ATOM     28  C   UNL A   1      33.781  22.534  24.735  1.00  0.00     0.112 A 
ATOM     29  N   UNL A   1      35.155  22.381  24.834  1.00  0.00    -0.253 NA
ENDBRANCH  21  23
ENDBRANCH  10  21
ENDBRANCH   8   9
ENDBRANCH   6   8
ENDBRANCH   5   6
ENDBRANCH   4   5
ENDBRANCH   3   4
ENDBRANCH   2   3
ENDBRANCH   1   2
BRANCH   1  30
ATOM     30  C   UNL A   1      46.005  24.965  27.586  1.00  0.00     0.188 C 
BRANCH  30  31
ATOM     31  O   UNL A   1      45.740  24.211  28.818  1.00  0.00    -0.376 OA
BRANCH  31  32
ATOM     32  C   UNL A   1      44.588  23.384  29.196  1.00  0.00     0.202 C 
BRANCH  32  33
ATOM     33  C   UNL A   1      44.103  23.002  30.817  1.00  0.00     0.261 C 
BRANCH  33  34
ATOM     34  O   UNL A   1      43.708  24.028  31.895  1.00  0.00    -0.460 OA
BRANCH  34  35
ATOM     35  C   UNL A   1      44.575  24.634  32.836  1.00  0.00     0.338 C 
ATOM     36  O   UNL A   1      45.715  24.298  32.990  1.00  0.00    -0.246 OA
BRANCH  35  37
ATOM     37  C   UNL A   1      44.014  26.003  33.439  1.00  0.00     0.060 A 
ATOM     38  C   UNL A   1      42.988  26.126  34.374  1.00  0.00     0.016 A 
ATOM     39  C   UNL A   1      44.372  27.213  32.797  1.00  0.00     0.016 A 
ATOM     40  C   UNL A   1      42.175  27.309  34.445  1.00  0.00     0.010 A 
ATOM     41  C   UNL A   1      43.574  28.401  32.877  1.00  0.00     0.010 A 
ATOM     42  C   UNL A   1      42.412  28.457  33.655  1.00  0.00    -0.014 A 
BRANCH  42  43
ATOM     43  C   UNL A   1      41.713  29.761  33.977  1.00  0.00     0.031 A 
ATOM     44  C   UNL A   1      40.784  30.120  32.903  1.00  0.00     0.074 A 
ATOM     45  C   UNL A   1      41.672  30.633  35.026  1.00  0.00     0.049 A 
ATOM     46  N   UNL A   1      40.970  31.051  32.029  1.00  0.00    -0.248 NA
ATOM     47  C   UNL A   1      39.624  29.262  32.678  1.00  0.00     0.031 C 
ATOM     48  C   UNL A   1      42.513  30.570  36.187  1.00  0.00     0.029 A 
ATOM     49  N   UNL A   1      40.935  31.766  35.338  1.00  0.00    -0.354 N 
ATOM     50  C   UNL A   1      39.782  31.086  31.326  1.00  0.00     0.074 A 
ATOM     51  C   UNL A   1      39.111  29.837  31.591  1.00  0.00     0.031 C 
ATOM     52  C   UNL A   1      42.022  31.264  37.240  1.00  0.00     0.029 A 
ATOM     53  C   UNL A   1      40.999  32.135  36.695  1.00  0.00     0.049 A 
ATOM     54  H   UNL A   1      40.414  32.267  34.669  1.00  0.00     0.167 HD
ATOM     55  C   UNL A   1      39.289  32.275  30.897  1.00  0.00     0.034 A 
ATOM     56  C   UNL A   1      40.494  33.193  37.386  1.00  0.00     0.034 A 
ATOM     57  C   UNL A   1      40.284  33.319  30.896  1.00  0.00     0.049 A 
ATOM     58  C   UNL A   1      40.321  34.287  36.425  1.00  0.00     0.074 A 
ATOM     59  C   UNL A   1      41.496  33.546  30.279  1.00  0.00     0.029 A 
ATOM     60  N   UNL A   1      40.193  34.201  31.940  1.00  0.00    -0.354 N 
ATOM     61  N   UNL A   1      41.307  34.960  35.904  1.00  0.00    -0.248 NA
ATOM     62  C   UNL A   1      39.030  34.441  35.782  1.00  0.00     0.031 C 
ATOM     63  C   UNL A   1      42.224  34.414  31.145  1.00  0.00     0.029 A 
ATOM     64  C   UNL A   1      41.425  34.712  32.250  1.00  0.00     0.049 A 
ATOM     65  H   UNL A   1      39.357  34.437  32.404  1.00  0.00     0.167 HD
ATOM     66  C   UNL A   1      40.873  35.216  34.615  1.00  0.00     0.074 A 
ATOM     67  C   UNL A   1      39.428  35.032  34.655  1.00  0.00     0.031 C 
ATOM     68  C   UNL A   1      41.751  35.216  33.571  1.00  0.00     0.034 A 
BRANCH  55  69
ATOM     69  C   UNL A   1      37.814  32.598  30.915  1.00  0.00     0.023 A 
ATOM     70  C   UNL A   1      37.172  32.627  32.169  1.00  0.00     0.012 A 
ATOM     71  C   UNL A   1      36.985  32.611  29.768  1.00  0.00     0.148 A 
ATOM     72  C   UNL A   1      35.778  32.667  32.273  1.00  0.00     0.002 A 
ATOM     73  C   UNL A   1      35.611  32.762  29.875  1.00  0.00     0.091 A 
ATOM     74  F   UNL A   1      37.493  32.322  28.566  1.00  0.00    -0.205 F 
ATOM     75  C   UNL A   1      34.997  32.760  31.127  1.00  0.00     0.022 A 
BRANCH  73  76
ATOM     76  S   UNL A   1      34.579  32.967  28.419  1.00  0.00     0.127 S 
ATOM     77  O   UNL A   1      34.526  31.602  27.904  1.00  0.00    -0.237 OA
ATOM     78  O   UNL A   1      33.333  33.460  29.006  1.00  0.00    -0.237 OA
ATOM     79  O   UNL A   1      35.273  33.945  27.589  1.00  0.00    -0.744 OA
ENDBRANCH  73  76
ENDBRANCH  55  69
BRANCH  56  80
ATOM     80  C   UNL A   1      40.100  33.325  38.822  1.00  0.00     0.023 A 
ATOM     81  C   UNL A   1      40.837  34.155  39.699  1.00  0.00     0.012 A 
ATOM     82  C   UNL A   1      38.826  32.893  39.250  1.00  0.00     0.148 A 
ATOM     83  C   UNL A   1      40.286  34.609  40.909  1.00  0.00     0.002 A 
ATOM     84  C   UNL A   1      38.276  33.361  40.443  1.00  0.00     0.091 A 
ATOM     85  F   UNL A   1      38.112  32.097  38.446  1.00  0.00    -0.205 F 
ATOM     86  C   UNL A   1      38.996  34.234  41.268  1.00  0.00     0.022 A 
BRANCH  84  87
ATOM     87  S   UNL A   1      36.590  32.963  40.928  1.00  0.00     0.127 S 
ATOM     88  O   UNL A   1      36.770  31.724  41.688  1.00  0.00    -0.237 OA
ATOM     89  O   UNL A   1      36.231  34.127  41.736  1.00  0.00    -0.237 OA
ATOM     90  O   UNL A   1      35.850  32.800  39.685  1.00  0.00    -0.744 OA
ENDBRANCH  84  87
ENDBRANCH  56  80
BRANCH  68  91
ATOM     91  C   UNL A   1      43.197  35.539  33.842  1.00  0.00     0.023 A 
ATOM     92  C   UNL A   1      44.193  34.558  34.014  1.00  0.00     0.012 A 
ATOM     93  C   UNL A   1      43.580  36.892  33.771  1.00  0.00     0.148 A 
ATOM     94  C   UNL A   1      45.541  34.922  34.112  1.00  0.00     0.002 A 
ATOM     95  C   UNL A   1      44.922  37.246  33.813  1.00  0.00     0.091 A 
ATOM     96  F   UNL A   1      42.615  37.815  33.631  1.00  0.00    -0.205 F 
ATOM     97  C   UNL A   1      45.907  36.263  33.991  1.00  0.00     0.022 A 
BRANCH  95  98
ATOM     98  S   UNL A   1      45.460  38.935  33.527  1.00  0.00     0.127 S 
ATOM     99  O   UNL A   1      44.912  39.213  32.202  1.00  0.00    -0.237 OA
ATOM    100  O   UNL A   1      44.812  39.658  34.623  1.00  0.00    -0.237 OA
ATOM    101  O   UNL A   1      46.916  38.913  33.610  1.00  0.00    -0.744 OA
ENDBRANCH  95  98
ENDBRANCH  68  91
ENDBRANCH  42  43
ENDBRANCH  35  37
ENDBRANCH  34  35
ENDBRANCH  33  34
ENDBRANCH  32  33
ENDBRANCH  31  32
ENDBRANCH  30  31
ENDBRANCH   1  30
TORSDOF 23
ENDMDL
MODEL 2
REMARK VINA RESULT:     -10.3      2.421      3.933
REMARK SMILES Cc1ccnc(C(=O)c2[nH]c3cc(Cl)c(F)cc3c2CC(=O)OCCOCCOCCOC(=O)c2ccc(-c3c4nc(c(-c5cccc(S(=O)(=O)[O-])c5F)c5ccc([nH]5)c(-c5cccc(S(=O)(=O)[O-])c5F)c5nc(c(-c6cccc(S(=O)(=O)[O-])c6F)c6ccc3[nH]6)C=C5)C=C4)cc2)c1
REMARK SMILES IDX 27 1 26 2 25 3 24 4 23 5 21 6 22 7 20 8 19 9 9 10 10 11
REMARK SMILES IDX 11 12 18 14 12 15 17 16 13 17 15 18 14 19 16 20 7 21 8 22
REMARK SMILES IDX 6 23 1 24 2 25 3 26 98 27 4 28 5 29 28 30 29 31 30 32 31 33
REMARK SMILES IDX 32 34 33 35 34 36 35 37 36 38 97 39 37 40 96 41 38 42 39 43
REMARK SMILES IDX 40 44 90 45 41 46 95 47 89 48 91 49 42 50 94 51 88 52 87 53
REMARK SMILES IDX 43 55 75 56 55 57 74 58 56 59 59 60 73 61 92 62 57 63 58 64
REMARK SMILES IDX 72 66 93 67 60 68 44 69 45 70 53 71 46 72 48 73 54 74 47 75
REMARK SMILES IDX 49 76 50 77 51 78 52 79 76 80 77 81 85 82 78 83 80 84 86 85
REMARK SMILES IDX 79 86 81 87 82 88 83 89 84 90 61 91 62 92 70 93 63 94 65 95
REMARK SMILES IDX 71 96 64 97 66 98 67 99 68 100 69 101
REMARK H PARENT 10 13 91 54 59 65
REMARK Flexibility Score: inf
ROOT
ATOM      1  C   UNL A   1      45.813  24.041  25.792  1.00  0.00     0.188 C 
ENDROOT
BRANCH   1   2
ATOM      2  O   UNL A   1      44.837  23.040  25.491  1.00  0.00    -0.376 OA
BRANCH   2   3
ATOM      3  C   UNL A   1      45.400  21.703  25.680  1.00  0.00     0.202 C 
BRANCH   3   4
ATOM      4  C   UNL A   1      44.343  20.666  25.245  1.00  0.00     0.261 C 
BRANCH   4   5
ATOM      5  O   UNL A   1      42.991  21.090  25.559  1.00  0.00    -0.463 OA
BRANCH   5   6
ATOM      6  C   UNL A   1      42.142  20.070  25.781  1.00  0.00     0.310 C 
ATOM      7  O   UNL A   1      42.534  18.904  25.731  1.00  0.00    -0.252 OA
BRANCH   6   8
ATOM      8  C   UNL A   1      40.769  20.380  26.317  1.00  0.00     0.161 C 
BRANCH   8   9
ATOM      9  C   UNL A   1      39.753  21.454  26.070  1.00  0.00     0.000 A 
ATOM     10  C   UNL A   1      39.802  22.837  26.369  1.00  0.00     0.093 A 
ATOM     11  N   UNL A   1      38.416  23.172  26.401  1.00  0.00    -0.351 N 
ATOM     12  C   UNL A   1      37.593  22.247  25.847  1.00  0.00     0.048 A 
ATOM     13  H   UNL A   1      38.083  24.010  26.795  1.00  0.00     0.167 HD
ATOM     14  C   UNL A   1      38.376  21.117  25.697  1.00  0.00     0.007 A 
ATOM     15  C   UNL A   1      36.224  22.313  25.528  1.00  0.00     0.050 A 
ATOM     16  C   UNL A   1      37.724  19.935  25.285  1.00  0.00     0.051 A 
ATOM     17  C   UNL A   1      35.637  21.158  25.005  1.00  0.00     0.078 A 
ATOM     18  C   UNL A   1      36.375  19.983  24.909  1.00  0.00     0.142 A 
ATOM     19  Cl  UNL A   1      34.006  21.222  24.444  1.00  0.00    -0.081 Cl
ATOM     20  F   UNL A   1      35.815  18.872  24.405  1.00  0.00    -0.205 F 
BRANCH  10  21
ATOM     21  C   UNL A   1      40.673  24.061  26.696  1.00  0.00     0.227 C 
ATOM     22  O   UNL A   1      41.753  23.565  27.014  1.00  0.00    -0.285 OA
BRANCH  21  23
ATOM     23  C   UNL A   1      40.501  25.763  27.057  1.00  0.00     0.113 A 
ATOM     24  C   UNL A   1      42.050  29.181  26.247  1.00  0.00     0.044 C 
ATOM     25  C   UNL A   1      41.004  28.226  26.761  1.00  0.00    -0.047 A 
ATOM     26  C   UNL A   1      39.964  28.551  27.575  1.00  0.00     0.023 A 
ATOM     27  C   UNL A   1      41.115  26.872  26.416  1.00  0.00     0.036 A 
ATOM     28  C   UNL A   1      39.255  27.479  28.094  1.00  0.00     0.112 A 
ATOM     29  N   UNL A   1      39.548  26.136  27.923  1.00  0.00    -0.253 NA
ENDBRANCH  21  23
ENDBRANCH  10  21
ENDBRANCH   8   9
ENDBRANCH   6   8
ENDBRANCH   5   6
ENDBRANCH   4   5
ENDBRANCH   3   4
ENDBRANCH   2   3
ENDBRANCH   1   2
BRANCH   1  30
ATOM     30  C   UNL A   1      45.936  24.704  27.258  1.00  0.00     0.188 C 
BRANCH  30  31
ATOM     31  O   UNL A   1      45.721  24.013  28.537  1.00  0.00    -0.376 OA
BRANCH  31  32
ATOM     32  C   UNL A   1      44.487  23.495  29.140  1.00  0.00     0.202 C 
BRANCH  32  33
ATOM     33  C   UNL A   1      44.279  23.059  30.805  1.00  0.00     0.261 C 
BRANCH  33  34
ATOM     34  O   UNL A   1      44.123  24.050  31.974  1.00  0.00    -0.460 OA
BRANCH  34  35
ATOM     35  C   UNL A   1      45.084  24.995  32.407  1.00  0.00     0.338 C 
ATOM     36  O   UNL A   1      46.248  24.921  32.132  1.00  0.00    -0.246 OA
BRANCH  35  37
ATOM     37  C   UNL A   1      44.447  26.330  33.012  1.00  0.00     0.060 A 
ATOM     38  C   UNL A   1      43.449  26.394  33.982  1.00  0.00     0.016 A 
ATOM     39  C   UNL A   1      44.692  27.551  32.340  1.00  0.00     0.016 A 
ATOM     40  C   UNL A   1      42.555  27.515  34.068  1.00  0.00     0.010 A 
ATOM     41  C   UNL A   1      43.812  28.679  32.434  1.00  0.00     0.010 A 
ATOM     42  C   UNL A   1      42.679  28.664  33.253  1.00  0.00    -0.014 A 
BRANCH  42  43
ATOM     43  C   UNL A   1      41.898  29.919  33.583  1.00  0.00     0.031 A 
ATOM     44  C   UNL A   1      41.125  30.359  32.419  1.00  0.00     0.074 A 
ATOM     45  C   UNL A   1      41.676  30.689  34.688  1.00  0.00     0.049 A 
ATOM     46  N   UNL A   1      41.408  31.371  31.670  1.00  0.00    -0.248 NA
ATOM     47  C   UNL A   1      40.040  29.504  31.948  1.00  0.00     0.031 C 
ATOM     48  C   UNL A   1      42.339  30.533  35.951  1.00  0.00     0.029 A 
ATOM     49  N   UNL A   1      40.865  31.773  34.987  1.00  0.00    -0.354 N 
ATOM     50  C   UNL A   1      40.335  31.450  30.804  1.00  0.00     0.074 A 
ATOM     51  C   UNL A   1      39.673  30.170  30.853  1.00  0.00     0.031 C 
ATOM     52  C   UNL A   1      41.677  31.116  36.977  1.00  0.00     0.029 A 
ATOM     53  C   UNL A   1      40.717  32.015  36.367  1.00  0.00     0.049 A 
ATOM     54  H   UNL A   1      40.432  32.325  34.296  1.00  0.00     0.167 HD
ATOM     55  C   UNL A   1      39.872  32.664  30.415  1.00  0.00     0.034 A 
ATOM     56  C   UNL A   1      40.083  32.994  37.066  1.00  0.00     0.034 A 
ATOM     57  C   UNL A   1      40.823  33.722  30.656  1.00  0.00     0.049 A 
ATOM     58  C   UNL A   1      40.017  34.170  36.192  1.00  0.00     0.074 A 
ATOM     59  C   UNL A   1      42.104  34.028  30.249  1.00  0.00     0.029 A 
ATOM     60  N   UNL A   1      40.551  34.501  31.749  1.00  0.00    -0.354 N 
ATOM     61  N   UNL A   1      41.047  34.907  35.886  1.00  0.00    -0.248 NA
ATOM     62  C   UNL A   1      38.830  34.359  35.381  1.00  0.00     0.031 C 
ATOM     63  C   UNL A   1      42.668  34.824  31.287  1.00  0.00     0.029 A 
ATOM     64  C   UNL A   1      41.707  35.003  32.283  1.00  0.00     0.049 A 
ATOM     65  H   UNL A   1      39.649  34.676  32.102  1.00  0.00     0.167 HD
ATOM     66  C   UNL A   1      40.799  35.274  34.576  1.00  0.00     0.074 A 
ATOM     67  C   UNL A   1      39.370  35.060  34.383  1.00  0.00     0.031 C 
ATOM     68  C   UNL A   1      41.820  35.388  33.678  1.00  0.00     0.034 A 
BRANCH  55  69
ATOM     69  C   UNL A   1      38.401  32.957  30.241  1.00  0.00     0.023 A 
ATOM     70  C   UNL A   1      37.975  33.414  28.978  1.00  0.00     0.012 A 
ATOM     71  C   UNL A   1      37.476  33.062  31.308  1.00  0.00     0.148 A 
ATOM     72  C   UNL A   1      36.696  33.948  28.789  1.00  0.00     0.002 A 
ATOM     73  C   UNL A   1      36.174  33.488  31.091  1.00  0.00     0.091 A 
ATOM     74  F   UNL A   1      37.883  32.902  32.570  1.00  0.00    -0.205 F 
ATOM     75  C   UNL A   1      35.786  33.962  29.839  1.00  0.00     0.022 A 
BRANCH  73  76
ATOM     76  S   UNL A   1      34.949  33.443  32.405  1.00  0.00     0.127 S 
ATOM     77  O   UNL A   1      34.606  34.855  32.533  1.00  0.00    -0.237 OA
ATOM     78  O   UNL A   1      33.911  32.600  31.812  1.00  0.00    -0.237 OA
ATOM     79  O   UNL A   1      35.627  32.836  33.544  1.00  0.00    -0.744 OA
ENDBRANCH  73  76
ENDBRANCH  55  69
BRANCH  56  80
ATOM     80  C   UNL A   1      39.479  32.984  38.433  1.00  0.00     0.023 A 
ATOM     81  C   UNL A   1      39.991  33.817  39.455  1.00  0.00     0.012 A 
ATOM     82  C   UNL A   1      38.210  32.401  38.644  1.00  0.00     0.148 A 
ATOM     83  C   UNL A   1      39.230  34.128  40.594  1.00  0.00     0.002 A 
ATOM     84  C   UNL A   1      37.451  32.726  39.767  1.00  0.00     0.091 A 
ATOM     85  F   UNL A   1      37.706  31.597  37.700  1.00  0.00    -0.205 F 
ATOM     86  C   UNL A   1      37.949  33.604  40.738  1.00  0.00     0.022 A 
BRANCH  84  87
ATOM     87  S   UNL A   1      35.766  32.132  39.975  1.00  0.00     0.127 S 
ATOM     88  O   UNL A   1      35.479  32.493  41.365  1.00  0.00    -0.237 OA
ATOM     89  O   UNL A   1      35.047  32.923  38.979  1.00  0.00    -0.237 OA
ATOM     90  O   UNL A   1      35.820  30.698  39.730  1.00  0.00    -0.744 OA
ENDBRANCH  84  87
ENDBRANCH  56  80
BRANCH  68  91
ATOM     91  C   UNL A   1      43.199  35.711  34.189  1.00  0.00     0.023 A 
ATOM     92  C   UNL A   1      43.649  37.024  34.430  1.00  0.00     0.012 A 
ATOM     93  C   UNL A   1      44.013  34.631  34.578  1.00  0.00     0.148 A 
ATOM     94  C   UNL A   1      44.885  37.250  35.047  1.00  0.00     0.002 A 
ATOM     95  C   UNL A   1      45.213  34.857  35.240  1.00  0.00     0.091 A 
ATOM     96  F   UNL A   1      43.578  33.387  34.320  1.00  0.00    -0.205 F 
ATOM     97  C   UNL A   1      45.658  36.167  35.469  1.00  0.00     0.022 A 
BRANCH  95  98
ATOM     98  S   UNL A   1      46.179  33.508  35.926  1.00  0.00     0.127 S 
ATOM     99  O   UNL A   1      47.384  33.541  35.101  1.00  0.00    -0.237 OA
ATOM    100  O   UNL A   1      46.373  33.938  37.312  1.00  0.00    -0.237 OA
ATOM    101  O   UNL A   1      45.357  32.312  35.785  1.00  0.00    -0.744 OA
ENDBRANCH  95  98
ENDBRANCH  68  91
ENDBRANCH  42  43
ENDBRANCH  35  37
ENDBRANCH  34  35
ENDBRANCH  33  34
ENDBRANCH  32  33
ENDBRANCH  31  32
ENDBRANCH  30  31
ENDBRANCH   1  30
TORSDOF 23
ENDMDL
MODEL 3
REMARK VINA RESULT:     -10.1      2.421      3.921
REMARK SMILES Cc1ccnc(C(=O)c2[nH]c3cc(Cl)c(F)cc3c2CC(=O)OCCOCCOCCOC(=O)c2ccc(-c3c4nc(c(-c5cccc(S(=O)(=O)[O-])c5F)c5ccc([nH]5)c(-c5cccc(S(=O)(=O)[O-])c5F)c5nc(c(-c6cccc(S(=O)(=O)[O-])c6F)c6ccc3[nH]6)C=C5)C=C4)cc2)c1
REMARK SMILES IDX 27 1 26 2 25 3 24 4 23 5 21 6 22 7 20 8 19 9 9 10 10 11
REMARK SMILES IDX 11 12 18 14 12 15 17 16 13 17 15 18 14 19 16 20 7 21 8 22
REMARK SMILES IDX 6 23 1 24 2 25 3 26 98 27 4 28 5 29 28 30 29 31 30 32 31 33
REMARK SMILES IDX 32 34 33 35 34 36 35 37 36 38 97 39 37 40 96 41 38 42 39 43
REMARK SMILES IDX 40 44 90 45 41 46 95 47 89 48 91 49 42 50 94 51 88 52 87 53
REMARK SMILES IDX 43 55 75 56 55 57 74 58 56 59 59 60 73 61 92 62 57 63 58 64
REMARK SMILES IDX 72 66 93 67 60 68 44 69 45 70 53 71 46 72 48 73 54 74 47 75
REMARK SMILES IDX 49 76 50 77 51 78 52 79 76 80 77 81 85 82 78 83 80 84 86 85
REMARK SMILES IDX 79 86 81 87 82 88 83 89 84 90 61 91 62 92 70 93 63 94 65 95
REMARK SMILES IDX 71 96 64 97 66 98 67 99 68 100 69 101
REMARK H PARENT 10 13 91 54 59 65
REMARK Flexibility Score: inf
ROOT
ATOM      1  C   UNL A   1      45.759  24.122  25.927  1.00  0.00     0.188 C 
ENDROOT
BRANCH   1   2
ATOM      2  O   UNL A   1      44.732  23.185  25.593  1.00  0.00    -0.376 OA
BRANCH   2   3
ATOM      3  C   UNL A   1      45.207  21.815  25.781  1.00  0.00     0.202 C 
BRANCH   3   4
ATOM      4  C   UNL A   1      44.113  20.849  25.281  1.00  0.00     0.261 C 
BRANCH   4   5
ATOM      5  O   UNL A   1      42.777  21.306  25.617  1.00  0.00    -0.463 OA
BRANCH   5   6
ATOM      6  C   UNL A   1      41.885  20.309  25.758  1.00  0.00     0.310 C 
ATOM      7  O   UNL A   1      42.224  19.135  25.610  1.00  0.00    -0.252 OA
BRANCH   6   8
ATOM      8  C   UNL A   1      40.528  20.634  26.327  1.00  0.00     0.161 C 
BRANCH   8   9
ATOM      9  C   UNL A   1      39.538  21.744  26.139  1.00  0.00     0.000 A 
ATOM     10  C   UNL A   1      39.633  23.114  26.484  1.00  0.00     0.093 A 
ATOM     11  N   UNL A   1      38.259  23.486  26.557  1.00  0.00    -0.351 N 
ATOM     12  C   UNL A   1      37.397  22.604  25.988  1.00  0.00     0.048 A 
ATOM     13  H   UNL A   1      37.957  24.319  26.986  1.00  0.00     0.167 HD
ATOM     14  C   UNL A   1      38.145  21.459  25.783  1.00  0.00     0.007 A 
ATOM     15  C   UNL A   1      36.025  22.720  25.700  1.00  0.00     0.050 A 
ATOM     16  C   UNL A   1      37.451  20.311  25.343  1.00  0.00     0.051 A 
ATOM     17  C   UNL A   1      35.396  21.601  25.150  1.00  0.00     0.078 A 
ATOM     18  C   UNL A   1      36.096  20.410  24.999  1.00  0.00     0.142 A 
ATOM     19  Cl  UNL A   1      33.756  21.731  24.626  1.00  0.00    -0.081 Cl
ATOM     20  F   UNL A   1      35.495  19.333  24.468  1.00  0.00    -0.205 F 
BRANCH  10  21
ATOM     21  C   UNL A   1      40.545  24.300  26.835  1.00  0.00     0.227 C 
ATOM     22  O   UNL A   1      41.565  23.759  27.261  1.00  0.00    -0.285 OA
BRANCH  21  23
ATOM     23  C   UNL A   1      40.445  26.023  27.114  1.00  0.00     0.113 A 
ATOM     24  C   UNL A   1      42.142  29.330  26.149  1.00  0.00     0.044 C 
ATOM     25  C   UNL A   1      41.054  28.445  26.704  1.00  0.00    -0.047 A 
ATOM     26  C   UNL A   1      40.027  28.853  27.497  1.00  0.00     0.023 A 
ATOM     27  C   UNL A   1      41.108  27.073  26.424  1.00  0.00     0.036 A 
ATOM     28  C   UNL A   1      39.271  27.838  28.063  1.00  0.00     0.112 A 
ATOM     29  N   UNL A   1      39.507  26.477  27.957  1.00  0.00    -0.253 NA
ENDBRANCH  21  23
ENDBRANCH  10  21
ENDBRANCH   8   9
ENDBRANCH   6   8
ENDBRANCH   5   6
ENDBRANCH   4   5
ENDBRANCH   3   4
ENDBRANCH   2   3
ENDBRANCH   1   2
BRANCH   1  30
ATOM     30  C   UNL A   1      45.907  24.739  27.411  1.00  0.00     0.188 C 
BRANCH  30  31
ATOM     31  O   UNL A   1      45.616  24.037  28.668  1.00  0.00    -0.376 OA
BRANCH  31  32
ATOM     32  C   UNL A   1      44.351  23.503  29.186  1.00  0.00     0.202 C 
BRANCH  32  33
ATOM     33  C   UNL A   1      44.044  23.041  30.829  1.00  0.00     0.261 C 
BRANCH  33  34
ATOM     34  O   UNL A   1      43.847  24.014  32.006  1.00  0.00    -0.460 OA
BRANCH  34  35
ATOM     35  C   UNL A   1      44.811  24.913  32.523  1.00  0.00     0.338 C 
ATOM     36  O   UNL A   1      45.984  24.814  32.305  1.00  0.00    -0.246 OA
BRANCH  35  37
ATOM     37  C   UNL A   1      44.181  26.243  33.146  1.00  0.00     0.060 A 
ATOM     38  C   UNL A   1      43.226  26.301  34.158  1.00  0.00     0.016 A 
ATOM     39  C   UNL A   1      44.380  27.463  32.455  1.00  0.00     0.016 A 
ATOM     40  C   UNL A   1      42.320  27.411  34.274  1.00  0.00     0.010 A 
ATOM     41  C   UNL A   1      43.489  28.580  32.579  1.00  0.00     0.010 A 
ATOM     42  C   UNL A   1      42.393  28.555  33.446  1.00  0.00    -0.014 A 
BRANCH  42  43
ATOM     43  C   UNL A   1      41.609  29.802  33.801  1.00  0.00     0.031 A 
ATOM     44  C   UNL A   1      40.682  30.145  32.720  1.00  0.00     0.074 A 
ATOM     45  C   UNL A   1      41.495  30.629  34.879  1.00  0.00     0.049 A 
ATOM     46  N   UNL A   1      40.829  31.118  31.886  1.00  0.00    -0.248 NA
ATOM     47  C   UNL A   1      39.581  29.228  32.439  1.00  0.00     0.031 C 
ATOM     48  C   UNL A   1      42.314  30.572  36.056  1.00  0.00     0.029 A 
ATOM     49  N   UNL A   1      40.685  31.704  35.217  1.00  0.00    -0.354 N 
ATOM     50  C   UNL A   1      39.655  31.109  31.159  1.00  0.00     0.074 A 
ATOM     51  C   UNL A   1      39.055  29.813  31.362  1.00  0.00     0.031 C 
ATOM     52  C   UNL A   1      41.762  31.195  37.123  1.00  0.00     0.029 A 
ATOM     53  C   UNL A   1      40.699  32.023  36.588  1.00  0.00     0.049 A 
ATOM     54  H   UNL A   1      40.148  32.198  34.556  1.00  0.00     0.167 HD
ATOM     55  C   UNL A   1      39.099  32.282  30.763  1.00  0.00     0.034 A 
ATOM     56  C   UNL A   1      40.117  33.023  37.306  1.00  0.00     0.034 A 
ATOM     57  C   UNL A   1      40.029  33.382  30.822  1.00  0.00     0.049 A 
ATOM     58  C   UNL A   1      39.897  34.140  36.382  1.00  0.00     0.074 A 
ATOM     59  C   UNL A   1      41.237  33.705  30.241  1.00  0.00     0.029 A 
ATOM     60  N   UNL A   1      39.864  34.218  31.896  1.00  0.00    -0.354 N 
ATOM     61  N   UNL A   1      40.852  34.890  35.908  1.00  0.00    -0.248 NA
ATOM     62  C   UNL A   1      38.613  34.241  35.717  1.00  0.00     0.031 C 
ATOM     63  C   UNL A   1      41.894  34.581  31.154  1.00  0.00     0.029 A 
ATOM     64  C   UNL A   1      41.057  34.789  32.251  1.00  0.00     0.049 A 
ATOM     65  H   UNL A   1      39.007  34.385  32.349  1.00  0.00     0.167 HD
ATOM     66  C   UNL A   1      40.429  35.168  34.621  1.00  0.00     0.074 A 
ATOM     67  C   UNL A   1      38.997  34.897  34.622  1.00  0.00     0.031 C 
ATOM     68  C   UNL A   1      41.325  35.261  33.597  1.00  0.00     0.034 A 
BRANCH  55  69
ATOM     69  C   UNL A   1      37.608  32.516  30.760  1.00  0.00     0.023 A 
ATOM     70  C   UNL A   1      36.930  32.396  31.989  1.00  0.00     0.012 A 
ATOM     71  C   UNL A   1      36.812  32.581  29.591  1.00  0.00     0.148 A 
ATOM     72  C   UNL A   1      35.534  32.345  32.050  1.00  0.00     0.002 A 
ATOM     73  C   UNL A   1      35.428  32.642  29.666  1.00  0.00     0.091 A 
ATOM     74  F   UNL A   1      37.370  32.430  28.387  1.00  0.00    -0.205 F 
ATOM     75  C   UNL A   1      34.781  32.493  30.891  1.00  0.00     0.022 A 
BRANCH  73  76
ATOM     76  S   UNL A   1      34.427  32.914  28.199  1.00  0.00     0.127 S 
ATOM     77  O   UNL A   1      34.411  31.581  27.605  1.00  0.00    -0.237 OA
ATOM     78  O   UNL A   1      33.159  33.351  28.783  1.00  0.00    -0.237 OA
ATOM     79  O   UNL A   1      35.122  33.950  27.444  1.00  0.00    -0.744 OA
ENDBRANCH  73  76
ENDBRANCH  55  69
BRANCH  56  80
ATOM     80  C   UNL A   1      39.688  33.076  38.737  1.00  0.00     0.023 A 
ATOM     81  C   UNL A   1      38.322  32.960  39.085  1.00  0.00     0.012 A 
ATOM     82  C   UNL A   1      40.638  32.918  39.769  1.00  0.00     0.148 A 
ATOM     83  C   UNL A   1      37.927  32.610  40.387  1.00  0.00     0.002 A 
ATOM     84  C   UNL A   1      40.244  32.554  41.055  1.00  0.00     0.091 A 
ATOM     85  F   UNL A   1      41.938  33.035  39.471  1.00  0.00    -0.205 F 
ATOM     86  C   UNL A   1      38.889  32.381  41.366  1.00  0.00     0.022 A 
BRANCH  84  87
ATOM     87  S   UNL A   1      41.443  32.181  42.343  1.00  0.00     0.127 S 
ATOM     88  O   UNL A   1      42.038  33.494  42.602  1.00  0.00    -0.237 OA
ATOM     89  O   UNL A   1      40.583  31.679  43.413  1.00  0.00    -0.237 OA
ATOM     90  O   UNL A   1      42.361  31.213  41.759  1.00  0.00    -0.744 OA
ENDBRANCH  84  87
ENDBRANCH  56  80
BRANCH  68  91
ATOM     91  C   UNL A   1      42.743  35.659  33.912  1.00  0.00     0.023 A 
ATOM     92  C   UNL A   1      43.175  36.998  33.986  1.00  0.00     0.012 A 
ATOM     93  C   UNL A   1      43.632  34.636  34.291  1.00  0.00     0.148 A 
ATOM     94  C   UNL A   1      44.466  37.306  34.430  1.00  0.00     0.002 A 
ATOM     95  C   UNL A   1      44.893  34.947  34.783  1.00  0.00     0.091 A 
ATOM     96  F   UNL A   1      43.212  33.365  34.191  1.00  0.00    -0.205 F 
ATOM     97  C   UNL A   1      45.318  36.282  34.848  1.00  0.00     0.022 A 
BRANCH  95  98
ATOM     98  S   UNL A   1      45.977  33.686  35.461  1.00  0.00     0.127 S 
ATOM     99  O   UNL A   1      46.520  33.066  34.256  1.00  0.00    -0.237 OA
ATOM    100  O   UNL A   1      46.938  34.481  36.228  1.00  0.00    -0.237 OA
ATOM    101  O   UNL A   1      45.131  32.827  36.281  1.00  0.00    -0.744 OA
ENDBRANCH  95  98
ENDBRANCH  68  91
ENDBRANCH  42  43
ENDBRANCH  35  37
ENDBRANCH  34  35
ENDBRANCH  33  34
ENDBRANCH  32  33
ENDBRANCH  31  32
ENDBRANCH  30  31
ENDBRANCH   1  30
TORSDOF 23
ENDMDL
