MODEL 1
REMARK VINA RESULT:     -11.3      0.000      0.000
REMARK SMILES COc1ccc2c(c1)[C@@](NC=O)(C(=O)OCCOCCOCCOC(=O)c1ccc(-c3c4nc(c(-c5cccc(S(=O)(=O)[O-])c5F)c5ccc([nH]5)c(-c5cccc(S(=O)(=O)[O-])c5F)c5nc(c(-c6cccc(S(=O)(=O)[O-])c6F)c6ccc3[nH]6)C=C5)C=C4)cc1)CCC2
REMARK SMILES IDX 20 1 19 2 18 3 17 4 16 5 15 6 13 7 14 8 9 9 3 10 4 11 8 12
REMARK SMILES IDX 5 13 7 14 6 15 92 16 90 17 91 18 2 19 1 20 10 21 11 22 12 24
REMARK SMILES IDX 21 25 22 26 23 27 24 28 25 29 26 30 27 31 28 32 89 33 29 34
REMARK SMILES IDX 88 35 30 36 31 37 32 38 82 39 33 40 87 41 81 42 83 43 34 44
REMARK SMILES IDX 86 45 80 46 79 47 35 49 67 50 47 51 66 52 48 53 51 54 65 55
REMARK SMILES IDX 84 56 49 57 50 58 64 60 85 61 52 62 36 63 37 64 45 65 38 66
REMARK SMILES IDX 40 67 46 68 39 69 41 70 42 71 43 72 44 73 68 74 69 75 77 76
REMARK SMILES IDX 70 77 72 78 78 79 71 80 73 81 74 82 75 83 76 84 53 85 54 86
REMARK SMILES IDX 62 87 55 88 57 89 63 90 56 91 58 92 59 93 60 94 61 95
REMARK H PARENT 10 23 83 48 51 59
REMARK Flexibility Score: inf
ROOT
ATOM      1  C   UNL A   1      41.454  21.233  26.414  1.00  0.00     0.188 C 
ENDROOT
BRANCH   1   2
ATOM      2  C   UNL A   1      39.960  20.932  26.224  1.00  0.00     0.188 C 
BRANCH   2   3
ATOM      3  O   UNL A   1      39.013  21.985  26.363  1.00  0.00    -0.376 OA
BRANCH   3   4
ATOM      4  C   UNL A   1      37.972  22.137  25.413  1.00  0.00     0.202 C 
BRANCH   4   5
ATOM      5  C   UNL A   1      36.552  22.411  25.925  1.00  0.00     0.261 C 
BRANCH   5   6
ATOM      6  O   UNL A   1      35.521  21.480  25.535  1.00  0.00    -0.461 OA
BRANCH   6   7
ATOM      7  C   UNL A   1      34.357  21.539  26.251  1.00  0.00     0.336 C 
ATOM      8  O   UNL A   1      34.316  21.434  27.473  1.00  0.00    -0.249 OA
BRANCH   7   9
ATOM      9  C   UNL A   1      33.065  21.556  25.343  1.00  0.00     0.164 C 
ATOM     10  C   UNL A   1      33.009  17.746  24.888  1.00  0.00     0.119 A 
ATOM     11  C   UNL A   1      32.606  17.617  23.565  1.00  0.00     0.047 A 
ATOM     12  C   UNL A   1      33.164  19.018  25.428  1.00  0.00     0.053 A 
ATOM     13  C   UNL A   1      32.298  18.750  22.809  1.00  0.00     0.008 A 
ATOM     14  C   UNL A   1      32.861  20.180  24.689  1.00  0.00    -0.004 A 
ATOM     15  C   UNL A   1      32.396  20.035  23.365  1.00  0.00    -0.042 A 
ATOM     16  C   UNL A   1      32.073  21.220  22.486  1.00  0.00     0.036 C 
ATOM     17  C   UNL A   1      33.133  22.634  24.232  1.00  0.00     0.046 C 
ATOM     18  C   UNL A   1      31.953  22.522  23.266  1.00  0.00     0.008 C 
BRANCH  10  19
ATOM     19  O   UNL A   1      33.250  16.585  25.571  1.00  0.00    -0.497 OA
ATOM     20  C   UNL A   1      34.506  15.968  25.282  1.00  0.00     0.278 C 
ENDBRANCH  10  19
BRANCH   9  21
ATOM     21  N   UNL A   1      31.925  21.948  26.207  1.00  0.00    -0.339 N 
ATOM     22  C   UNL A   1      31.719  23.136  26.834  1.00  0.00     0.338 C 
ATOM     23  H   UNL A   1      31.232  21.263  26.343  1.00  0.00     0.164 HD
ATOM     24  O   UNL A   1      30.673  23.388  27.415  1.00  0.00    -0.279 OA
ENDBRANCH   9  21
ENDBRANCH   7   9
ENDBRANCH   6   7
ENDBRANCH   5   6
ENDBRANCH   4   5
ENDBRANCH   3   4
ENDBRANCH   2   3
ENDBRANCH   1   2
BRANCH   1  25
ATOM     25  O   UNL A   1      42.283  20.711  25.399  1.00  0.00    -0.376 OA
BRANCH  25  26
ATOM     26  C   UNL A   1      43.674  20.891  25.553  1.00  0.00     0.202 C 
BRANCH  26  27
ATOM     27  C   UNL A   1      44.223  22.221  25.019  1.00  0.00     0.261 C 
BRANCH  27  28
ATOM     28  O   UNL A   1      43.346  23.357  25.126  1.00  0.00    -0.460 OA
BRANCH  28  29
ATOM     29  C   UNL A   1      43.920  24.581  25.238  1.00  0.00     0.338 C 
ATOM     30  O   UNL A   1      44.729  25.072  24.476  1.00  0.00    -0.246 OA
BRANCH  29  31
ATOM     31  C   UNL A   1      43.201  25.327  26.306  1.00  0.00     0.060 A 
ATOM     32  C   UNL A   1      43.341  26.723  26.373  1.00  0.00     0.016 A 
ATOM     33  C   UNL A   1      42.378  24.665  27.218  1.00  0.00     0.016 A 
ATOM     34  C   UNL A   1      42.682  27.453  27.368  1.00  0.00     0.010 A 
ATOM     35  C   UNL A   1      41.740  25.394  28.228  1.00  0.00     0.010 A 
ATOM     36  C   UNL A   1      41.911  26.788  28.331  1.00  0.00    -0.014 A 
BRANCH  36  37
ATOM     37  C   UNL A   1      41.453  27.499  29.554  1.00  0.00     0.031 A 
ATOM     38  C   UNL A   1      40.147  28.249  29.496  1.00  0.00     0.074 A 
ATOM     39  C   UNL A   1      42.177  27.516  30.688  1.00  0.00     0.049 A 
ATOM     40  N   UNL A   1      39.586  29.017  30.391  1.00  0.00    -0.248 NA
ATOM     41  C   UNL A   1      39.376  28.115  28.248  1.00  0.00     0.031 C 
ATOM     42  C   UNL A   1      43.445  26.822  30.896  1.00  0.00     0.029 A 
ATOM     43  N   UNL A   1      41.954  28.178  31.874  1.00  0.00    -0.354 N 
ATOM     44  C   UNL A   1      38.420  29.493  29.805  1.00  0.00     0.074 A 
ATOM     45  C   UNL A   1      38.356  28.930  28.473  1.00  0.00     0.031 C 
ATOM     46  C   UNL A   1      43.910  27.124  32.121  1.00  0.00     0.029 A 
ATOM     47  C   UNL A   1      42.990  28.059  32.772  1.00  0.00     0.049 A 
ATOM     48  H   UNL A   1      41.134  28.687  32.061  1.00  0.00     0.167 HD
ATOM     49  C   UNL A   1      37.479  30.318  30.324  1.00  0.00     0.034 A 
ATOM     50  C   UNL A   1      43.190  28.660  33.963  1.00  0.00     0.034 A 
ATOM     51  C   UNL A   1      37.531  30.874  31.649  1.00  0.00     0.049 A 
ATOM     52  C   UNL A   1      42.148  29.606  34.509  1.00  0.00     0.074 A 
ATOM     53  C   UNL A   1      36.600  31.682  32.278  1.00  0.00     0.029 A 
ATOM     54  N   UNL A   1      38.577  30.701  32.541  1.00  0.00    -0.354 N 
ATOM     55  N   UNL A   1      41.000  29.964  33.987  1.00  0.00    -0.248 NA
ATOM     56  C   UNL A   1      42.419  30.211  35.824  1.00  0.00     0.031 C 
ATOM     57  C   UNL A   1      37.103  32.031  33.536  1.00  0.00     0.029 A 
ATOM     58  C   UNL A   1      38.326  31.402  33.708  1.00  0.00     0.049 A 
ATOM     59  H   UNL A   1      39.381  30.159  32.370  1.00  0.00     0.167 HD
ATOM     60  C   UNL A   1      40.396  30.801  34.922  1.00  0.00     0.074 A 
ATOM     61  C   UNL A   1      41.300  30.885  36.051  1.00  0.00     0.031 C 
ATOM     62  C   UNL A   1      39.206  31.448  34.849  1.00  0.00     0.034 A 
BRANCH  49  63
ATOM     63  C   UNL A   1      36.308  30.671  29.445  1.00  0.00     0.023 A 
ATOM     64  C   UNL A   1      35.572  29.651  28.809  1.00  0.00     0.012 A 
ATOM     65  C   UNL A   1      35.917  32.014  29.274  1.00  0.00     0.148 A 
ATOM     66  C   UNL A   1      34.493  29.964  27.982  1.00  0.00     0.002 A 
ATOM     67  C   UNL A   1      34.811  32.314  28.490  1.00  0.00     0.091 A 
ATOM     68  F   UNL A   1      36.643  32.972  29.869  1.00  0.00    -0.205 F 
ATOM     69  C   UNL A   1      34.108  31.293  27.830  1.00  0.00     0.022 A 
BRANCH  67  70
ATOM     70  S   UNL A   1      34.187  33.988  28.298  1.00  0.00     0.127 S 
ATOM     71  O   UNL A   1      35.057  34.507  27.244  1.00  0.00    -0.237 OA
ATOM     72  O   UNL A   1      32.803  33.753  27.885  1.00  0.00    -0.237 OA
ATOM     73  O   UNL A   1      34.333  34.622  29.600  1.00  0.00    -0.744 OA
ENDBRANCH  67  70
ENDBRANCH  49  63
BRANCH  50  74
ATOM     74  C   UNL A   1      44.432  28.375  34.740  1.00  0.00     0.023 A 
ATOM     75  C   UNL A   1      45.557  29.209  34.590  1.00  0.00     0.012 A 
ATOM     76  C   UNL A   1      44.497  27.288  35.635  1.00  0.00     0.148 A 
ATOM     77  C   UNL A   1      46.732  28.952  35.297  1.00  0.00     0.002 A 
ATOM     78  C   UNL A   1      45.653  27.070  36.377  1.00  0.00     0.091 A 
ATOM     79  F   UNL A   1      43.423  26.496  35.748  1.00  0.00    -0.205 F 
ATOM     80  C   UNL A   1      46.777  27.891  36.197  1.00  0.00     0.022 A 
BRANCH  78  81
ATOM     81  S   UNL A   1      45.767  25.798  37.640  1.00  0.00     0.127 S 
ATOM     82  O   UNL A   1      44.500  25.965  38.349  1.00  0.00    -0.237 OA
ATOM     83  O   UNL A   1      45.865  24.582  36.833  1.00  0.00    -0.237 OA
ATOM     84  O   UNL A   1      46.962  26.111  38.411  1.00  0.00    -0.744 OA
ENDBRANCH  78  81
ENDBRANCH  50  74
BRANCH  62  85
ATOM     85  C   UNL A   1      38.770  32.273  36.036  1.00  0.00     0.023 A 
ATOM     86  C   UNL A   1      38.940  33.671  36.026  1.00  0.00     0.012 A 
ATOM     87  C   UNL A   1      38.113  31.666  37.126  1.00  0.00     0.148 A 
ATOM     88  C   UNL A   1      38.497  34.447  37.099  1.00  0.00     0.002 A 
ATOM     89  C   UNL A   1      37.628  32.452  38.166  1.00  0.00     0.091 A 
ATOM     90  F   UNL A   1      37.971  30.333  37.126  1.00  0.00    -0.205 F 
ATOM     91  C   UNL A   1      37.831  33.840  38.161  1.00  0.00     0.022 A 
BRANCH  89  92
ATOM     92  S   UNL A   1      36.671  31.770  39.526  1.00  0.00     0.127 S 
ATOM     93  O   UNL A   1      36.830  32.802  40.549  1.00  0.00    -0.237 OA
ATOM     94  O   UNL A   1      35.329  31.687  38.949  1.00  0.00    -0.237 OA
ATOM     95  O   UNL A   1      37.275  30.483  39.840  1.00  0.00    -0.744 OA
ENDBRANCH  89  92
ENDBRANCH  62  85
ENDBRANCH  36  37
ENDBRANCH  29  31
ENDBRANCH  28  29
ENDBRANCH  27  28
ENDBRANCH  26  27
ENDBRANCH  25  26
ENDBRANCH   1  25
TORSDOF 22
ENDMDL
MODEL 2
REMARK VINA RESULT:     -11.1      0.926      7.660
REMARK SMILES COc1ccc2c(c1)[C@@](NC=O)(C(=O)OCCOCCOCCOC(=O)c1ccc(-c3c4nc(c(-c5cccc(S(=O)(=O)[O-])c5F)c5ccc([nH]5)c(-c5cccc(S(=O)(=O)[O-])c5F)c5nc(c(-c6cccc(S(=O)(=O)[O-])c6F)c6ccc3[nH]6)C=C5)C=C4)cc1)CCC2
REMARK SMILES IDX 20 1 19 2 18 3 17 4 16 5 15 6 13 7 14 8 9 9 3 10 4 11 8 12
REMARK SMILES IDX 5 13 7 14 6 15 92 16 90 17 91 18 2 19 1 20 10 21 11 22 12 24
REMARK SMILES IDX 21 25 22 26 23 27 24 28 25 29 26 30 27 31 28 32 89 33 29 34
REMARK SMILES IDX 88 35 30 36 31 37 32 38 82 39 33 40 87 41 81 42 83 43 34 44
REMARK SMILES IDX 86 45 80 46 79 47 35 49 67 50 47 51 66 52 48 53 51 54 65 55
REMARK SMILES IDX 84 56 49 57 50 58 64 60 85 61 52 62 36 63 37 64 45 65 38 66
REMARK SMILES IDX 40 67 46 68 39 69 41 70 42 71 43 72 44 73 68 74 69 75 77 76
REMARK SMILES IDX 70 77 72 78 78 79 71 80 73 81 74 82 75 83 76 84 53 85 54 86
REMARK SMILES IDX 62 87 55 88 57 89 63 90 56 91 58 92 59 93 60 94 61 95
REMARK H PARENT 10 23 83 48 51 59
REMARK Flexibility Score: inf
ROOT
ATOM      1  C   UNL A   1      41.200  21.462  26.400  1.00  0.00     0.188 C 
ENDROOT
BRANCH   1   2
ATOM      2  C   UNL A   1      39.709  21.098  26.349  1.00  0.00     0.188 C 
BRANCH   2   3
ATOM      3  O   UNL A   1      38.734  22.122  26.513  1.00  0.00    -0.376 OA
BRANCH   3   4
ATOM      4  C   UNL A   1      37.873  22.464  25.441  1.00  0.00     0.202 C 
BRANCH   4   5
ATOM      5  C   UNL A   1      36.766  23.495  25.696  1.00  0.00     0.261 C 
BRANCH   5   6
ATOM      6  O   UNL A   1      35.455  23.196  25.172  1.00  0.00    -0.461 OA
BRANCH   6   7
ATOM      7  C   UNL A   1      34.433  23.185  26.081  1.00  0.00     0.336 C 
ATOM      8  O   UNL A   1      34.587  22.869  27.258  1.00  0.00    -0.249 OA
BRANCH   7   9
ATOM      9  C   UNL A   1      33.014  23.420  25.430  1.00  0.00     0.164 C 
ATOM     10  C   UNL A   1      32.830  19.903  23.907  1.00  0.00     0.119 A 
ATOM     11  C   UNL A   1      32.221  20.148  22.683  1.00  0.00     0.047 A 
ATOM     12  C   UNL A   1      33.088  20.970  24.761  1.00  0.00     0.053 A 
ATOM     13  C   UNL A   1      31.814  21.440  22.345  1.00  0.00     0.008 A 
ATOM     14  C   UNL A   1      32.689  22.286  24.447  1.00  0.00    -0.004 A 
ATOM     15  C   UNL A   1      32.018  22.513  23.226  1.00  0.00    -0.042 A 
ATOM     16  C   UNL A   1      31.577  23.890  22.789  1.00  0.00     0.036 C 
ATOM     17  C   UNL A   1      32.921  24.775  24.682  1.00  0.00     0.046 C 
ATOM     18  C   UNL A   1      31.602  24.907  23.921  1.00  0.00     0.008 C 
BRANCH  10  19
ATOM     19  O   UNL A   1      33.160  18.603  24.179  1.00  0.00    -0.497 OA
ATOM     20  C   UNL A   1      32.509  18.044  25.321  1.00  0.00     0.278 C 
ENDBRANCH  10  19
BRANCH   9  21
ATOM     21  N   UNL A   1      32.032  23.510  26.537  1.00  0.00    -0.339 N 
ATOM     22  C   UNL A   1      30.789  22.964  26.601  1.00  0.00     0.338 C 
ATOM     23  H   UNL A   1      32.315  24.029  27.324  1.00  0.00     0.164 HD
ATOM     24  O   UNL A   1      30.120  22.996  27.624  1.00  0.00    -0.279 OA
ENDBRANCH   9  21
ENDBRANCH   7   9
ENDBRANCH   6   7
ENDBRANCH   5   6
ENDBRANCH   4   5
ENDBRANCH   3   4
ENDBRANCH   2   3
ENDBRANCH   1   2
BRANCH   1  25
ATOM     25  O   UNL A   1      42.031  20.606  25.648  1.00  0.00    -0.376 OA
BRANCH  25  26
ATOM     26  C   UNL A   1      43.424  20.740  25.833  1.00  0.00     0.202 C 
BRANCH  26  27
ATOM     27  C   UNL A   1      44.094  21.824  24.976  1.00  0.00     0.261 C 
BRANCH  27  28
ATOM     28  O   UNL A   1      43.402  23.083  24.891  1.00  0.00    -0.460 OA
BRANCH  28  29
ATOM     29  C   UNL A   1      44.140  24.212  25.035  1.00  0.00     0.338 C 
ATOM     30  O   UNL A   1      45.116  24.524  24.384  1.00  0.00    -0.246 OA
BRANCH  29  31
ATOM     31  C   UNL A   1      43.404  25.126  25.950  1.00  0.00     0.060 A 
ATOM     32  C   UNL A   1      43.725  26.492  25.949  1.00  0.00     0.016 A 
ATOM     33  C   UNL A   1      42.390  24.648  26.783  1.00  0.00     0.016 A 
ATOM     34  C   UNL A   1      43.054  27.378  26.800  1.00  0.00     0.010 A 
ATOM     35  C   UNL A   1      41.737  25.531  27.651  1.00  0.00     0.010 A 
ATOM     36  C   UNL A   1      42.085  26.896  27.690  1.00  0.00    -0.014 A 
BRANCH  36  37
ATOM     37  C   UNL A   1      41.580  27.753  28.795  1.00  0.00     0.031 A 
ATOM     38  C   UNL A   1      42.352  27.778  30.089  1.00  0.00     0.074 A 
ATOM     39  C   UNL A   1      40.450  28.476  28.683  1.00  0.00     0.049 A 
ATOM     40  N   UNL A   1      42.066  28.366  31.219  1.00  0.00    -0.248 NA
ATOM     41  C   UNL A   1      43.618  27.026  30.103  1.00  0.00     0.031 C 
ATOM     42  C   UNL A   1      39.613  28.565  27.490  1.00  0.00     0.029 A 
ATOM     43  N   UNL A   1      39.797  29.251  29.614  1.00  0.00    -0.354 N 
ATOM     44  C   UNL A   1      43.090  28.024  32.094  1.00  0.00     0.074 A 
ATOM     45  C   UNL A   1      44.003  27.171  31.362  1.00  0.00     0.031 C 
ATOM     46  C   UNL A   1      38.535  29.318  27.770  1.00  0.00     0.029 A 
ATOM     47  C   UNL A   1      38.589  29.738  29.172  1.00  0.00     0.049 A 
ATOM     48  H   UNL A   1      40.158  29.438  30.510  1.00  0.00     0.167 HD
ATOM     49  C   UNL A   1      43.265  28.388  33.386  1.00  0.00     0.034 A 
ATOM     50  C   UNL A   1      37.622  30.413  29.828  1.00  0.00     0.034 A 
ATOM     51  C   UNL A   1      42.367  29.241  34.116  1.00  0.00     0.049 A 
ATOM     52  C   UNL A   1      37.818  30.778  31.280  1.00  0.00     0.074 A 
ATOM     53  C   UNL A   1      42.488  29.702  35.416  1.00  0.00     0.029 A 
ATOM     54  N   UNL A   1      41.174  29.744  33.623  1.00  0.00    -0.354 N 
ATOM     55  N   UNL A   1      38.841  30.536  32.064  1.00  0.00    -0.248 NA
ATOM     56  C   UNL A   1      36.734  31.533  31.930  1.00  0.00     0.031 C 
ATOM     57  C   UNL A   1      41.347  30.451  35.722  1.00  0.00     0.029 A 
ATOM     58  C   UNL A   1      40.538  30.495  34.597  1.00  0.00     0.049 A 
ATOM     59  H   UNL A   1      40.830  29.591  32.714  1.00  0.00     0.167 HD
ATOM     60  C   UNL A   1      38.543  31.140  33.283  1.00  0.00     0.074 A 
ATOM     61  C   UNL A   1      37.249  31.773  33.129  1.00  0.00     0.031 C 
ATOM     62  C   UNL A   1      39.271  31.162  34.428  1.00  0.00     0.034 A 
BRANCH  49  63
ATOM     63  C   UNL A   1      44.482  27.855  34.096  1.00  0.00     0.023 A 
ATOM     64  C   UNL A   1      45.680  28.599  34.095  1.00  0.00     0.012 A 
ATOM     65  C   UNL A   1      44.430  26.630  34.791  1.00  0.00     0.148 A 
ATOM     66  C   UNL A   1      46.818  28.111  34.737  1.00  0.00     0.002 A 
ATOM     67  C   UNL A   1      45.554  26.176  35.470  1.00  0.00     0.091 A 
ATOM     68  F   UNL A   1      43.290  25.926  34.762  1.00  0.00    -0.205 F 
ATOM     69  C   UNL A   1      46.752  26.906  35.432  1.00  0.00     0.022 A 
BRANCH  67  70
ATOM     70  S   UNL A   1      45.545  24.677  36.460  1.00  0.00     0.127 S 
ATOM     71  O   UNL A   1      44.716  25.080  37.596  1.00  0.00    -0.237 OA
ATOM     72  O   UNL A   1      44.914  23.716  35.555  1.00  0.00    -0.237 OA
ATOM     73  O   UNL A   1      46.938  24.394  36.772  1.00  0.00    -0.744 OA
ENDBRANCH  67  70
ENDBRANCH  49  63
BRANCH  50  74
ATOM     74  C   UNL A   1      36.373  30.809  29.113  1.00  0.00     0.023 A 
ATOM     75  C   UNL A   1      35.557  29.818  28.534  1.00  0.00     0.012 A 
ATOM     76  C   UNL A   1      35.988  32.160  29.015  1.00  0.00     0.148 A 
ATOM     77  C   UNL A   1      34.392  30.167  27.849  1.00  0.00     0.002 A 
ATOM     78  C   UNL A   1      34.798  32.497  28.378  1.00  0.00     0.091 A 
ATOM     79  F   UNL A   1      36.789  33.088  29.556  1.00  0.00    -0.205 F 
ATOM     80  C   UNL A   1      34.008  31.503  27.780  1.00  0.00     0.022 A 
BRANCH  78  81
ATOM     81  S   UNL A   1      34.164  34.177  28.335  1.00  0.00     0.127 S 
ATOM     82  O   UNL A   1      34.923  34.756  27.229  1.00  0.00    -0.237 OA
ATOM     83  O   UNL A   1      32.745  33.955  28.059  1.00  0.00    -0.237 OA
ATOM     84  O   UNL A   1      34.444  34.740  29.648  1.00  0.00    -0.744 OA
ENDBRANCH  78  81
ENDBRANCH  50  74
BRANCH  62  85
ATOM     85  C   UNL A   1      38.723  31.931  35.605  1.00  0.00     0.023 A 
ATOM     86  C   UNL A   1      38.709  33.340  35.586  1.00  0.00     0.012 A 
ATOM     87  C   UNL A   1      38.146  31.251  36.697  1.00  0.00     0.148 A 
ATOM     88  C   UNL A   1      38.161  34.059  36.650  1.00  0.00     0.002 A 
ATOM     89  C   UNL A   1      37.555  31.974  37.728  1.00  0.00     0.091 A 
ATOM     90  F   UNL A   1      38.179  29.911  36.707  1.00  0.00    -0.205 F 
ATOM     91  C   UNL A   1      37.574  33.377  37.713  1.00  0.00     0.022 A 
BRANCH  89  92
ATOM     92  S   UNL A   1      36.687  31.183  39.088  1.00  0.00     0.127 S 
ATOM     93  O   UNL A   1      35.507  32.035  39.225  1.00  0.00    -0.237 OA
ATOM     94  O   UNL A   1      36.416  29.850  38.549  1.00  0.00    -0.237 OA
ATOM     95  O   UNL A   1      37.604  31.203  40.219  1.00  0.00    -0.744 OA
ENDBRANCH  89  92
ENDBRANCH  62  85
ENDBRANCH  36  37
ENDBRANCH  29  31
ENDBRANCH  28  29
ENDBRANCH  27  28
ENDBRANCH  26  27
ENDBRANCH  25  26
ENDBRANCH   1  25
TORSDOF 22
ENDMDL
MODEL 3
REMARK VINA RESULT:     -10.7      5.288     11.018
REMARK SMILES COc1ccc2c(c1)[C@@](NC=O)(C(=O)OCCOCCOCCOC(=O)c1ccc(-c3c4nc(c(-c5cccc(S(=O)(=O)[O-])c5F)c5ccc([nH]5)c(-c5cccc(S(=O)(=O)[O-])c5F)c5nc(c(-c6cccc(S(=O)(=O)[O-])c6F)c6ccc3[nH]6)C=C5)C=C4)cc1)CCC2
REMARK SMILES IDX 20 1 19 2 18 3 17 4 16 5 15 6 13 7 14 8 9 9 3 10 4 11 8 12
REMARK SMILES IDX 5 13 7 14 6 15 92 16 90 17 91 18 2 19 1 20 10 21 11 22 12 24
REMARK SMILES IDX 21 25 22 26 23 27 24 28 25 29 26 30 27 31 28 32 89 33 29 34
REMARK SMILES IDX 88 35 30 36 31 37 32 38 82 39 33 40 87 41 81 42 83 43 34 44
REMARK SMILES IDX 86 45 80 46 79 47 35 49 67 50 47 51 66 52 48 53 51 54 65 55
REMARK SMILES IDX 84 56 49 57 50 58 64 60 85 61 52 62 36 63 37 64 45 65 38 66
REMARK SMILES IDX 40 67 46 68 39 69 41 70 42 71 43 72 44 73 68 74 69 75 77 76
REMARK SMILES IDX 70 77 72 78 78 79 71 80 73 81 74 82 75 83 76 84 53 85 54 86
REMARK SMILES IDX 62 87 55 88 57 89 63 90 56 91 58 92 59 93 60 94 61 95
REMARK H PARENT 10 23 83 48 51 59
REMARK Flexibility Score: inf
ROOT
ATOM      1  C   UNL A   1      33.522  33.875  28.090  1.00  0.00     0.188 C 
ENDROOT
BRANCH   1   2
ATOM      2  C   UNL A   1      34.096  32.453  28.019  1.00  0.00     0.188 C 
BRANCH   2   3
ATOM      3  O   UNL A   1      33.243  31.372  27.663  1.00  0.00    -0.376 OA
BRANCH   3   4
ATOM      4  C   UNL A   1      33.772  30.231  27.010  1.00  0.00     0.202 C 
BRANCH   4   5
ATOM      5  C   UNL A   1      33.499  28.850  27.620  1.00  0.00     0.261 C 
BRANCH   5   6
ATOM      6  O   UNL A   1      33.343  27.745  26.705  1.00  0.00    -0.461 OA
BRANCH   6   7
ATOM      7  C   UNL A   1      32.076  27.526  26.240  1.00  0.00     0.336 C 
ATOM      8  O   UNL A   1      31.118  27.314  26.978  1.00  0.00    -0.249 OA
BRANCH   7   9
ATOM      9  C   UNL A   1      32.004  27.374  24.669  1.00  0.00     0.164 C 
ATOM     10  C   UNL A   1      31.424  23.583  24.793  1.00  0.00     0.119 A 
ATOM     11  C   UNL A   1      32.167  23.140  23.706  1.00  0.00     0.047 A 
ATOM     12  C   UNL A   1      31.401  24.942  25.089  1.00  0.00     0.053 A 
ATOM     13  C   UNL A   1      32.830  24.055  22.885  1.00  0.00     0.008 A 
ATOM     14  C   UNL A   1      32.060  25.889  24.279  1.00  0.00    -0.004 A 
ATOM     15  C   UNL A   1      32.764  25.433  23.144  1.00  0.00    -0.042 A 
ATOM     16  C   UNL A   1      33.523  26.368  22.233  1.00  0.00     0.036 C 
ATOM     17  C   UNL A   1      33.150  28.127  23.947  1.00  0.00     0.046 C 
ATOM     18  C   UNL A   1      33.159  27.830  22.447  1.00  0.00     0.008 C 
BRANCH  10  19
ATOM     19  O   UNL A   1      30.772  22.626  25.520  1.00  0.00    -0.497 OA
ATOM     20  C   UNL A   1      30.302  23.058  26.799  1.00  0.00     0.278 C 
ENDBRANCH  10  19
BRANCH   9  21
ATOM     21  N   UNL A   1      30.753  28.032  24.221  1.00  0.00    -0.339 N 
ATOM     22  C   UNL A   1      30.263  28.128  22.957  1.00  0.00     0.338 C 
ATOM     23  H   UNL A   1      30.209  28.450  24.927  1.00  0.00     0.164 HD
ATOM     24  O   UNL A   1      29.151  28.581  22.726  1.00  0.00    -0.279 OA
ENDBRANCH   9  21
ENDBRANCH   7   9
ENDBRANCH   6   7
ENDBRANCH   5   6
ENDBRANCH   4   5
ENDBRANCH   3   4
ENDBRANCH   2   3
ENDBRANCH   1   2
BRANCH   1  25
ATOM     25  O   UNL A   1      32.936  34.203  29.331  1.00  0.00    -0.376 OA
BRANCH  25  26
ATOM     26  C   UNL A   1      33.489  35.294  30.033  1.00  0.00     0.202 C 
BRANCH  26  27
ATOM     27  C   UNL A   1      34.265  34.927  31.305  1.00  0.00     0.261 C 
BRANCH  27  28
ATOM     28  O   UNL A   1      35.421  34.089  31.123  1.00  0.00    -0.460 OA
BRANCH  28  29
ATOM     29  C   UNL A   1      35.517  32.980  31.898  1.00  0.00     0.338 C 
ATOM     30  O   UNL A   1      34.753  32.648  32.782  1.00  0.00    -0.246 OA
BRANCH  29  31
ATOM     31  C   UNL A   1      36.570  32.105  31.315  1.00  0.00     0.060 A 
ATOM     32  C   UNL A   1      37.385  31.355  32.178  1.00  0.00     0.016 A 
ATOM     33  C   UNL A   1      36.738  32.003  29.933  1.00  0.00     0.016 A 
ATOM     34  C   UNL A   1      38.387  30.525  31.661  1.00  0.00     0.010 A 
ATOM     35  C   UNL A   1      37.756  31.191  29.419  1.00  0.00     0.010 A 
ATOM     36  C   UNL A   1      38.608  30.471  30.279  1.00  0.00    -0.014 A 
BRANCH  36  37
ATOM     37  C   UNL A   1      39.840  29.839  29.735  1.00  0.00     0.031 A 
ATOM     38  C   UNL A   1      41.099  30.664  29.678  1.00  0.00     0.074 A 
ATOM     39  C   UNL A   1      39.853  28.576  29.270  1.00  0.00     0.049 A 
ATOM     40  N   UNL A   1      42.265  30.372  29.166  1.00  0.00    -0.248 NA
ATOM     41  C   UNL A   1      41.024  32.006  30.280  1.00  0.00     0.031 C 
ATOM     42  C   UNL A   1      38.719  27.656  29.278  1.00  0.00     0.029 A 
ATOM     43  N   UNL A   1      40.863  27.863  28.665  1.00  0.00    -0.354 N 
ATOM     44  C   UNL A   1      43.050  31.505  29.342  1.00  0.00     0.074 A 
ATOM     45  C   UNL A   1      42.226  32.491  30.006  1.00  0.00     0.031 C 
ATOM     46  C   UNL A   1      39.082  26.513  28.671  1.00  0.00     0.029 A 
ATOM     47  C   UNL A   1      40.464  26.632  28.201  1.00  0.00     0.049 A 
ATOM     48  H   UNL A   1      41.782  28.203  28.572  1.00  0.00     0.167 HD
ATOM     49  C   UNL A   1      44.342  31.709  28.992  1.00  0.00     0.034 A 
ATOM     50  C   UNL A   1      41.122  25.720  27.454  1.00  0.00     0.034 A 
ATOM     51  C   UNL A   1      45.170  30.731  28.340  1.00  0.00     0.049 A 
ATOM     52  C   UNL A   1      42.550  25.982  27.041  1.00  0.00     0.074 A 
ATOM     53  C   UNL A   1      46.505  30.833  27.989  1.00  0.00     0.029 A 
ATOM     54  N   UNL A   1      44.741  29.482  27.919  1.00  0.00    -0.354 N 
ATOM     55  N   UNL A   1      43.313  27.015  27.307  1.00  0.00    -0.248 NA
ATOM     56  C   UNL A   1      43.217  24.937  26.247  1.00  0.00     0.031 C 
ATOM     57  C   UNL A   1      46.872  29.661  27.319  1.00  0.00     0.029 A 
ATOM     58  C   UNL A   1      45.778  28.810  27.295  1.00  0.00     0.049 A 
ATOM     59  H   UNL A   1      43.832  29.126  28.046  1.00  0.00     0.167 HD
ATOM     60  C   UNL A   1      44.556  26.729  26.748  1.00  0.00     0.074 A 
ATOM     61  C   UNL A   1      44.449  25.418  26.142  1.00  0.00     0.031 C 
ATOM     62  C   UNL A   1      45.682  27.487  26.732  1.00  0.00     0.034 A 
BRANCH  49  63
ATOM     63  C   UNL A   1      44.940  33.055  29.309  1.00  0.00     0.023 A 
ATOM     64  C   UNL A   1      45.609  33.258  30.534  1.00  0.00     0.012 A 
ATOM     65  C   UNL A   1      44.866  34.112  28.380  1.00  0.00     0.148 A 
ATOM     66  C   UNL A   1      46.155  34.502  30.847  1.00  0.00     0.002 A 
ATOM     67  C   UNL A   1      45.457  35.333  28.678  1.00  0.00     0.091 A 
ATOM     68  F   UNL A   1      44.207  33.907  27.231  1.00  0.00    -0.205 F 
ATOM     69  C   UNL A   1      46.088  35.535  29.916  1.00  0.00     0.022 A 
BRANCH  67  70
ATOM     70  S   UNL A   1      45.494  36.699  27.512  1.00  0.00     0.127 S 
ATOM     71  O   UNL A   1      46.138  36.080  26.355  1.00  0.00    -0.237 OA
ATOM     72  O   UNL A   1      44.071  36.990  27.335  1.00  0.00    -0.237 OA
ATOM     73  O   UNL A   1      46.254  37.758  28.159  1.00  0.00    -0.744 OA
ENDBRANCH  67  70
ENDBRANCH  49  63
BRANCH  50  74
ATOM     74  C   UNL A   1      40.441  24.454  27.055  1.00  0.00     0.023 A 
ATOM     75  C   UNL A   1      39.184  24.506  26.423  1.00  0.00     0.012 A 
ATOM     76  C   UNL A   1      41.040  23.200  27.290  1.00  0.00     0.148 A 
ATOM     77  C   UNL A   1      38.524  23.333  26.054  1.00  0.00     0.002 A 
ATOM     78  C   UNL A   1      40.402  22.038  26.870  1.00  0.00     0.091 A 
ATOM     79  F   UNL A   1      42.227  23.172  27.910  1.00  0.00    -0.205 F 
ATOM     80  C   UNL A   1      39.136  22.102  26.267  1.00  0.00     0.022 A 
BRANCH  78  81
ATOM     81  S   UNL A   1      41.161  20.415  27.001  1.00  0.00     0.127 S 
ATOM     82  O   UNL A   1      42.568  20.721  26.756  1.00  0.00    -0.237 OA
ATOM     83  O   UNL A   1      40.843  20.046  28.380  1.00  0.00    -0.237 OA
ATOM     84  O   UNL A   1      40.513  19.592  25.990  1.00  0.00    -0.744 OA
ENDBRANCH  78  81
ENDBRANCH  50  74
BRANCH  62  85
ATOM     85  C   UNL A   1      46.917  26.913  26.081  1.00  0.00     0.023 A 
ATOM     86  C   UNL A   1      47.084  26.995  24.684  1.00  0.00     0.012 A 
ATOM     87  C   UNL A   1      47.951  26.365  26.867  1.00  0.00     0.148 A 
ATOM     88  C   UNL A   1      48.245  26.510  24.078  1.00  0.00     0.002 A 
ATOM     89  C   UNL A   1      49.126  25.932  26.261  1.00  0.00     0.091 A 
ATOM     90  F   UNL A   1      47.771  26.282  28.193  1.00  0.00    -0.205 F 
ATOM     91  C   UNL A   1      49.269  25.991  24.867  1.00  0.00     0.022 A 
BRANCH  89  92
ATOM     92  S   UNL A   1      50.538  25.342  27.204  1.00  0.00     0.127 S 
ATOM     93  O   UNL A   1      49.961  24.211  27.928  1.00  0.00    -0.237 OA
ATOM     94  O   UNL A   1      51.481  24.972  26.149  1.00  0.00    -0.237 OA
ATOM     95  O   UNL A   1      50.966  26.460  28.034  1.00  0.00    -0.744 OA
ENDBRANCH  89  92
ENDBRANCH  62  85
ENDBRANCH  36  37
ENDBRANCH  29  31
ENDBRANCH  28  29
ENDBRANCH  27  28
ENDBRANCH  26  27
ENDBRANCH  25  26
ENDBRANCH   1  25
TORSDOF 22
ENDMDL
