MODEL 1
REMARK VINA RESULT:      -9.4      0.000      0.000
REMARK SMILES Cc1nc2ccc(OCC(=O)OCCOCCOCCOC(=O)c3ccc(-c4c5nc(c(-c6cccc(S(=O)(=O)[O-])c6F)c6ccc([nH]6)c(-c6cccc(S(=O)(=O)[O-])c6F)c6nc(c(-c7cccc(S(=O)(=O)[O-])c7F)c7ccc4[nH]7)C=C6)C=C5)cc3)cc2c(=O)n1-c1ccc2c(c1)OCO2
REMARK SMILES IDX 16 1 15 2 14 3 13 4 12 5 10 6 11 7 9 8 8 9 7 10 1 11 2 12
REMARK SMILES IDX 3 13 91 14 4 15 89 16 5 17 88 18 90 19 6 20 87 21 92 22
REMARK SMILES IDX 93 23 97 24 94 25 96 26 95 27 98 28 100 29 99 30 17 31 18 32
REMARK SMILES IDX 19 33 20 34 21 35 22 36 23 37 24 38 25 39 86 40 26 41 85 42
REMARK SMILES IDX 27 43 28 44 29 45 79 46 30 47 84 48 78 49 80 50 31 51 83 52
REMARK SMILES IDX 77 53 76 54 32 56 64 57 44 58 63 59 45 60 48 61 62 62 81 63
REMARK SMILES IDX 46 64 47 65 61 67 82 68 49 69 33 70 34 71 42 72 35 73 37 74
REMARK SMILES IDX 43 75 36 76 38 77 39 78 40 79 41 80 65 81 66 82 74 83 67 84
REMARK SMILES IDX 69 85 75 86 68 87 70 88 71 89 72 90 73 91 50 92 51 93 59 94
REMARK SMILES IDX 52 95 54 96 60 97 53 98 55 99 56 100 57 101 58 102
REMARK H PARENT 80 55 48 66
REMARK Flexibility Score: inf
ROOT
ATOM      1  C   UNL A   1      39.746  26.530  29.089  1.00  0.00     0.188 C 
ENDROOT
BRANCH   1   2
ATOM      2  O   UNL A   1      38.872  27.227  29.976  1.00  0.00    -0.376 OA
BRANCH   2   3
ATOM      3  C   UNL A   1      38.742  28.635  29.853  1.00  0.00     0.202 C 
BRANCH   3   4
ATOM      4  C   UNL A   1      37.622  29.278  30.671  1.00  0.00     0.261 C 
BRANCH   4   5
ATOM      5  O   UNL A   1      36.444  29.622  29.907  1.00  0.00    -0.461 OA
BRANCH   5   6
ATOM      6  C   UNL A   1      36.621  30.526  28.903  1.00  0.00     0.344 C 
ATOM      7  O   UNL A   1      37.259  31.567  29.015  1.00  0.00    -0.248 OA
BRANCH   6   8
ATOM      8  C   UNL A   1      35.853  30.176  27.620  1.00  0.00     0.351 C 
BRANCH   8   9
ATOM      9  O   UNL A   1      34.529  30.648  27.408  1.00  0.00    -0.482 OA
BRANCH   9  10
ATOM     10  C   UNL A   1      33.610  29.862  26.769  1.00  0.00     0.121 A 
ATOM     11  C   UNL A   1      31.382  25.685  22.462  1.00  0.00     0.088 C 
ATOM     12  C   UNL A   1      31.866  26.350  23.733  1.00  0.00     0.113 A 
ATOM     13  N   UNL A   1      31.506  27.563  23.998  1.00  0.00    -0.234 NA
ATOM     14  N   UNL A   1      32.746  25.633  24.526  1.00  0.00    -0.264 N 
ATOM     15  C   UNL A   1      32.099  28.192  25.094  1.00  0.00     0.078 A 
ATOM     16  C   UNL A   1      33.597  26.291  25.422  1.00  0.00     0.266 A 
ATOM     17  C   UNL A   1      31.589  29.414  25.522  1.00  0.00     0.033 A 
ATOM     18  C   UNL A   1      33.267  27.715  25.674  1.00  0.00     0.070 A 
ATOM     19  O   UNL A   1      34.527  25.769  26.033  1.00  0.00    -0.268 OA
ATOM     20  C   UNL A   1      32.347  30.262  26.336  1.00  0.00     0.049 A 
ATOM     21  C   UNL A   1      34.030  28.547  26.506  1.00  0.00     0.062 A 
BRANCH  14  22
ATOM     22  C   UNL A   1      32.435  24.271  24.793  1.00  0.00     0.054 A 
ATOM     23  C   UNL A   1      31.246  23.876  25.430  1.00  0.00     0.031 A 
ATOM     24  C   UNL A   1      33.369  23.310  24.365  1.00  0.00     0.077 A 
ATOM     25  C   UNL A   1      30.992  22.512  25.652  1.00  0.00     0.053 A 
ATOM     26  C   UNL A   1      33.067  21.985  24.556  1.00  0.00     0.167 A 
ATOM     27  C   UNL A   1      31.912  21.592  25.185  1.00  0.00     0.165 A 
ATOM     28  O   UNL A   1      33.824  20.938  24.140  1.00  0.00    -0.454 OA
ATOM     29  O   UNL A   1      31.805  20.237  25.253  1.00  0.00    -0.454 OA
ATOM     30  C   UNL A   1      32.964  19.837  24.482  1.00  0.00     0.468 C 
ENDBRANCH  14  22
ENDBRANCH   9  10
ENDBRANCH   8   9
ENDBRANCH   6   8
ENDBRANCH   5   6
ENDBRANCH   4   5
ENDBRANCH   3   4
ENDBRANCH   2   3
ENDBRANCH   1   2
BRANCH   1  31
ATOM     31  C   UNL A   1      39.832  27.001  27.627  1.00  0.00     0.188 C 
BRANCH  31  32
ATOM     32  O   UNL A   1      40.171  25.913  26.778  1.00  0.00    -0.376 OA
BRANCH  32  33
ATOM     33  C   UNL A   1      41.332  25.184  27.105  1.00  0.00     0.202 C 
BRANCH  33  34
ATOM     34  C   UNL A   1      42.456  25.248  26.068  1.00  0.00     0.261 C 
BRANCH  34  35
ATOM     35  O   UNL A   1      43.702  25.717  26.610  1.00  0.00    -0.460 OA
BRANCH  35  36
ATOM     36  C   UNL A   1      44.279  26.777  26.014  1.00  0.00     0.338 C 
ATOM     37  O   UNL A   1      45.002  26.749  25.019  1.00  0.00    -0.246 OA
BRANCH  36  38
ATOM     38  C   UNL A   1      44.016  27.995  26.808  1.00  0.00     0.060 A 
ATOM     39  C   UNL A   1      44.803  28.253  27.926  1.00  0.00     0.016 A 
ATOM     40  C   UNL A   1      43.038  28.917  26.429  1.00  0.00     0.016 A 
ATOM     41  C   UNL A   1      44.617  29.437  28.649  1.00  0.00     0.010 A 
ATOM     42  C   UNL A   1      42.902  30.135  27.107  1.00  0.00     0.010 A 
ATOM     43  C   UNL A   1      43.692  30.411  28.227  1.00  0.00    -0.014 A 
BRANCH  43  44
ATOM     44  C   UNL A   1      43.641  31.738  28.903  1.00  0.00     0.031 A 
ATOM     45  C   UNL A   1      42.749  32.003  30.088  1.00  0.00     0.074 A 
ATOM     46  C   UNL A   1      44.397  32.743  28.412  1.00  0.00     0.049 A 
ATOM     47  N   UNL A   1      42.714  33.058  30.864  1.00  0.00    -0.248 NA
ATOM     48  C   UNL A   1      41.753  30.979  30.435  1.00  0.00     0.031 C 
ATOM     49  C   UNL A   1      45.192  32.675  27.182  1.00  0.00     0.029 A 
ATOM     50  N   UNL A   1      44.629  34.011  28.885  1.00  0.00    -0.354 N 
ATOM     51  C   UNL A   1      41.692  32.832  31.777  1.00  0.00     0.074 A 
ATOM     52  C   UNL A   1      41.100  31.557  31.435  1.00  0.00     0.031 C 
ATOM     53  C   UNL A   1      45.863  33.825  27.026  1.00  0.00     0.029 A 
ATOM     54  C   UNL A   1      45.546  34.717  28.139  1.00  0.00     0.049 A 
ATOM     55  H   UNL A   1      44.183  34.380  29.681  1.00  0.00     0.167 HD
ATOM     56  C   UNL A   1      41.309  33.594  32.830  1.00  0.00     0.034 A 
ATOM     57  C   UNL A   1      46.104  35.926  28.342  1.00  0.00     0.034 A 
ATOM     58  C   UNL A   1      41.938  34.834  33.201  1.00  0.00     0.049 A 
ATOM     59  C   UNL A   1      45.756  36.699  29.582  1.00  0.00     0.074 A 
ATOM     60  C   UNL A   1      41.700  35.617  34.319  1.00  0.00     0.029 A 
ATOM     61  N   UNL A   1      42.927  35.471  32.471  1.00  0.00    -0.354 N 
ATOM     62  N   UNL A   1      44.921  36.378  30.539  1.00  0.00    -0.248 NA
ATOM     63  C   UNL A   1      46.453  37.976  29.793  1.00  0.00     0.031 C 
ATOM     64  C   UNL A   1      42.544  36.730  34.261  1.00  0.00     0.029 A 
ATOM     65  C   UNL A   1      43.314  36.634  33.114  1.00  0.00     0.049 A 
ATOM     66  H   UNL A   1      43.301  35.144  31.620  1.00  0.00     0.167 HD
ATOM     67  C   UNL A   1      45.008  37.399  31.478  1.00  0.00     0.074 A 
ATOM     68  C   UNL A   1      45.989  38.342  30.982  1.00  0.00     0.031 C 
ATOM     69  C   UNL A   1      44.324  37.543  32.638  1.00  0.00     0.034 A 
BRANCH  56  70
ATOM     70  C   UNL A   1      40.226  33.068  33.734  1.00  0.00     0.023 A 
ATOM     71  C   UNL A   1      40.588  32.229  34.807  1.00  0.00     0.012 A 
ATOM     72  C   UNL A   1      38.889  33.492  33.606  1.00  0.00     0.148 A 
ATOM     73  C   UNL A   1      39.634  31.805  35.732  1.00  0.00     0.002 A 
ATOM     74  C   UNL A   1      37.949  33.091  34.550  1.00  0.00     0.091 A 
ATOM     75  F   UNL A   1      38.566  34.288  32.577  1.00  0.00    -0.205 F 
ATOM     76  C   UNL A   1      38.320  32.244  35.609  1.00  0.00     0.022 A 
BRANCH  74  77
ATOM     77  S   UNL A   1      36.239  33.645  34.527  1.00  0.00     0.127 S 
ATOM     78  O   UNL A   1      35.610  32.626  33.688  1.00  0.00    -0.237 OA
ATOM     79  O   UNL A   1      35.877  33.578  35.943  1.00  0.00    -0.237 OA
ATOM     80  O   UNL A   1      36.256  34.986  33.960  1.00  0.00    -0.744 OA
ENDBRANCH  74  77
ENDBRANCH  56  70
BRANCH  57  81
ATOM     81  C   UNL A   1      47.153  36.404  27.402  1.00  0.00     0.023 A 
ATOM     82  C   UNL A   1      46.791  37.282  26.363  1.00  0.00     0.012 A 
ATOM     83  C   UNL A   1      48.508  36.071  27.587  1.00  0.00     0.148 A 
ATOM     84  C   UNL A   1      47.761  37.820  25.518  1.00  0.00     0.002 A 
ATOM     85  C   UNL A   1      49.474  36.640  26.765  1.00  0.00     0.091 A 
ATOM     86  F   UNL A   1      48.824  35.233  28.584  1.00  0.00    -0.205 F 
ATOM     87  C   UNL A   1      49.103  37.508  25.725  1.00  0.00     0.022 A 
BRANCH  85  88
ATOM     88  S   UNL A   1      51.235  36.385  27.017  1.00  0.00     0.127 S 
ATOM     89  O   UNL A   1      51.812  37.336  26.069  1.00  0.00    -0.237 OA
ATOM     90  O   UNL A   1      51.391  36.748  28.426  1.00  0.00    -0.237 OA
ATOM     91  O   UNL A   1      51.480  34.981  26.722  1.00  0.00    -0.744 OA
ENDBRANCH  85  88
ENDBRANCH  57  81
BRANCH  69  92
ATOM     92  C   UNL A   1      44.601  38.760  33.476  1.00  0.00     0.023 A 
ATOM     93  C   UNL A   1      45.711  38.764  34.342  1.00  0.00     0.012 A 
ATOM     94  C   UNL A   1      43.836  39.932  33.317  1.00  0.00     0.148 A 
ATOM     95  C   UNL A   1      46.052  39.917  35.046  1.00  0.00     0.002 A 
ATOM     96  C   UNL A   1      44.202  41.088  33.997  1.00  0.00     0.091 A 
ATOM     97  F   UNL A   1      42.777  39.897  32.495  1.00  0.00    -0.205 F 
ATOM     98  C   UNL A   1      45.306  41.080  34.865  1.00  0.00     0.022 A 
BRANCH  96  99
ATOM     99  S   UNL A   1      43.350  42.653  33.773  1.00  0.00     0.127 S 
ATOM    100  O   UNL A   1      43.638  42.951  32.371  1.00  0.00    -0.237 OA
ATOM    101  O   UNL A   1      41.959  42.291  34.047  1.00  0.00    -0.237 OA
ATOM    102  O   UNL A   1      43.937  43.575  34.737  1.00  0.00    -0.744 OA
ENDBRANCH  96  99
ENDBRANCH  69  92
ENDBRANCH  43  44
ENDBRANCH  36  38
ENDBRANCH  35  36
ENDBRANCH  34  35
ENDBRANCH  33  34
ENDBRANCH  32  33
ENDBRANCH  31  32
ENDBRANCH   1  31
TORSDOF 23
ENDMDL
MODEL 2
REMARK VINA RESULT:      -9.4      4.588      6.976
REMARK SMILES Cc1nc2ccc(OCC(=O)OCCOCCOCCOC(=O)c3ccc(-c4c5nc(c(-c6cccc(S(=O)(=O)[O-])c6F)c6ccc([nH]6)c(-c6cccc(S(=O)(=O)[O-])c6F)c6nc(c(-c7cccc(S(=O)(=O)[O-])c7F)c7ccc4[nH]7)C=C6)C=C5)cc3)cc2c(=O)n1-c1ccc2c(c1)OCO2
REMARK SMILES IDX 16 1 15 2 14 3 13 4 12 5 10 6 11 7 9 8 8 9 7 10 1 11 2 12
REMARK SMILES IDX 3 13 91 14 4 15 89 16 5 17 88 18 90 19 6 20 87 21 92 22
REMARK SMILES IDX 93 23 97 24 94 25 96 26 95 27 98 28 100 29 99 30 17 31 18 32
REMARK SMILES IDX 19 33 20 34 21 35 22 36 23 37 24 38 25 39 86 40 26 41 85 42
REMARK SMILES IDX 27 43 28 44 29 45 79 46 30 47 84 48 78 49 80 50 31 51 83 52
REMARK SMILES IDX 77 53 76 54 32 56 64 57 44 58 63 59 45 60 48 61 62 62 81 63
REMARK SMILES IDX 46 64 47 65 61 67 82 68 49 69 33 70 34 71 42 72 35 73 37 74
REMARK SMILES IDX 43 75 36 76 38 77 39 78 40 79 41 80 65 81 66 82 74 83 67 84
REMARK SMILES IDX 69 85 75 86 68 87 70 88 71 89 72 90 73 91 50 92 51 93 59 94
REMARK SMILES IDX 52 95 54 96 60 97 53 98 55 99 56 100 57 101 58 102
REMARK H PARENT 80 55 48 66
REMARK Flexibility Score: inf
ROOT
ATOM      1  C   UNL A   1      39.617  25.140  28.148  1.00  0.00     0.188 C 
ENDROOT
BRANCH   1   2
ATOM      2  O   UNL A   1      39.111  26.455  27.925  1.00  0.00    -0.376 OA
BRANCH   2   3
ATOM      3  C   UNL A   1      39.356  27.464  28.892  1.00  0.00     0.202 C 
BRANCH   3   4
ATOM      4  C   UNL A   1      39.192  28.906  28.413  1.00  0.00     0.261 C 
BRANCH   4   5
ATOM      5  O   UNL A   1      38.321  29.715  29.234  1.00  0.00    -0.461 OA
BRANCH   5   6
ATOM      6  C   UNL A   1      37.497  30.576  28.572  1.00  0.00     0.344 C 
ATOM      7  O   UNL A   1      37.523  31.795  28.703  1.00  0.00    -0.248 OA
BRANCH   6   8
ATOM      8  C   UNL A   1      36.443  29.873  27.704  1.00  0.00     0.351 C 
BRANCH   8   9
ATOM      9  O   UNL A   1      35.194  30.491  27.426  1.00  0.00    -0.482 OA
BRANCH   9  10
ATOM     10  C   UNL A   1      34.105  29.730  27.101  1.00  0.00     0.121 A 
ATOM     11  C   UNL A   1      30.395  25.951  23.508  1.00  0.00     0.088 C 
ATOM     12  C   UNL A   1      31.335  26.493  24.562  1.00  0.00     0.113 A 
ATOM     13  N   UNL A   1      31.098  27.643  25.102  1.00  0.00    -0.234 NA
ATOM     14  N   UNL A   1      32.464  25.744  24.847  1.00  0.00    -0.264 N 
ATOM     15  C   UNL A   1      32.071  28.176  25.951  1.00  0.00     0.078 A 
ATOM     16  C   UNL A   1      33.595  26.344  25.415  1.00  0.00     0.266 A 
ATOM     17  C   UNL A   1      31.760  29.308  26.699  1.00  0.00     0.033 A 
ATOM     18  C   UNL A   1      33.378  27.707  25.959  1.00  0.00     0.070 A 
ATOM     19  O   UNL A   1      34.695  25.812  25.541  1.00  0.00    -0.268 OA
ATOM     20  C   UNL A   1      32.770  30.100  27.253  1.00  0.00     0.049 A 
ATOM     21  C   UNL A   1      34.399  28.482  26.526  1.00  0.00     0.062 A 
BRANCH  14  22
ATOM     22  C   UNL A   1      32.299  24.344  25.035  1.00  0.00     0.054 A 
ATOM     23  C   UNL A   1      31.676  23.800  26.173  1.00  0.00     0.031 A 
ATOM     24  C   UNL A   1      32.766  23.504  24.008  1.00  0.00     0.077 A 
ATOM     25  C   UNL A   1      31.530  22.409  26.292  1.00  0.00     0.053 A 
ATOM     26  C   UNL A   1      32.565  22.152  24.135  1.00  0.00     0.167 A 
ATOM     27  C   UNL A   1      31.966  21.615  25.247  1.00  0.00     0.165 A 
ATOM     28  O   UNL A   1      32.891  21.218  23.206  1.00  0.00    -0.454 OA
ATOM     29  O   UNL A   1      31.852  20.261  25.159  1.00  0.00    -0.454 OA
ATOM     30  C   UNL A   1      32.332  20.038  23.812  1.00  0.00     0.468 C 
ENDBRANCH  14  22
ENDBRANCH   9  10
ENDBRANCH   8   9
ENDBRANCH   6   8
ENDBRANCH   5   6
ENDBRANCH   4   5
ENDBRANCH   3   4
ENDBRANCH   2   3
ENDBRANCH   1   2
BRANCH   1  31
ATOM     31  C   UNL A   1      40.343  24.429  26.992  1.00  0.00     0.188 C 
BRANCH  31  32
ATOM     32  O   UNL A   1      39.660  23.233  26.644  1.00  0.00    -0.376 OA
BRANCH  32  33
ATOM     33  C   UNL A   1      40.139  22.034  27.209  1.00  0.00     0.202 C 
BRANCH  33  34
ATOM     34  C   UNL A   1      40.554  20.959  26.202  1.00  0.00     0.261 C 
BRANCH  34  35
ATOM     35  O   UNL A   1      41.844  20.388  26.481  1.00  0.00    -0.460 OA
BRANCH  35  36
ATOM     36  C   UNL A   1      42.863  20.729  25.673  1.00  0.00     0.338 C 
ATOM     37  O   UNL A   1      43.419  20.000  24.852  1.00  0.00    -0.246 OA
BRANCH  36  38
ATOM     38  C   UNL A   1      43.315  22.099  25.998  1.00  0.00     0.060 A 
ATOM     39  C   UNL A   1      43.884  22.342  27.244  1.00  0.00     0.016 A 
ATOM     40  C   UNL A   1      43.237  23.135  25.065  1.00  0.00     0.016 A 
ATOM     41  C   UNL A   1      44.383  23.615  27.545  1.00  0.00     0.010 A 
ATOM     42  C   UNL A   1      43.803  24.386  25.336  1.00  0.00     0.010 A 
ATOM     43  C   UNL A   1      44.385  24.642  26.581  1.00  0.00    -0.014 A 
BRANCH  43  44
ATOM     44  C   UNL A   1      45.085  25.928  26.860  1.00  0.00     0.031 A 
ATOM     45  C   UNL A   1      44.476  27.004  27.722  1.00  0.00     0.074 A 
ATOM     46  C   UNL A   1      46.289  26.144  26.292  1.00  0.00     0.049 A 
ATOM     47  N   UNL A   1      45.032  28.103  28.170  1.00  0.00    -0.248 NA
ATOM     48  C   UNL A   1      43.066  26.852  28.111  1.00  0.00     0.031 C 
ATOM     49  C   UNL A   1      46.931  25.259  25.316  1.00  0.00     0.029 A 
ATOM     50  N   UNL A   1      47.193  27.166  26.453  1.00  0.00    -0.354 N 
ATOM     51  C   UNL A   1      44.043  28.774  28.877  1.00  0.00     0.074 A 
ATOM     52  C   UNL A   1      42.838  27.983  28.766  1.00  0.00     0.031 C 
ATOM     53  C   UNL A   1      48.141  25.745  25.007  1.00  0.00     0.029 A 
ATOM     54  C   UNL A   1      48.365  26.979  25.756  1.00  0.00     0.049 A 
ATOM     55  H   UNL A   1      47.019  27.956  27.014  1.00  0.00     0.167 HD
ATOM     56  C   UNL A   1      44.140  29.923  29.590  1.00  0.00     0.034 A 
ATOM     57  C   UNL A   1      49.507  27.692  25.747  1.00  0.00     0.034 A 
ATOM     58  C   UNL A   1      45.355  30.678  29.746  1.00  0.00     0.049 A 
ATOM     59  C   UNL A   1      49.635  28.893  26.640  1.00  0.00     0.074 A 
ATOM     60  C   UNL A   1      45.580  31.787  30.544  1.00  0.00     0.029 A 
ATOM     61  N   UNL A   1      46.547  30.404  29.096  1.00  0.00    -0.354 N 
ATOM     62  N   UNL A   1      48.745  29.406  27.452  1.00  0.00    -0.248 NA
ATOM     63  C   UNL A   1      50.931  29.587  26.649  1.00  0.00     0.031 C 
ATOM     64  C   UNL A   1      46.909  32.186  30.374  1.00  0.00     0.029 A 
ATOM     65  C   UNL A   1      47.513  31.319  29.478  1.00  0.00     0.049 A 
ATOM     66  H   UNL A   1      46.686  29.667  28.458  1.00  0.00     0.167 HD
ATOM     67  C   UNL A   1      49.377  30.468  28.087  1.00  0.00     0.074 A 
ATOM     68  C   UNL A   1      50.732  30.515  27.577  1.00  0.00     0.031 C 
ATOM     69  C   UNL A   1      48.871  31.331  29.001  1.00  0.00     0.034 A 
BRANCH  56  70
ATOM     70  C   UNL A   1      42.930  30.391  30.355  1.00  0.00     0.023 A 
ATOM     71  C   UNL A   1      42.071  31.333  29.753  1.00  0.00     0.012 A 
ATOM     72  C   UNL A   1      42.575  29.822  31.593  1.00  0.00     0.148 A 
ATOM     73  C   UNL A   1      40.884  31.714  30.377  1.00  0.00     0.002 A 
ATOM     74  C   UNL A   1      41.373  30.183  32.195  1.00  0.00     0.091 A 
ATOM     75  F   UNL A   1      43.407  28.930  32.149  1.00  0.00    -0.205 F 
ATOM     76  C   UNL A   1      40.531  31.132  31.590  1.00  0.00     0.022 A 
BRANCH  74  77
ATOM     77  S   UNL A   1      40.787  29.452  33.729  1.00  0.00     0.127 S 
ATOM     78  O   UNL A   1      41.299  28.086  33.619  1.00  0.00    -0.237 OA
ATOM     79  O   UNL A   1      41.457  30.275  34.735  1.00  0.00    -0.237 OA
ATOM     80  O   UNL A   1      39.336  29.571  33.705  1.00  0.00    -0.744 OA
ENDBRANCH  74  77
ENDBRANCH  56  70
BRANCH  57  81
ATOM     81  C   UNL A   1      50.663  27.193  24.954  1.00  0.00     0.023 A 
ATOM     82  C   UNL A   1      50.899  27.734  23.675  1.00  0.00     0.012 A 
ATOM     83  C   UNL A   1      51.573  26.264  25.491  1.00  0.00     0.148 A 
ATOM     84  C   UNL A   1      52.022  27.354  22.940  1.00  0.00     0.002 A 
ATOM     85  C   UNL A   1      52.710  25.918  24.770  1.00  0.00     0.091 A 
ATOM     86  F   UNL A   1      51.323  25.765  26.710  1.00  0.00    -0.205 F 
ATOM     87  C   UNL A   1      52.932  26.455  23.491  1.00  0.00     0.022 A 
BRANCH  85  88
ATOM     88  S   UNL A   1      53.995  24.852  25.435  1.00  0.00     0.127 S 
ATOM     89  O   UNL A   1      53.422  23.524  25.219  1.00  0.00    -0.237 OA
ATOM     90  O   UNL A   1      55.131  25.181  24.573  1.00  0.00    -0.237 OA
ATOM     91  O   UNL A   1      54.156  25.245  26.827  1.00  0.00    -0.744 OA
ENDBRANCH  85  88
ENDBRANCH  57  81
BRANCH  69  92
ATOM     92  C   UNL A   1      49.774  32.410  29.529  1.00  0.00     0.023 A 
ATOM     93  C   UNL A   1      50.556  32.159  30.672  1.00  0.00     0.012 A 
ATOM     94  C   UNL A   1      49.934  33.622  28.828  1.00  0.00     0.148 A 
ATOM     95  C   UNL A   1      51.481  33.103  31.117  1.00  0.00     0.002 A 
ATOM     96  C   UNL A   1      50.881  34.544  29.258  1.00  0.00     0.091 A 
ATOM     97  F   UNL A   1      49.167  33.841  27.750  1.00  0.00    -0.205 F 
ATOM     98  C   UNL A   1      51.651  34.288  30.404  1.00  0.00     0.022 A 
BRANCH  96  99
ATOM     99  S   UNL A   1      51.225  36.064  28.366  1.00  0.00     0.127 S 
ATOM    100  O   UNL A   1      49.944  36.763  28.462  1.00  0.00    -0.237 OA
ATOM    101  O   UNL A   1      52.303  36.654  29.160  1.00  0.00    -0.237 OA
ATOM    102  O   UNL A   1      51.614  35.664  27.019  1.00  0.00    -0.744 OA
ENDBRANCH  96  99
ENDBRANCH  69  92
ENDBRANCH  43  44
ENDBRANCH  36  38
ENDBRANCH  35  36
ENDBRANCH  34  35
ENDBRANCH  33  34
ENDBRANCH  32  33
ENDBRANCH  31  32
ENDBRANCH   1  31
TORSDOF 23
ENDMDL
MODEL 3
REMARK VINA RESULT:      -9.3      3.572      8.892
REMARK SMILES Cc1nc2ccc(OCC(=O)OCCOCCOCCOC(=O)c3ccc(-c4c5nc(c(-c6cccc(S(=O)(=O)[O-])c6F)c6ccc([nH]6)c(-c6cccc(S(=O)(=O)[O-])c6F)c6nc(c(-c7cccc(S(=O)(=O)[O-])c7F)c7ccc4[nH]7)C=C6)C=C5)cc3)cc2c(=O)n1-c1ccc2c(c1)OCO2
REMARK SMILES IDX 16 1 15 2 14 3 13 4 12 5 10 6 11 7 9 8 8 9 7 10 1 11 2 12
REMARK SMILES IDX 3 13 91 14 4 15 89 16 5 17 88 18 90 19 6 20 87 21 92 22
REMARK SMILES IDX 93 23 97 24 94 25 96 26 95 27 98 28 100 29 99 30 17 31 18 32
REMARK SMILES IDX 19 33 20 34 21 35 22 36 23 37 24 38 25 39 86 40 26 41 85 42
REMARK SMILES IDX 27 43 28 44 29 45 79 46 30 47 84 48 78 49 80 50 31 51 83 52
REMARK SMILES IDX 77 53 76 54 32 56 64 57 44 58 63 59 45 60 48 61 62 62 81 63
REMARK SMILES IDX 46 64 47 65 61 67 82 68 49 69 33 70 34 71 42 72 35 73 37 74
REMARK SMILES IDX 43 75 36 76 38 77 39 78 40 79 41 80 65 81 66 82 74 83 67 84
REMARK SMILES IDX 69 85 75 86 68 87 70 88 71 89 72 90 73 91 50 92 51 93 59 94
REMARK SMILES IDX 52 95 54 96 60 97 53 98 55 99 56 100 57 101 58 102
REMARK H PARENT 80 55 48 66
REMARK Flexibility Score: inf
ROOT
ATOM      1  C   UNL A   1      45.110  18.974  25.010  1.00  0.00     0.188 C 
ENDROOT
BRANCH   1   2
ATOM      2  O   UNL A   1      43.725  19.269  24.836  1.00  0.00    -0.376 OA
BRANCH   2   3
ATOM      3  C   UNL A   1      42.778  18.689  25.719  1.00  0.00     0.202 C 
BRANCH   3   4
ATOM      4  C   UNL A   1      41.895  19.667  26.493  1.00  0.00     0.261 C 
BRANCH   4   5
ATOM      5  O   UNL A   1      42.621  20.640  27.276  1.00  0.00    -0.461 OA
BRANCH   5   6
ATOM      6  C   UNL A   1      42.610  21.920  26.808  1.00  0.00     0.344 C 
ATOM      7  O   UNL A   1      43.504  22.735  27.007  1.00  0.00    -0.248 OA
BRANCH   6   8
ATOM      8  C   UNL A   1      41.310  22.297  26.082  1.00  0.00     0.351 C 
BRANCH   8   9
ATOM      9  O   UNL A   1      40.461  23.319  26.586  1.00  0.00    -0.482 OA
BRANCH   9  10
ATOM     10  C   UNL A   1      39.108  23.243  26.405  1.00  0.00     0.121 A 
ATOM     11  C   UNL A   1      33.609  21.893  23.423  1.00  0.00     0.088 C 
ATOM     12  C   UNL A   1      34.799  21.888  24.357  1.00  0.00     0.113 A 
ATOM     13  N   UNL A   1      35.261  23.006  24.812  1.00  0.00    -0.234 NA
ATOM     14  N   UNL A   1      35.388  20.664  24.623  1.00  0.00    -0.264 N 
ATOM     15  C   UNL A   1      36.452  22.970  25.540  1.00  0.00     0.078 A 
ATOM     16  C   UNL A   1      36.718  20.590  25.056  1.00  0.00     0.266 A 
ATOM     17  C   UNL A   1      36.864  24.119  26.209  1.00  0.00     0.033 A 
ATOM     18  C   UNL A   1      37.309  21.878  25.495  1.00  0.00     0.070 A 
ATOM     19  O   UNL A   1      37.381  19.559  25.147  1.00  0.00    -0.268 OA
ATOM     20  C   UNL A   1      38.191  24.271  26.620  1.00  0.00     0.049 A 
ATOM     21  C   UNL A   1      38.639  22.010  25.920  1.00  0.00     0.062 A 
BRANCH  14  22
ATOM     22  C   UNL A   1      34.532  19.574  24.942  1.00  0.00     0.054 A 
ATOM     23  C   UNL A   1      33.346  19.731  25.680  1.00  0.00     0.031 A 
ATOM     24  C   UNL A   1      34.909  18.307  24.459  1.00  0.00     0.077 A 
ATOM     25  C   UNL A   1      32.536  18.616  25.949  1.00  0.00     0.053 A 
ATOM     26  C   UNL A   1      34.070  17.247  24.700  1.00  0.00     0.167 A 
ATOM     27  C   UNL A   1      32.915  17.393  25.427  1.00  0.00     0.165 A 
ATOM     28  O   UNL A   1      34.252  15.981  24.245  1.00  0.00    -0.454 OA
ATOM     29  O   UNL A   1      32.228  16.222  25.530  1.00  0.00    -0.454 OA
ATOM     30  C   UNL A   1      33.025  15.367  24.677  1.00  0.00     0.468 C 
ENDBRANCH  14  22
ENDBRANCH   9  10
ENDBRANCH   8   9
ENDBRANCH   6   8
ENDBRANCH   5   6
ENDBRANCH   4   5
ENDBRANCH   3   4
ENDBRANCH   2   3
ENDBRANCH   1   2
BRANCH   1  31
ATOM     31  C   UNL A   1      46.139  20.062  24.655  1.00  0.00     0.188 C 
BRANCH  31  32
ATOM     32  O   UNL A   1      45.712  21.323  25.150  1.00  0.00    -0.376 OA
BRANCH  32  33
ATOM     33  C   UNL A   1      45.662  22.389  24.229  1.00  0.00     0.202 C 
BRANCH  33  34
ATOM     34  C   UNL A   1      46.692  23.498  24.458  1.00  0.00     0.261 C 
BRANCH  34  35
ATOM     35  O   UNL A   1      46.255  24.492  25.401  1.00  0.00    -0.460 OA
BRANCH  35  36
ATOM     36  C   UNL A   1      47.096  24.814  26.400  1.00  0.00     0.338 C 
ATOM     37  O   UNL A   1      47.795  24.033  27.044  1.00  0.00    -0.246 OA
BRANCH  36  38
ATOM     38  C   UNL A   1      46.974  26.255  26.705  1.00  0.00     0.060 A 
ATOM     39  C   UNL A   1      46.292  27.077  25.813  1.00  0.00     0.016 A 
ATOM     40  C   UNL A   1      47.475  26.796  27.891  1.00  0.00     0.016 A 
ATOM     41  C   UNL A   1      46.103  28.430  26.118  1.00  0.00     0.010 A 
ATOM     42  C   UNL A   1      47.222  28.130  28.232  1.00  0.00     0.010 A 
ATOM     43  C   UNL A   1      46.531  28.965  27.349  1.00  0.00    -0.014 A 
BRANCH  43  44
ATOM     44  C   UNL A   1      46.158  30.357  27.729  1.00  0.00     0.031 A 
ATOM     45  C   UNL A   1      47.015  31.544  27.373  1.00  0.00     0.074 A 
ATOM     46  C   UNL A   1      45.031  30.551  28.446  1.00  0.00     0.049 A 
ATOM     47  N   UNL A   1      46.740  32.819  27.507  1.00  0.00    -0.248 NA
ATOM     48  C   UNL A   1      48.354  31.281  26.826  1.00  0.00     0.031 C 
ATOM     49  C   UNL A   1      44.186  29.485  28.991  1.00  0.00     0.029 A 
ATOM     50  N   UNL A   1      44.397  31.706  28.835  1.00  0.00    -0.354 N 
ATOM     51  C   UNL A   1      47.869  33.503  27.075  1.00  0.00     0.074 A 
ATOM     52  C   UNL A   1      48.852  32.505  26.714  1.00  0.00     0.031 C 
ATOM     53  C   UNL A   1      43.121  30.031  29.595  1.00  0.00     0.029 A 
ATOM     54  C   UNL A   1      43.205  31.485  29.487  1.00  0.00     0.049 A 
ATOM     55  H   UNL A   1      44.760  32.604  28.664  1.00  0.00     0.167 HD
ATOM     56  C   UNL A   1      48.056  34.840  26.951  1.00  0.00     0.034 A 
ATOM     57  C   UNL A   1      42.263  32.347  29.916  1.00  0.00     0.034 A 
ATOM     58  C   UNL A   1      47.055  35.828  27.257  1.00  0.00     0.049 A 
ATOM     59  C   UNL A   1      42.435  33.816  29.655  1.00  0.00     0.074 A 
ATOM     60  C   UNL A   1      47.109  37.197  27.051  1.00  0.00     0.029 A 
ATOM     61  N   UNL A   1      45.824  35.558  27.830  1.00  0.00    -0.354 N 
ATOM     62  N   UNL A   1      43.431  34.433  29.070  1.00  0.00    -0.248 NA
ATOM     63  C   UNL A   1      41.340  34.703  30.073  1.00  0.00     0.031 C 
ATOM     64  C   UNL A   1      45.910  37.754  27.504  1.00  0.00     0.029 A 
ATOM     65  C   UNL A   1      45.106  36.732  27.981  1.00  0.00     0.049 A 
ATOM     66  H   UNL A   1      45.506  34.663  28.091  1.00  0.00     0.167 HD
ATOM     67  C   UNL A   1      43.076  35.775  29.028  1.00  0.00     0.074 A 
ATOM     68  C   UNL A   1      41.764  35.881  29.633  1.00  0.00     0.031 C 
ATOM     69  C   UNL A   1      43.784  36.823  28.541  1.00  0.00     0.034 A 
BRANCH  56  70
ATOM     70  C   UNL A   1      49.352  35.326  26.358  1.00  0.00     0.023 A 
ATOM     71  C   UNL A   1      49.426  35.529  24.965  1.00  0.00     0.012 A 
ATOM     72  C   UNL A   1      50.441  35.696  27.171  1.00  0.00     0.148 A 
ATOM     73  C   UNL A   1      50.568  36.079  24.386  1.00  0.00     0.002 A 
ATOM     74  C   UNL A   1      51.566  36.273  26.590  1.00  0.00     0.091 A 
ATOM     75  F   UNL A   1      50.351  35.492  28.493  1.00  0.00    -0.205 F 
ATOM     76  C   UNL A   1      51.632  36.460  25.198  1.00  0.00     0.022 A 
BRANCH  74  77
ATOM     77  S   UNL A   1      52.971  36.859  27.545  1.00  0.00     0.127 S 
ATOM     78  O   UNL A   1      52.309  37.539  28.658  1.00  0.00    -0.237 OA
ATOM     79  O   UNL A   1      53.638  35.608  27.906  1.00  0.00    -0.237 OA
ATOM     80  O   UNL A   1      53.731  37.727  26.657  1.00  0.00    -0.744 OA
ENDBRANCH  74  77
ENDBRANCH  56  70
BRANCH  57  81
ATOM     81  C   UNL A   1      41.012  31.809  30.515  1.00  0.00     0.023 A 
ATOM     82  C   UNL A   1      39.941  31.467  29.667  1.00  0.00     0.012 A 
ATOM     83  C   UNL A   1      40.914  31.550  31.895  1.00  0.00     0.148 A 
ATOM     84  C   UNL A   1      38.787  30.878  30.185  1.00  0.00     0.002 A 
ATOM     85  C   UNL A   1      39.777  30.929  32.398  1.00  0.00     0.091 A 
ATOM     86  F   UNL A   1      41.948  31.887  32.677  1.00  0.00    -0.205 F 
ATOM     87  C   UNL A   1      38.709  30.599  31.547  1.00  0.00     0.022 A 
BRANCH  85  88
ATOM     88  S   UNL A   1      39.624  30.432  34.118  1.00  0.00     0.127 S 
ATOM     89  O   UNL A   1      40.801  29.583  34.290  1.00  0.00    -0.237 OA
ATOM     90  O   UNL A   1      39.688  31.721  34.808  1.00  0.00    -0.237 OA
ATOM     91  O   UNL A   1      38.341  29.751  34.223  1.00  0.00    -0.744 OA
ENDBRANCH  85  88
ENDBRANCH  57  81
BRANCH  69  92
ATOM     92  C   UNL A   1      43.169  38.192  28.627  1.00  0.00     0.023 A 
ATOM     93  C   UNL A   1      42.257  38.604  27.637  1.00  0.00     0.012 A 
ATOM     94  C   UNL A   1      43.401  39.016  29.746  1.00  0.00     0.148 A 
ATOM     95  C   UNL A   1      41.591  39.823  27.753  1.00  0.00     0.002 A 
ATOM     96  C   UNL A   1      42.709  40.215  29.872  1.00  0.00     0.091 A 
ATOM     97  F   UNL A   1      44.284  38.606  30.668  1.00  0.00    -0.205 F 
ATOM     98  C   UNL A   1      41.808  40.621  28.874  1.00  0.00     0.022 A 
BRANCH  96  99
ATOM     99  S   UNL A   1      42.865  41.276  31.312  1.00  0.00     0.127 S 
ATOM    100  O   UNL A   1      43.292  42.538  30.708  1.00  0.00    -0.237 OA
ATOM    101  O   UNL A   1      41.501  41.283  31.841  1.00  0.00    -0.237 OA
ATOM    102  O   UNL A   1      43.848  40.639  32.179  1.00  0.00    -0.744 OA
ENDBRANCH  96  99
ENDBRANCH  69  92
ENDBRANCH  43  44
ENDBRANCH  36  38
ENDBRANCH  35  36
ENDBRANCH  34  35
ENDBRANCH  33  34
ENDBRANCH  32  33
ENDBRANCH  31  32
ENDBRANCH   1  31
TORSDOF 23
ENDMDL
