MODEL 1
REMARK VINA RESULT:      -8.5      0.000      0.000
REMARK SMILES O=C(OCCOCCOCCOC(=O)c1csc(S(=O)(=O)Nc2cccc(S(=O)(=O)N3CCCC3)c2)c1)c1ccc(-c2c3nc(c(-c4cccc(S(=O)(=O)[O-])c4F)c4ccc([nH]4)c(-c4cccc(S(=O)(=O)[O-])c4F)c4nc(c(-c5cccc(S(=O)(=O)[O-])c5F)c5ccc2[nH]5)C=C4)C=C3)cc1
REMARK SMILES IDX 8 1 7 2 6 3 5 4 4 5 3 6 2 7 1 8 38 9 39 10 100 11 40 12
REMARK SMILES IDX 99 13 41 14 42 15 43 16 93 17 44 18 98 19 92 20 94 21 45 22
REMARK SMILES IDX 97 23 91 24 90 25 46 27 78 28 58 29 77 30 59 31 62 32 76 33
REMARK SMILES IDX 95 34 60 35 61 36 75 38 96 39 63 40 47 41 48 42 56 43 49 44
REMARK SMILES IDX 51 45 57 46 50 47 52 48 53 49 54 50 55 51 79 52 80 53 88 54
REMARK SMILES IDX 81 55 83 56 89 57 82 58 84 59 85 60 86 61 87 62 64 63 65 64
REMARK SMILES IDX 73 65 66 66 68 67 74 68 67 69 69 70 70 71 71 72 72 73 9 74
REMARK SMILES IDX 10 75 11 76 12 77 13 78 14 79 15 80 16 81 37 82 17 83 18 84
REMARK SMILES IDX 19 85 20 86 21 87 22 88 23 90 24 91 36 92 25 93 27 94 26 95
REMARK SMILES IDX 28 96 29 97 30 98 31 99 32 100 35 101 33 102 34 103
REMARK H PARENT 94 26 62 37 22 89
REMARK Flexibility Score: inf
ROOT
ATOM      1  C   UNL A   1      38.036  30.534  31.219  1.00  0.00     0.188 C 
ENDROOT
BRANCH   1   2
ATOM      2  C   UNL A   1      36.626  30.786  30.661  1.00  0.00     0.188 C 
BRANCH   2   3
ATOM      3  O   UNL A   1      36.419  32.101  30.171  1.00  0.00    -0.376 OA
BRANCH   3   4
ATOM      4  C   UNL A   1      35.072  32.507  30.030  1.00  0.00     0.202 C 
BRANCH   4   5
ATOM      5  C   UNL A   1      34.585  33.266  31.278  1.00  0.00     0.261 C 
BRANCH   5   6
ATOM      6  O   UNL A   1      35.205  34.545  31.476  1.00  0.00    -0.460 OA
BRANCH   6   7
ATOM      7  C   UNL A   1      35.237  35.046  32.730  1.00  0.00     0.338 C 
ATOM      8  O   UNL A   1      34.622  36.034  33.100  1.00  0.00    -0.246 OA
BRANCH   7   9
ATOM      9  C   UNL A   1      36.351  34.457  33.492  1.00  0.00     0.060 A 
ATOM     10  C   UNL A   1      36.123  33.705  34.649  1.00  0.00     0.016 A 
ATOM     11  C   UNL A   1      37.644  34.655  33.027  1.00  0.00     0.016 A 
ATOM     12  C   UNL A   1      37.174  33.045  35.286  1.00  0.00     0.010 A 
ATOM     13  C   UNL A   1      38.696  34.001  33.664  1.00  0.00     0.010 A 
ATOM     14  C   UNL A   1      38.471  33.186  34.795  1.00  0.00    -0.014 A 
BRANCH  14  15
ATOM     15  C   UNL A   1      39.636  32.764  35.611  1.00  0.00     0.031 A 
ATOM     16  C   UNL A   1      40.056  33.743  36.671  1.00  0.00     0.074 A 
ATOM     17  C   UNL A   1      40.334  31.631  35.395  1.00  0.00     0.049 A 
ATOM     18  N   UNL A   1      41.102  33.734  37.446  1.00  0.00    -0.248 NA
ATOM     19  C   UNL A   1      39.199  34.936  36.828  1.00  0.00     0.031 C 
ATOM     20  C   UNL A   1      40.060  30.621  34.369  1.00  0.00     0.029 A 
ATOM     21  N   UNL A   1      41.471  31.166  36.011  1.00  0.00    -0.354 N 
ATOM     22  C   UNL A   1      41.032  34.929  38.149  1.00  0.00     0.074 A 
ATOM     23  C   UNL A   1      39.955  35.703  37.588  1.00  0.00     0.031 C 
ATOM     24  C   UNL A   1      41.040  29.695  34.386  1.00  0.00     0.029 A 
ATOM     25  C   UNL A   1      41.990  30.022  35.445  1.00  0.00     0.049 A 
ATOM     26  H   UNL A   1      41.878  31.612  36.788  1.00  0.00     0.167 HD
ATOM     27  C   UNL A   1      41.711  35.304  39.255  1.00  0.00     0.034 A 
ATOM     28  C   UNL A   1      43.098  29.324  35.771  1.00  0.00     0.034 A 
ATOM     29  C   UNL A   1      42.702  34.479  39.868  1.00  0.00     0.049 A 
ATOM     30  C   UNL A   1      43.873  29.757  36.998  1.00  0.00     0.074 A 
ATOM     31  C   UNL A   1      43.387  34.676  41.047  1.00  0.00     0.029 A 
ATOM     32  N   UNL A   1      43.135  33.274  39.335  1.00  0.00    -0.354 N 
ATOM     33  N   UNL A   1      43.673  30.794  37.777  1.00  0.00    -0.248 NA
ATOM     34  C   UNL A   1      44.969  28.881  37.440  1.00  0.00     0.031 C 
ATOM     35  C   UNL A   1      44.245  33.586  41.226  1.00  0.00     0.029 A 
ATOM     36  C   UNL A   1      44.077  32.705  40.165  1.00  0.00     0.049 A 
ATOM     37  H   UNL A   1      42.818  32.882  38.489  1.00  0.00     0.167 HD
ATOM     38  C   UNL A   1      44.559  30.652  38.841  1.00  0.00     0.074 A 
ATOM     39  C   UNL A   1      45.307  29.435  38.597  1.00  0.00     0.031 C 
ATOM     40  C   UNL A   1      44.737  31.447  39.926  1.00  0.00     0.034 A 
BRANCH  27  41
ATOM     41  C   UNL A   1      41.288  36.604  39.878  1.00  0.00     0.023 A 
ATOM     42  C   UNL A   1      39.985  36.720  40.417  1.00  0.00     0.012 A 
ATOM     43  C   UNL A   1      42.116  37.737  39.824  1.00  0.00     0.148 A 
ATOM     44  C   UNL A   1      39.480  37.961  40.797  1.00  0.00     0.002 A 
ATOM     45  C   UNL A   1      41.625  38.960  40.261  1.00  0.00     0.091 A 
ATOM     46  F   UNL A   1      43.342  37.608  39.296  1.00  0.00    -0.205 F 
ATOM     47  C   UNL A   1      40.301  39.080  40.720  1.00  0.00     0.022 A 
BRANCH  45  48
ATOM     48  S   UNL A   1      42.617  40.455  40.268  1.00  0.00     0.127 S 
ATOM     49  O   UNL A   1      41.728  41.398  40.946  1.00  0.00    -0.237 OA
ATOM     50  O   UNL A   1      43.780  40.040  41.052  1.00  0.00    -0.237 OA
ATOM     51  O   UNL A   1      42.898  40.759  38.873  1.00  0.00    -0.744 OA
ENDBRANCH  45  48
ENDBRANCH  27  41
BRANCH  28  52
ATOM     52  C   UNL A   1      43.477  28.076  35.041  1.00  0.00     0.023 A 
ATOM     53  C   UNL A   1      44.250  28.178  33.866  1.00  0.00     0.012 A 
ATOM     54  C   UNL A   1      43.052  26.802  35.467  1.00  0.00     0.148 A 
ATOM     55  C   UNL A   1      44.548  27.049  33.101  1.00  0.00     0.002 A 
ATOM     56  C   UNL A   1      43.383  25.674  34.716  1.00  0.00     0.091 A 
ATOM     57  F   UNL A   1      42.324  26.719  36.589  1.00  0.00    -0.205 F 
ATOM     58  C   UNL A   1      44.115  25.799  33.524  1.00  0.00     0.022 A 
BRANCH  56  59
ATOM     59  S   UNL A   1      42.944  24.001  35.206  1.00  0.00     0.127 S 
ATOM     60  O   UNL A   1      43.806  23.793  36.368  1.00  0.00    -0.237 OA
ATOM     61  O   UNL A   1      41.522  24.152  35.514  1.00  0.00    -0.237 OA
ATOM     62  O   UNL A   1      43.236  23.164  34.051  1.00  0.00    -0.744 OA
ENDBRANCH  56  59
ENDBRANCH  28  52
BRANCH  40  63
ATOM     63  C   UNL A   1      45.708  30.998  40.981  1.00  0.00     0.023 A 
ATOM     64  C   UNL A   1      47.035  31.462  40.962  1.00  0.00     0.012 A 
ATOM     65  C   UNL A   1      45.250  30.233  42.073  1.00  0.00     0.148 A 
ATOM     66  C   UNL A   1      47.899  31.161  42.012  1.00  0.00     0.002 A 
ATOM     67  C   UNL A   1      46.098  29.988  43.142  1.00  0.00     0.091 A 
ATOM     68  F   UNL A   1      43.985  29.786  42.055  1.00  0.00    -0.205 F 
ATOM     69  C   UNL A   1      47.427  30.442  43.109  1.00  0.00     0.022 A 
BRANCH  67  70
ATOM     70  S   UNL A   1      45.535  29.186  44.647  1.00  0.00     0.127 S 
ATOM     71  O   UNL A   1      46.753  29.179  45.454  1.00  0.00    -0.237 OA
ATOM     72  O   UNL A   1      44.495  30.103  45.116  1.00  0.00    -0.237 OA
ATOM     73  O   UNL A   1      45.044  27.875  44.244  1.00  0.00    -0.744 OA
ENDBRANCH  67  70
ENDBRANCH  40  63
ENDBRANCH  14  15
ENDBRANCH   7   9
ENDBRANCH   6   7
ENDBRANCH   5   6
ENDBRANCH   4   5
ENDBRANCH   3   4
ENDBRANCH   2   3
ENDBRANCH   1   2
BRANCH   1  74
ATOM     74  O   UNL A   1      38.968  29.890  30.347  1.00  0.00    -0.376 OA
BRANCH  74  75
ATOM     75  C   UNL A   1      38.654  28.581  29.888  1.00  0.00     0.202 C 
BRANCH  75  76
ATOM     76  C   UNL A   1      39.762  27.790  29.168  1.00  0.00     0.261 C 
BRANCH  76  77
ATOM     77  O   UNL A   1      39.314  26.609  28.473  1.00  0.00    -0.460 OA
BRANCH  77  78
ATOM     78  C   UNL A   1      40.263  25.651  28.222  1.00  0.00     0.339 C 
ATOM     79  O   UNL A   1      41.404  25.680  28.665  1.00  0.00    -0.246 OA
BRANCH  78  80
ATOM     80  C   UNL A   1      39.753  24.513  27.457  1.00  0.00     0.072 A 
ATOM     81  C   UNL A   1      40.431  23.320  27.296  1.00  0.00     0.082 A 
ATOM     82  C   UNL A   1      38.461  24.455  26.801  1.00  0.00     0.050 A 
ATOM     83  S   UNL A   1      39.519  22.158  26.439  1.00  0.00    -0.130 S 
ATOM     84  C   UNL A   1      38.209  23.242  26.184  1.00  0.00     0.141 A 
BRANCH  84  85
ATOM     85  S   UNL A   1      36.856  22.545  25.249  1.00  0.00     0.271 S 
ATOM     86  O   UNL A   1      37.410  21.436  24.506  1.00  0.00    -0.200 OA
ATOM     87  O   UNL A   1      35.782  22.363  26.201  1.00  0.00    -0.200 OA
BRANCH  85  88
ATOM     88  N   UNL A   1      36.201  23.580  24.073  1.00  0.00    -0.279 N 
ATOM     89  H   UNL A   1      36.835  24.116  23.542  1.00  0.00     0.180 HD
BRANCH  88  90
ATOM     90  C   UNL A   1      34.813  23.740  23.787  1.00  0.00     0.050 A 
ATOM     91  C   UNL A   1      34.285  22.957  22.754  1.00  0.00     0.027 A 
ATOM     92  C   UNL A   1      34.011  24.699  24.363  1.00  0.00     0.048 A 
ATOM     93  C   UNL A   1      32.945  23.071  22.368  1.00  0.00     0.004 A 
ATOM     94  C   UNL A   1      32.679  24.831  23.967  1.00  0.00     0.084 A 
ATOM     95  C   UNL A   1      32.128  24.003  22.990  1.00  0.00     0.022 A 
BRANCH  94  96
ATOM     96  S   UNL A   1      31.626  26.065  24.675  1.00  0.00     0.243 S 
ATOM     97  O   UNL A   1      31.121  26.848  23.573  1.00  0.00    -0.207 OA
ATOM     98  O   UNL A   1      30.747  25.293  25.528  1.00  0.00    -0.207 OA
BRANCH  96  99
ATOM     99  N   UNL A   1      32.648  27.050  25.568  1.00  0.00    -0.198 NA
ATOM    100  C   UNL A   1      32.242  27.422  26.937  1.00  0.00     0.102 C 
ATOM    101  C   UNL A   1      33.468  28.112  24.959  1.00  0.00     0.102 C 
ATOM    102  C   UNL A   1      32.580  28.890  27.078  1.00  0.00     0.018 C 
ATOM    103  C   UNL A   1      33.652  29.162  26.046  1.00  0.00     0.018 C 
ENDBRANCH  96  99
ENDBRANCH  94  96
ENDBRANCH  88  90
ENDBRANCH  85  88
ENDBRANCH  84  85
ENDBRANCH  78  80
ENDBRANCH  77  78
ENDBRANCH  76  77
ENDBRANCH  75  76
ENDBRANCH  74  75
ENDBRANCH   1  74
TORSDOF 25
ENDMDL
MODEL 2
REMARK VINA RESULT:      -8.1     10.707     17.008
REMARK SMILES O=C(OCCOCCOCCOC(=O)c1csc(S(=O)(=O)Nc2cccc(S(=O)(=O)N3CCCC3)c2)c1)c1ccc(-c2c3nc(c(-c4cccc(S(=O)(=O)[O-])c4F)c4ccc([nH]4)c(-c4cccc(S(=O)(=O)[O-])c4F)c4nc(c(-c5cccc(S(=O)(=O)[O-])c5F)c5ccc2[nH]5)C=C4)C=C3)cc1
REMARK SMILES IDX 8 1 7 2 6 3 5 4 4 5 3 6 2 7 1 8 38 9 39 10 100 11 40 12
REMARK SMILES IDX 99 13 41 14 42 15 43 16 93 17 44 18 98 19 92 20 94 21 45 22
REMARK SMILES IDX 97 23 91 24 90 25 46 27 78 28 58 29 77 30 59 31 62 32 76 33
REMARK SMILES IDX 95 34 60 35 61 36 75 38 96 39 63 40 47 41 48 42 56 43 49 44
REMARK SMILES IDX 51 45 57 46 50 47 52 48 53 49 54 50 55 51 79 52 80 53 88 54
REMARK SMILES IDX 81 55 83 56 89 57 82 58 84 59 85 60 86 61 87 62 64 63 65 64
REMARK SMILES IDX 73 65 66 66 68 67 74 68 67 69 69 70 70 71 71 72 72 73 9 74
REMARK SMILES IDX 10 75 11 76 12 77 13 78 14 79 15 80 16 81 37 82 17 83 18 84
REMARK SMILES IDX 19 85 20 86 21 87 22 88 23 90 24 91 36 92 25 93 27 94 26 95
REMARK SMILES IDX 28 96 29 97 30 98 31 99 32 100 35 101 33 102 34 103
REMARK H PARENT 94 26 62 37 22 89
REMARK Flexibility Score: inf
ROOT
ATOM      1  C   UNL A   1      49.322  41.547  30.048  1.00  0.00     0.188 C 
ENDROOT
BRANCH   1   2
ATOM      2  C   UNL A   1      49.806  40.184  30.569  1.00  0.00     0.188 C 
BRANCH   2   3
ATOM      3  O   UNL A   1      48.767  39.250  30.811  1.00  0.00    -0.376 OA
BRANCH   3   4
ATOM      4  C   UNL A   1      48.581  38.257  29.821  1.00  0.00     0.202 C 
BRANCH   4   5
ATOM      5  C   UNL A   1      47.779  37.064  30.373  1.00  0.00     0.261 C 
BRANCH   5   6
ATOM      6  O   UNL A   1      48.581  35.933  30.750  1.00  0.00    -0.460 OA
BRANCH   6   7
ATOM      7  C   UNL A   1      48.963  35.077  29.777  1.00  0.00     0.338 C 
ATOM      8  O   UNL A   1      49.874  35.280  28.991  1.00  0.00    -0.246 OA
BRANCH   7   9
ATOM      9  C   UNL A   1      47.939  34.037  29.575  1.00  0.00     0.060 A 
ATOM     10  C   UNL A   1      47.783  32.985  30.483  1.00  0.00     0.016 A 
ATOM     11  C   UNL A   1      47.116  34.131  28.460  1.00  0.00     0.016 A 
ATOM     12  C   UNL A   1      46.727  32.083  30.350  1.00  0.00     0.010 A 
ATOM     13  C   UNL A   1      46.065  33.227  28.323  1.00  0.00     0.010 A 
ATOM     14  C   UNL A   1      45.857  32.200  29.268  1.00  0.00    -0.014 A 
BRANCH  14  15
ATOM     15  C   UNL A   1      44.929  31.095  28.924  1.00  0.00     0.031 A 
ATOM     16  C   UNL A   1      45.473  30.089  27.949  1.00  0.00     0.074 A 
ATOM     17  C   UNL A   1      43.661  31.009  29.376  1.00  0.00     0.049 A 
ATOM     18  N   UNL A   1      44.874  29.099  27.351  1.00  0.00    -0.248 NA
ATOM     19  C   UNL A   1      46.882  30.274  27.544  1.00  0.00     0.031 C 
ATOM     20  C   UNL A   1      42.997  31.944  30.288  1.00  0.00     0.029 A 
ATOM     21  N   UNL A   1      42.678  30.099  29.073  1.00  0.00    -0.354 N 
ATOM     22  C   UNL A   1      45.829  28.577  26.489  1.00  0.00     0.074 A 
ATOM     23  C   UNL A   1      46.969  29.457  26.514  1.00  0.00     0.031 C 
ATOM     24  C   UNL A   1      41.701  31.595  30.415  1.00  0.00     0.029 A 
ATOM     25  C   UNL A   1      41.450  30.392  29.626  1.00  0.00     0.049 A 
ATOM     26  H   UNL A   1      42.837  29.307  28.511  1.00  0.00     0.167 HD
ATOM     27  C   UNL A   1      45.823  27.398  25.831  1.00  0.00     0.034 A 
ATOM     28  C   UNL A   1      40.274  29.740  29.511  1.00  0.00     0.034 A 
ATOM     29  C   UNL A   1      44.731  26.480  25.902  1.00  0.00     0.049 A 
ATOM     30  C   UNL A   1      40.261  28.429  28.754  1.00  0.00     0.074 A 
ATOM     31  C   UNL A   1      44.632  25.208  25.384  1.00  0.00     0.029 A 
ATOM     32  N   UNL A   1      43.539  26.754  26.557  1.00  0.00    -0.354 N 
ATOM     33  N   UNL A   1      41.237  27.843  28.100  1.00  0.00    -0.248 NA
ATOM     34  C   UNL A   1      39.016  27.647  28.791  1.00  0.00     0.031 C 
ATOM     35  C   UNL A   1      43.369  24.710  25.723  1.00  0.00     0.029 A 
ATOM     36  C   UNL A   1      42.694  25.670  26.467  1.00  0.00     0.049 A 
ATOM     37  H   UNL A   1      43.328  27.598  27.018  1.00  0.00     0.167 HD
ATOM     38  C   UNL A   1      40.752  26.596  27.720  1.00  0.00     0.074 A 
ATOM     39  C   UNL A   1      39.389  26.517  28.206  1.00  0.00     0.031 C 
ATOM     40  C   UNL A   1      41.374  25.601  27.039  1.00  0.00     0.034 A 
BRANCH  27  41
ATOM     41  C   UNL A   1      47.087  27.045  25.100  1.00  0.00     0.023 A 
ATOM     42  C   UNL A   1      48.128  26.387  25.796  1.00  0.00     0.012 A 
ATOM     43  C   UNL A   1      47.300  27.468  23.777  1.00  0.00     0.148 A 
ATOM     44  C   UNL A   1      49.389  26.245  25.223  1.00  0.00     0.002 A 
ATOM     45  C   UNL A   1      48.544  27.269  23.192  1.00  0.00     0.091 A 
ATOM     46  F   UNL A   1      46.306  28.103  23.140  1.00  0.00    -0.205 F 
ATOM     47  C   UNL A   1      49.596  26.685  23.920  1.00  0.00     0.022 A 
BRANCH  45  48
ATOM     48  S   UNL A   1      48.903  27.737  21.498  1.00  0.00     0.127 S 
ATOM     49  O   UNL A   1      49.812  26.671  21.081  1.00  0.00    -0.237 OA
ATOM     50  O   UNL A   1      47.576  27.683  20.884  1.00  0.00    -0.237 OA
ATOM     51  O   UNL A   1      49.491  29.067  21.563  1.00  0.00    -0.744 OA
ENDBRANCH  45  48
ENDBRANCH  27  41
BRANCH  28  52
ATOM     52  C   UNL A   1      39.048  30.212  30.223  1.00  0.00     0.023 A 
ATOM     53  C   UNL A   1      38.771  29.716  31.514  1.00  0.00     0.012 A 
ATOM     54  C   UNL A   1      38.135  31.108  29.629  1.00  0.00     0.148 A 
ATOM     55  C   UNL A   1      37.590  30.055  32.177  1.00  0.00     0.002 A 
ATOM     56  C   UNL A   1      36.975  31.470  30.312  1.00  0.00     0.091 A 
ATOM     57  F   UNL A   1      38.414  31.577  28.405  1.00  0.00    -0.205 F 
ATOM     58  C   UNL A   1      36.693  30.931  31.578  1.00  0.00     0.022 A 
BRANCH  56  59
ATOM     59  S   UNL A   1      35.782  32.651  29.670  1.00  0.00     0.127 S 
ATOM     60  O   UNL A   1      34.543  32.199  30.303  1.00  0.00    -0.237 OA
ATOM     61  O   UNL A   1      36.312  33.912  30.187  1.00  0.00    -0.237 OA
ATOM     62  O   UNL A   1      35.831  32.512  28.222  1.00  0.00    -0.744 OA
ENDBRANCH  56  59
ENDBRANCH  28  52
BRANCH  40  63
ATOM     63  C   UNL A   1      40.636  24.305  26.848  1.00  0.00     0.023 A 
ATOM     64  C   UNL A   1      39.293  24.314  26.432  1.00  0.00     0.012 A 
ATOM     65  C   UNL A   1      41.333  23.083  26.940  1.00  0.00     0.148 A 
ATOM     66  C   UNL A   1      38.648  23.119  26.120  1.00  0.00     0.002 A 
ATOM     67  C   UNL A   1      40.701  21.905  26.571  1.00  0.00     0.091 A 
ATOM     68  F   UNL A   1      42.606  23.103  27.360  1.00  0.00    -0.205 F 
ATOM     69  C   UNL A   1      39.355  21.920  26.170  1.00  0.00     0.022 A 
BRANCH  67  70
ATOM     70  S   UNL A   1      41.575  20.339  26.482  1.00  0.00     0.127 S 
ATOM     71  O   UNL A   1      40.541  19.452  25.951  1.00  0.00    -0.237 OA
ATOM     72  O   UNL A   1      42.660  20.642  25.548  1.00  0.00    -0.237 OA
ATOM     73  O   UNL A   1      42.013  20.046  27.839  1.00  0.00    -0.744 OA
ENDBRANCH  67  70
ENDBRANCH  40  63
ENDBRANCH  14  15
ENDBRANCH   7   9
ENDBRANCH   6   7
ENDBRANCH   5   6
ENDBRANCH   4   5
ENDBRANCH   3   4
ENDBRANCH   2   3
ENDBRANCH   1   2
BRANCH   1  74
ATOM     74  O   UNL A   1      49.051  41.640  28.647  1.00  0.00    -0.376 OA
BRANCH  74  75
ATOM     75  C   UNL A   1      47.722  41.947  28.245  1.00  0.00     0.202 C 
BRANCH  75  76
ATOM     76  C   UNL A   1      46.724  40.781  28.122  1.00  0.00     0.261 C 
BRANCH  76  77
ATOM     77  O   UNL A   1      45.350  41.173  27.931  1.00  0.00    -0.460 OA
BRANCH  77  78
ATOM     78  C   UNL A   1      44.474  40.176  27.583  1.00  0.00     0.339 C 
ATOM     79  O   UNL A   1      44.483  39.052  28.069  1.00  0.00    -0.246 OA
BRANCH  78  80
ATOM     80  C   UNL A   1      43.438  40.613  26.647  1.00  0.00     0.072 A 
ATOM     81  C   UNL A   1      42.082  40.505  26.885  1.00  0.00     0.082 A 
ATOM     82  C   UNL A   1      43.679  41.253  25.369  1.00  0.00     0.050 A 
ATOM     83  S   UNL A   1      41.140  41.201  25.643  1.00  0.00    -0.130 S 
ATOM     84  C   UNL A   1      42.520  41.606  24.700  1.00  0.00     0.141 A 
BRANCH  84  85
ATOM     85  S   UNL A   1      42.137  42.403  23.148  1.00  0.00     0.271 S 
ATOM     86  O   UNL A   1      42.359  41.409  22.121  1.00  0.00    -0.200 OA
ATOM     87  O   UNL A   1      40.845  43.022  23.340  1.00  0.00    -0.200 OA
BRANCH  85  88
ATOM     88  N   UNL A   1      43.163  43.693  22.742  1.00  0.00    -0.279 N 
ATOM     89  H   UNL A   1      43.430  44.301  23.469  1.00  0.00     0.180 HD
BRANCH  88  90
ATOM     90  C   UNL A   1      43.674  43.970  21.440  1.00  0.00     0.050 A 
ATOM     91  C   UNL A   1      45.053  44.179  21.330  1.00  0.00     0.027 A 
ATOM     92  C   UNL A   1      42.886  44.177  20.330  1.00  0.00     0.048 A 
ATOM     93  C   UNL A   1      45.645  44.499  20.104  1.00  0.00     0.004 A 
ATOM     94  C   UNL A   1      43.469  44.518  19.108  1.00  0.00     0.084 A 
ATOM     95  C   UNL A   1      44.850  44.654  18.977  1.00  0.00     0.022 A 
BRANCH  94  96
ATOM     96  S   UNL A   1      42.484  44.806  17.666  1.00  0.00     0.243 S 
ATOM     97  O   UNL A   1      42.976  43.904  16.653  1.00  0.00    -0.207 OA
ATOM     98  O   UNL A   1      41.131  44.721  18.171  1.00  0.00    -0.207 OA
BRANCH  96  99
ATOM     99  N   UNL A   1      42.867  46.366  17.182  1.00  0.00    -0.198 NA
ATOM    100  C   UNL A   1      43.218  47.354  18.220  1.00  0.00     0.102 C 
ATOM    101  C   UNL A   1      42.232  47.023  16.027  1.00  0.00     0.102 C 
ATOM    102  C   UNL A   1      42.515  48.633  17.820  1.00  0.00     0.018 C 
ATOM    103  C   UNL A   1      42.271  48.515  16.332  1.00  0.00     0.018 C 
ENDBRANCH  96  99
ENDBRANCH  94  96
ENDBRANCH  88  90
ENDBRANCH  85  88
ENDBRANCH  84  85
ENDBRANCH  78  80
ENDBRANCH  77  78
ENDBRANCH  76  77
ENDBRANCH  75  76
ENDBRANCH  74  75
ENDBRANCH   1  74
TORSDOF 25
ENDMDL
MODEL 3
REMARK VINA RESULT:      -8.0      6.632     13.499
REMARK SMILES O=C(OCCOCCOCCOC(=O)c1csc(S(=O)(=O)Nc2cccc(S(=O)(=O)N3CCCC3)c2)c1)c1ccc(-c2c3nc(c(-c4cccc(S(=O)(=O)[O-])c4F)c4ccc([nH]4)c(-c4cccc(S(=O)(=O)[O-])c4F)c4nc(c(-c5cccc(S(=O)(=O)[O-])c5F)c5ccc2[nH]5)C=C4)C=C3)cc1
REMARK SMILES IDX 8 1 7 2 6 3 5 4 4 5 3 6 2 7 1 8 38 9 39 10 100 11 40 12
REMARK SMILES IDX 99 13 41 14 42 15 43 16 93 17 44 18 98 19 92 20 94 21 45 22
REMARK SMILES IDX 97 23 91 24 90 25 46 27 78 28 58 29 77 30 59 31 62 32 76 33
REMARK SMILES IDX 95 34 60 35 61 36 75 38 96 39 63 40 47 41 48 42 56 43 49 44
REMARK SMILES IDX 51 45 57 46 50 47 52 48 53 49 54 50 55 51 79 52 80 53 88 54
REMARK SMILES IDX 81 55 83 56 89 57 82 58 84 59 85 60 86 61 87 62 64 63 65 64
REMARK SMILES IDX 73 65 66 66 68 67 74 68 67 69 69 70 70 71 71 72 72 73 9 74
REMARK SMILES IDX 10 75 11 76 12 77 13 78 14 79 15 80 16 81 37 82 17 83 18 84
REMARK SMILES IDX 19 85 20 86 21 87 22 88 23 90 24 91 36 92 25 93 27 94 26 95
REMARK SMILES IDX 28 96 29 97 30 98 31 99 32 100 35 101 33 102 34 103
REMARK H PARENT 94 26 62 37 22 89
REMARK Flexibility Score: inf
ROOT
ATOM      1  C   UNL A   1      45.989  32.399  36.021  1.00  0.00     0.188 C 
ENDROOT
BRANCH   1   2
ATOM      2  C   UNL A   1      47.347  31.926  35.478  1.00  0.00     0.188 C 
BRANCH   2   3
ATOM      3  O   UNL A   1      48.435  32.774  35.808  1.00  0.00    -0.376 OA
BRANCH   3   4
ATOM      4  C   UNL A   1      48.304  34.129  35.428  1.00  0.00     0.202 C 
BRANCH   4   5
ATOM      5  C   UNL A   1      48.153  34.267  33.902  1.00  0.00     0.261 C 
BRANCH   5   6
ATOM      6  O   UNL A   1      49.383  34.514  33.203  1.00  0.00    -0.460 OA
BRANCH   6   7
ATOM      7  C   UNL A   1      49.351  34.530  31.852  1.00  0.00     0.338 C 
ATOM      8  O   UNL A   1      49.428  35.536  31.167  1.00  0.00    -0.246 OA
BRANCH   7   9
ATOM      9  C   UNL A   1      48.879  33.234  31.333  1.00  0.00     0.060 A 
ATOM     10  C   UNL A   1      49.696  32.100  31.358  1.00  0.00     0.016 A 
ATOM     11  C   UNL A   1      47.588  33.159  30.825  1.00  0.00     0.016 A 
ATOM     12  C   UNL A   1      49.193  30.853  30.985  1.00  0.00     0.010 A 
ATOM     13  C   UNL A   1      47.085  31.916  30.447  1.00  0.00     0.010 A 
ATOM     14  C   UNL A   1      47.880  30.752  30.529  1.00  0.00    -0.014 A 
BRANCH  14  15
ATOM     15  C   UNL A   1      47.415  29.524  29.840  1.00  0.00     0.031 A 
ATOM     16  C   UNL A   1      46.833  28.472  30.741  1.00  0.00     0.074 A 
ATOM     17  C   UNL A   1      47.557  29.304  28.516  1.00  0.00     0.049 A 
ATOM     18  N   UNL A   1      46.469  27.251  30.472  1.00  0.00    -0.248 NA
ATOM     19  C   UNL A   1      46.707  28.837  32.167  1.00  0.00     0.031 C 
ATOM     20  C   UNL A   1      48.147  30.223  27.539  1.00  0.00     0.029 A 
ATOM     21  N   UNL A   1      47.253  28.190  27.771  1.00  0.00    -0.354 N 
ATOM     22  C   UNL A   1      46.106  26.711  31.698  1.00  0.00     0.074 A 
ATOM     23  C   UNL A   1      46.456  27.666  32.717  1.00  0.00     0.031 C 
ATOM     24  C   UNL A   1      48.222  29.608  26.342  1.00  0.00     0.029 A 
ATOM     25  C   UNL A   1      47.652  28.268  26.455  1.00  0.00     0.049 A 
ATOM     26  H   UNL A   1      46.791  27.406  28.146  1.00  0.00     0.167 HD
ATOM     27  C   UNL A   1      45.416  25.578  31.955  1.00  0.00     0.034 A 
ATOM     28  C   UNL A   1      47.545  27.358  25.465  1.00  0.00     0.034 A 
ATOM     29  C   UNL A   1      44.977  24.692  30.925  1.00  0.00     0.049 A 
ATOM     30  C   UNL A   1      46.792  26.077  25.759  1.00  0.00     0.074 A 
ATOM     31  C   UNL A   1      44.178  23.574  31.025  1.00  0.00     0.029 A 
ATOM     32  N   UNL A   1      45.303  24.849  29.586  1.00  0.00    -0.354 N 
ATOM     33  N   UNL A   1      46.276  25.664  26.893  1.00  0.00    -0.248 NA
ATOM     34  C   UNL A   1      46.530  25.179  24.623  1.00  0.00     0.031 C 
ATOM     35  C   UNL A   1      44.025  23.047  29.739  1.00  0.00     0.029 A 
ATOM     36  C   UNL A   1      44.714  23.851  28.840  1.00  0.00     0.049 A 
ATOM     37  H   UNL A   1      45.870  25.567  29.222  1.00  0.00     0.167 HD
ATOM     38  C   UNL A   1      45.564  24.507  26.593  1.00  0.00     0.074 A 
ATOM     39  C   UNL A   1      45.727  24.278  25.171  1.00  0.00     0.031 C 
ATOM     40  C   UNL A   1      44.833  23.708  27.412  1.00  0.00     0.034 A 
BRANCH  27  41
ATOM     41  C   UNL A   1      45.035  25.351  33.391  1.00  0.00     0.023 A 
ATOM     42  C   UNL A   1      45.827  24.491  34.188  1.00  0.00     0.012 A 
ATOM     43  C   UNL A   1      43.842  25.875  33.915  1.00  0.00     0.148 A 
ATOM     44  C   UNL A   1      45.387  24.080  35.444  1.00  0.00     0.002 A 
ATOM     45  C   UNL A   1      43.441  25.506  35.192  1.00  0.00     0.091 A 
ATOM     46  F   UNL A   1      43.099  26.676  33.137  1.00  0.00    -0.205 F 
ATOM     47  C   UNL A   1      44.195  24.589  35.946  1.00  0.00     0.022 A 
BRANCH  45  48
ATOM     48  S   UNL A   1      41.956  26.152  35.964  1.00  0.00     0.127 S 
ATOM     49  O   UNL A   1      41.731  25.180  37.033  1.00  0.00    -0.237 OA
ATOM     50  O   UNL A   1      42.402  27.468  36.420  1.00  0.00    -0.237 OA
ATOM     51  O   UNL A   1      40.939  26.178  34.924  1.00  0.00    -0.744 OA
ENDBRANCH  45  48
ENDBRANCH  27  41
BRANCH  28  52
ATOM     52  C   UNL A   1      48.021  27.651  24.079  1.00  0.00     0.023 A 
ATOM     53  C   UNL A   1      47.103  28.140  23.127  1.00  0.00     0.012 A 
ATOM     54  C   UNL A   1      49.353  27.417  23.681  1.00  0.00     0.148 A 
ATOM     55  C   UNL A   1      47.481  28.338  21.798  1.00  0.00     0.002 A 
ATOM     56  C   UNL A   1      49.733  27.651  22.360  1.00  0.00     0.091 A 
ATOM     57  F   UNL A   1      50.217  26.959  24.598  1.00  0.00    -0.205 F 
ATOM     58  C   UNL A   1      48.794  28.094  21.414  1.00  0.00     0.022 A 
BRANCH  56  59
ATOM     59  S   UNL A   1      51.417  27.443  21.768  1.00  0.00     0.127 S 
ATOM     60  O   UNL A   1      51.468  28.405  20.667  1.00  0.00    -0.237 OA
ATOM     61  O   UNL A   1      52.191  27.821  22.951  1.00  0.00    -0.237 OA
ATOM     62  O   UNL A   1      51.529  26.044  21.382  1.00  0.00    -0.744 OA
ENDBRANCH  56  59
ENDBRANCH  28  52
BRANCH  40  63
ATOM     63  C   UNL A   1      44.079  22.564  26.795  1.00  0.00     0.023 A 
ATOM     64  C   UNL A   1      42.676  22.600  26.727  1.00  0.00     0.012 A 
ATOM     65  C   UNL A   1      44.785  21.527  26.151  1.00  0.00     0.148 A 
ATOM     66  C   UNL A   1      41.981  21.610  26.035  1.00  0.00     0.002 A 
ATOM     67  C   UNL A   1      44.090  20.580  25.415  1.00  0.00     0.091 A 
ATOM     68  F   UNL A   1      46.123  21.506  26.250  1.00  0.00    -0.205 F 
ATOM     69  C   UNL A   1      42.687  20.613  25.363  1.00  0.00     0.022 A 
BRANCH  67  70
ATOM     70  S   UNL A   1      44.926  19.343  24.416  1.00  0.00     0.127 S 
ATOM     71  O   UNL A   1      44.389  19.623  23.086  1.00  0.00    -0.237 OA
ATOM     72  O   UNL A   1      46.333  19.698  24.596  1.00  0.00    -0.237 OA
ATOM     73  O   UNL A   1      44.553  18.053  24.981  1.00  0.00    -0.744 OA
ENDBRANCH  67  70
ENDBRANCH  40  63
ENDBRANCH  14  15
ENDBRANCH   7   9
ENDBRANCH   6   7
ENDBRANCH   5   6
ENDBRANCH   4   5
ENDBRANCH   3   4
ENDBRANCH   2   3
ENDBRANCH   1   2
BRANCH   1  74
ATOM     74  O   UNL A   1      44.899  31.479  35.920  1.00  0.00    -0.376 OA
BRANCH  74  75
ATOM     75  C   UNL A   1      45.047  30.366  35.047  1.00  0.00     0.202 C 
BRANCH  75  76
ATOM     76  C   UNL A   1      43.885  30.051  34.086  1.00  0.00     0.261 C 
BRANCH  76  77
ATOM     77  O   UNL A   1      42.817  31.021  34.083  1.00  0.00    -0.460 OA
BRANCH  77  78
ATOM     78  C   UNL A   1      42.839  31.950  33.074  1.00  0.00     0.339 C 
ATOM     79  O   UNL A   1      43.832  32.222  32.411  1.00  0.00    -0.246 OA
BRANCH  78  80
ATOM     80  C   UNL A   1      41.524  32.518  32.779  1.00  0.00     0.072 A 
ATOM     81  C   UNL A   1      41.328  33.719  32.125  1.00  0.00     0.082 A 
ATOM     82  C   UNL A   1      40.252  31.894  33.085  1.00  0.00     0.050 A 
ATOM     83  S   UNL A   1      39.676  34.049  31.841  1.00  0.00    -0.130 S 
ATOM     84  C   UNL A   1      39.159  32.626  32.655  1.00  0.00     0.141 A 
BRANCH  84  85
ATOM     85  S   UNL A   1      37.386  32.419  32.710  1.00  0.00     0.271 S 
ATOM     86  O   UNL A   1      37.077  31.954  34.044  1.00  0.00    -0.200 OA
ATOM     87  O   UNL A   1      36.836  33.650  32.187  1.00  0.00    -0.200 OA
BRANCH  85  88
ATOM     88  N   UNL A   1      36.781  31.217  31.674  1.00  0.00    -0.279 N 
ATOM     89  H   UNL A   1      35.893  31.370  31.277  1.00  0.00     0.180 HD
BRANCH  88  90
ATOM     90  C   UNL A   1      37.450  30.006  31.328  1.00  0.00     0.050 A 
ATOM     91  C   UNL A   1      37.567  29.037  32.330  1.00  0.00     0.027 A 
ATOM     92  C   UNL A   1      38.095  29.796  30.130  1.00  0.00     0.048 A 
ATOM     93  C   UNL A   1      38.243  27.834  32.103  1.00  0.00     0.004 A 
ATOM     94  C   UNL A   1      38.789  28.606  29.905  1.00  0.00     0.084 A 
ATOM     95  C   UNL A   1      38.845  27.605  30.875  1.00  0.00     0.022 A 
BRANCH  94  96
ATOM     96  S   UNL A   1      39.643  28.310  28.383  1.00  0.00     0.243 S 
ATOM     97  O   UNL A   1      39.549  26.891  28.135  1.00  0.00    -0.207 OA
ATOM     98  O   UNL A   1      39.056  29.281  27.484  1.00  0.00    -0.207 OA
BRANCH  96  99
ATOM     99  N   UNL A   1      41.250  28.660  28.710  1.00  0.00    -0.198 NA
ATOM    100  C   UNL A   1      42.119  27.571  29.193  1.00  0.00     0.102 C 
ATOM    101  C   UNL A   1      41.691  29.959  29.248  1.00  0.00     0.102 C 
ATOM    102  C   UNL A   1      42.956  28.175  30.300  1.00  0.00     0.018 C 
ATOM    103  C   UNL A   1      42.959  29.666  30.039  1.00  0.00     0.018 C 
ENDBRANCH  96  99
ENDBRANCH  94  96
ENDBRANCH  88  90
ENDBRANCH  85  88
ENDBRANCH  84  85
ENDBRANCH  78  80
ENDBRANCH  77  78
ENDBRANCH  76  77
ENDBRANCH  75  76
ENDBRANCH  74  75
ENDBRANCH   1  74
TORSDOF 25
ENDMDL
