MODEL 1
REMARK VINA RESULT:     -11.0      0.000      0.000
REMARK SMILES C[C@H]1CC[C@H]([NH2+]Cc2c(C(=O)OCCOCCOCCOC(=O)c3ccc(-c4c5nc(c(-c6cccc(S(=O)(=O)[O-])c6F)c6ccc([nH]6)c(-c6cccc(S(=O)(=O)[O-])c6F)c6nc(c(-c7cccc(S(=O)(=O)[O-])c7F)c7ccc4[nH]7)C=C6)C=C5)cc3)n(Cc3ccccc3F)c3ccccc23)CC1
REMARK SMILES IDX 16 1 15 2 14 3 13 4 12 5 10 6 11 7 9 8 8 9 101 10 87 11
REMARK SMILES IDX 96 12 100 13 97 14 99 15 98 16 7 17 6 18 5 21 1 22 2 23 3 24
REMARK SMILES IDX 103 25 4 26 102 27 88 28 89 29 90 30 94 31 91 32 93 33 95 34
REMARK SMILES IDX 92 35 17 36 18 37 19 38 20 39 21 40 22 41 23 42 24 43 25 44
REMARK SMILES IDX 86 45 26 46 85 47 27 48 28 49 29 50 79 51 30 52 84 53 78 54
REMARK SMILES IDX 80 55 31 56 83 57 77 58 76 59 32 61 64 62 44 63 63 64 45 65
REMARK SMILES IDX 48 66 62 67 81 68 46 69 47 70 61 72 82 73 49 74 33 75 34 76
REMARK SMILES IDX 42 77 35 78 37 79 43 80 36 81 38 82 39 83 40 84 41 85 65 86
REMARK SMILES IDX 66 87 74 88 67 89 69 90 75 91 68 92 70 93 71 94 72 95 73 96
REMARK SMILES IDX 50 97 51 98 59 99 52 100 54 101 60 102 53 103 55 104 56 105
REMARK SMILES IDX 57 106 58 107
REMARK H PARENT 6 19 6 20 80 60 48 71
REMARK Flexibility Score: inf
ROOT
ATOM      1  C   UNL A   1      32.602  29.313  23.586  1.00  0.00     0.188 C 
ENDROOT
BRANCH   1   2
ATOM      2  O   UNL A   1      32.655  28.827  22.259  1.00  0.00    -0.376 OA
BRANCH   2   3
ATOM      3  C   UNL A   1      33.782  28.025  22.080  1.00  0.00     0.202 C 
BRANCH   3   4
ATOM      4  C   UNL A   1      33.414  26.587  22.354  1.00  0.00     0.261 C 
BRANCH   4   5
ATOM      5  O   UNL A   1      34.373  25.564  22.699  1.00  0.00    -0.459 OA
BRANCH   5   6
ATOM      6  C   UNL A   1      34.452  25.209  24.015  1.00  0.00     0.355 C 
ATOM      7  O   UNL A   1      34.224  25.997  24.907  1.00  0.00    -0.244 OA
BRANCH   6   8
ATOM      8  C   UNL A   1      34.846  23.827  24.187  1.00  0.00     0.137 A 
ATOM      9  C   UNL A   1      36.007  23.338  24.806  1.00  0.00     0.047 A 
ATOM     10  C   UNL A   1      35.932  21.895  24.666  1.00  0.00     0.009 A 
ATOM     11  N   UNL A   1      34.022  22.715  23.932  1.00  0.00    -0.330 N 
ATOM     12  C   UNL A   1      34.601  21.580  24.426  1.00  0.00     0.050 A 
ATOM     13  C   UNL A   1      36.805  20.813  24.887  1.00  0.00     0.011 A 
ATOM     14  C   UNL A   1      34.065  20.315  24.705  1.00  0.00     0.027 A 
ATOM     15  C   UNL A   1      36.299  19.502  24.919  1.00  0.00     0.001 A 
ATOM     16  C   UNL A   1      34.935  19.264  24.914  1.00  0.00     0.002 A 
BRANCH   9  17
ATOM     17  C   UNL A   1      37.118  24.031  25.609  1.00  0.00     0.300 C 
BRANCH  17  18
ATOM     18  N   UNL A   1      38.432  23.372  25.701  1.00  0.00    -0.340 N 
ATOM     19  H   UNL A   1      38.290  22.401  25.422  1.00  0.00     0.346 HD
ATOM     20  H   UNL A   1      39.021  23.961  25.112  1.00  0.00     0.346 HD
BRANCH  18  21
ATOM     21  C   UNL A   1      39.181  23.337  26.986  1.00  0.00     0.182 C 
ATOM     22  C   UNL A   1      43.418  23.480  28.579  1.00  0.00     0.007 C 
ATOM     23  C   UNL A   1      42.127  23.473  27.751  1.00  0.00    -0.014 C 
ATOM     24  C   UNL A   1      41.142  24.529  28.231  1.00  0.00     0.009 C 
ATOM     25  C   UNL A   1      41.424  22.115  27.796  1.00  0.00     0.009 C 
ATOM     26  C   UNL A   1      39.934  24.630  27.305  1.00  0.00     0.065 C 
ATOM     27  C   UNL A   1      40.060  22.044  27.072  1.00  0.00     0.065 C 
ENDBRANCH  18  21
ENDBRANCH  17  18
ENDBRANCH   9  17
BRANCH  11  28
ATOM     28  C   UNL A   1      32.639  22.728  23.451  1.00  0.00     0.161 C 
BRANCH  28  29
ATOM     29  C   UNL A   1      31.516  23.412  24.229  1.00  0.00     0.008 A 
ATOM     30  C   UNL A   1      31.390  23.240  25.630  1.00  0.00     0.008 A 
ATOM     31  C   UNL A   1      30.796  24.459  23.658  1.00  0.00     0.128 A 
ATOM     32  C   UNL A   1      30.601  24.090  26.416  1.00  0.00     0.001 A 
ATOM     33  C   UNL A   1      30.050  25.346  24.443  1.00  0.00     0.039 A 
ATOM     34  F   UNL A   1      30.951  24.737  22.356  1.00  0.00    -0.207 F 
ATOM     35  C   UNL A   1      29.958  25.168  25.824  1.00  0.00     0.003 A 
ENDBRANCH  28  29
ENDBRANCH  11  28
ENDBRANCH   6   8
ENDBRANCH   5   6
ENDBRANCH   4   5
ENDBRANCH   3   4
ENDBRANCH   2   3
ENDBRANCH   1   2
BRANCH   1  36
ATOM     36  C   UNL A   1      31.175  29.503  24.112  1.00  0.00     0.188 C 
BRANCH  36  37
ATOM     37  O   UNL A   1      31.068  29.884  25.476  1.00  0.00    -0.376 OA
BRANCH  37  38
ATOM     38  C   UNL A   1      32.257  29.733  26.241  1.00  0.00     0.202 C 
BRANCH  38  39
ATOM     39  C   UNL A   1      32.690  30.985  27.045  1.00  0.00     0.261 C 
BRANCH  39  40
ATOM     40  O   UNL A   1      33.675  30.701  28.090  1.00  0.00    -0.460 OA
BRANCH  40  41
ATOM     41  C   UNL A   1      34.681  31.594  28.314  1.00  0.00     0.338 C 
ATOM     42  O   UNL A   1      34.529  32.635  28.938  1.00  0.00    -0.246 OA
BRANCH  41  43
ATOM     43  C   UNL A   1      36.066  31.005  28.032  1.00  0.00     0.060 A 
ATOM     44  C   UNL A   1      36.431  29.912  27.217  1.00  0.00     0.016 A 
ATOM     45  C   UNL A   1      37.074  31.528  28.821  1.00  0.00     0.016 A 
ATOM     46  C   UNL A   1      37.737  29.277  27.313  1.00  0.00     0.010 A 
ATOM     47  C   UNL A   1      38.336  30.905  28.888  1.00  0.00     0.010 A 
ATOM     48  C   UNL A   1      38.714  29.724  28.214  1.00  0.00    -0.014 A 
BRANCH  48  49
ATOM     49  C   UNL A   1      40.160  29.237  28.424  1.00  0.00     0.031 A 
ATOM     50  C   UNL A   1      40.472  28.966  29.855  1.00  0.00     0.074 A 
ATOM     51  C   UNL A   1      41.190  28.824  27.597  1.00  0.00     0.049 A 
ATOM     52  N   UNL A   1      41.269  29.695  30.564  1.00  0.00    -0.248 NA
ATOM     53  C   UNL A   1      39.861  27.861  30.600  1.00  0.00     0.031 C 
ATOM     54  C   UNL A   1      41.317  28.931  26.149  1.00  0.00     0.029 A 
ATOM     55  N   UNL A   1      42.316  28.026  27.866  1.00  0.00    -0.354 N 
ATOM     56  C   UNL A   1      41.430  29.010  31.753  1.00  0.00     0.074 A 
ATOM     57  C   UNL A   1      40.412  27.999  31.803  1.00  0.00     0.031 C 
ATOM     58  C   UNL A   1      42.182  28.015  25.643  1.00  0.00     0.029 A 
ATOM     59  C   UNL A   1      42.917  27.408  26.731  1.00  0.00     0.049 A 
ATOM     60  H   UNL A   1      42.666  27.903  28.778  1.00  0.00     0.167 HD
ATOM     61  C   UNL A   1      42.549  29.132  32.504  1.00  0.00     0.034 A 
ATOM     62  C   UNL A   1      44.067  26.666  26.607  1.00  0.00     0.034 A 
ATOM     63  C   UNL A   1      43.442  30.143  32.017  1.00  0.00     0.049 A 
ATOM     64  C   UNL A   1      44.940  27.328  27.602  1.00  0.00     0.074 A 
ATOM     65  C   UNL A   1      43.387  31.508  31.848  1.00  0.00     0.029 A 
ATOM     66  N   UNL A   1      44.470  29.677  31.240  1.00  0.00    -0.354 N 
ATOM     67  N   UNL A   1      45.459  28.510  27.412  1.00  0.00    -0.248 NA
ATOM     68  C   UNL A   1      45.225  26.714  28.891  1.00  0.00     0.031 C 
ATOM     69  C   UNL A   1      44.253  31.807  30.759  1.00  0.00     0.029 A 
ATOM     70  C   UNL A   1      44.818  30.617  30.301  1.00  0.00     0.049 A 
ATOM     71  H   UNL A   1      44.898  28.795  31.340  1.00  0.00     0.167 HD
ATOM     72  C   UNL A   1      45.687  28.968  28.687  1.00  0.00     0.074 A 
ATOM     73  C   UNL A   1      45.775  27.767  29.503  1.00  0.00     0.031 C 
ATOM     74  C   UNL A   1      45.396  30.259  29.017  1.00  0.00     0.034 A 
BRANCH  61  75
ATOM     75  C   UNL A   1      42.992  28.087  33.471  1.00  0.00     0.023 A 
ATOM     76  C   UNL A   1      43.020  28.419  34.835  1.00  0.00     0.012 A 
ATOM     77  C   UNL A   1      43.547  26.852  33.069  1.00  0.00     0.148 A 
ATOM     78  C   UNL A   1      43.547  27.532  35.775  1.00  0.00     0.002 A 
ATOM     79  C   UNL A   1      44.001  25.944  34.015  1.00  0.00     0.091 A 
ATOM     80  F   UNL A   1      43.720  26.604  31.762  1.00  0.00    -0.205 F 
ATOM     81  C   UNL A   1      44.015  26.284  35.370  1.00  0.00     0.022 A 
BRANCH  79  82
ATOM     82  S   UNL A   1      44.541  24.299  33.542  1.00  0.00     0.127 S 
ATOM     83  O   UNL A   1      45.920  24.293  34.016  1.00  0.00    -0.237 OA
ATOM     84  O   UNL A   1      43.619  23.447  34.294  1.00  0.00    -0.237 OA
ATOM     85  O   UNL A   1      44.355  24.244  32.096  1.00  0.00    -0.744 OA
ENDBRANCH  79  82
ENDBRANCH  61  75
BRANCH  62  86
ATOM     86  C   UNL A   1      44.807  25.748  25.625  1.00  0.00     0.023 A 
ATOM     87  C   UNL A   1      46.206  25.940  25.457  1.00  0.00     0.012 A 
ATOM     88  C   UNL A   1      44.307  24.533  25.100  1.00  0.00     0.148 A 
ATOM     89  C   UNL A   1      47.064  24.956  24.946  1.00  0.00     0.002 A 
ATOM     90  C   UNL A   1      45.176  23.524  24.613  1.00  0.00     0.091 A 
ATOM     91  F   UNL A   1      42.988  24.366  25.063  1.00  0.00    -0.205 F 
ATOM     92  C   UNL A   1      46.554  23.731  24.565  1.00  0.00     0.022 A 
BRANCH  90  93
ATOM     93  S   UNL A   1      44.607  21.879  24.107  1.00  0.00     0.127 S 
ATOM     94  O   UNL A   1      44.232  22.051  22.700  1.00  0.00    -0.237 OA
ATOM     95  O   UNL A   1      45.798  21.056  24.288  1.00  0.00    -0.237 OA
ATOM     96  O   UNL A   1      43.464  21.614  24.973  1.00  0.00    -0.744 OA
ENDBRANCH  90  93
ENDBRANCH  62  86
BRANCH  74  97
ATOM     97  C   UNL A   1      45.358  31.305  27.918  1.00  0.00     0.023 A 
ATOM     98  C   UNL A   1      44.153  31.761  27.348  1.00  0.00     0.012 A 
ATOM     99  C   UNL A   1      46.552  31.957  27.556  1.00  0.00     0.148 A 
ATOM    100  C   UNL A   1      44.138  32.824  26.441  1.00  0.00     0.002 A 
ATOM    101  C   UNL A   1      46.524  33.053  26.697  1.00  0.00     0.091 A 
ATOM    102  F   UNL A   1      47.699  31.526  28.104  1.00  0.00    -0.205 F 
ATOM    103  C   UNL A   1      45.319  33.481  26.127  1.00  0.00     0.022 A 
BRANCH 101 104
ATOM    104  S   UNL A   1      47.979  34.037  26.336  1.00  0.00     0.127 S 
ATOM    105  O   UNL A   1      48.966  33.014  25.990  1.00  0.00    -0.237 OA
ATOM    106  O   UNL A   1      47.522  34.851  25.209  1.00  0.00    -0.237 OA
ATOM    107  O   UNL A   1      48.276  34.786  27.551  1.00  0.00    -0.744 OA
ENDBRANCH 101 104
ENDBRANCH  74  97
ENDBRANCH  48  49
ENDBRANCH  41  43
ENDBRANCH  40  41
ENDBRANCH  39  40
ENDBRANCH  38  39
ENDBRANCH  37  38
ENDBRANCH  36  37
ENDBRANCH   1  36
TORSDOF 25
ENDMDL
MODEL 2
REMARK VINA RESULT:     -10.0      2.995      6.329
REMARK SMILES C[C@H]1CC[C@H]([NH2+]Cc2c(C(=O)OCCOCCOCCOC(=O)c3ccc(-c4c5nc(c(-c6cccc(S(=O)(=O)[O-])c6F)c6ccc([nH]6)c(-c6cccc(S(=O)(=O)[O-])c6F)c6nc(c(-c7cccc(S(=O)(=O)[O-])c7F)c7ccc4[nH]7)C=C6)C=C5)cc3)n(Cc3ccccc3F)c3ccccc23)CC1
REMARK SMILES IDX 16 1 15 2 14 3 13 4 12 5 10 6 11 7 9 8 8 9 101 10 87 11
REMARK SMILES IDX 96 12 100 13 97 14 99 15 98 16 7 17 6 18 5 21 1 22 2 23 3 24
REMARK SMILES IDX 103 25 4 26 102 27 88 28 89 29 90 30 94 31 91 32 93 33 95 34
REMARK SMILES IDX 92 35 17 36 18 37 19 38 20 39 21 40 22 41 23 42 24 43 25 44
REMARK SMILES IDX 86 45 26 46 85 47 27 48 28 49 29 50 79 51 30 52 84 53 78 54
REMARK SMILES IDX 80 55 31 56 83 57 77 58 76 59 32 61 64 62 44 63 63 64 45 65
REMARK SMILES IDX 48 66 62 67 81 68 46 69 47 70 61 72 82 73 49 74 33 75 34 76
REMARK SMILES IDX 42 77 35 78 37 79 43 80 36 81 38 82 39 83 40 84 41 85 65 86
REMARK SMILES IDX 66 87 74 88 67 89 69 90 75 91 68 92 70 93 71 94 72 95 73 96
REMARK SMILES IDX 50 97 51 98 59 99 52 100 54 101 60 102 53 103 55 104 56 105
REMARK SMILES IDX 57 106 58 107
REMARK H PARENT 6 19 6 20 80 60 48 71
REMARK Flexibility Score: inf
ROOT
ATOM      1  C   UNL A   1      32.309  28.338  23.566  1.00  0.00     0.188 C 
ENDROOT
BRANCH   1   2
ATOM      2  O   UNL A   1      31.083  28.320  22.862  1.00  0.00    -0.376 OA
BRANCH   2   3
ATOM      3  C   UNL A   1      31.006  27.188  22.050  1.00  0.00     0.202 C 
BRANCH   3   4
ATOM      4  C   UNL A   1      31.900  26.112  22.616  1.00  0.00     0.261 C 
BRANCH   4   5
ATOM      5  O   UNL A   1      32.079  24.814  22.009  1.00  0.00    -0.459 OA
BRANCH   5   6
ATOM      6  C   UNL A   1      31.859  23.725  22.801  1.00  0.00     0.355 C 
ATOM      7  O   UNL A   1      30.741  23.368  23.106  1.00  0.00    -0.244 OA
BRANCH   6   8
ATOM      8  C   UNL A   1      33.091  23.096  23.224  1.00  0.00     0.137 A 
ATOM      9  C   UNL A   1      34.232  23.718  23.756  1.00  0.00     0.047 A 
ATOM     10  C   UNL A   1      35.188  22.644  23.963  1.00  0.00     0.009 A 
ATOM     11  N   UNL A   1      33.286  21.708  23.357  1.00  0.00    -0.330 N 
ATOM     12  C   UNL A   1      34.464  21.460  24.005  1.00  0.00     0.050 A 
ATOM     13  C   UNL A   1      36.554  22.559  24.291  1.00  0.00     0.011 A 
ATOM     14  C   UNL A   1      34.942  20.308  24.643  1.00  0.00     0.027 A 
ATOM     15  C   UNL A   1      37.099  21.329  24.697  1.00  0.00     0.001 A 
ATOM     16  C   UNL A   1      36.285  20.238  24.953  1.00  0.00     0.002 A 
BRANCH   9  17
ATOM     17  C   UNL A   1      34.506  25.162  24.203  1.00  0.00     0.300 C 
BRANCH  17  18
ATOM     18  N   UNL A   1      34.622  25.440  25.645  1.00  0.00    -0.340 N 
ATOM     19  H   UNL A   1      35.474  24.978  25.962  1.00  0.00     0.346 HD
ATOM     20  H   UNL A   1      34.584  26.458  25.682  1.00  0.00     0.346 HD
BRANCH  18  21
ATOM     21  C   UNL A   1      33.546  25.036  26.590  1.00  0.00     0.182 C 
ATOM     22  C   UNL A   1      29.814  22.477  26.767  1.00  0.00     0.007 C 
ATOM     23  C   UNL A   1      31.101  23.227  26.405  1.00  0.00    -0.014 C 
ATOM     24  C   UNL A   1      32.224  22.931  27.389  1.00  0.00     0.009 C 
ATOM     25  C   UNL A   1      30.891  24.742  26.367  1.00  0.00     0.009 C 
ATOM     26  C   UNL A   1      33.543  23.545  26.934  1.00  0.00     0.065 C 
ATOM     27  C   UNL A   1      32.161  25.586  26.109  1.00  0.00     0.065 C 
ENDBRANCH  18  21
ENDBRANCH  17  18
ENDBRANCH   9  17
BRANCH  11  28
ATOM     28  C   UNL A   1      32.310  20.649  23.100  1.00  0.00     0.161 C 
BRANCH  28  29
ATOM     29  C   UNL A   1      32.468  19.242  23.677  1.00  0.00     0.008 A 
ATOM     30  C   UNL A   1      32.986  18.186  22.888  1.00  0.00     0.008 A 
ATOM     31  C   UNL A   1      32.419  19.033  25.053  1.00  0.00     0.128 A 
ATOM     32  C   UNL A   1      33.450  16.992  23.455  1.00  0.00     0.001 A 
ATOM     33  C   UNL A   1      32.933  17.866  25.633  1.00  0.00     0.039 A 
ATOM     34  F   UNL A   1      32.036  20.030  25.862  1.00  0.00    -0.207 F 
ATOM     35  C   UNL A   1      33.457  16.848  24.835  1.00  0.00     0.003 A 
ENDBRANCH  28  29
ENDBRANCH  11  28
ENDBRANCH   6   8
ENDBRANCH   5   6
ENDBRANCH   4   5
ENDBRANCH   3   4
ENDBRANCH   2   3
ENDBRANCH   1   2
BRANCH   1  36
ATOM     36  C   UNL A   1      32.262  29.169  24.854  1.00  0.00     0.188 C 
BRANCH  36  37
ATOM     37  O   UNL A   1      33.520  29.603  25.351  1.00  0.00    -0.376 OA
BRANCH  37  38
ATOM     38  C   UNL A   1      33.557  29.875  26.746  1.00  0.00     0.202 C 
BRANCH  38  39
ATOM     39  C   UNL A   1      34.899  29.545  27.448  1.00  0.00     0.261 C 
BRANCH  39  40
ATOM     40  O   UNL A   1      35.939  30.553  27.231  1.00  0.00    -0.460 OA
BRANCH  40  41
ATOM     41  C   UNL A   1      36.900  30.729  28.183  1.00  0.00     0.338 C 
ATOM     42  O   UNL A   1      36.793  31.524  29.106  1.00  0.00    -0.246 OA
BRANCH  41  43
ATOM     43  C   UNL A   1      37.934  29.600  28.192  1.00  0.00     0.060 A 
ATOM     44  C   UNL A   1      38.250  28.676  29.212  1.00  0.00     0.016 A 
ATOM     45  C   UNL A   1      38.784  29.602  27.101  1.00  0.00     0.016 A 
ATOM     46  C   UNL A   1      39.472  27.886  29.189  1.00  0.00     0.010 A 
ATOM     47  C   UNL A   1      39.955  28.819  27.094  1.00  0.00     0.010 A 
ATOM     48  C   UNL A   1      40.402  27.990  28.145  1.00  0.00    -0.014 A 
BRANCH  48  49
ATOM     49  C   UNL A   1      41.708  27.208  27.905  1.00  0.00     0.031 A 
ATOM     50  C   UNL A   1      41.476  25.751  27.701  1.00  0.00     0.074 A 
ATOM     51  C   UNL A   1      43.027  27.546  27.659  1.00  0.00     0.049 A 
ATOM     52  N   UNL A   1      41.816  24.845  28.558  1.00  0.00    -0.248 NA
ATOM     53  C   UNL A   1      40.793  25.218  26.517  1.00  0.00     0.031 C 
ATOM     54  C   UNL A   1      43.689  28.840  27.774  1.00  0.00     0.029 A 
ATOM     55  N   UNL A   1      44.065  26.811  27.060  1.00  0.00    -0.354 N 
ATOM     56  C   UNL A   1      41.602  23.639  27.918  1.00  0.00     0.074 A 
ATOM     57  C   UNL A   1      40.807  23.910  26.754  1.00  0.00     0.031 C 
ATOM     58  C   UNL A   1      44.809  28.910  27.008  1.00  0.00     0.029 A 
ATOM     59  C   UNL A   1      45.144  27.583  26.540  1.00  0.00     0.049 A 
ATOM     60  H   UNL A   1      44.047  25.828  27.004  1.00  0.00     0.167 HD
ATOM     61  C   UNL A   1      42.309  22.529  28.230  1.00  0.00     0.034 A 
ATOM     62  C   UNL A   1      46.348  27.204  25.996  1.00  0.00     0.034 A 
ATOM     63  C   UNL A   1      43.161  22.709  29.369  1.00  0.00     0.049 A 
ATOM     64  C   UNL A   1      46.656  26.001  26.801  1.00  0.00     0.074 A 
ATOM     65  C   UNL A   1      42.974  22.983  30.705  1.00  0.00     0.029 A 
ATOM     66  N   UNL A   1      44.467  22.998  29.072  1.00  0.00    -0.354 N 
ATOM     67  N   UNL A   1      47.028  26.063  28.051  1.00  0.00    -0.248 NA
ATOM     68  C   UNL A   1      46.506  24.661  26.254  1.00  0.00     0.031 C 
ATOM     69  C   UNL A   1      44.141  23.678  31.133  1.00  0.00     0.029 A 
ATOM     70  C   UNL A   1      45.008  23.798  30.049  1.00  0.00     0.049 A 
ATOM     71  H   UNL A   1      44.948  22.679  28.274  1.00  0.00     0.167 HD
ATOM     72  C   UNL A   1      46.671  24.835  28.551  1.00  0.00     0.074 A 
ATOM     73  C   UNL A   1      46.612  23.962  27.388  1.00  0.00     0.031 C 
ATOM     74  C   UNL A   1      46.087  24.734  29.779  1.00  0.00     0.034 A 
BRANCH  61  75
ATOM     75  C   UNL A   1      42.491  21.393  27.280  1.00  0.00     0.023 A 
ATOM     76  C   UNL A   1      41.680  20.260  27.444  1.00  0.00     0.012 A 
ATOM     77  C   UNL A   1      43.549  21.333  26.346  1.00  0.00     0.148 A 
ATOM     78  C   UNL A   1      41.889  19.114  26.675  1.00  0.00     0.002 A 
ATOM     79  C   UNL A   1      43.704  20.221  25.531  1.00  0.00     0.091 A 
ATOM     80  F   UNL A   1      44.458  22.319  26.319  1.00  0.00    -0.205 F 
ATOM     81  C   UNL A   1      42.884  19.102  25.700  1.00  0.00     0.022 A 
BRANCH  79  82
ATOM     82  S   UNL A   1      44.924  20.195  24.215  1.00  0.00     0.127 S 
ATOM     83  O   UNL A   1      44.661  18.901  23.594  1.00  0.00    -0.237 OA
ATOM     84  O   UNL A   1      44.537  21.359  23.416  1.00  0.00    -0.237 OA
ATOM     85  O   UNL A   1      46.208  20.339  24.890  1.00  0.00    -0.744 OA
ENDBRANCH  79  82
ENDBRANCH  61  75
BRANCH  62  86
ATOM     86  C   UNL A   1      47.539  27.760  25.204  1.00  0.00     0.023 A 
ATOM     87  C   UNL A   1      48.777  27.917  25.884  1.00  0.00     0.012 A 
ATOM     88  C   UNL A   1      47.621  27.844  23.794  1.00  0.00     0.148 A 
ATOM     89  C   UNL A   1      50.013  28.005  25.227  1.00  0.00     0.002 A 
ATOM     90  C   UNL A   1      48.870  27.899  23.126  1.00  0.00     0.091 A 
ATOM     91  F   UNL A   1      46.483  27.883  23.105  1.00  0.00    -0.205 F 
ATOM     92  C   UNL A   1      50.063  27.951  23.848  1.00  0.00     0.022 A 
BRANCH  90  93
ATOM     93  S   UNL A   1      49.042  27.816  21.324  1.00  0.00     0.127 S 
ATOM     94  O   UNL A   1      47.668  27.952  20.831  1.00  0.00    -0.237 OA
ATOM     95  O   UNL A   1      49.877  28.975  21.026  1.00  0.00    -0.237 OA
ATOM     96  O   UNL A   1      49.607  26.495  21.080  1.00  0.00    -0.744 OA
ENDBRANCH  90  93
ENDBRANCH  62  86
BRANCH  74  97
ATOM     97  C   UNL A   1      46.324  25.836  30.795  1.00  0.00     0.023 A 
ATOM     98  C   UNL A   1      47.530  25.959  31.512  1.00  0.00     0.012 A 
ATOM     99  C   UNL A   1      45.369  26.863  30.922  1.00  0.00     0.148 A 
ATOM    100  C   UNL A   1      47.774  27.062  32.334  1.00  0.00     0.002 A 
ATOM    101  C   UNL A   1      45.642  27.987  31.697  1.00  0.00     0.091 A 
ATOM    102  F   UNL A   1      44.222  26.748  30.235  1.00  0.00    -0.205 F 
ATOM    103  C   UNL A   1      46.840  28.084  32.417  1.00  0.00     0.022 A 
BRANCH 101 104
ATOM    104  S   UNL A   1      44.549  29.408  31.761  1.00  0.00     0.127 S 
ATOM    105  O   UNL A   1      44.799  30.047  30.469  1.00  0.00    -0.237 OA
ATOM    106  O   UNL A   1      43.236  28.775  31.885  1.00  0.00    -0.237 OA
ATOM    107  O   UNL A   1      44.965  30.190  32.919  1.00  0.00    -0.744 OA
ENDBRANCH 101 104
ENDBRANCH  74  97
ENDBRANCH  48  49
ENDBRANCH  41  43
ENDBRANCH  40  41
ENDBRANCH  39  40
ENDBRANCH  38  39
ENDBRANCH  37  38
ENDBRANCH  36  37
ENDBRANCH   1  36
TORSDOF 25
ENDMDL
MODEL 3
REMARK VINA RESULT:      -9.9      3.484      7.698
REMARK SMILES C[C@H]1CC[C@H]([NH2+]Cc2c(C(=O)OCCOCCOCCOC(=O)c3ccc(-c4c5nc(c(-c6cccc(S(=O)(=O)[O-])c6F)c6ccc([nH]6)c(-c6cccc(S(=O)(=O)[O-])c6F)c6nc(c(-c7cccc(S(=O)(=O)[O-])c7F)c7ccc4[nH]7)C=C6)C=C5)cc3)n(Cc3ccccc3F)c3ccccc23)CC1
REMARK SMILES IDX 16 1 15 2 14 3 13 4 12 5 10 6 11 7 9 8 8 9 101 10 87 11
REMARK SMILES IDX 96 12 100 13 97 14 99 15 98 16 7 17 6 18 5 21 1 22 2 23 3 24
REMARK SMILES IDX 103 25 4 26 102 27 88 28 89 29 90 30 94 31 91 32 93 33 95 34
REMARK SMILES IDX 92 35 17 36 18 37 19 38 20 39 21 40 22 41 23 42 24 43 25 44
REMARK SMILES IDX 86 45 26 46 85 47 27 48 28 49 29 50 79 51 30 52 84 53 78 54
REMARK SMILES IDX 80 55 31 56 83 57 77 58 76 59 32 61 64 62 44 63 63 64 45 65
REMARK SMILES IDX 48 66 62 67 81 68 46 69 47 70 61 72 82 73 49 74 33 75 34 76
REMARK SMILES IDX 42 77 35 78 37 79 43 80 36 81 38 82 39 83 40 84 41 85 65 86
REMARK SMILES IDX 66 87 74 88 67 89 69 90 75 91 68 92 70 93 71 94 72 95 73 96
REMARK SMILES IDX 50 97 51 98 59 99 52 100 54 101 60 102 53 103 55 104 56 105
REMARK SMILES IDX 57 106 58 107
REMARK H PARENT 6 19 6 20 80 60 48 71
REMARK Flexibility Score: inf
ROOT
ATOM      1  C   UNL A   1      30.474  25.041  24.974  1.00  0.00     0.188 C 
ENDROOT
BRANCH   1   2
ATOM      2  O   UNL A   1      31.232  25.178  26.160  1.00  0.00    -0.376 OA
BRANCH   2   3
ATOM      3  C   UNL A   1      30.794  24.270  27.124  1.00  0.00     0.202 C 
BRANCH   3   4
ATOM      4  C   UNL A   1      31.408  22.920  26.847  1.00  0.00     0.261 C 
BRANCH   4   5
ATOM      5  O   UNL A   1      32.626  22.450  27.464  1.00  0.00    -0.459 OA
BRANCH   5   6
ATOM      6  C   UNL A   1      33.660  22.138  26.630  1.00  0.00     0.355 C 
ATOM      7  O   UNL A   1      34.586  21.441  26.987  1.00  0.00    -0.244 OA
BRANCH   6   8
ATOM      8  C   UNL A   1      33.514  22.744  25.324  1.00  0.00     0.137 A 
ATOM      9  C   UNL A   1      34.155  23.893  24.836  1.00  0.00     0.047 A 
ATOM     10  C   UNL A   1      33.620  24.088  23.500  1.00  0.00     0.009 A 
ATOM     11  N   UNL A   1      32.839  22.161  24.235  1.00  0.00    -0.330 N 
ATOM     12  C   UNL A   1      33.094  22.869  23.093  1.00  0.00     0.050 A 
ATOM     13  C   UNL A   1      33.677  25.104  22.528  1.00  0.00     0.011 A 
ATOM     14  C   UNL A   1      32.931  22.533  21.742  1.00  0.00     0.027 A 
ATOM     15  C   UNL A   1      33.272  24.835  21.210  1.00  0.00     0.001 A 
ATOM     16  C   UNL A   1      32.985  23.543  20.802  1.00  0.00     0.002 A 
BRANCH   9  17
ATOM     17  C   UNL A   1      35.283  24.766  25.407  1.00  0.00     0.300 C 
BRANCH  17  18
ATOM     18  N   UNL A   1      36.255  24.145  26.323  1.00  0.00    -0.340 N 
ATOM     19  H   UNL A   1      36.428  24.822  27.066  1.00  0.00     0.346 HD
ATOM     20  H   UNL A   1      35.801  23.265  26.570  1.00  0.00     0.346 HD
BRANCH  18  21
ATOM     21  C   UNL A   1      37.589  23.702  25.836  1.00  0.00     0.182 C 
ATOM     22  C   UNL A   1      41.262  21.451  27.234  1.00  0.00     0.007 C 
ATOM     23  C   UNL A   1      39.903  22.138  27.055  1.00  0.00    -0.014 C 
ATOM     24  C   UNL A   1      39.164  21.619  25.830  1.00  0.00     0.009 C 
ATOM     25  C   UNL A   1      40.041  23.656  26.918  1.00  0.00     0.009 C 
ATOM     26  C   UNL A   1      37.750  22.183  25.749  1.00  0.00     0.065 C 
ATOM     27  C   UNL A   1      38.729  24.422  26.632  1.00  0.00     0.065 C 
ENDBRANCH  18  21
ENDBRANCH  17  18
ENDBRANCH   9  17
BRANCH  11  28
ATOM     28  C   UNL A   1      32.165  20.863  24.202  1.00  0.00     0.161 C 
BRANCH  28  29
ATOM     29  C   UNL A   1      32.902  19.574  23.839  1.00  0.00     0.008 A 
ATOM     30  C   UNL A   1      33.647  18.864  24.812  1.00  0.00     0.008 A 
ATOM     31  C   UNL A   1      32.605  18.897  22.659  1.00  0.00     0.128 A 
ATOM     32  C   UNL A   1      34.052  17.537  24.617  1.00  0.00     0.001 A 
ATOM     33  C   UNL A   1      32.957  17.555  22.478  1.00  0.00     0.039 A 
ATOM     34  F   UNL A   1      31.817  19.477  21.743  1.00  0.00    -0.207 F 
ATOM     35  C   UNL A   1      33.674  16.870  23.460  1.00  0.00     0.003 A 
ENDBRANCH  28  29
ENDBRANCH  11  28
ENDBRANCH   6   8
ENDBRANCH   5   6
ENDBRANCH   4   5
ENDBRANCH   3   4
ENDBRANCH   2   3
ENDBRANCH   1   2
BRANCH   1  36
ATOM     36  C   UNL A   1      29.923  26.370  24.444  1.00  0.00     0.188 C 
BRANCH  36  37
ATOM     37  O   UNL A   1      30.842  27.168  23.711  1.00  0.00    -0.376 OA
BRANCH  37  38
ATOM     38  C   UNL A   1      30.889  28.537  24.090  1.00  0.00     0.202 C 
BRANCH  38  39
ATOM     39  C   UNL A   1      32.306  29.164  24.130  1.00  0.00     0.261 C 
BRANCH  39  40
ATOM     40  O   UNL A   1      32.956  29.062  25.439  1.00  0.00    -0.460 OA
BRANCH  40  41
ATOM     41  C   UNL A   1      32.564  29.901  26.440  1.00  0.00     0.338 C 
ATOM     42  O   UNL A   1      31.402  30.015  26.804  1.00  0.00    -0.246 OA
BRANCH  41  43
ATOM     43  C   UNL A   1      33.738  30.397  27.288  1.00  0.00     0.060 A 
ATOM     44  C   UNL A   1      34.088  31.713  27.661  1.00  0.00     0.016 A 
ATOM     45  C   UNL A   1      34.671  29.420  27.590  1.00  0.00     0.016 A 
ATOM     46  C   UNL A   1      35.404  32.045  28.186  1.00  0.00     0.010 A 
ATOM     47  C   UNL A   1      35.934  29.763  28.111  1.00  0.00     0.010 A 
ATOM     48  C   UNL A   1      36.398  31.072  28.364  1.00  0.00    -0.014 A 
BRANCH  48  49
ATOM     49  C   UNL A   1      37.814  31.204  28.956  1.00  0.00     0.031 A 
ATOM     50  C   UNL A   1      38.657  30.002  28.702  1.00  0.00     0.074 A 
ATOM     51  C   UNL A   1      38.555  32.229  29.517  1.00  0.00     0.049 A 
ATOM     52  N   UNL A   1      39.017  29.172  29.624  1.00  0.00    -0.248 NA
ATOM     53  C   UNL A   1      39.118  29.632  27.360  1.00  0.00     0.031 C 
ATOM     54  C   UNL A   1      38.126  33.552  29.955  1.00  0.00     0.029 A 
ATOM     55  N   UNL A   1      39.946  32.381  29.660  1.00  0.00    -0.354 N 
ATOM     56  C   UNL A   1      39.925  28.325  29.019  1.00  0.00     0.074 A 
ATOM     57  C   UNL A   1      39.815  28.525  27.602  1.00  0.00     0.031 C 
ATOM     58  C   UNL A   1      39.155  34.438  29.985  1.00  0.00     0.029 A 
ATOM     59  C   UNL A   1      40.402  33.719  29.843  1.00  0.00     0.049 A 
ATOM     60  H   UNL A   1      40.563  31.614  29.635  1.00  0.00     0.167 HD
ATOM     61  C   UNL A   1      40.902  27.705  29.720  1.00  0.00     0.034 A 
ATOM     62  C   UNL A   1      41.653  34.220  30.118  1.00  0.00     0.034 A 
ATOM     63  C   UNL A   1      40.784  27.899  31.136  1.00  0.00     0.049 A 
ATOM     64  C   UNL A   1      42.198  33.155  30.989  1.00  0.00     0.074 A 
ATOM     65  C   UNL A   1      39.860  27.569  32.102  1.00  0.00     0.029 A 
ATOM     66  N   UNL A   1      41.572  28.896  31.648  1.00  0.00    -0.354 N 
ATOM     67  N   UNL A   1      41.798  32.972  32.218  1.00  0.00    -0.248 NA
ATOM     68  C   UNL A   1      43.185  32.204  30.500  1.00  0.00     0.031 C 
ATOM     69  C   UNL A   1      39.966  28.570  33.108  1.00  0.00     0.029 A 
ATOM     70  C   UNL A   1      40.957  29.475  32.731  1.00  0.00     0.049 A 
ATOM     71  H   UNL A   1      42.451  29.159  31.292  1.00  0.00     0.167 HD
ATOM     72  C   UNL A   1      42.086  31.650  32.455  1.00  0.00     0.074 A 
ATOM     73  C   UNL A   1      43.138  31.324  31.504  1.00  0.00     0.031 C 
ATOM     74  C   UNL A   1      41.192  30.858  33.113  1.00  0.00     0.034 A 
BRANCH  61  75
ATOM     75  C   UNL A   1      42.165  27.221  29.092  1.00  0.00     0.023 A 
ATOM     76  C   UNL A   1      42.451  25.848  29.157  1.00  0.00     0.012 A 
ATOM     77  C   UNL A   1      43.161  28.092  28.597  1.00  0.00     0.148 A 
ATOM     78  C   UNL A   1      43.675  25.351  28.706  1.00  0.00     0.002 A 
ATOM     79  C   UNL A   1      44.345  27.585  28.081  1.00  0.00     0.091 A 
ATOM     80  F   UNL A   1      42.993  29.417  28.717  1.00  0.00    -0.205 F 
ATOM     81  C   UNL A   1      44.613  26.215  28.145  1.00  0.00     0.022 A 
BRANCH  79  82
ATOM     82  S   UNL A   1      45.545  28.653  27.281  1.00  0.00     0.127 S 
ATOM     83  O   UNL A   1      44.727  29.308  26.266  1.00  0.00    -0.237 OA
ATOM     84  O   UNL A   1      45.973  29.513  28.386  1.00  0.00    -0.237 OA
ATOM     85  O   UNL A   1      46.583  27.753  26.793  1.00  0.00    -0.744 OA
ENDBRANCH  79  82
ENDBRANCH  61  75
BRANCH  62  86
ATOM     86  C   UNL A   1      42.441  35.536  30.153  1.00  0.00     0.023 A 
ATOM     87  C   UNL A   1      43.459  35.677  31.135  1.00  0.00     0.012 A 
ATOM     88  C   UNL A   1      42.474  36.501  29.119  1.00  0.00     0.148 A 
ATOM     89  C   UNL A   1      44.508  36.602  31.032  1.00  0.00     0.002 A 
ATOM     90  C   UNL A   1      43.551  37.415  28.994  1.00  0.00     0.091 A 
ATOM     91  F   UNL A   1      41.453  36.538  28.268  1.00  0.00    -0.205 F 
ATOM     92  C   UNL A   1      44.578  37.441  29.938  1.00  0.00     0.022 A 
BRANCH  90  93
ATOM     93  S   UNL A   1      43.742  38.543  27.588  1.00  0.00     0.127 S 
ATOM     94  O   UNL A   1      42.913  37.944  26.538  1.00  0.00    -0.237 OA
ATOM     95  O   UNL A   1      43.200  39.796  28.104  1.00  0.00    -0.237 OA
ATOM     96  O   UNL A   1      45.167  38.497  27.285  1.00  0.00    -0.744 OA
ENDBRANCH  90  93
ENDBRANCH  62  86
BRANCH  74  97
ATOM     97  C   UNL A   1      40.181  31.507  34.040  1.00  0.00     0.023 A 
ATOM     98  C   UNL A   1      40.520  31.962  35.330  1.00  0.00     0.012 A 
ATOM     99  C   UNL A   1      38.897  31.804  33.547  1.00  0.00     0.148 A 
ATOM    100  C   UNL A   1      39.607  32.682  36.105  1.00  0.00     0.002 A 
ATOM    101  C   UNL A   1      38.013  32.571  34.301  1.00  0.00     0.091 A 
ATOM    102  F   UNL A   1      38.577  31.375  32.317  1.00  0.00    -0.205 F 
ATOM    103  C   UNL A   1      38.360  33.001  35.588  1.00  0.00     0.022 A 
BRANCH 101 104
ATOM    104  S   UNL A   1      36.434  33.136  33.664  1.00  0.00     0.127 S 
ATOM    105  O   UNL A   1      35.997  31.992  32.865  1.00  0.00    -0.237 OA
ATOM    106  O   UNL A   1      35.670  33.350  34.894  1.00  0.00    -0.237 OA
ATOM    107  O   UNL A   1      36.713  34.345  32.899  1.00  0.00    -0.744 OA
ENDBRANCH 101 104
ENDBRANCH  74  97
ENDBRANCH  48  49
ENDBRANCH  41  43
ENDBRANCH  40  41
ENDBRANCH  39  40
ENDBRANCH  38  39
ENDBRANCH  37  38
ENDBRANCH  36  37
ENDBRANCH   1  36
TORSDOF 25
ENDMDL
