MODEL 1
REMARK VINA RESULT:     -11.3      0.000      0.000
REMARK SMILES COc1ccc([C@H]2[C@H](C(=O)OCCOCCOCCOC(=O)c3ccc(-c4c5nc(c(-c6cccc(S(=O)(=O)[O-])c6F)c6ccc([nH]6)c(-c6cccc(S(=O)(=O)[O-])c6F)c6nc(c(-c7cccc(S(=O)(=O)[O-])c7F)c7ccc4[nH]7)C=C6)C=C5)cc3)CCN2c2ccc(F)cc2)cc1
REMARK SMILES IDX 16 1 15 2 14 3 13 4 12 5 11 6 9 7 10 8 8 9 7 10 88 11 86 12
REMARK SMILES IDX 87 13 6 14 3 15 4 16 97 17 5 18 96 19 2 20 1 21 89 22 90 23
REMARK SMILES IDX 95 24 91 25 94 26 92 27 93 28 17 29 18 30 19 31 20 32 21 33
REMARK SMILES IDX 22 34 23 35 24 36 85 37 25 38 84 39 26 40 27 41 28 42 78 43
REMARK SMILES IDX 29 44 83 45 77 46 79 47 30 48 82 49 76 50 75 51 31 53 63 54
REMARK SMILES IDX 43 55 62 56 44 57 47 58 61 59 80 60 45 61 46 62 60 64 81 65
REMARK SMILES IDX 48 66 32 67 33 68 41 69 34 70 36 71 42 72 35 73 37 74 38 75
REMARK SMILES IDX 39 76 40 77 64 78 65 79 73 80 66 81 68 82 74 83 67 84 69 85
REMARK SMILES IDX 70 86 71 87 72 88 49 89 50 90 58 91 51 92 53 93 59 94 52 95
REMARK SMILES IDX 54 96 55 97 56 98 57 99
REMARK H PARENT 79 52 47 63
REMARK Flexibility Score: inf
ROOT
ATOM      1  C   UNL A   1      33.063  28.762  26.007  1.00  0.00     0.188 C 
ENDROOT
BRANCH   1   2
ATOM      2  C   UNL A   1      32.188  28.375  27.205  1.00  0.00     0.188 C 
BRANCH   2   3
ATOM      3  O   UNL A   1      31.459  27.159  27.063  1.00  0.00    -0.376 OA
BRANCH   3   4
ATOM      4  C   UNL A   1      30.987  26.840  25.755  1.00  0.00     0.202 C 
BRANCH   4   5
ATOM      5  C   UNL A   1      29.807  25.861  25.671  1.00  0.00     0.261 C 
BRANCH   5   6
ATOM      6  O   UNL A   1      30.160  24.510  25.275  1.00  0.00    -0.463 OA
BRANCH   6   7
ATOM      7  C   UNL A   1      30.566  23.699  26.285  1.00  0.00     0.311 C 
ATOM      8  O   UNL A   1      30.087  23.734  27.418  1.00  0.00    -0.252 OA
BRANCH   7   9
ATOM      9  C   UNL A   1      31.656  22.695  25.945  1.00  0.00     0.128 C 
ATOM     10  C   UNL A   1      31.925  22.363  24.464  1.00  0.00     0.127 C 
ATOM     11  N   UNL A   1      32.734  23.519  24.039  1.00  0.00    -0.364 N 
ATOM     12  C   UNL A   1      32.991  23.324  26.375  1.00  0.00     0.039 C 
ATOM     13  C   UNL A   1      33.367  24.191  25.169  1.00  0.00     0.118 C 
BRANCH  10  14
ATOM     14  C   UNL A   1      32.761  21.059  24.347  1.00  0.00    -0.024 A 
ATOM     15  C   UNL A   1      34.186  18.596  24.410  1.00  0.00     0.118 A 
ATOM     16  C   UNL A   1      32.891  18.660  23.892  1.00  0.00     0.047 A 
ATOM     17  C   UNL A   1      34.801  19.769  24.827  1.00  0.00     0.047 A 
ATOM     18  C   UNL A   1      32.183  19.873  23.862  1.00  0.00     0.010 A 
ATOM     19  C   UNL A   1      34.097  20.978  24.790  1.00  0.00     0.010 A 
BRANCH  15  20
ATOM     20  O   UNL A   1      34.775  17.361  24.434  1.00  0.00    -0.497 OA
ATOM     21  C   UNL A   1      34.453  16.513  23.334  1.00  0.00     0.278 C 
ENDBRANCH  15  20
ENDBRANCH  10  14
BRANCH  11  22
ATOM     22  C   UNL A   1      32.714  24.065  22.782  1.00  0.00     0.037 A 
ATOM     23  C   UNL A   1      32.185  25.347  22.568  1.00  0.00     0.029 A 
ATOM     24  C   UNL A   1      33.221  23.379  21.671  1.00  0.00     0.029 A 
ATOM     25  C   UNL A   1      32.206  25.943  21.305  1.00  0.00     0.041 A 
ATOM     26  C   UNL A   1      33.216  23.953  20.396  1.00  0.00     0.041 A 
ATOM     27  C   UNL A   1      32.718  25.236  20.228  1.00  0.00     0.123 A 
ATOM     28  F   UNL A   1      32.727  25.798  19.012  1.00  0.00    -0.207 F 
ENDBRANCH  11  22
ENDBRANCH   7   9
ENDBRANCH   6   7
ENDBRANCH   5   6
ENDBRANCH   4   5
ENDBRANCH   3   4
ENDBRANCH   2   3
ENDBRANCH   1   2
BRANCH   1  29
ATOM     29  O   UNL A   1      32.835  30.082  25.531  1.00  0.00    -0.376 OA
BRANCH  29  30
ATOM     30  C   UNL A   1      31.606  30.714  25.885  1.00  0.00     0.202 C 
BRANCH  30  31
ATOM     31  C   UNL A   1      31.710  32.089  26.571  1.00  0.00     0.261 C 
BRANCH  31  32
ATOM     32  O   UNL A   1      32.561  32.121  27.731  1.00  0.00    -0.460 OA
BRANCH  32  33
ATOM     33  C   UNL A   1      33.521  33.074  27.772  1.00  0.00     0.338 C 
ATOM     34  O   UNL A   1      33.353  34.278  27.691  1.00  0.00    -0.246 OA
BRANCH  33  35
ATOM     35  C   UNL A   1      34.784  32.429  28.208  1.00  0.00     0.060 A 
ATOM     36  C   UNL A   1      34.777  31.047  28.439  1.00  0.00     0.016 A 
ATOM     37  C   UNL A   1      35.978  33.152  28.313  1.00  0.00     0.016 A 
ATOM     38  C   UNL A   1      35.950  30.393  28.823  1.00  0.00     0.010 A 
ATOM     39  C   UNL A   1      37.150  32.499  28.703  1.00  0.00     0.010 A 
ATOM     40  C   UNL A   1      37.132  31.125  28.998  1.00  0.00    -0.014 A 
BRANCH  40  41
ATOM     41  C   UNL A   1      38.279  30.512  29.709  1.00  0.00     0.031 A 
ATOM     42  C   UNL A   1      38.526  30.930  31.135  1.00  0.00     0.074 A 
ATOM     43  C   UNL A   1      39.085  29.610  29.120  1.00  0.00     0.049 A 
ATOM     44  N   UNL A   1      39.462  30.547  31.963  1.00  0.00    -0.248 NA
ATOM     45  C   UNL A   1      37.589  31.916  31.702  1.00  0.00     0.031 C 
ATOM     46  C   UNL A   1      38.958  29.123  27.748  1.00  0.00     0.029 A 
ATOM     47  N   UNL A   1      40.190  28.957  29.609  1.00  0.00    -0.354 N 
ATOM     48  C   UNL A   1      39.238  31.254  33.137  1.00  0.00     0.074 A 
ATOM     49  C   UNL A   1      38.094  32.107  32.910  1.00  0.00     0.031 C 
ATOM     50  C   UNL A   1      39.961  28.262  27.497  1.00  0.00     0.029 A 
ATOM     51  C   UNL A   1      40.810  28.149  28.684  1.00  0.00     0.049 A 
ATOM     52  H   UNL A   1      40.510  29.058  30.534  1.00  0.00     0.167 HD
ATOM     53  C   UNL A   1      39.906  31.185  34.312  1.00  0.00     0.034 A 
ATOM     54  C   UNL A   1      41.937  27.416  28.784  1.00  0.00     0.034 A 
ATOM     55  C   UNL A   1      41.036  30.331  34.548  1.00  0.00     0.049 A 
ATOM     56  C   UNL A   1      42.687  27.386  30.094  1.00  0.00     0.074 A 
ATOM     57  C   UNL A   1      41.765  30.172  35.713  1.00  0.00     0.029 A 
ATOM     58  N   UNL A   1      41.610  29.501  33.599  1.00  0.00    -0.354 N 
ATOM     59  N   UNL A   1      42.391  27.966  31.233  1.00  0.00    -0.248 NA
ATOM     60  C   UNL A   1      43.910  26.569  30.143  1.00  0.00     0.031 C 
ATOM     61  C   UNL A   1      42.793  29.258  35.462  1.00  0.00     0.029 A 
ATOM     62  C   UNL A   1      42.689  28.829  34.149  1.00  0.00     0.049 A 
ATOM     63  H   UNL A   1      41.298  29.402  32.671  1.00  0.00     0.167 HD
ATOM     64  C   UNL A   1      43.363  27.551  32.139  1.00  0.00     0.074 A 
ATOM     65  C   UNL A   1      44.246  26.655  31.422  1.00  0.00     0.031 C 
ATOM     66  C   UNL A   1      43.520  27.890  33.443  1.00  0.00     0.034 A 
BRANCH  53  67
ATOM     67  C   UNL A   1      39.404  32.037  35.444  1.00  0.00     0.023 A 
ATOM     68  C   UNL A   1      38.496  31.489  36.374  1.00  0.00     0.012 A 
ATOM     69  C   UNL A   1      39.857  33.359  35.613  1.00  0.00     0.148 A 
ATOM     70  C   UNL A   1      38.024  32.255  37.439  1.00  0.00     0.002 A 
ATOM     71  C   UNL A   1      39.416  34.101  36.703  1.00  0.00     0.091 A 
ATOM     72  F   UNL A   1      40.699  33.868  34.703  1.00  0.00    -0.205 F 
ATOM     73  C   UNL A   1      38.493  33.555  37.609  1.00  0.00     0.022 A 
BRANCH  71  74
ATOM     74  S   UNL A   1      40.015  35.758  37.051  1.00  0.00     0.127 S 
ATOM     75  O   UNL A   1      41.453  35.529  37.187  1.00  0.00    -0.237 OA
ATOM     76  O   UNL A   1      39.623  36.485  35.843  1.00  0.00    -0.237 OA
ATOM     77  O   UNL A   1      39.334  36.185  38.266  1.00  0.00    -0.744 OA
ENDBRANCH  71  74
ENDBRANCH  53  67
BRANCH  54  78
ATOM     78  C   UNL A   1      42.421  26.610  27.625  1.00  0.00     0.023 A 
ATOM     79  C   UNL A   1      43.204  27.226  26.629  1.00  0.00     0.012 A 
ATOM     80  C   UNL A   1      42.091  25.247  27.492  1.00  0.00     0.148 A 
ATOM     81  C   UNL A   1      43.619  26.511  25.505  1.00  0.00     0.002 A 
ATOM     82  C   UNL A   1      42.553  24.527  26.394  1.00  0.00     0.091 A 
ATOM     83  F   UNL A   1      41.327  24.683  28.436  1.00  0.00    -0.205 F 
ATOM     84  C   UNL A   1      43.300  25.161  25.391  1.00  0.00     0.022 A 
BRANCH  82  85
ATOM     85  S   UNL A   1      42.287  22.758  26.223  1.00  0.00     0.127 S 
ATOM     86  O   UNL A   1      43.020  22.234  27.372  1.00  0.00    -0.237 OA
ATOM     87  O   UNL A   1      40.831  22.662  26.324  1.00  0.00    -0.237 OA
ATOM     88  O   UNL A   1      42.824  22.408  24.915  1.00  0.00    -0.744 OA
ENDBRANCH  82  85
ENDBRANCH  54  78
BRANCH  66  89
ATOM     89  C   UNL A   1      44.658  27.261  34.205  1.00  0.00     0.023 A 
ATOM     90  C   UNL A   1      45.913  27.901  34.252  1.00  0.00     0.012 A 
ATOM     91  C   UNL A   1      44.461  26.074  34.941  1.00  0.00     0.148 A 
ATOM     92  C   UNL A   1      46.960  27.354  34.993  1.00  0.00     0.002 A 
ATOM     93  C   UNL A   1      45.495  25.562  35.716  1.00  0.00     0.091 A 
ATOM     94  F   UNL A   1      43.266  25.470  34.871  1.00  0.00    -0.205 F 
ATOM     95  C   UNL A   1      46.749  26.193  35.733  1.00  0.00     0.022 A 
BRANCH  93  96
ATOM     96  S   UNL A   1      45.282  24.127  36.777  1.00  0.00     0.127 S 
ATOM     97  O   UNL A   1      44.500  24.684  37.879  1.00  0.00    -0.237 OA
ATOM     98  O   UNL A   1      44.544  23.206  35.910  1.00  0.00    -0.237 OA
ATOM     99  O   UNL A   1      46.625  23.683  37.123  1.00  0.00    -0.744 OA
ENDBRANCH  93  96
ENDBRANCH  66  89
ENDBRANCH  40  41
ENDBRANCH  33  35
ENDBRANCH  32  33
ENDBRANCH  31  32
ENDBRANCH  30  31
ENDBRANCH  29  30
ENDBRANCH   1  29
TORSDOF 23
ENDMDL
MODEL 2
REMARK VINA RESULT:     -10.8      2.505      7.807
REMARK SMILES COc1ccc([C@H]2[C@H](C(=O)OCCOCCOCCOC(=O)c3ccc(-c4c5nc(c(-c6cccc(S(=O)(=O)[O-])c6F)c6ccc([nH]6)c(-c6cccc(S(=O)(=O)[O-])c6F)c6nc(c(-c7cccc(S(=O)(=O)[O-])c7F)c7ccc4[nH]7)C=C6)C=C5)cc3)CCN2c2ccc(F)cc2)cc1
REMARK SMILES IDX 16 1 15 2 14 3 13 4 12 5 11 6 9 7 10 8 8 9 7 10 88 11 86 12
REMARK SMILES IDX 87 13 6 14 3 15 4 16 97 17 5 18 96 19 2 20 1 21 89 22 90 23
REMARK SMILES IDX 95 24 91 25 94 26 92 27 93 28 17 29 18 30 19 31 20 32 21 33
REMARK SMILES IDX 22 34 23 35 24 36 85 37 25 38 84 39 26 40 27 41 28 42 78 43
REMARK SMILES IDX 29 44 83 45 77 46 79 47 30 48 82 49 76 50 75 51 31 53 63 54
REMARK SMILES IDX 43 55 62 56 44 57 47 58 61 59 80 60 45 61 46 62 60 64 81 65
REMARK SMILES IDX 48 66 32 67 33 68 41 69 34 70 36 71 42 72 35 73 37 74 38 75
REMARK SMILES IDX 39 76 40 77 64 78 65 79 73 80 66 81 68 82 74 83 67 84 69 85
REMARK SMILES IDX 70 86 71 87 72 88 49 89 50 90 58 91 51 92 53 93 59 94 52 95
REMARK SMILES IDX 54 96 55 97 56 98 57 99
REMARK H PARENT 79 52 47 63
REMARK Flexibility Score: inf
ROOT
ATOM      1  C   UNL A   1      31.808  28.904  27.257  1.00  0.00     0.188 C 
ENDROOT
BRANCH   1   2
ATOM      2  C   UNL A   1      31.981  28.202  25.905  1.00  0.00     0.188 C 
BRANCH   2   3
ATOM      3  O   UNL A   1      30.954  27.276  25.560  1.00  0.00    -0.376 OA
BRANCH   3   4
ATOM      4  C   UNL A   1      30.370  27.416  24.266  1.00  0.00     0.202 C 
BRANCH   4   5
ATOM      5  C   UNL A   1      29.929  26.120  23.569  1.00  0.00     0.261 C 
BRANCH   5   6
ATOM      6  O   UNL A   1      30.462  24.902  24.148  1.00  0.00    -0.463 OA
BRANCH   6   7
ATOM      7  C   UNL A   1      31.229  24.153  23.314  1.00  0.00     0.311 C 
ATOM      8  O   UNL A   1      31.742  24.593  22.285  1.00  0.00    -0.252 OA
BRANCH   7   9
ATOM      9  C   UNL A   1      31.459  22.708  23.726  1.00  0.00     0.128 C 
ATOM     10  C   UNL A   1      32.890  22.138  23.674  1.00  0.00     0.127 C 
ATOM     11  N   UNL A   1      33.475  22.677  24.914  1.00  0.00    -0.364 N 
ATOM     12  C   UNL A   1      31.138  22.616  25.226  1.00  0.00     0.039 C 
ATOM     13  C   UNL A   1      32.452  23.048  25.886  1.00  0.00     0.118 C 
BRANCH  10  14
ATOM     14  C   UNL A   1      32.855  20.586  23.734  1.00  0.00    -0.024 A 
ATOM     15  C   UNL A   1      33.052  17.747  23.686  1.00  0.00     0.118 A 
ATOM     16  C   UNL A   1      33.625  18.486  24.723  1.00  0.00     0.047 A 
ATOM     17  C   UNL A   1      32.316  18.412  22.715  1.00  0.00     0.047 A 
ATOM     18  C   UNL A   1      33.533  19.889  24.749  1.00  0.00     0.010 A 
ATOM     19  C   UNL A   1      32.220  19.808  22.745  1.00  0.00     0.010 A 
BRANCH  15  20
ATOM     20  O   UNL A   1      33.233  16.391  23.729  1.00  0.00    -0.497 OA
ATOM     21  C   UNL A   1      33.429  15.846  25.032  1.00  0.00     0.278 C 
ENDBRANCH  15  20
ENDBRANCH  10  14
BRANCH  11  22
ATOM     22  C   UNL A   1      34.791  23.029  25.067  1.00  0.00     0.037 A 
ATOM     23  C   UNL A   1      35.245  23.593  26.269  1.00  0.00     0.029 A 
ATOM     24  C   UNL A   1      35.730  22.834  24.046  1.00  0.00     0.029 A 
ATOM     25  C   UNL A   1      36.592  23.906  26.465  1.00  0.00     0.041 A 
ATOM     26  C   UNL A   1      37.075  23.176  24.220  1.00  0.00     0.041 A 
ATOM     27  C   UNL A   1      37.495  23.698  25.433  1.00  0.00     0.123 A 
ATOM     28  F   UNL A   1      38.786  24.010  25.611  1.00  0.00    -0.207 F 
ENDBRANCH  11  22
ENDBRANCH   7   9
ENDBRANCH   6   7
ENDBRANCH   5   6
ENDBRANCH   4   5
ENDBRANCH   3   4
ENDBRANCH   2   3
ENDBRANCH   1   2
BRANCH   1  29
ATOM     29  O   UNL A   1      32.202  30.269  27.250  1.00  0.00    -0.376 OA
BRANCH  29  30
ATOM     30  C   UNL A   1      33.598  30.559  27.324  1.00  0.00     0.202 C 
BRANCH  30  31
ATOM     31  C   UNL A   1      33.993  32.048  27.336  1.00  0.00     0.261 C 
BRANCH  31  32
ATOM     32  O   UNL A   1      32.939  32.948  27.726  1.00  0.00    -0.460 OA
BRANCH  32  33
ATOM     33  C   UNL A   1      33.296  34.072  28.391  1.00  0.00     0.338 C 
ATOM     34  O   UNL A   1      32.704  35.137  28.385  1.00  0.00    -0.246 OA
BRANCH  33  35
ATOM     35  C   UNL A   1      34.373  33.713  29.345  1.00  0.00     0.060 A 
ATOM     36  C   UNL A   1      35.661  34.215  29.110  1.00  0.00     0.016 A 
ATOM     37  C   UNL A   1      34.112  32.962  30.497  1.00  0.00     0.016 A 
ATOM     38  C   UNL A   1      36.699  33.926  29.998  1.00  0.00     0.010 A 
ATOM     39  C   UNL A   1      35.153  32.669  31.382  1.00  0.00     0.010 A 
ATOM     40  C   UNL A   1      36.458  33.115  31.116  1.00  0.00    -0.014 A 
BRANCH  40  41
ATOM     41  C   UNL A   1      37.598  32.542  31.870  1.00  0.00     0.031 A 
ATOM     42  C   UNL A   1      38.334  31.379  31.256  1.00  0.00     0.074 A 
ATOM     43  C   UNL A   1      37.982  33.029  33.064  1.00  0.00     0.049 A 
ATOM     44  N   UNL A   1      39.351  30.703  31.717  1.00  0.00    -0.248 NA
ATOM     45  C   UNL A   1      37.850  30.917  29.942  1.00  0.00     0.031 C 
ATOM     46  C   UNL A   1      37.355  34.146  33.768  1.00  0.00     0.029 A 
ATOM     47  N   UNL A   1      38.989  32.622  33.905  1.00  0.00    -0.354 N 
ATOM     48  C   UNL A   1      39.620  29.730  30.764  1.00  0.00     0.074 A 
ATOM     49  C   UNL A   1      38.644  29.885  29.709  1.00  0.00     0.031 C 
ATOM     50  C   UNL A   1      37.981  34.323  34.947  1.00  0.00     0.029 A 
ATOM     51  C   UNL A   1      39.040  33.323  35.087  1.00  0.00     0.049 A 
ATOM     52  H   UNL A   1      39.616  31.897  33.682  1.00  0.00     0.167 HD
ATOM     53  C   UNL A   1      40.604  28.802  30.749  1.00  0.00     0.034 A 
ATOM     54  C   UNL A   1      39.840  33.162  36.161  1.00  0.00     0.034 A 
ATOM     55  C   UNL A   1      41.584  28.649  31.788  1.00  0.00     0.049 A 
ATOM     56  C   UNL A   1      40.907  32.094  36.137  1.00  0.00     0.074 A 
ATOM     57  C   UNL A   1      42.637  27.754  31.852  1.00  0.00     0.029 A 
ATOM     58  N   UNL A   1      41.624  29.400  32.951  1.00  0.00    -0.354 N 
ATOM     59  N   UNL A   1      41.226  31.261  35.174  1.00  0.00    -0.248 NA
ATOM     60  C   UNL A   1      41.749  31.967  37.336  1.00  0.00     0.031 C 
ATOM     61  C   UNL A   1      43.304  27.952  33.065  1.00  0.00     0.029 A 
ATOM     62  C   UNL A   1      42.681  28.988  33.744  1.00  0.00     0.049 A 
ATOM     63  H   UNL A   1      40.995  30.122  33.181  1.00  0.00     0.167 HD
ATOM     64  C   UNL A   1      42.327  30.546  35.634  1.00  0.00     0.074 A 
ATOM     65  C   UNL A   1      42.633  31.055  36.954  1.00  0.00     0.031 C 
ATOM     66  C   UNL A   1      43.015  29.548  35.027  1.00  0.00     0.034 A 
BRANCH  53  67
ATOM     67  C   UNL A   1      40.688  27.900  29.548  1.00  0.00     0.023 A 
ATOM     68  C   UNL A   1      39.847  26.771  29.469  1.00  0.00     0.012 A 
ATOM     69  C   UNL A   1      41.562  28.190  28.484  1.00  0.00     0.148 A 
ATOM     70  C   UNL A   1      39.897  25.926  28.362  1.00  0.00     0.002 A 
ATOM     71  C   UNL A   1      41.574  27.368  27.363  1.00  0.00     0.091 A 
ATOM     72  F   UNL A   1      42.371  29.253  28.592  1.00  0.00    -0.205 F 
ATOM     73  C   UNL A   1      40.752  26.231  27.305  1.00  0.00     0.022 A 
BRANCH  71  74
ATOM     74  S   UNL A   1      42.585  27.714  25.920  1.00  0.00     0.127 S 
ATOM     75  O   UNL A   1      42.159  29.072  25.581  1.00  0.00    -0.237 OA
ATOM     76  O   UNL A   1      43.939  27.617  26.464  1.00  0.00    -0.237 OA
ATOM     77  O   UNL A   1      42.249  26.692  24.939  1.00  0.00    -0.744 OA
ENDBRANCH  71  74
ENDBRANCH  53  67
BRANCH  54  78
ATOM     78  C   UNL A   1      39.703  34.057  37.347  1.00  0.00     0.023 A 
ATOM     79  C   UNL A   1      40.273  35.345  37.315  1.00  0.00     0.012 A 
ATOM     80  C   UNL A   1      39.034  33.634  38.512  1.00  0.00     0.148 A 
ATOM     81  C   UNL A   1      40.213  36.180  38.431  1.00  0.00     0.002 A 
ATOM     82  C   UNL A   1      38.931  34.491  39.602  1.00  0.00     0.091 A 
ATOM     83  F   UNL A   1      38.517  32.398  38.534  1.00  0.00    -0.205 F 
ATOM     84  C   UNL A   1      39.535  35.757  39.571  1.00  0.00     0.022 A 
BRANCH  82  85
ATOM     85  S   UNL A   1      37.980  34.074  41.068  1.00  0.00     0.127 S 
ATOM     86  O   UNL A   1      38.905  33.201  41.786  1.00  0.00    -0.237 OA
ATOM     87  O   UNL A   1      37.774  35.389  41.677  1.00  0.00    -0.237 OA
ATOM     88  O   UNL A   1      36.763  33.442  40.577  1.00  0.00    -0.744 OA
ENDBRANCH  82  85
ENDBRANCH  54  78
BRANCH  66  89
ATOM     89  C   UNL A   1      44.201  28.963  35.753  1.00  0.00     0.023 A 
ATOM     90  C   UNL A   1      45.471  29.557  35.619  1.00  0.00     0.012 A 
ATOM     91  C   UNL A   1      44.038  27.871  36.630  1.00  0.00     0.148 A 
ATOM     92  C   UNL A   1      46.566  29.055  36.322  1.00  0.00     0.002 A 
ATOM     93  C   UNL A   1      45.123  27.407  37.364  1.00  0.00     0.091 A 
ATOM     94  F   UNL A   1      42.825  27.307  36.731  1.00  0.00    -0.205 F 
ATOM     95  C   UNL A   1      46.390  27.989  37.201  1.00  0.00     0.022 A 
BRANCH  93  96
ATOM     96  S   UNL A   1      44.968  26.104  38.591  1.00  0.00     0.127 S 
ATOM     97  O   UNL A   1      44.165  26.759  39.622  1.00  0.00    -0.237 OA
ATOM     98  O   UNL A   1      44.267  25.056  37.847  1.00  0.00    -0.237 OA
ATOM     99  O   UNL A   1      46.328  25.758  38.981  1.00  0.00    -0.744 OA
ENDBRANCH  93  96
ENDBRANCH  66  89
ENDBRANCH  40  41
ENDBRANCH  33  35
ENDBRANCH  32  33
ENDBRANCH  31  32
ENDBRANCH  30  31
ENDBRANCH  29  30
ENDBRANCH   1  29
TORSDOF 23
ENDMDL
MODEL 3
REMARK VINA RESULT:     -10.6      5.593      9.400
REMARK SMILES COc1ccc([C@H]2[C@H](C(=O)OCCOCCOCCOC(=O)c3ccc(-c4c5nc(c(-c6cccc(S(=O)(=O)[O-])c6F)c6ccc([nH]6)c(-c6cccc(S(=O)(=O)[O-])c6F)c6nc(c(-c7cccc(S(=O)(=O)[O-])c7F)c7ccc4[nH]7)C=C6)C=C5)cc3)CCN2c2ccc(F)cc2)cc1
REMARK SMILES IDX 16 1 15 2 14 3 13 4 12 5 11 6 9 7 10 8 8 9 7 10 88 11 86 12
REMARK SMILES IDX 87 13 6 14 3 15 4 16 97 17 5 18 96 19 2 20 1 21 89 22 90 23
REMARK SMILES IDX 95 24 91 25 94 26 92 27 93 28 17 29 18 30 19 31 20 32 21 33
REMARK SMILES IDX 22 34 23 35 24 36 85 37 25 38 84 39 26 40 27 41 28 42 78 43
REMARK SMILES IDX 29 44 83 45 77 46 79 47 30 48 82 49 76 50 75 51 31 53 63 54
REMARK SMILES IDX 43 55 62 56 44 57 47 58 61 59 80 60 45 61 46 62 60 64 81 65
REMARK SMILES IDX 48 66 32 67 33 68 41 69 34 70 36 71 42 72 35 73 37 74 38 75
REMARK SMILES IDX 39 76 40 77 64 78 65 79 73 80 66 81 68 82 74 83 67 84 69 85
REMARK SMILES IDX 70 86 71 87 72 88 49 89 50 90 58 91 51 92 53 93 59 94 52 95
REMARK SMILES IDX 54 96 55 97 56 98 57 99
REMARK H PARENT 79 52 47 63
REMARK Flexibility Score: inf
ROOT
ATOM      1  C   UNL A   1      35.786  20.550  24.671  1.00  0.00     0.188 C 
ENDROOT
BRANCH   1   2
ATOM      2  C   UNL A   1      34.413  20.640  25.347  1.00  0.00     0.188 C 
BRANCH   2   3
ATOM      3  O   UNL A   1      33.306  20.251  24.539  1.00  0.00    -0.376 OA
BRANCH   3   4
ATOM      4  C   UNL A   1      32.182  21.130  24.523  1.00  0.00     0.202 C 
BRANCH   4   5
ATOM      5  C   UNL A   1      32.397  22.507  23.879  1.00  0.00     0.261 C 
BRANCH   5   6
ATOM      6  O   UNL A   1      32.662  23.585  24.813  1.00  0.00    -0.463 OA
BRANCH   6   7
ATOM      7  C   UNL A   1      32.689  24.829  24.268  1.00  0.00     0.311 C 
ATOM      8  O   UNL A   1      32.645  25.041  23.057  1.00  0.00    -0.252 OA
BRANCH   7   9
ATOM      9  C   UNL A   1      32.753  25.991  25.246  1.00  0.00     0.128 C 
ATOM     10  C   UNL A   1      32.470  27.415  24.729  1.00  0.00     0.127 C 
ATOM     11  N   UNL A   1      30.998  27.428  24.674  1.00  0.00    -0.364 N 
ATOM     12  C   UNL A   1      31.611  25.789  26.254  1.00  0.00     0.039 C 
ATOM     13  C   UNL A   1      30.408  26.413  25.541  1.00  0.00     0.118 C 
BRANCH  10  14
ATOM     14  C   UNL A   1      32.972  28.470  25.752  1.00  0.00    -0.024 A 
ATOM     15  C   UNL A   1      34.031  30.542  27.392  1.00  0.00     0.118 A 
ATOM     16  C   UNL A   1      32.779  30.677  26.788  1.00  0.00     0.047 A 
ATOM     17  C   UNL A   1      34.722  29.348  27.244  1.00  0.00     0.047 A 
ATOM     18  C   UNL A   1      32.254  29.658  25.975  1.00  0.00     0.010 A 
ATOM     19  C   UNL A   1      34.196  28.331  26.439  1.00  0.00     0.010 A 
BRANCH  15  20
ATOM     20  O   UNL A   1      34.472  31.607  28.130  1.00  0.00    -0.497 OA
ATOM     21  C   UNL A   1      33.616  32.747  28.123  1.00  0.00     0.278 C 
ENDBRANCH  15  20
ENDBRANCH  10  14
BRANCH  11  22
ATOM     22  C   UNL A   1      30.258  28.122  23.752  1.00  0.00     0.037 A 
ATOM     23  C   UNL A   1      28.872  27.927  23.655  1.00  0.00     0.029 A 
ATOM     24  C   UNL A   1      30.845  29.052  22.884  1.00  0.00     0.029 A 
ATOM     25  C   UNL A   1      28.092  28.666  22.760  1.00  0.00     0.041 A 
ATOM     26  C   UNL A   1      30.079  29.771  21.961  1.00  0.00     0.041 A 
ATOM     27  C   UNL A   1      28.707  29.579  21.917  1.00  0.00     0.123 A 
ATOM     28  F   UNL A   1      27.965  30.279  21.048  1.00  0.00    -0.207 F 
ENDBRANCH  11  22
ENDBRANCH   7   9
ENDBRANCH   6   7
ENDBRANCH   5   6
ENDBRANCH   4   5
ENDBRANCH   3   4
ENDBRANCH   2   3
ENDBRANCH   1   2
BRANCH   1  29
ATOM     29  O   UNL A   1      36.854  21.042  25.470  1.00  0.00    -0.376 OA
BRANCH  29  30
ATOM     30  C   UNL A   1      38.149  20.477  25.270  1.00  0.00     0.202 C 
BRANCH  30  31
ATOM     31  C   UNL A   1      39.329  21.205  25.940  1.00  0.00     0.261 C 
BRANCH  31  32
ATOM     32  O   UNL A   1      40.250  20.347  26.638  1.00  0.00    -0.460 OA
BRANCH  32  33
ATOM     33  C   UNL A   1      41.486  20.198  26.107  1.00  0.00     0.338 C 
ATOM     34  O   UNL A   1      41.860  19.293  25.383  1.00  0.00    -0.246 OA
BRANCH  33  35
ATOM     35  C   UNL A   1      42.231  21.461  26.329  1.00  0.00     0.060 A 
ATOM     36  C   UNL A   1      42.581  21.802  27.643  1.00  0.00     0.016 A 
ATOM     37  C   UNL A   1      42.651  22.262  25.261  1.00  0.00     0.016 A 
ATOM     38  C   UNL A   1      43.308  22.967  27.895  1.00  0.00     0.010 A 
ATOM     39  C   UNL A   1      43.373  23.431  25.515  1.00  0.00     0.010 A 
ATOM     40  C   UNL A   1      43.670  23.809  26.835  1.00  0.00    -0.014 A 
BRANCH  40  41
ATOM     41  C   UNL A   1      44.143  25.186  27.116  1.00  0.00     0.031 A 
ATOM     42  C   UNL A   1      43.145  26.175  27.661  1.00  0.00     0.074 A 
ATOM     43  C   UNL A   1      45.417  25.561  26.899  1.00  0.00     0.049 A 
ATOM     44  N   UNL A   1      43.309  27.431  27.977  1.00  0.00    -0.248 NA
ATOM     45  C   UNL A   1      41.775  25.675  27.873  1.00  0.00     0.031 C 
ATOM     46  C   UNL A   1      46.478  24.705  26.375  1.00  0.00     0.029 A 
ATOM     47  N   UNL A   1      46.024  26.779  27.082  1.00  0.00    -0.354 N 
ATOM     48  C   UNL A   1      42.066  27.875  28.410  1.00  0.00     0.074 A 
ATOM     49  C   UNL A   1      41.151  26.763  28.293  1.00  0.00     0.031 C 
ATOM     50  C   UNL A   1      47.605  25.431  26.257  1.00  0.00     0.029 A 
ATOM     51  C   UNL A   1      47.340  26.806  26.682  1.00  0.00     0.049 A 
ATOM     52  H   UNL A   1      45.562  27.560  27.462  1.00  0.00     0.167 HD
ATOM     53  C   UNL A   1      41.717  29.092  28.887  1.00  0.00     0.034 A 
ATOM     54  C   UNL A   1      48.220  27.828  26.653  1.00  0.00     0.034 A 
ATOM     55  C   UNL A   1      42.624  30.199  29.016  1.00  0.00     0.049 A 
ATOM     56  C   UNL A   1      47.795  29.187  27.155  1.00  0.00     0.074 A 
ATOM     57  C   UNL A   1      42.370  31.465  29.513  1.00  0.00     0.029 A 
ATOM     58  N   UNL A   1      43.956  30.176  28.636  1.00  0.00    -0.354 N 
ATOM     59  N   UNL A   1      46.649  29.558  27.675  1.00  0.00    -0.248 NA
ATOM     60  C   UNL A   1      48.799  30.262  27.098  1.00  0.00     0.031 C 
ATOM     61  C   UNL A   1      43.546  32.215  29.415  1.00  0.00     0.029 A 
ATOM     62  C   UNL A   1      44.538  31.408  28.881  1.00  0.00     0.049 A 
ATOM     63  H   UNL A   1      44.420  29.399  28.249  1.00  0.00     0.167 HD
ATOM     64  C   UNL A   1      46.810  30.890  28.045  1.00  0.00     0.074 A 
ATOM     65  C   UNL A   1      48.168  31.257  27.706  1.00  0.00     0.031 C 
ATOM     66  C   UNL A   1      45.910  31.739  28.601  1.00  0.00     0.034 A 
BRANCH  53  67
ATOM     67  C   UNL A   1      40.294  29.277  29.337  1.00  0.00     0.023 A 
ATOM     68  C   UNL A   1      39.310  29.639  28.394  1.00  0.00     0.012 A 
ATOM     69  C   UNL A   1      39.922  29.052  30.676  1.00  0.00     0.148 A 
ATOM     70  C   UNL A   1      37.982  29.806  28.784  1.00  0.00     0.002 A 
ATOM     71  C   UNL A   1      38.588  29.175  31.047  1.00  0.00     0.091 A 
ATOM     72  F   UNL A   1      40.878  28.734  31.560  1.00  0.00    -0.205 F 
ATOM     73  C   UNL A   1      37.620  29.562  30.107  1.00  0.00     0.022 A 
BRANCH  71  74
ATOM     74  S   UNL A   1      38.009  28.814  32.708  1.00  0.00     0.127 S 
ATOM     75  O   UNL A   1      38.922  29.618  33.520  1.00  0.00    -0.237 OA
ATOM     76  O   UNL A   1      36.633  29.309  32.667  1.00  0.00    -0.237 OA
ATOM     77  O   UNL A   1      38.132  27.373  32.873  1.00  0.00    -0.744 OA
ENDBRANCH  71  74
ENDBRANCH  53  67
BRANCH  54  78
ATOM     78  C   UNL A   1      49.615  27.611  26.167  1.00  0.00     0.023 A 
ATOM     79  C   UNL A   1      49.864  27.539  24.783  1.00  0.00     0.012 A 
ATOM     80  C   UNL A   1      50.688  27.453  27.065  1.00  0.00     0.148 A 
ATOM     81  C   UNL A   1      51.147  27.276  24.302  1.00  0.00     0.002 A 
ATOM     82  C   UNL A   1      51.974  27.245  26.578  1.00  0.00     0.091 A 
ATOM     83  F   UNL A   1      50.429  27.502  28.379  1.00  0.00    -0.205 F 
ATOM     84  C   UNL A   1      52.203  27.138  25.199  1.00  0.00     0.022 A 
BRANCH  82  85
ATOM     85  S   UNL A   1      53.411  27.168  27.655  1.00  0.00     0.127 S 
ATOM     86  O   UNL A   1      53.495  28.544  28.137  1.00  0.00    -0.237 OA
ATOM     87  O   UNL A   1      52.985  26.189  28.655  1.00  0.00    -0.237 OA
ATOM     88  O   UNL A   1      54.510  26.724  26.808  1.00  0.00    -0.744 OA
ENDBRANCH  82  85
ENDBRANCH  54  78
BRANCH  66  89
ATOM     89  C   UNL A   1      46.367  33.139  28.928  1.00  0.00     0.023 A 
ATOM     90  C   UNL A   1      47.022  33.398  30.149  1.00  0.00     0.012 A 
ATOM     91  C   UNL A   1      46.217  34.181  27.990  1.00  0.00     0.148 A 
ATOM     92  C   UNL A   1      47.492  34.677  30.443  1.00  0.00     0.002 A 
ATOM     93  C   UNL A   1      46.731  35.441  28.271  1.00  0.00     0.091 A 
ATOM     94  F   UNL A   1      45.576  33.920  26.842  1.00  0.00    -0.205 F 
ATOM     95  C   UNL A   1      47.357  35.695  29.501  1.00  0.00     0.022 A 
BRANCH  93  96
ATOM     96  S   UNL A   1      46.690  36.784  27.077  1.00  0.00     0.127 S 
ATOM     97  O   UNL A   1      47.348  36.177  25.922  1.00  0.00    -0.237 OA
ATOM     98  O   UNL A   1      45.253  37.009  26.911  1.00  0.00    -0.237 OA
ATOM     99  O   UNL A   1      47.405  37.891  27.697  1.00  0.00    -0.744 OA
ENDBRANCH  93  96
ENDBRANCH  66  89
ENDBRANCH  40  41
ENDBRANCH  33  35
ENDBRANCH  32  33
ENDBRANCH  31  32
ENDBRANCH  30  31
ENDBRANCH  29  30
ENDBRANCH   1  29
TORSDOF 23
ENDMDL
