MODEL 1
REMARK VINA RESULT:      -7.1      0.000      0.000
REMARK SMILES CCCc1n[nH]c(C(=O)N[C@H](C)CC(=O)OCCOCCOCCOC(=O)c2ccc(-c3c4nc(c(-c5cccc(S(=O)(=O)[O-])c5F)c5ccc([nH]5)c(-c5cccc(S(=O)(=O)[O-])c5F)c5nc(c(-c6cccc(S(=O)(=O)[O-])c6F)c6ccc3[nH]6)C=C5)C=C4)cc2)n1
REMARK SMILES IDX 20 1 19 2 18 3 17 4 16 5 14 6 15 7 13 8 11 9 12 10 10 11
REMARK SMILES IDX 8 12 9 13 7 15 4 16 5 17 91 18 6 19 3 21 2 22 1 23 21 24
REMARK SMILES IDX 22 25 23 26 24 27 25 28 26 29 27 30 28 31 29 32 90 33 30 34
REMARK SMILES IDX 89 35 31 36 32 37 33 38 83 39 34 40 88 41 82 42 84 43 35 44
REMARK SMILES IDX 87 45 81 46 80 47 36 49 68 50 48 51 67 52 49 53 52 54 66 55
REMARK SMILES IDX 85 56 50 57 51 58 65 60 86 61 53 62 37 63 38 64 46 65 39 66
REMARK SMILES IDX 41 67 47 68 40 69 42 70 43 71 44 72 45 73 69 74 70 75 78 76
REMARK SMILES IDX 71 77 73 78 79 79 72 80 74 81 75 82 76 83 77 84 54 85 55 86
REMARK SMILES IDX 63 87 56 88 58 89 64 90 57 91 59 92 60 93 61 94 62 95
REMARK H PARENT 10 14 6 20 84 48 52 59
REMARK Flexibility Score: inf
ROOT
ATOM      1  C   UNL A   1      45.629  22.873  25.663  1.00  0.00     0.188 C 
ENDROOT
BRANCH   1   2
ATOM      2  O   UNL A   1      46.331  23.424  26.769  1.00  0.00    -0.376 OA
BRANCH   2   3
ATOM      3  C   UNL A   1      45.679  24.454  27.510  1.00  0.00     0.202 C 
BRANCH   3   4
ATOM      4  C   UNL A   1      45.155  24.114  28.915  1.00  0.00     0.261 C 
BRANCH   4   5
ATOM      5  O   UNL A   1      44.877  25.253  29.771  1.00  0.00    -0.463 OA
BRANCH   5   6
ATOM      6  C   UNL A   1      45.961  25.808  30.383  1.00  0.00     0.307 C 
ATOM      7  O   UNL A   1      46.764  26.543  29.814  1.00  0.00    -0.252 OA
BRANCH   6   8
ATOM      8  C   UNL A   1      46.211  25.337  31.810  1.00  0.00     0.147 C 
BRANCH   8   9
ATOM      9  C   UNL A   1      44.995  25.192  32.731  1.00  0.00     0.090 C 
ATOM     10  C   UNL A   1      44.330  23.824  32.567  1.00  0.00     0.031 C 
BRANCH   9  11
ATOM     11  N   UNL A   1      45.301  25.379  34.157  1.00  0.00    -0.346 N 
ATOM     12  C   UNL A   1      44.527  25.933  35.151  1.00  0.00     0.288 C 
ATOM     13  O   UNL A   1      44.959  25.886  36.305  1.00  0.00    -0.266 OA
ATOM     14  H   UNL A   1      46.188  25.060  34.443  1.00  0.00     0.164 HD
BRANCH  12  15
ATOM     15  C   UNL A   1      43.301  26.609  34.824  1.00  0.00     0.214 A 
ATOM     16  C   UNL A   1      41.758  28.005  34.506  1.00  0.00     0.151 A 
ATOM     17  N   UNL A   1      41.092  26.880  34.791  1.00  0.00    -0.158 NA
ATOM     18  N   UNL A   1      43.122  27.879  34.505  1.00  0.00    -0.207 NA
ATOM     19  N   UNL A   1      42.086  25.994  34.878  1.00  0.00    -0.255 N 
ATOM     20  H   UNL A   1      41.959  25.022  34.969  1.00  0.00     0.192 HD
BRANCH  16  21
ATOM     21  C   UNL A   1      41.067  29.256  34.123  1.00  0.00     0.079 C 
BRANCH  21  22
ATOM     22  C   UNL A   1      42.060  30.369  33.811  1.00  0.00     0.005 C 
ATOM     23  C   UNL A   1      42.522  30.367  32.356  1.00  0.00     0.004 C 
ENDBRANCH  21  22
ENDBRANCH  16  21
ENDBRANCH  12  15
ENDBRANCH   9  11
ENDBRANCH   8   9
ENDBRANCH   6   8
ENDBRANCH   5   6
ENDBRANCH   4   5
ENDBRANCH   3   4
ENDBRANCH   2   3
ENDBRANCH   1   2
BRANCH   1  24
ATOM     24  C   UNL A   1      45.443  21.353  25.647  1.00  0.00     0.188 C 
BRANCH  24  25
ATOM     25  O   UNL A   1      44.181  20.918  25.178  1.00  0.00    -0.376 OA
BRANCH  25  26
ATOM     26  C   UNL A   1      43.055  21.691  25.576  1.00  0.00     0.202 C 
BRANCH  26  27
ATOM     27  C   UNL A   1      41.882  20.939  26.236  1.00  0.00     0.261 C 
BRANCH  27  28
ATOM     28  O   UNL A   1      41.134  21.659  27.235  1.00  0.00    -0.460 OA
BRANCH  28  29
ATOM     29  C   UNL A   1      40.130  22.466  26.813  1.00  0.00     0.338 C 
ATOM     30  O   UNL A   1      39.046  22.106  26.384  1.00  0.00    -0.246 OA
BRANCH  29  31
ATOM     31  C   UNL A   1      40.471  23.860  27.207  1.00  0.00     0.060 A 
ATOM     32  C   UNL A   1      39.996  24.918  26.423  1.00  0.00     0.016 A 
ATOM     33  C   UNL A   1      41.205  24.136  28.367  1.00  0.00     0.016 A 
ATOM     34  C   UNL A   1      40.260  26.240  26.801  1.00  0.00     0.010 A 
ATOM     35  C   UNL A   1      41.491  25.463  28.726  1.00  0.00     0.010 A 
ATOM     36  C   UNL A   1      41.029  26.530  27.946  1.00  0.00    -0.014 A 
BRANCH  36  37
ATOM     37  C   UNL A   1      41.443  27.943  28.209  1.00  0.00     0.031 A 
ATOM     38  C   UNL A   1      40.459  28.857  28.886  1.00  0.00     0.074 A 
ATOM     39  C   UNL A   1      42.683  28.406  27.947  1.00  0.00     0.049 A 
ATOM     40  N   UNL A   1      40.639  30.058  29.368  1.00  0.00    -0.248 NA
ATOM     41  C   UNL A   1      39.084  28.350  29.020  1.00  0.00     0.031 C 
ATOM     42  C   UNL A   1      43.746  27.640  27.310  1.00  0.00     0.029 A 
ATOM     43  N   UNL A   1      43.297  29.591  28.301  1.00  0.00    -0.354 N 
ATOM     44  C   UNL A   1      39.386  30.484  29.785  1.00  0.00     0.074 A 
ATOM     45  C   UNL A   1      38.473  29.379  29.586  1.00  0.00     0.031 C 
ATOM     46  C   UNL A   1      44.911  28.294  27.467  1.00  0.00     0.029 A 
ATOM     47  C   UNL A   1      44.670  29.572  28.134  1.00  0.00     0.049 A 
ATOM     48  H   UNL A   1      42.806  30.374  28.639  1.00  0.00     0.167 HD
ATOM     49  C   UNL A   1      39.008  31.705  30.228  1.00  0.00     0.034 A 
ATOM     50  C   UNL A   1      45.617  30.466  28.501  1.00  0.00     0.034 A 
ATOM     51  C   UNL A   1      39.887  32.828  30.390  1.00  0.00     0.049 A 
ATOM     52  C   UNL A   1      45.185  31.793  29.082  1.00  0.00     0.074 A 
ATOM     53  C   UNL A   1      39.566  34.125  30.750  1.00  0.00     0.029 A 
ATOM     54  N   UNL A   1      41.256  32.799  30.184  1.00  0.00    -0.354 N 
ATOM     55  N   UNL A   1      44.003  32.174  29.497  1.00  0.00    -0.248 NA
ATOM     56  C   UNL A   1      46.222  32.834  29.203  1.00  0.00     0.031 C 
ATOM     57  C   UNL A   1      40.738  34.888  30.731  1.00  0.00     0.029 A 
ATOM     58  C   UNL A   1      41.794  34.056  30.400  1.00  0.00     0.049 A 
ATOM     59  H   UNL A   1      41.771  32.001  29.922  1.00  0.00     0.167 HD
ATOM     60  C   UNL A   1      44.146  33.500  29.893  1.00  0.00     0.074 A 
ATOM     61  C   UNL A   1      45.546  33.835  29.750  1.00  0.00     0.031 C 
ATOM     62  C   UNL A   1      43.191  34.380  30.285  1.00  0.00     0.034 A 
BRANCH  49  63
ATOM     63  C   UNL A   1      37.539  31.909  30.461  1.00  0.00     0.023 A 
ATOM     64  C   UNL A   1      36.979  31.681  31.733  1.00  0.00     0.012 A 
ATOM     65  C   UNL A   1      36.715  32.326  29.398  1.00  0.00     0.148 A 
ATOM     66  C   UNL A   1      35.608  31.836  31.933  1.00  0.00     0.002 A 
ATOM     67  C   UNL A   1      35.359  32.520  29.617  1.00  0.00     0.091 A 
ATOM     68  F   UNL A   1      37.270  32.502  28.190  1.00  0.00    -0.205 F 
ATOM     69  C   UNL A   1      34.802  32.263  30.880  1.00  0.00     0.022 A 
BRANCH  67  70
ATOM     70  S   UNL A   1      34.255  33.130  28.340  1.00  0.00     0.127 S 
ATOM     71  O   UNL A   1      33.261  33.854  29.130  1.00  0.00    -0.237 OA
ATOM     72  O   UNL A   1      35.145  33.979  27.548  1.00  0.00    -0.237 OA
ATOM     73  O   UNL A   1      33.758  31.952  27.641  1.00  0.00    -0.744 OA
ENDBRANCH  67  70
ENDBRANCH  49  63
BRANCH  50  74
ATOM     74  C   UNL A   1      47.082  30.172  28.354  1.00  0.00     0.023 A 
ATOM     75  C   UNL A   1      47.703  30.352  27.097  1.00  0.00     0.012 A 
ATOM     76  C   UNL A   1      47.859  29.687  29.419  1.00  0.00     0.148 A 
ATOM     77  C   UNL A   1      49.049  30.026  26.904  1.00  0.00     0.002 A 
ATOM     78  C   UNL A   1      49.220  29.451  29.244  1.00  0.00     0.091 A 
ATOM     79  F   UNL A   1      47.258  29.441  30.592  1.00  0.00    -0.205 F 
ATOM     80  C   UNL A   1      49.814  29.594  27.983  1.00  0.00     0.022 A 
BRANCH  78  81
ATOM     81  S   UNL A   1      50.287  29.081  30.640  1.00  0.00     0.127 S 
ATOM     82  O   UNL A   1      50.266  30.338  31.380  1.00  0.00    -0.237 OA
ATOM     83  O   UNL A   1      49.584  27.971  31.287  1.00  0.00    -0.237 OA
ATOM     84  O   UNL A   1      51.563  28.704  30.044  1.00  0.00    -0.744 OA
ENDBRANCH  78  81
ENDBRANCH  50  74
BRANCH  62  85
ATOM     85  C   UNL A   1      43.606  35.806  30.555  1.00  0.00     0.023 A 
ATOM     86  C   UNL A   1      43.727  36.708  29.479  1.00  0.00     0.012 A 
ATOM     87  C   UNL A   1      43.778  36.276  31.872  1.00  0.00     0.148 A 
ATOM     88  C   UNL A   1      44.043  38.048  29.705  1.00  0.00     0.002 A 
ATOM     89  C   UNL A   1      44.046  37.623  32.093  1.00  0.00     0.091 A 
ATOM     90  F   UNL A   1      43.672  35.402  32.883  1.00  0.00    -0.205 F 
ATOM     91  C   UNL A   1      44.189  38.508  31.012  1.00  0.00     0.022 A 
BRANCH  89  92
ATOM     92  S   UNL A   1      44.159  38.327  33.742  1.00  0.00     0.127 S 
ATOM     93  O   UNL A   1      42.749  38.503  34.089  1.00  0.00    -0.237 OA
ATOM     94  O   UNL A   1      44.842  37.268  34.486  1.00  0.00    -0.237 OA
ATOM     95  O   UNL A   1      44.925  39.558  33.602  1.00  0.00    -0.744 OA
ENDBRANCH  89  92
ENDBRANCH  62  85
ENDBRANCH  36  37
ENDBRANCH  29  31
ENDBRANCH  28  29
ENDBRANCH  27  28
ENDBRANCH  26  27
ENDBRANCH  25  26
ENDBRANCH  24  25
ENDBRANCH   1  24
TORSDOF 25
ENDMDL
MODEL 2
REMARK VINA RESULT:      -6.9      3.927      9.498
REMARK SMILES CCCc1n[nH]c(C(=O)N[C@H](C)CC(=O)OCCOCCOCCOC(=O)c2ccc(-c3c4nc(c(-c5cccc(S(=O)(=O)[O-])c5F)c5ccc([nH]5)c(-c5cccc(S(=O)(=O)[O-])c5F)c5nc(c(-c6cccc(S(=O)(=O)[O-])c6F)c6ccc3[nH]6)C=C5)C=C4)cc2)n1
REMARK SMILES IDX 20 1 19 2 18 3 17 4 16 5 14 6 15 7 13 8 11 9 12 10 10 11
REMARK SMILES IDX 8 12 9 13 7 15 4 16 5 17 91 18 6 19 3 21 2 22 1 23 21 24
REMARK SMILES IDX 22 25 23 26 24 27 25 28 26 29 27 30 28 31 29 32 90 33 30 34
REMARK SMILES IDX 89 35 31 36 32 37 33 38 83 39 34 40 88 41 82 42 84 43 35 44
REMARK SMILES IDX 87 45 81 46 80 47 36 49 68 50 48 51 67 52 49 53 52 54 66 55
REMARK SMILES IDX 85 56 50 57 51 58 65 60 86 61 53 62 37 63 38 64 46 65 39 66
REMARK SMILES IDX 41 67 47 68 40 69 42 70 43 71 44 72 45 73 69 74 70 75 78 76
REMARK SMILES IDX 71 77 73 78 79 79 72 80 74 81 75 82 76 83 77 84 54 85 55 86
REMARK SMILES IDX 63 87 56 88 58 89 64 90 57 91 59 92 60 93 61 94 62 95
REMARK H PARENT 10 14 6 20 84 48 52 59
REMARK Flexibility Score: inf
ROOT
ATOM      1  C   UNL A   1      37.730  30.682  32.850  1.00  0.00     0.188 C 
ENDROOT
BRANCH   1   2
ATOM      2  O   UNL A   1      36.957  29.537  32.516  1.00  0.00    -0.376 OA
BRANCH   2   3
ATOM      3  C   UNL A   1      37.660  28.386  32.052  1.00  0.00     0.202 C 
BRANCH   3   4
ATOM      4  C   UNL A   1      38.710  27.756  32.983  1.00  0.00     0.261 C 
BRANCH   4   5
ATOM      5  O   UNL A   1      40.093  28.033  32.642  1.00  0.00    -0.463 OA
BRANCH   5   6
ATOM      6  C   UNL A   1      40.944  28.168  33.699  1.00  0.00     0.307 C 
ATOM      7  O   UNL A   1      40.689  28.832  34.699  1.00  0.00    -0.252 OA
BRANCH   6   8
ATOM      8  C   UNL A   1      42.325  27.557  33.500  1.00  0.00     0.147 C 
BRANCH   8   9
ATOM      9  C   UNL A   1      42.927  26.774  34.672  1.00  0.00     0.090 C 
ATOM     10  C   UNL A   1      43.750  27.683  35.587  1.00  0.00     0.031 C 
BRANCH   9  11
ATOM     11  N   UNL A   1      41.931  26.079  35.501  1.00  0.00    -0.346 N 
ATOM     12  C   UNL A   1      41.939  24.788  35.978  1.00  0.00     0.288 C 
ATOM     13  O   UNL A   1      41.035  24.457  36.748  1.00  0.00    -0.266 OA
ATOM     14  H   UNL A   1      41.144  26.615  35.752  1.00  0.00     0.164 HD
BRANCH  12  15
ATOM     15  C   UNL A   1      42.929  23.851  35.520  1.00  0.00     0.214 A 
ATOM     16  C   UNL A   1      44.699  22.818  35.037  1.00  0.00     0.151 A 
ATOM     17  N   UNL A   1      43.860  22.448  34.062  1.00  0.00    -0.158 NA
ATOM     18  N   UNL A   1      44.162  23.674  35.962  1.00  0.00    -0.207 NA
ATOM     19  N   UNL A   1      42.722  23.026  34.455  1.00  0.00    -0.255 N 
ATOM     20  H   UNL A   1      41.847  22.876  34.030  1.00  0.00     0.192 HD
BRANCH  16  21
ATOM     21  C   UNL A   1      46.066  22.264  35.154  1.00  0.00     0.079 C 
BRANCH  21  22
ATOM     22  C   UNL A   1      46.207  20.959  34.381  1.00  0.00     0.005 C 
ATOM     23  C   UNL A   1      45.972  19.723  35.244  1.00  0.00     0.004 C 
ENDBRANCH  21  22
ENDBRANCH  16  21
ENDBRANCH  12  15
ENDBRANCH   9  11
ENDBRANCH   8   9
ENDBRANCH   6   8
ENDBRANCH   5   6
ENDBRANCH   4   5
ENDBRANCH   3   4
ENDBRANCH   2   3
ENDBRANCH   1   2
BRANCH   1  24
ATOM     24  C   UNL A   1      36.973  32.000  33.040  1.00  0.00     0.188 C 
BRANCH  24  25
ATOM     25  O   UNL A   1      35.567  31.895  32.915  1.00  0.00    -0.376 OA
BRANCH  25  26
ATOM     26  C   UNL A   1      34.876  33.071  32.514  1.00  0.00     0.202 C 
BRANCH  26  27
ATOM     27  C   UNL A   1      34.431  33.159  31.039  1.00  0.00     0.261 C 
BRANCH  27  28
ATOM     28  O   UNL A   1      35.446  33.508  30.079  1.00  0.00    -0.460 OA
BRANCH  28  29
ATOM     29  C   UNL A   1      35.667  32.650  29.052  1.00  0.00     0.338 C 
ATOM     30  O   UNL A   1      34.962  32.508  28.066  1.00  0.00    -0.246 OA
BRANCH  29  31
ATOM     31  C   UNL A   1      37.044  32.105  29.203  1.00  0.00     0.060 A 
ATOM     32  C   UNL A   1      37.238  30.724  29.086  1.00  0.00     0.016 A 
ATOM     33  C   UNL A   1      38.146  32.943  29.403  1.00  0.00     0.016 A 
ATOM     34  C   UNL A   1      38.531  30.191  29.173  1.00  0.00     0.010 A 
ATOM     35  C   UNL A   1      39.437  32.402  29.518  1.00  0.00     0.010 A 
ATOM     36  C   UNL A   1      39.645  31.021  29.411  1.00  0.00    -0.014 A 
BRANCH  36  37
ATOM     37  C   UNL A   1      40.976  30.396  29.681  1.00  0.00     0.031 A 
ATOM     38  C   UNL A   1      41.679  30.746  30.964  1.00  0.00     0.074 A 
ATOM     39  C   UNL A   1      41.532  29.471  28.869  1.00  0.00     0.049 A 
ATOM     40  N   UNL A   1      42.747  30.213  31.496  1.00  0.00    -0.248 NA
ATOM     41  C   UNL A   1      41.104  31.857  31.738  1.00  0.00     0.031 C 
ATOM     42  C   UNL A   1      40.967  29.020  27.605  1.00  0.00     0.029 A 
ATOM     43  N   UNL A   1      42.628  28.653  29.053  1.00  0.00    -0.354 N 
ATOM     44  C   UNL A   1      43.022  30.977  32.621  1.00  0.00     0.074 A 
ATOM     45  C   UNL A   1      41.957  31.949  32.747  1.00  0.00     0.031 C 
ATOM     46  C   UNL A   1      41.612  27.907  27.211  1.00  0.00     0.029 A 
ATOM     47  C   UNL A   1      42.698  27.612  28.144  1.00  0.00     0.049 A 
ATOM     48  H   UNL A   1      43.298  28.796  29.760  1.00  0.00     0.167 HD
ATOM     49  C   UNL A   1      44.098  30.926  33.440  1.00  0.00     0.034 A 
ATOM     50  C   UNL A   1      43.521  26.539  28.090  1.00  0.00     0.034 A 
ATOM     51  C   UNL A   1      45.187  30.000  33.307  1.00  0.00     0.049 A 
ATOM     52  C   UNL A   1      44.666  26.446  29.071  1.00  0.00     0.074 A 
ATOM     53  C   UNL A   1      46.358  29.941  34.043  1.00  0.00     0.029 A 
ATOM     54  N   UNL A   1      45.255  28.986  32.368  1.00  0.00    -0.354 N 
ATOM     55  N   UNL A   1      44.901  27.156  30.146  1.00  0.00    -0.248 NA
ATOM     56  C   UNL A   1      45.691  25.421  28.801  1.00  0.00     0.031 C 
ATOM     57  C   UNL A   1      47.148  28.909  33.527  1.00  0.00     0.029 A 
ATOM     58  C   UNL A   1      46.450  28.300  32.498  1.00  0.00     0.049 A 
ATOM     59  H   UNL A   1      44.555  28.782  31.705  1.00  0.00     0.167 HD
ATOM     60  C   UNL A   1      46.109  26.690  30.657  1.00  0.00     0.074 A 
ATOM     61  C   UNL A   1      46.518  25.579  29.825  1.00  0.00     0.031 C 
ATOM     62  C   UNL A   1      46.842  27.177  31.688  1.00  0.00     0.034 A 
BRANCH  49  63
ATOM     63  C   UNL A   1      44.191  31.991  34.494  1.00  0.00     0.023 A 
ATOM     64  C   UNL A   1      44.936  33.163  34.262  1.00  0.00     0.012 A 
ATOM     65  C   UNL A   1      43.532  31.814  35.726  1.00  0.00     0.148 A 
ATOM     66  C   UNL A   1      45.050  34.130  35.259  1.00  0.00     0.002 A 
ATOM     67  C   UNL A   1      43.614  32.802  36.696  1.00  0.00     0.091 A 
ATOM     68  F   UNL A   1      42.859  30.673  35.932  1.00  0.00    -0.205 F 
ATOM     69  C   UNL A   1      44.383  33.954  36.469  1.00  0.00     0.022 A 
BRANCH  67  70
ATOM     70  S   UNL A   1      42.737  32.692  38.258  1.00  0.00     0.127 S 
ATOM     71  O   UNL A   1      41.565  33.526  37.998  1.00  0.00    -0.237 OA
ATOM     72  O   UNL A   1      42.459  31.258  38.351  1.00  0.00    -0.237 OA
ATOM     73  O   UNL A   1      43.652  33.201  39.271  1.00  0.00    -0.744 OA
ENDBRANCH  67  70
ENDBRANCH  49  63
BRANCH  50  74
ATOM     74  C   UNL A   1      43.321  25.438  27.090  1.00  0.00     0.023 A 
ATOM     75  C   UNL A   1      43.991  25.499  25.848  1.00  0.00     0.012 A 
ATOM     76  C   UNL A   1      42.456  24.356  27.329  1.00  0.00     0.148 A 
ATOM     77  C   UNL A   1      43.780  24.527  24.864  1.00  0.00     0.002 A 
ATOM     78  C   UNL A   1      42.321  23.345  26.382  1.00  0.00     0.091 A 
ATOM     79  F   UNL A   1      41.758  24.334  28.473  1.00  0.00    -0.205 F 
ATOM     80  C   UNL A   1      42.959  23.438  25.139  1.00  0.00     0.022 A 
BRANCH  78  81
ATOM     81  S   UNL A   1      41.431  21.831  26.760  1.00  0.00     0.127 S 
ATOM     82  O   UNL A   1      41.828  21.582  28.142  1.00  0.00    -0.237 OA
ATOM     83  O   UNL A   1      40.035  22.234  26.581  1.00  0.00    -0.237 OA
ATOM     84  O   UNL A   1      41.900  20.867  25.771  1.00  0.00    -0.744 OA
ENDBRANCH  78  81
ENDBRANCH  50  74
BRANCH  62  85
ATOM     85  C   UNL A   1      48.185  26.546  31.965  1.00  0.00     0.023 A 
ATOM     86  C   UNL A   1      49.309  26.948  31.214  1.00  0.00     0.012 A 
ATOM     87  C   UNL A   1      48.356  25.636  33.027  1.00  0.00     0.148 A 
ATOM     88  C   UNL A   1      50.574  26.432  31.493  1.00  0.00     0.002 A 
ATOM     89  C   UNL A   1      49.628  25.162  33.330  1.00  0.00     0.091 A 
ATOM     90  F   UNL A   1      47.276  25.254  33.723  1.00  0.00    -0.205 F 
ATOM     91  C   UNL A   1      50.736  25.550  32.558  1.00  0.00     0.022 A 
BRANCH  89  92
ATOM     92  S   UNL A   1      49.951  24.096  34.740  1.00  0.00     0.127 S 
ATOM     93  O   UNL A   1      50.185  22.806  34.091  1.00  0.00    -0.237 OA
ATOM     94  O   UNL A   1      51.142  24.709  35.327  1.00  0.00    -0.237 OA
ATOM     95  O   UNL A   1      48.760  24.165  35.577  1.00  0.00    -0.744 OA
ENDBRANCH  89  92
ENDBRANCH  62  85
ENDBRANCH  36  37
ENDBRANCH  29  31
ENDBRANCH  28  29
ENDBRANCH  27  28
ENDBRANCH  26  27
ENDBRANCH  25  26
ENDBRANCH  24  25
ENDBRANCH   1  24
TORSDOF 25
ENDMDL
MODEL 3
REMARK VINA RESULT:      -6.9      3.663      6.297
REMARK SMILES CCCc1n[nH]c(C(=O)N[C@H](C)CC(=O)OCCOCCOCCOC(=O)c2ccc(-c3c4nc(c(-c5cccc(S(=O)(=O)[O-])c5F)c5ccc([nH]5)c(-c5cccc(S(=O)(=O)[O-])c5F)c5nc(c(-c6cccc(S(=O)(=O)[O-])c6F)c6ccc3[nH]6)C=C5)C=C4)cc2)n1
REMARK SMILES IDX 20 1 19 2 18 3 17 4 16 5 14 6 15 7 13 8 11 9 12 10 10 11
REMARK SMILES IDX 8 12 9 13 7 15 4 16 5 17 91 18 6 19 3 21 2 22 1 23 21 24
REMARK SMILES IDX 22 25 23 26 24 27 25 28 26 29 27 30 28 31 29 32 90 33 30 34
REMARK SMILES IDX 89 35 31 36 32 37 33 38 83 39 34 40 88 41 82 42 84 43 35 44
REMARK SMILES IDX 87 45 81 46 80 47 36 49 68 50 48 51 67 52 49 53 52 54 66 55
REMARK SMILES IDX 85 56 50 57 51 58 65 60 86 61 53 62 37 63 38 64 46 65 39 66
REMARK SMILES IDX 41 67 47 68 40 69 42 70 43 71 44 72 45 73 69 74 70 75 78 76
REMARK SMILES IDX 71 77 73 78 79 79 72 80 74 81 75 82 76 83 77 84 54 85 55 86
REMARK SMILES IDX 63 87 56 88 58 89 64 90 57 91 59 92 60 93 61 94 62 95
REMARK H PARENT 10 14 6 20 84 48 52 59
REMARK Flexibility Score: inf
ROOT
ATOM      1  C   UNL A   1      45.523  24.360  25.792  1.00  0.00     0.188 C 
ENDROOT
BRANCH   1   2
ATOM      2  O   UNL A   1      46.571  25.270  26.096  1.00  0.00    -0.376 OA
BRANCH   2   3
ATOM      3  C   UNL A   1      47.356  25.751  25.006  1.00  0.00     0.202 C 
BRANCH   3   4
ATOM      4  C   UNL A   1      47.016  27.134  24.425  1.00  0.00     0.261 C 
BRANCH   4   5
ATOM      5  O   UNL A   1      48.104  27.808  23.740  1.00  0.00    -0.463 OA
BRANCH   5   6
ATOM      6  C   UNL A   1      48.036  27.801  22.378  1.00  0.00     0.307 C 
ATOM      7  O   UNL A   1      47.178  28.397  21.735  1.00  0.00    -0.252 OA
BRANCH   6   8
ATOM      8  C   UNL A   1      49.021  26.867  21.686  1.00  0.00     0.147 C 
BRANCH   8   9
ATOM      9  C   UNL A   1      50.317  27.480  21.146  1.00  0.00     0.090 C 
ATOM     10  C   UNL A   1      50.348  27.467  19.617  1.00  0.00     0.031 C 
BRANCH   9  11
ATOM     11  N   UNL A   1      50.556  28.861  21.592  1.00  0.00    -0.346 N 
ATOM     12  C   UNL A   1      51.600  29.373  22.329  1.00  0.00     0.288 C 
ATOM     13  O   UNL A   1      51.639  30.594  22.494  1.00  0.00    -0.266 OA
ATOM     14  H   UNL A   1      49.870  29.514  21.324  1.00  0.00     0.164 HD
BRANCH  12  15
ATOM     15  C   UNL A   1      52.556  28.492  22.944  1.00  0.00     0.214 A 
ATOM     16  C   UNL A   1      53.772  27.398  24.269  1.00  0.00     0.151 A 
ATOM     17  N   UNL A   1      54.546  27.524  23.185  1.00  0.00    -0.158 NA
ATOM     18  N   UNL A   1      52.532  27.971  24.158  1.00  0.00    -0.207 NA
ATOM     19  N   UNL A   1      53.713  28.120  22.328  1.00  0.00    -0.255 N 
ATOM     20  H   UNL A   1      53.911  28.271  21.376  1.00  0.00     0.192 HD
BRANCH  16  21
ATOM     21  C   UNL A   1      54.190  26.614  25.452  1.00  0.00     0.079 C 
BRANCH  21  22
ATOM     22  C   UNL A   1      53.340  25.360  25.620  1.00  0.00     0.005 C 
ATOM     23  C   UNL A   1      54.168  24.081  25.689  1.00  0.00     0.004 C 
ENDBRANCH  21  22
ENDBRANCH  16  21
ENDBRANCH  12  15
ENDBRANCH   9  11
ENDBRANCH   8   9
ENDBRANCH   6   8
ENDBRANCH   5   6
ENDBRANCH   4   5
ENDBRANCH   3   4
ENDBRANCH   2   3
ENDBRANCH   1   2
BRANCH   1  24
ATOM     24  C   UNL A   1      45.871  22.868  25.818  1.00  0.00     0.188 C 
BRANCH  24  25
ATOM     25  O   UNL A   1      44.841  22.015  25.355  1.00  0.00    -0.376 OA
BRANCH  25  26
ATOM     26  C   UNL A   1      43.506  22.441  25.596  1.00  0.00     0.202 C 
BRANCH  26  27
ATOM     27  C   UNL A   1      42.502  21.374  26.078  1.00  0.00     0.261 C 
BRANCH  27  28
ATOM     28  O   UNL A   1      41.602  21.765  27.132  1.00  0.00    -0.460 OA
BRANCH  28  29
ATOM     29  C   UNL A   1      40.519  22.509  26.797  1.00  0.00     0.338 C 
ATOM     30  O   UNL A   1      39.432  22.082  26.442  1.00  0.00    -0.246 OA
BRANCH  29  31
ATOM     31  C   UNL A   1      40.797  23.918  27.187  1.00  0.00     0.060 A 
ATOM     32  C   UNL A   1      40.326  24.949  26.367  1.00  0.00     0.016 A 
ATOM     33  C   UNL A   1      41.467  24.232  28.375  1.00  0.00     0.016 A 
ATOM     34  C   UNL A   1      40.529  26.284  26.737  1.00  0.00     0.010 A 
ATOM     35  C   UNL A   1      41.694  25.572  28.728  1.00  0.00     0.010 A 
ATOM     36  C   UNL A   1      41.235  26.614  27.912  1.00  0.00    -0.014 A 
BRANCH  36  37
ATOM     37  C   UNL A   1      41.591  28.042  28.174  1.00  0.00     0.031 A 
ATOM     38  C   UNL A   1      40.573  28.915  28.857  1.00  0.00     0.074 A 
ATOM     39  C   UNL A   1      42.809  28.557  27.906  1.00  0.00     0.049 A 
ATOM     40  N   UNL A   1      40.705  30.122  29.338  1.00  0.00    -0.248 NA
ATOM     41  C   UNL A   1      39.222  28.350  28.997  1.00  0.00     0.031 C 
ATOM     42  C   UNL A   1      43.900  27.836  27.264  1.00  0.00     0.029 A 
ATOM     43  N   UNL A   1      43.375  29.766  28.258  1.00  0.00    -0.354 N 
ATOM     44  C   UNL A   1      39.438  30.495  29.761  1.00  0.00     0.074 A 
ATOM     45  C   UNL A   1      38.571  29.353  29.566  1.00  0.00     0.031 C 
ATOM     46  C   UNL A   1      45.037  28.538  27.415  1.00  0.00     0.029 A 
ATOM     47  C   UNL A   1      44.747  29.805  28.084  1.00  0.00     0.049 A 
ATOM     48  H   UNL A   1      42.853  30.528  28.598  1.00  0.00     0.167 HD
ATOM     49  C   UNL A   1      39.011  31.699  30.207  1.00  0.00     0.034 A 
ATOM     50  C   UNL A   1      45.658  30.737  28.447  1.00  0.00     0.034 A 
ATOM     51  C   UNL A   1      39.844  32.858  30.365  1.00  0.00     0.049 A 
ATOM     52  C   UNL A   1      45.174  32.045  29.031  1.00  0.00     0.074 A 
ATOM     53  C   UNL A   1      39.471  34.140  30.727  1.00  0.00     0.029 A 
ATOM     54  N   UNL A   1      41.212  32.886  30.153  1.00  0.00    -0.354 N 
ATOM     55  N   UNL A   1      43.979  32.376  29.452  1.00  0.00    -0.248 NA
ATOM     56  C   UNL A   1      46.167  33.128  29.147  1.00  0.00     0.031 C 
ATOM     57  C   UNL A   1      40.610  34.952  30.703  1.00  0.00     0.029 A 
ATOM     58  C   UNL A   1      41.697  34.164  30.366  1.00  0.00     0.049 A 
ATOM     59  H   UNL A   1      41.758  32.110  29.888  1.00  0.00     0.167 HD
ATOM     60  C   UNL A   1      44.069  33.707  29.848  1.00  0.00     0.074 A 
ATOM     61  C   UNL A   1      45.453  34.100  29.698  1.00  0.00     0.031 C 
ATOM     62  C   UNL A   1      43.080  34.546  30.245  1.00  0.00     0.034 A 
BRANCH  49  63
ATOM     63  C   UNL A   1      37.536  31.842  30.447  1.00  0.00     0.023 A 
ATOM     64  C   UNL A   1      36.981  31.514  31.699  1.00  0.00     0.012 A 
ATOM     65  C   UNL A   1      36.702  32.302  29.411  1.00  0.00     0.148 A 
ATOM     66  C   UNL A   1      35.606  31.612  31.903  1.00  0.00     0.002 A 
ATOM     67  C   UNL A   1      35.340  32.440  29.637  1.00  0.00     0.091 A 
ATOM     68  F   UNL A   1      37.253  32.574  28.219  1.00  0.00    -0.205 F 
ATOM     69  C   UNL A   1      34.788  32.082  30.877  1.00  0.00     0.022 A 
BRANCH  67  70
ATOM     70  S   UNL A   1      34.220  33.098  28.398  1.00  0.00     0.127 S 
ATOM     71  O   UNL A   1      33.265  33.834  29.224  1.00  0.00    -0.237 OA
ATOM     72  O   UNL A   1      35.111  33.937  27.597  1.00  0.00    -0.237 OA
ATOM     73  O   UNL A   1      33.676  31.945  27.694  1.00  0.00    -0.744 OA
ENDBRANCH  67  70
ENDBRANCH  49  63
BRANCH  50  74
ATOM     74  C   UNL A   1      47.133  30.504  28.293  1.00  0.00     0.023 A 
ATOM     75  C   UNL A   1      47.770  30.870  27.086  1.00  0.00     0.012 A 
ATOM     76  C   UNL A   1      47.905  29.899  29.299  1.00  0.00     0.148 A 
ATOM     77  C   UNL A   1      49.129  30.609  26.879  1.00  0.00     0.002 A 
ATOM     78  C   UNL A   1      49.275  29.725  29.122  1.00  0.00     0.091 A 
ATOM     79  F   UNL A   1      47.290  29.480  30.414  1.00  0.00    -0.205 F 
ATOM     80  C   UNL A   1      49.887  30.054  27.906  1.00  0.00     0.022 A 
BRANCH  78  81
ATOM     81  S   UNL A   1      50.327  29.196  30.478  1.00  0.00     0.127 S 
ATOM     82  O   UNL A   1      50.033  30.196  31.499  1.00  0.00    -0.237 OA
ATOM     83  O   UNL A   1      49.819  27.853  30.764  1.00  0.00    -0.237 OA
ATOM     84  O   UNL A   1      51.678  29.212  29.929  1.00  0.00    -0.744 OA
ENDBRANCH  78  81
ENDBRANCH  50  74
BRANCH  62  85
ATOM     85  C   UNL A   1      43.436  35.988  30.514  1.00  0.00     0.023 A 
ATOM     86  C   UNL A   1      43.879  36.365  31.798  1.00  0.00     0.012 A 
ATOM     87  C   UNL A   1      43.428  36.944  29.479  1.00  0.00     0.148 A 
ATOM     88  C   UNL A   1      44.279  37.676  32.057  1.00  0.00     0.002 A 
ATOM     89  C   UNL A   1      43.873  38.237  29.732  1.00  0.00     0.091 A 
ATOM     90  F   UNL A   1      42.991  36.572  28.267  1.00  0.00    -0.205 F 
ATOM     91  C   UNL A   1      44.288  38.608  31.022  1.00  0.00     0.022 A 
BRANCH  89  92
ATOM     92  S   UNL A   1      44.008  39.481  28.443  1.00  0.00     0.127 S 
ATOM     93  O   UNL A   1      42.751  39.298  27.718  1.00  0.00    -0.237 OA
ATOM     94  O   UNL A   1      44.091  40.721  29.216  1.00  0.00    -0.237 OA
ATOM     95  O   UNL A   1      45.213  39.154  27.694  1.00  0.00    -0.744 OA
ENDBRANCH  89  92
ENDBRANCH  62  85
ENDBRANCH  36  37
ENDBRANCH  29  31
ENDBRANCH  28  29
ENDBRANCH  27  28
ENDBRANCH  26  27
ENDBRANCH  25  26
ENDBRANCH  24  25
ENDBRANCH   1  24
TORSDOF 25
ENDMDL
