MODEL 1
REMARK VINA RESULT:     -10.0      0.000      0.000
REMARK SMILES Cc1sc(NC(=O)[C@@H]2[C@@H](C(=O)OCCOCCOCCOC(=O)c3ccc(-c4c5nc(c(-c6cccc(S(=O)(=O)[O-])c6F)c6ccc([nH]6)c(-c6cccc(S(=O)(=O)[O-])c6F)c6nc(c(-c7cccc(S(=O)(=O)[O-])c7F)c7ccc4[nH]7)C=C6)C=C5)cc3)[C@@H]3C=C[C@H]2C3)c(C#N)c1C
REMARK SMILES IDX 16 1 15 2 14 3 13 4 12 5 10 6 11 7 9 8 8 9 90 10 87 11 89 12
REMARK SMILES IDX 91 13 88 14 6 15 5 16 7 18 4 19 1 20 2 21 3 22 95 23 92 24
REMARK SMILES IDX 96 25 93 26 94 27 17 28 18 29 19 30 20 31 21 32 22 33 23 34
REMARK SMILES IDX 24 35 25 36 86 37 26 38 85 39 27 40 28 41 29 42 79 43 30 44
REMARK SMILES IDX 84 45 78 46 80 47 31 48 83 49 77 50 76 51 32 53 64 54 44 55
REMARK SMILES IDX 63 56 45 57 48 58 62 59 81 60 46 61 47 62 61 64 82 65 49 66
REMARK SMILES IDX 33 67 34 68 42 69 35 70 37 71 43 72 36 73 38 74 39 75 40 76
REMARK SMILES IDX 41 77 65 78 66 79 74 80 67 81 69 82 75 83 68 84 70 85 71 86
REMARK SMILES IDX 72 87 73 88 50 89 51 90 59 91 52 92 54 93 60 94 53 95 55 96
REMARK SMILES IDX 56 97 57 98 58 99
REMARK H PARENT 5 17 80 52 48 63
REMARK Flexibility Score: inf
ROOT
ATOM      1  C   UNL A   1      32.035  29.680  26.161  1.00  0.00     0.188 C 
ENDROOT
BRANCH   1   2
ATOM      2  O   UNL A   1      32.492  28.908  25.091  1.00  0.00    -0.376 OA
BRANCH   2   3
ATOM      3  C   UNL A   1      33.605  28.073  25.310  1.00  0.00     0.202 C 
BRANCH   3   4
ATOM      4  C   UNL A   1      33.537  26.524  25.239  1.00  0.00     0.261 C 
BRANCH   4   5
ATOM      5  O   UNL A   1      34.497  25.744  25.993  1.00  0.00    -0.463 OA
BRANCH   5   6
ATOM      6  C   UNL A   1      34.929  24.578  25.431  1.00  0.00     0.310 C 
ATOM      7  O   UNL A   1      36.088  24.427  25.061  1.00  0.00    -0.252 OA
BRANCH   6   8
ATOM      8  C   UNL A   1      33.823  23.472  25.368  1.00  0.00     0.119 C 
ATOM      9  C   UNL A   1      32.717  23.245  26.626  1.00  0.00     0.100 C 
ATOM     10  C   UNL A   1      33.238  21.840  27.118  1.00  0.00     0.025 C 
ATOM     11  C   UNL A   1      34.706  22.199  25.443  1.00  0.00     0.027 C 
ATOM     12  C   UNL A   1      33.036  20.775  26.050  1.00  0.00    -0.027 C 
ATOM     13  C   UNL A   1      34.760  21.966  26.959  1.00  0.00     0.017 C 
ATOM     14  C   UNL A   1      33.895  21.008  25.048  1.00  0.00    -0.027 C 
BRANCH   9  15
ATOM     15  C   UNL A   1      31.148  23.170  26.253  1.00  0.00     0.229 C 
ATOM     16  N   UNL A   1      30.293  24.122  25.640  1.00  0.00    -0.316 N 
ATOM     17  H   UNL A   1      29.558  24.439  26.214  1.00  0.00     0.170 HD
ATOM     18  O   UNL A   1      30.530  22.185  26.701  1.00  0.00    -0.274 OA
BRANCH  16  19
ATOM     19  C   UNL A   1      30.317  24.711  24.310  1.00  0.00     0.113 A 
ATOM     20  C   UNL A   1      30.191  28.928  22.369  1.00  0.00     0.057 C 
ATOM     21  C   UNL A   1      30.655  27.447  22.435  1.00  0.00     0.008 A 
ATOM     22  S   UNL A   1      29.384  26.728  24.250  1.00  0.00    -0.122 S 
ATOM     23  C   UNL A   1      31.806  25.905  21.849  1.00  0.00    -0.017 A 
ATOM     24  C   UNL A   1      31.365  24.368  22.994  1.00  0.00     0.090 A 
ATOM     25  C   UNL A   1      32.909  25.532  20.823  1.00  0.00     0.047 C 
BRANCH  24  26
ATOM     26  C   UNL A   1      31.733  23.022  22.657  1.00  0.00     0.103 C 
ATOM     27  N   UNL A   1      32.149  21.968  22.405  1.00  0.00    -0.192 NA
ENDBRANCH  24  26
ENDBRANCH  16  19
ENDBRANCH   9  15
ENDBRANCH   6   8
ENDBRANCH   5   6
ENDBRANCH   4   5
ENDBRANCH   3   4
ENDBRANCH   2   3
ENDBRANCH   1   2
BRANCH   1  28
ATOM     28  C   UNL A   1      31.414  31.090  25.904  1.00  0.00     0.188 C 
BRANCH  28  29
ATOM     29  O   UNL A   1      31.349  32.049  26.935  1.00  0.00    -0.376 OA
BRANCH  29  30
ATOM     30  C   UNL A   1      32.331  33.028  27.220  1.00  0.00     0.202 C 
BRANCH  30  31
ATOM     31  C   UNL A   1      33.547  32.905  28.151  1.00  0.00     0.261 C 
BRANCH  31  32
ATOM     32  O   UNL A   1      34.010  31.587  28.378  1.00  0.00    -0.460 OA
BRANCH  32  33
ATOM     33  C   UNL A   1      35.345  31.616  28.434  1.00  0.00     0.338 C 
ATOM     34  O   UNL A   1      36.086  32.153  27.618  1.00  0.00    -0.246 OA
BRANCH  33  35
ATOM     35  C   UNL A   1      35.878  30.990  29.657  1.00  0.00     0.060 A 
ATOM     36  C   UNL A   1      36.733  32.197  30.668  1.00  0.00     0.016 A 
ATOM     37  C   UNL A   1      36.634  29.518  29.295  1.00  0.00     0.016 A 
ATOM     38  C   UNL A   1      38.698  31.806  31.207  1.00  0.00     0.010 A 
ATOM     39  C   UNL A   1      38.259  29.157  29.703  1.00  0.00     0.010 A 
ATOM     40  C   UNL A   1      39.364  30.243  30.513  1.00  0.00    -0.014 A 
BRANCH  40  41
ATOM     41  C   UNL A   1      40.740  29.649  30.331  1.00  0.00     0.031 A 
ATOM     42  C   UNL A   1      41.243  29.442  31.696  1.00  0.00     0.074 A 
ATOM     43  C   UNL A   1      41.249  28.986  29.208  1.00  0.00     0.049 A 
ATOM     44  N   UNL A   1      42.198  30.105  32.258  1.00  0.00    -0.248 NA
ATOM     45  C   UNL A   1      40.444  28.644  32.652  1.00  0.00     0.031 C 
ATOM     46  C   UNL A   1      40.761  28.997  27.811  1.00  0.00     0.029 A 
ATOM     47  N   UNL A   1      42.265  28.037  29.033  1.00  0.00    -0.354 N 
ATOM     48  C   UNL A   1      42.372  29.424  33.454  1.00  0.00     0.074 A 
ATOM     49  C   UNL A   1      41.091  28.877  33.796  1.00  0.00     0.031 C 
ATOM     50  C   UNL A   1      41.160  27.924  27.090  1.00  0.00     0.029 A 
ATOM     51  C   UNL A   1      42.182  27.239  27.842  1.00  0.00     0.049 A 
ATOM     52  H   UNL A   1      42.993  27.923  29.688  1.00  0.00     0.167 HD
ATOM     53  C   UNL A   1      43.594  28.882  33.706  1.00  0.00     0.034 A 
ATOM     54  C   UNL A   1      42.942  26.190  27.379  1.00  0.00     0.034 A 
ATOM     55  C   UNL A   1      44.588  29.443  32.823  1.00  0.00     0.049 A 
ATOM     56  C   UNL A   1      44.209  26.268  28.108  1.00  0.00     0.074 A 
ATOM     57  C   UNL A   1      45.052  30.713  32.548  1.00  0.00     0.029 A 
ATOM     58  N   UNL A   1      44.859  28.663  31.729  1.00  0.00    -0.354 N 
ATOM     59  N   UNL A   1      45.110  27.172  27.861  1.00  0.00    -0.248 NA
ATOM     60  C   UNL A   1      44.338  25.546  29.362  1.00  0.00     0.031 C 
ATOM     61  C   UNL A   1      45.530  30.687  31.213  1.00  0.00     0.029 A 
ATOM     62  C   UNL A   1      45.466  29.381  30.737  1.00  0.00     0.049 A 
ATOM     63  H   UNL A   1      44.643  27.704  31.666  1.00  0.00     0.167 HD
ATOM     64  C   UNL A   1      45.535  27.506  29.127  1.00  0.00     0.074 A 
ATOM     65  C   UNL A   1      45.189  26.369  29.975  1.00  0.00     0.031 C 
ATOM     66  C   UNL A   1      45.723  28.817  29.434  1.00  0.00     0.034 A 
BRANCH  53  67
ATOM     67  C   UNL A   1      43.814  27.533  34.356  1.00  0.00     0.023 A 
ATOM     68  C   UNL A   1      43.511  26.399  33.579  1.00  0.00     0.012 A 
ATOM     69  C   UNL A   1      44.064  27.314  35.734  1.00  0.00     0.148 A 
ATOM     70  C   UNL A   1      43.483  25.118  34.137  1.00  0.00     0.002 A 
ATOM     71  C   UNL A   1      44.130  26.034  36.265  1.00  0.00     0.091 A 
ATOM     72  F   UNL A   1      44.102  28.343  36.583  1.00  0.00    -0.205 F 
ATOM     73  C   UNL A   1      43.816  24.930  35.474  1.00  0.00     0.022 A 
BRANCH  71  74
ATOM     74  S   UNL A   1      44.607  25.741  37.975  1.00  0.00     0.127 S 
ATOM     75  O   UNL A   1      44.701  24.285  38.011  1.00  0.00    -0.237 OA
ATOM     76  O   UNL A   1      45.885  26.449  38.047  1.00  0.00    -0.237 OA
ATOM     77  O   UNL A   1      43.551  26.329  38.789  1.00  0.00    -0.744 OA
ENDBRANCH  71  74
ENDBRANCH  53  67
BRANCH  54  78
ATOM     78  C   UNL A   1      42.789  25.055  26.392  1.00  0.00     0.023 A 
ATOM     79  C   UNL A   1      43.712  24.918  25.313  1.00  0.00     0.012 A 
ATOM     80  C   UNL A   1      42.004  23.926  26.696  1.00  0.00     0.148 A 
ATOM     81  C   UNL A   1      43.916  23.695  24.648  1.00  0.00     0.002 A 
ATOM     82  C   UNL A   1      42.221  22.705  26.041  1.00  0.00     0.091 A 
ATOM     83  F   UNL A   1      41.107  24.028  27.683  1.00  0.00    -0.205 F 
ATOM     84  C   UNL A   1      43.189  22.578  25.033  1.00  0.00     0.022 A 
BRANCH  82  85
ATOM     85  S   UNL A   1      41.371  21.190  26.520  1.00  0.00     0.127 S 
ATOM     86  O   UNL A   1      42.070  20.179  25.726  1.00  0.00    -0.237 OA
ATOM     87  O   UNL A   1      41.642  21.135  27.954  1.00  0.00    -0.237 OA
ATOM     88  O   UNL A   1      39.976  21.390  26.147  1.00  0.00    -0.744 OA
ENDBRANCH  82  85
ENDBRANCH  54  78
BRANCH  66  89
ATOM     89  C   UNL A   1      46.123  29.754  28.332  1.00  0.00     0.023 A 
ATOM     90  C   UNL A   1      45.238  30.595  27.631  1.00  0.00     0.012 A 
ATOM     91  C   UNL A   1      47.502  29.854  28.087  1.00  0.00     0.148 A 
ATOM     92  C   UNL A   1      45.731  31.521  26.705  1.00  0.00     0.002 A 
ATOM     93  C   UNL A   1      47.990  30.808  27.213  1.00  0.00     0.091 A 
ATOM     94  F   UNL A   1      48.320  29.019  28.747  1.00  0.00    -0.205 F 
ATOM     95  C   UNL A   1      47.109  31.642  26.511  1.00  0.00     0.022 A 
BRANCH  93  96
ATOM     96  S   UNL A   1      49.753  31.072  27.030  1.00  0.00     0.127 S 
ATOM     97  O   UNL A   1      50.180  31.245  28.417  1.00  0.00    -0.237 OA
ATOM     98  O   UNL A   1      50.192  29.825  26.402  1.00  0.00    -0.237 OA
ATOM     99  O   UNL A   1      49.897  32.247  26.179  1.00  0.00    -0.744 OA
ENDBRANCH  93  96
ENDBRANCH  66  89
ENDBRANCH  40  41
ENDBRANCH  33  35
ENDBRANCH  32  33
ENDBRANCH  31  32
ENDBRANCH  30  31
ENDBRANCH  29  30
ENDBRANCH  28  29
ENDBRANCH   1  28
TORSDOF 23
ENDMDL
MODEL 2
REMARK VINA RESULT:      -9.9      1.795      2.078
REMARK SMILES Cc1sc(NC(=O)[C@@H]2[C@@H](C(=O)OCCOCCOCCOC(=O)c3ccc(-c4c5nc(c(-c6cccc(S(=O)(=O)[O-])c6F)c6ccc([nH]6)c(-c6cccc(S(=O)(=O)[O-])c6F)c6nc(c(-c7cccc(S(=O)(=O)[O-])c7F)c7ccc4[nH]7)C=C6)C=C5)cc3)[C@@H]3C=C[C@H]2C3)c(C#N)c1C
REMARK SMILES IDX 16 1 15 2 14 3 13 4 12 5 10 6 11 7 9 8 8 9 90 10 87 11 89 12
REMARK SMILES IDX 91 13 88 14 6 15 5 16 7 18 4 19 1 20 2 21 3 22 95 23 92 24
REMARK SMILES IDX 96 25 93 26 94 27 17 28 18 29 19 30 20 31 21 32 22 33 23 34
REMARK SMILES IDX 24 35 25 36 86 37 26 38 85 39 27 40 28 41 29 42 79 43 30 44
REMARK SMILES IDX 84 45 78 46 80 47 31 48 83 49 77 50 76 51 32 53 64 54 44 55
REMARK SMILES IDX 63 56 45 57 48 58 62 59 81 60 46 61 47 62 61 64 82 65 49 66
REMARK SMILES IDX 33 67 34 68 42 69 35 70 37 71 43 72 36 73 38 74 39 75 40 76
REMARK SMILES IDX 41 77 65 78 66 79 74 80 67 81 69 82 75 83 68 84 70 85 71 86
REMARK SMILES IDX 72 87 73 88 50 89 51 90 59 91 52 92 54 93 60 94 53 95 55 96
REMARK SMILES IDX 56 97 57 98 58 99
REMARK H PARENT 5 17 80 52 48 63
REMARK Flexibility Score: inf
ROOT
ATOM      1  C   UNL A   1      32.141  29.578  26.529  1.00  0.00     0.188 C 
ENDROOT
BRANCH   1   2
ATOM      2  O   UNL A   1      32.448  28.694  25.492  1.00  0.00    -0.376 OA
BRANCH   2   3
ATOM      3  C   UNL A   1      33.540  27.824  25.671  1.00  0.00     0.202 C 
BRANCH   3   4
ATOM      4  C   UNL A   1      33.406  26.278  25.684  1.00  0.00     0.261 C 
BRANCH   4   5
ATOM      5  O   UNL A   1      34.496  25.483  26.214  1.00  0.00    -0.463 OA
BRANCH   5   6
ATOM      6  C   UNL A   1      34.943  24.448  25.445  1.00  0.00     0.310 C 
ATOM      7  O   UNL A   1      36.078  24.427  24.985  1.00  0.00    -0.252 OA
BRANCH   6   8
ATOM      8  C   UNL A   1      33.890  23.304  25.271  1.00  0.00     0.119 C 
ATOM      9  C   UNL A   1      32.693  23.011  26.429  1.00  0.00     0.100 C 
ATOM     10  C   UNL A   1      33.225  21.616  26.938  1.00  0.00     0.025 C 
ATOM     11  C   UNL A   1      34.811  22.063  25.398  1.00  0.00     0.027 C 
ATOM     12  C   UNL A   1      33.153  20.566  25.839  1.00  0.00    -0.027 C 
ATOM     13  C   UNL A   1      34.750  21.802  26.908  1.00  0.00     0.017 C 
ATOM     14  C   UNL A   1      34.082  20.851  24.916  1.00  0.00    -0.027 C 
BRANCH   9  15
ATOM     15  C   UNL A   1      31.164  22.885  25.925  1.00  0.00     0.229 C 
ATOM     16  N   UNL A   1      30.287  23.852  25.371  1.00  0.00    -0.316 N 
ATOM     17  H   UNL A   1      29.491  24.044  25.919  1.00  0.00     0.170 HD
ATOM     18  O   UNL A   1      30.590  21.812  26.195  1.00  0.00    -0.274 OA
BRANCH  16  19
ATOM     19  C   UNL A   1      30.361  24.611  24.132  1.00  0.00     0.113 A 
ATOM     20  C   UNL A   1      29.907  29.010  22.712  1.00  0.00     0.057 C 
ATOM     21  C   UNL A   1      30.539  27.591  22.648  1.00  0.00     0.008 A 
ATOM     22  S   UNL A   1      29.202  26.506  24.217  1.00  0.00    -0.122 S 
ATOM     23  C   UNL A   1      31.915  26.273  22.005  1.00  0.00    -0.017 A 
ATOM     24  C   UNL A   1      31.559  24.560  22.902  1.00  0.00     0.090 A 
ATOM     25  C   UNL A   1      33.145  26.160  21.065  1.00  0.00     0.047 C 
BRANCH  24  26
ATOM     26  C   UNL A   1      32.116  23.317  22.447  1.00  0.00     0.103 C 
ATOM     27  N   UNL A   1      32.524  22.262  22.185  1.00  0.00    -0.192 NA
ENDBRANCH  24  26
ENDBRANCH  16  19
ENDBRANCH   9  15
ENDBRANCH   6   8
ENDBRANCH   5   6
ENDBRANCH   4   5
ENDBRANCH   3   4
ENDBRANCH   2   3
ENDBRANCH   1   2
BRANCH   1  28
ATOM     28  C   UNL A   1      31.798  31.069  26.215  1.00  0.00     0.188 C 
BRANCH  28  29
ATOM     29  O   UNL A   1      31.822  32.044  27.232  1.00  0.00    -0.376 OA
BRANCH  29  30
ATOM     30  C   UNL A   1      32.917  32.885  27.549  1.00  0.00     0.202 C 
BRANCH  30  31
ATOM     31  C   UNL A   1      34.048  32.627  28.556  1.00  0.00     0.261 C 
BRANCH  31  32
ATOM     32  O   UNL A   1      34.561  31.308  28.571  1.00  0.00    -0.460 OA
BRANCH  32  33
ATOM     33  C   UNL A   1      35.892  31.377  28.681  1.00  0.00     0.338 C 
ATOM     34  O   UNL A   1      36.642  31.999  27.937  1.00  0.00    -0.246 OA
BRANCH  33  35
ATOM     35  C   UNL A   1      36.402  30.677  29.873  1.00  0.00     0.060 A 
ATOM     36  C   UNL A   1      37.165  31.832  31.010  1.00  0.00     0.016 A 
ATOM     37  C   UNL A   1      37.232  29.269  29.429  1.00  0.00     0.016 A 
ATOM     38  C   UNL A   1      39.123  31.476  31.599  1.00  0.00     0.010 A 
ATOM     39  C   UNL A   1      38.855  28.941  29.876  1.00  0.00     0.010 A 
ATOM     40  C   UNL A   1      39.880  30.000  30.814  1.00  0.00    -0.014 A 
BRANCH  40  41
ATOM     41  C   UNL A   1      41.286  29.477  30.644  1.00  0.00     0.031 A 
ATOM     42  C   UNL A   1      41.756  29.214  32.012  1.00  0.00     0.074 A 
ATOM     43  C   UNL A   1      41.858  28.901  29.504  1.00  0.00     0.049 A 
ATOM     44  N   UNL A   1      42.664  29.884  32.641  1.00  0.00    -0.248 NA
ATOM     45  C   UNL A   1      40.964  28.330  32.895  1.00  0.00     0.031 C 
ATOM     46  C   UNL A   1      41.412  28.971  28.095  1.00  0.00     0.029 A 
ATOM     47  N   UNL A   1      42.920  28.008  29.310  1.00  0.00    -0.354 N 
ATOM     48  C   UNL A   1      42.831  29.144  33.802  1.00  0.00     0.074 A 
ATOM     49  C   UNL A   1      41.566  28.525  34.071  1.00  0.00     0.031 C 
ATOM     50  C   UNL A   1      41.881  27.959  27.328  1.00  0.00     0.029 A 
ATOM     51  C   UNL A   1      42.908  27.275  28.075  1.00  0.00     0.049 A 
ATOM     52  H   UNL A   1      43.632  27.888  29.981  1.00  0.00     0.167 HD
ATOM     53  C   UNL A   1      44.067  28.641  34.063  1.00  0.00     0.034 A 
ATOM     54  C   UNL A   1      43.728  26.289  27.579  1.00  0.00     0.034 A 
ATOM     55  C   UNL A   1      45.062  29.293  33.246  1.00  0.00     0.049 A 
ATOM     56  C   UNL A   1      44.967  26.378  28.353  1.00  0.00     0.074 A 
ATOM     57  C   UNL A   1      45.477  30.596  33.058  1.00  0.00     0.029 A 
ATOM     58  N   UNL A   1      45.401  28.589  32.120  1.00  0.00    -0.354 N 
ATOM     59  N   UNL A   1      45.834  27.332  28.185  1.00  0.00    -0.248 NA
ATOM     60  C   UNL A   1      45.090  25.592  29.567  1.00  0.00     0.031 C 
ATOM     61  C   UNL A   1      45.997  30.665  31.739  1.00  0.00     0.029 A 
ATOM     62  C   UNL A   1      46.005  29.388  31.190  1.00  0.00     0.049 A 
ATOM     63  H   UNL A   1      45.229  27.627  31.997  1.00  0.00     0.167 HD
ATOM     64  C   UNL A   1      46.205  27.612  29.481  1.00  0.00     0.074 A 
ATOM     65  C   UNL A   1      45.885  26.415  30.253  1.00  0.00     0.031 C 
ATOM     66  C   UNL A   1      46.326  28.910  29.867  1.00  0.00     0.034 A 
BRANCH  53  67
ATOM     67  C   UNL A   1      44.327  27.268  34.645  1.00  0.00     0.023 A 
ATOM     68  C   UNL A   1      45.046  27.220  35.854  1.00  0.00     0.012 A 
ATOM     69  C   UNL A   1      44.125  26.037  33.972  1.00  0.00     0.148 A 
ATOM     70  C   UNL A   1      45.516  26.010  36.376  1.00  0.00     0.002 A 
ATOM     71  C   UNL A   1      44.508  24.829  34.539  1.00  0.00     0.091 A 
ATOM     72  F   UNL A   1      43.689  26.022  32.711  1.00  0.00    -0.205 F 
ATOM     73  C   UNL A   1      45.227  24.811  35.733  1.00  0.00     0.022 A 
BRANCH  71  74
ATOM     74  S   UNL A   1      44.110  23.253  33.768  1.00  0.00     0.127 S 
ATOM     75  O   UNL A   1      42.733  23.049  34.203  1.00  0.00    -0.237 OA
ATOM     76  O   UNL A   1      44.275  23.572  32.350  1.00  0.00    -0.237 OA
ATOM     77  O   UNL A   1      45.086  22.300  34.283  1.00  0.00    -0.744 OA
ENDBRANCH  71  74
ENDBRANCH  53  67
BRANCH  54  78
ATOM     78  C   UNL A   1      43.656  25.205  26.526  1.00  0.00     0.023 A 
ATOM     79  C   UNL A   1      44.690  25.088  25.550  1.00  0.00     0.012 A 
ATOM     80  C   UNL A   1      42.810  24.091  26.685  1.00  0.00     0.148 A 
ATOM     81  C   UNL A   1      44.933  23.891  24.852  1.00  0.00     0.002 A 
ATOM     82  C   UNL A   1      43.065  22.894  25.997  1.00  0.00     0.091 A 
ATOM     83  F   UNL A   1      41.811  24.176  27.569  1.00  0.00    -0.205 F 
ATOM     84  C   UNL A   1      44.136  22.782  25.099  1.00  0.00     0.022 A 
BRANCH  82  85
ATOM     85  S   UNL A   1      42.124  21.389  26.303  1.00  0.00     0.127 S 
ATOM     86  O   UNL A   1      42.369  21.156  27.727  1.00  0.00    -0.237 OA
ATOM     87  O   UNL A   1      40.765  21.813  25.980  1.00  0.00    -0.237 OA
ATOM     88  O   UNL A   1      42.699  20.382  25.421  1.00  0.00    -0.744 OA
ENDBRANCH  82  85
ENDBRANCH  54  78
BRANCH  66  89
ATOM     89  C   UNL A   1      46.717  29.924  28.833  1.00  0.00     0.023 A 
ATOM     90  C   UNL A   1      48.023  30.101  28.335  1.00  0.00     0.012 A 
ATOM     91  C   UNL A   1      45.662  30.653  28.262  1.00  0.00     0.148 A 
ATOM     92  C   UNL A   1      48.260  30.992  27.281  1.00  0.00     0.002 A 
ATOM     93  C   UNL A   1      45.890  31.489  27.184  1.00  0.00     0.091 A 
ATOM     94  F   UNL A   1      44.433  30.487  28.776  1.00  0.00    -0.205 F 
ATOM     95  C   UNL A   1      47.191  31.671  26.692  1.00  0.00     0.022 A 
BRANCH  93  96
ATOM     96  S   UNL A   1      44.530  32.281  26.329  1.00  0.00     0.127 S 
ATOM     97  O   UNL A   1      44.064  33.244  27.324  1.00  0.00    -0.237 OA
ATOM     98  O   UNL A   1      45.193  32.871  25.165  1.00  0.00    -0.237 OA
ATOM     99  O   UNL A   1      43.589  31.217  25.999  1.00  0.00    -0.744 OA
ENDBRANCH  93  96
ENDBRANCH  66  89
ENDBRANCH  40  41
ENDBRANCH  33  35
ENDBRANCH  32  33
ENDBRANCH  31  32
ENDBRANCH  30  31
ENDBRANCH  29  30
ENDBRANCH  28  29
ENDBRANCH   1  28
TORSDOF 23
ENDMDL
MODEL 3
REMARK VINA RESULT:      -9.7      1.812      2.260
REMARK SMILES Cc1sc(NC(=O)[C@@H]2[C@@H](C(=O)OCCOCCOCCOC(=O)c3ccc(-c4c5nc(c(-c6cccc(S(=O)(=O)[O-])c6F)c6ccc([nH]6)c(-c6cccc(S(=O)(=O)[O-])c6F)c6nc(c(-c7cccc(S(=O)(=O)[O-])c7F)c7ccc4[nH]7)C=C6)C=C5)cc3)[C@@H]3C=C[C@H]2C3)c(C#N)c1C
REMARK SMILES IDX 16 1 15 2 14 3 13 4 12 5 10 6 11 7 9 8 8 9 90 10 87 11 89 12
REMARK SMILES IDX 91 13 88 14 6 15 5 16 7 18 4 19 1 20 2 21 3 22 95 23 92 24
REMARK SMILES IDX 96 25 93 26 94 27 17 28 18 29 19 30 20 31 21 32 22 33 23 34
REMARK SMILES IDX 24 35 25 36 86 37 26 38 85 39 27 40 28 41 29 42 79 43 30 44
REMARK SMILES IDX 84 45 78 46 80 47 31 48 83 49 77 50 76 51 32 53 64 54 44 55
REMARK SMILES IDX 63 56 45 57 48 58 62 59 81 60 46 61 47 62 61 64 82 65 49 66
REMARK SMILES IDX 33 67 34 68 42 69 35 70 37 71 43 72 36 73 38 74 39 75 40 76
REMARK SMILES IDX 41 77 65 78 66 79 74 80 67 81 69 82 75 83 68 84 70 85 71 86
REMARK SMILES IDX 72 87 73 88 50 89 51 90 59 91 52 92 54 93 60 94 53 95 55 96
REMARK SMILES IDX 56 97 57 98 58 99
REMARK H PARENT 5 17 80 52 48 63
REMARK Flexibility Score: inf
ROOT
ATOM      1  C   UNL A   1      33.477  29.589  26.509  1.00  0.00     0.188 C 
ENDROOT
BRANCH   1   2
ATOM      2  O   UNL A   1      32.808  28.366  26.596  1.00  0.00    -0.376 OA
BRANCH   2   3
ATOM      3  C   UNL A   1      32.971  27.449  25.540  1.00  0.00     0.202 C 
BRANCH   3   4
ATOM      4  C   UNL A   1      33.159  25.924  25.756  1.00  0.00     0.261 C 
BRANCH   4   5
ATOM      5  O   UNL A   1      34.465  25.424  26.136  1.00  0.00    -0.463 OA
BRANCH   5   6
ATOM      6  C   UNL A   1      34.960  24.372  25.422  1.00  0.00     0.310 C 
ATOM      7  O   UNL A   1      36.121  24.346  25.028  1.00  0.00    -0.252 OA
BRANCH   6   8
ATOM      8  C   UNL A   1      33.925  23.216  25.220  1.00  0.00     0.119 C 
ATOM      9  C   UNL A   1      32.738  22.871  26.373  1.00  0.00     0.100 C 
ATOM     10  C   UNL A   1      33.294  21.471  26.841  1.00  0.00     0.025 C 
ATOM     11  C   UNL A   1      34.867  21.987  25.308  1.00  0.00     0.027 C 
ATOM     12  C   UNL A   1      33.234  20.452  25.713  1.00  0.00    -0.027 C 
ATOM     13  C   UNL A   1      34.815  21.683  26.811  1.00  0.00     0.017 C 
ATOM     14  C   UNL A   1      34.155  20.778  24.795  1.00  0.00    -0.027 C 
BRANCH   9  15
ATOM     15  C   UNL A   1      31.209  22.736  25.871  1.00  0.00     0.229 C 
ATOM     16  N   UNL A   1      30.322  23.699  25.328  1.00  0.00    -0.316 N 
ATOM     17  H   UNL A   1      29.525  23.878  25.879  1.00  0.00     0.170 HD
ATOM     18  O   UNL A   1      30.646  21.655  26.133  1.00  0.00    -0.274 OA
BRANCH  16  19
ATOM     19  C   UNL A   1      30.386  24.469  24.095  1.00  0.00     0.113 A 
ATOM     20  C   UNL A   1      29.865  28.871  22.710  1.00  0.00     0.057 C 
ATOM     21  C   UNL A   1      30.519  27.464  22.635  1.00  0.00     0.008 A 
ATOM     22  S   UNL A   1      29.196  26.344  24.193  1.00  0.00    -0.122 S 
ATOM     23  C   UNL A   1      31.917  26.173  21.984  1.00  0.00    -0.017 A 
ATOM     24  C   UNL A   1      31.587  24.447  22.867  1.00  0.00     0.090 A 
ATOM     25  C   UNL A   1      33.150  26.088  21.046  1.00  0.00     0.047 C 
BRANCH  24  26
ATOM     26  C   UNL A   1      32.164  23.217  22.402  1.00  0.00     0.103 C 
ATOM     27  N   UNL A   1      32.621  22.270  21.911  1.00  0.00    -0.192 NA
ENDBRANCH  24  26
ENDBRANCH  16  19
ENDBRANCH   9  15
ENDBRANCH   6   8
ENDBRANCH   5   6
ENDBRANCH   4   5
ENDBRANCH   3   4
ENDBRANCH   2   3
ENDBRANCH   1   2
BRANCH   1  28
ATOM     28  C   UNL A   1      32.673  30.913  26.317  1.00  0.00     0.188 C 
BRANCH  28  29
ATOM     29  O   UNL A   1      32.491  31.808  27.390  1.00  0.00    -0.376 OA
BRANCH  29  30
ATOM     30  C   UNL A   1      33.503  32.586  28.003  1.00  0.00     0.202 C 
BRANCH  30  31
ATOM     31  C   UNL A   1      34.731  32.095  28.784  1.00  0.00     0.261 C 
BRANCH  31  32
ATOM     32  O   UNL A   1      35.936  32.028  28.046  1.00  0.00    -0.460 OA
BRANCH  32  33
ATOM     33  C   UNL A   1      36.531  30.862  28.319  1.00  0.00     0.338 C 
ATOM     34  O   UNL A   1      36.705  29.943  27.528  1.00  0.00    -0.246 OA
BRANCH  33  35
ATOM     35  C   UNL A   1      37.056  30.799  29.695  1.00  0.00     0.060 A 
ATOM     36  C   UNL A   1      38.159  32.173  30.017  1.00  0.00     0.016 A 
ATOM     37  C   UNL A   1      37.551  29.224  30.074  1.00  0.00     0.016 A 
ATOM     38  C   UNL A   1      40.079  31.751  30.682  1.00  0.00     0.010 A 
ATOM     39  C   UNL A   1      39.130  28.825  30.609  1.00  0.00     0.010 A 
ATOM     40  C   UNL A   1      40.445  29.958  30.812  1.00  0.00    -0.014 A 
BRANCH  40  41
ATOM     41  C   UNL A   1      41.697  29.124  30.937  1.00  0.00     0.031 A 
ATOM     42  C   UNL A   1      42.024  29.149  32.369  1.00  0.00     0.074 A 
ATOM     43  C   UNL A   1      42.177  28.154  30.049  1.00  0.00     0.049 A 
ATOM     44  N   UNL A   1      43.029  29.757  32.905  1.00  0.00    -0.248 NA
ATOM     45  C   UNL A   1      41.004  28.724  33.354  1.00  0.00     0.031 C 
ATOM     46  C   UNL A   1      41.831  27.932  28.627  1.00  0.00     0.029 A 
ATOM     47  N   UNL A   1      43.011  27.039  30.205  1.00  0.00    -0.354 N 
ATOM     48  C   UNL A   1      42.961  29.341  34.227  1.00  0.00     0.074 A 
ATOM     49  C   UNL A   1      41.575  29.099  34.502  1.00  0.00     0.031 C 
ATOM     50  C   UNL A   1      42.090  26.675  28.198  1.00  0.00     0.029 A 
ATOM     51  C   UNL A   1      42.891  26.019  29.201  1.00  0.00     0.049 A 
ATOM     52  H   UNL A   1      43.640  26.958  30.959  1.00  0.00     0.167 HD
ATOM     53  C   UNL A   1      44.032  28.679  34.741  1.00  0.00     0.034 A 
ATOM     54  C   UNL A   1      43.483  24.785  29.064  1.00  0.00     0.034 A 
ATOM     55  C   UNL A   1      45.191  28.860  33.901  1.00  0.00     0.049 A 
ATOM     56  C   UNL A   1      44.669  24.817  29.922  1.00  0.00     0.074 A 
ATOM     57  C   UNL A   1      45.906  29.945  33.437  1.00  0.00     0.029 A 
ATOM     58  N   UNL A   1      45.413  27.823  33.034  1.00  0.00    -0.354 N 
ATOM     59  N   UNL A   1      45.741  25.485  29.617  1.00  0.00    -0.248 NA
ATOM     60  C   UNL A   1      44.544  24.382  31.302  1.00  0.00     0.031 C 
ATOM     61  C   UNL A   1      46.494  29.544  32.210  1.00  0.00     0.029 A 
ATOM     62  C   UNL A   1      46.232  28.194  32.005  1.00  0.00     0.049 A 
ATOM     63  H   UNL A   1      45.029  26.922  33.139  1.00  0.00     0.167 HD
ATOM     64  C   UNL A   1      46.101  26.021  30.833  1.00  0.00     0.074 A 
ATOM     65  C   UNL A   1      45.472  25.173  31.841  1.00  0.00     0.031 C 
ATOM     66  C   UNL A   1      46.500  27.319  30.889  1.00  0.00     0.034 A 
BRANCH  53  67
ATOM     67  C   UNL A   1      43.935  27.492  35.676  1.00  0.00     0.023 A 
ATOM     68  C   UNL A   1      43.062  26.457  35.294  1.00  0.00     0.012 A 
ATOM     69  C   UNL A   1      44.453  27.437  36.993  1.00  0.00     0.148 A 
ATOM     70  C   UNL A   1      42.741  25.413  36.168  1.00  0.00     0.002 A 
ATOM     71  C   UNL A   1      44.210  26.353  37.824  1.00  0.00     0.091 A 
ATOM     72  F   UNL A   1      45.072  28.497  37.519  1.00  0.00    -0.205 F 
ATOM     73  C   UNL A   1      43.333  25.346  37.425  1.00  0.00     0.022 A 
BRANCH  71  74
ATOM     74  S   UNL A   1      44.995  26.199  39.437  1.00  0.00     0.127 S 
ATOM     75  O   UNL A   1      43.933  26.653  40.328  1.00  0.00    -0.237 OA
ATOM     76  O   UNL A   1      45.280  24.765  39.486  1.00  0.00    -0.237 OA
ATOM     77  O   UNL A   1      46.183  27.043  39.383  1.00  0.00    -0.744 OA
ENDBRANCH  71  74
ENDBRANCH  53  67
BRANCH  54  78
ATOM     78  C   UNL A   1      43.215  23.497  28.318  1.00  0.00     0.023 A 
ATOM     79  C   UNL A   1      41.896  22.953  28.285  1.00  0.00     0.012 A 
ATOM     80  C   UNL A   1      44.122  23.008  27.359  1.00  0.00     0.148 A 
ATOM     81  C   UNL A   1      41.478  22.055  27.286  1.00  0.00     0.002 A 
ATOM     82  C   UNL A   1      43.697  22.124  26.356  1.00  0.00     0.091 A 
ATOM     83  F   UNL A   1      45.376  23.473  27.380  1.00  0.00    -0.205 F 
ATOM     84  C   UNL A   1      42.373  21.663  26.302  1.00  0.00     0.022 A 
BRANCH  82  85
ATOM     85  S   UNL A   1      44.771  21.614  25.003  1.00  0.00     0.127 S 
ATOM     86  O   UNL A   1      44.004  20.528  24.392  1.00  0.00    -0.237 OA
ATOM     87  O   UNL A   1      44.845  22.833  24.202  1.00  0.00    -0.237 OA
ATOM     88  O   UNL A   1      46.017  21.193  25.629  1.00  0.00    -0.744 OA
ENDBRANCH  82  85
ENDBRANCH  54  78
BRANCH  66  89
ATOM     89  C   UNL A   1      47.169  27.909  29.682  1.00  0.00     0.023 A 
ATOM     90  C   UNL A   1      48.504  27.668  29.305  1.00  0.00     0.012 A 
ATOM     91  C   UNL A   1      46.341  28.659  28.831  1.00  0.00     0.148 A 
ATOM     92  C   UNL A   1      48.995  28.170  28.093  1.00  0.00     0.002 A 
ATOM     93  C   UNL A   1      46.812  29.104  27.609  1.00  0.00     0.091 A 
ATOM     94  F   UNL A   1      45.082  28.899  29.230  1.00  0.00    -0.205 F 
ATOM     95  C   UNL A   1      48.144  28.869  27.236  1.00  0.00     0.022 A 
BRANCH  93  96
ATOM     96  S   UNL A   1      45.717  29.899  26.435  1.00  0.00     0.127 S 
ATOM     97  O   UNL A   1      45.273  31.073  27.181  1.00  0.00    -0.237 OA
ATOM     98  O   UNL A   1      46.616  30.184  25.315  1.00  0.00    -0.237 OA
ATOM     99  O   UNL A   1      44.680  28.921  26.128  1.00  0.00    -0.744 OA
ENDBRANCH  93  96
ENDBRANCH  66  89
ENDBRANCH  40  41
ENDBRANCH  33  35
ENDBRANCH  32  33
ENDBRANCH  31  32
ENDBRANCH  30  31
ENDBRANCH  29  30
ENDBRANCH  28  29
ENDBRANCH   1  28
TORSDOF 23
ENDMDL
