MODEL 1
REMARK VINA RESULT:     -10.1      0.000      0.000
REMARK SMILES Cc1cc(C)nc(N2CCCC[C@H]2C(=O)OCCOCCOCCOC(=O)c2ccc(-c3c4nc(c(-c5cccc(S(=O)(=O)[O-])c5F)c5ccc([nH]5)c(-c5cccc(S(=O)(=O)[O-])c5F)c5nc(c(-c6cccc(S(=O)(=O)[O-])c6F)c6ccc3[nH]6)C=C5)C=C4)cc2)n1
REMARK SMILES IDX 21 1 20 2 19 3 18 4 17 5 16 6 14 7 15 8 13 9 8 10 9 11 10 12
REMARK SMILES IDX 12 13 11 14 7 15 1 16 2 17 3 18 91 19 4 20 5 21 6 22 22 23
REMARK SMILES IDX 23 24 24 25 25 26 26 27 27 28 28 29 29 30 90 31 30 32 89 33
REMARK SMILES IDX 31 34 32 35 33 36 83 37 34 38 88 39 82 40 84 41 35 42 87 43
REMARK SMILES IDX 81 44 80 45 36 47 68 48 48 49 67 50 49 51 52 52 66 53 85 54
REMARK SMILES IDX 50 55 51 56 65 58 86 59 53 60 37 61 38 62 46 63 39 64 41 65
REMARK SMILES IDX 47 66 40 67 42 68 43 69 44 70 45 71 69 72 70 73 78 74 71 75
REMARK SMILES IDX 73 76 79 77 72 78 74 79 75 80 76 81 77 82 54 83 55 84 63 85
REMARK SMILES IDX 56 86 58 87 64 88 57 89 59 90 60 91 61 92 62 93
REMARK H PARENT 84 46 52 57
REMARK Flexibility Score: inf
ROOT
ATOM      1  C   UNL A   1      31.505  30.092  24.823  1.00  0.00     0.188 C 
ENDROOT
BRANCH   1   2
ATOM      2  C   UNL A   1      32.414  28.963  25.363  1.00  0.00     0.188 C 
BRANCH   2   3
ATOM      3  O   UNL A   1      32.779  28.022  24.368  1.00  0.00    -0.376 OA
BRANCH   3   4
ATOM      4  C   UNL A   1      34.000  27.325  24.570  1.00  0.00     0.202 C 
BRANCH   4   5
ATOM      5  C   UNL A   1      34.003  26.085  25.482  1.00  0.00     0.261 C 
BRANCH   5   6
ATOM      6  O   UNL A   1      34.362  24.862  24.832  1.00  0.00    -0.462 OA
BRANCH   6   7
ATOM      7  C   UNL A   1      34.440  23.732  25.589  1.00  0.00     0.328 C 
ATOM      8  O   UNL A   1      35.468  23.342  26.128  1.00  0.00    -0.250 OA
BRANCH   7   9
ATOM      9  C   UNL A   1      33.040  23.078  25.720  1.00  0.00     0.195 C 
ATOM     10  N   UNL A   1      32.538  22.573  24.448  1.00  0.00    -0.327 N 
ATOM     11  C   UNL A   1      33.252  21.480  23.826  1.00  0.00     0.120 C 
ATOM     12  C   UNL A   1      33.456  20.326  24.826  1.00  0.00     0.022 C 
ATOM     13  C   UNL A   1      32.989  21.933  26.732  1.00  0.00     0.037 C 
ATOM     14  C   UNL A   1      33.803  20.737  26.262  1.00  0.00     0.005 C 
BRANCH  10  15
ATOM     15  C   UNL A   1      31.858  23.514  23.709  1.00  0.00     0.226 A 
ATOM     16  C   UNL A   1      32.793  25.560  20.813  1.00  0.00     0.067 C 
ATOM     17  C   UNL A   1      32.050  25.097  22.028  1.00  0.00     0.043 A 
ATOM     18  C   UNL A   1      31.082  25.877  22.613  1.00  0.00     0.047 A 
ATOM     19  N   UNL A   1      32.423  23.920  22.557  1.00  0.00    -0.218 NA
ATOM     20  C   UNL A   1      30.513  25.375  23.767  1.00  0.00     0.043 A 
ATOM     21  C   UNL A   1      29.508  26.197  24.515  1.00  0.00     0.067 C 
ATOM     22  N   UNL A   1      30.867  24.187  24.306  1.00  0.00    -0.218 NA
ENDBRANCH  10  15
ENDBRANCH   7   9
ENDBRANCH   6   7
ENDBRANCH   5   6
ENDBRANCH   4   5
ENDBRANCH   3   4
ENDBRANCH   2   3
ENDBRANCH   1   2
BRANCH   1  23
ATOM     23  O   UNL A   1      30.935  31.038  25.714  1.00  0.00    -0.376 OA
BRANCH  23  24
ATOM     24  C   UNL A   1      31.764  31.560  26.742  1.00  0.00     0.202 C 
BRANCH  24  25
ATOM     25  C   UNL A   1      31.865  33.085  26.971  1.00  0.00     0.261 C 
BRANCH  25  26
ATOM     26  O   UNL A   1      32.539  33.527  28.167  1.00  0.00    -0.460 OA
BRANCH  26  27
ATOM     27  C   UNL A   1      33.709  34.191  27.987  1.00  0.00     0.338 C 
ATOM     28  O   UNL A   1      33.841  35.386  27.739  1.00  0.00    -0.246 OA
BRANCH  27  29
ATOM     29  C   UNL A   1      34.852  33.323  28.352  1.00  0.00     0.060 A 
ATOM     30  C   UNL A   1      34.596  32.025  28.827  1.00  0.00     0.016 A 
ATOM     31  C   UNL A   1      36.164  33.790  28.275  1.00  0.00     0.016 A 
ATOM     32  C   UNL A   1      35.642  31.197  29.236  1.00  0.00     0.010 A 
ATOM     33  C   UNL A   1      37.209  32.973  28.723  1.00  0.00     0.010 A 
ATOM     34  C   UNL A   1      36.953  31.685  29.232  1.00  0.00    -0.014 A 
BRANCH  34  35
ATOM     35  C   UNL A   1      38.023  30.936  29.940  1.00  0.00     0.031 A 
ATOM     36  C   UNL A   1      38.337  31.311  31.364  1.00  0.00     0.074 A 
ATOM     37  C   UNL A   1      38.715  29.954  29.335  1.00  0.00     0.049 A 
ATOM     38  N   UNL A   1      39.274  30.857  32.155  1.00  0.00    -0.248 NA
ATOM     39  C   UNL A   1      37.479  32.340  31.975  1.00  0.00     0.031 C 
ATOM     40  C   UNL A   1      38.493  29.474  27.973  1.00  0.00     0.029 A 
ATOM     41  N   UNL A   1      39.774  29.205  29.788  1.00  0.00    -0.354 N 
ATOM     42  C   UNL A   1      39.146  31.572  33.339  1.00  0.00     0.074 A 
ATOM     43  C   UNL A   1      38.042  32.489  33.164  1.00  0.00     0.031 C 
ATOM     44  C   UNL A   1      39.413  28.535  27.687  1.00  0.00     0.029 A 
ATOM     45  C   UNL A   1      40.307  28.370  28.834  1.00  0.00     0.049 A 
ATOM     46  H   UNL A   1      40.119  29.259  30.710  1.00  0.00     0.167 HD
ATOM     47  C   UNL A   1      39.880  31.474  34.474  1.00  0.00     0.034 A 
ATOM     48  C   UNL A   1      41.406  27.590  28.870  1.00  0.00     0.034 A 
ATOM     49  C   UNL A   1      40.970  30.554  34.653  1.00  0.00     0.049 A 
ATOM     50  C   UNL A   1      42.233  27.531  30.131  1.00  0.00     0.074 A 
ATOM     51  C   UNL A   1      41.741  30.347  35.784  1.00  0.00     0.029 A 
ATOM     52  N   UNL A   1      41.461  29.706  33.674  1.00  0.00    -0.354 N 
ATOM     53  N   UNL A   1      42.037  28.132  31.280  1.00  0.00    -0.248 NA
ATOM     54  C   UNL A   1      43.420  26.660  30.109  1.00  0.00     0.031 C 
ATOM     55  C   UNL A   1      42.726  29.403  35.474  1.00  0.00     0.029 A 
ATOM     56  C   UNL A   1      42.537  28.987  34.167  1.00  0.00     0.049 A 
ATOM     57  H   UNL A   1      41.097  29.626  32.763  1.00  0.00     0.167 HD
ATOM     58  C   UNL A   1      43.044  27.680  32.127  1.00  0.00     0.074 A 
ATOM     59  C   UNL A   1      43.842  26.743  31.363  1.00  0.00     0.031 C 
ATOM     60  C   UNL A   1      43.293  28.017  33.417  1.00  0.00     0.034 A 
BRANCH  47  61
ATOM     61  C   UNL A   1      39.526  32.389  35.616  1.00  0.00     0.023 A 
ATOM     62  C   UNL A   1      38.720  31.920  36.673  1.00  0.00     0.012 A 
ATOM     63  C   UNL A   1      40.038  33.701  35.666  1.00  0.00     0.148 A 
ATOM     64  C   UNL A   1      38.401  32.753  37.745  1.00  0.00     0.002 A 
ATOM     65  C   UNL A   1      39.755  34.509  36.761  1.00  0.00     0.091 A 
ATOM     66  F   UNL A   1      40.784  34.136  34.641  1.00  0.00    -0.205 F 
ATOM     67  C   UNL A   1      38.927  34.041  37.794  1.00  0.00     0.022 A 
BRANCH  65  68
ATOM     68  S   UNL A   1      40.452  36.152  36.957  1.00  0.00     0.127 S 
ATOM     69  O   UNL A   1      41.884  35.860  37.012  1.00  0.00    -0.237 OA
ATOM     70  O   UNL A   1      40.012  36.819  35.732  1.00  0.00    -0.237 OA
ATOM     71  O   UNL A   1      39.879  36.690  38.182  1.00  0.00    -0.744 OA
ENDBRANCH  65  68
ENDBRANCH  47  61
BRANCH  48  72
ATOM     72  C   UNL A   1      41.792  26.778  27.679  1.00  0.00     0.023 A 
ATOM     73  C   UNL A   1      42.428  27.403  26.589  1.00  0.00     0.012 A 
ATOM     74  C   UNL A   1      41.524  25.397  27.619  1.00  0.00     0.148 A 
ATOM     75  C   UNL A   1      42.758  26.674  25.445  1.00  0.00     0.002 A 
ATOM     76  C   UNL A   1      41.906  24.666  26.499  1.00  0.00     0.091 A 
ATOM     77  F   UNL A   1      40.902  24.825  28.659  1.00  0.00    -0.205 F 
ATOM     78  C   UNL A   1      42.506  25.306  25.404  1.00  0.00     0.022 A 
BRANCH  76  79
ATOM     79  S   UNL A   1      41.728  22.882  26.402  1.00  0.00     0.127 S 
ATOM     80  O   UNL A   1      40.288  22.735  26.204  1.00  0.00    -0.237 OA
ATOM     81  O   UNL A   1      42.548  22.563  25.233  1.00  0.00    -0.237 OA
ATOM     82  O   UNL A   1      42.245  22.364  27.660  1.00  0.00    -0.744 OA
ENDBRANCH  76  79
ENDBRANCH  48  72
BRANCH  60  83
ATOM     83  C   UNL A   1      44.441  27.333  34.119  1.00  0.00     0.023 A 
ATOM     84  C   UNL A   1      45.711  27.940  34.159  1.00  0.00     0.012 A 
ATOM     85  C   UNL A   1      44.234  26.122  34.810  1.00  0.00     0.148 A 
ATOM     86  C   UNL A   1      46.766  27.335  34.844  1.00  0.00     0.002 A 
ATOM     87  C   UNL A   1      45.274  25.552  35.535  1.00  0.00     0.091 A 
ATOM     88  F   UNL A   1      43.022  25.550  34.750  1.00  0.00    -0.205 F 
ATOM     89  C   UNL A   1      46.544  26.149  35.541  1.00  0.00     0.022 A 
BRANCH  87  90
ATOM     90  S   UNL A   1      45.057  24.081  36.545  1.00  0.00     0.127 S 
ATOM     91  O   UNL A   1      46.369  23.956  37.176  1.00  0.00    -0.237 OA
ATOM     92  O   UNL A   1      43.980  24.484  37.450  1.00  0.00    -0.237 OA
ATOM     93  O   UNL A   1      44.704  23.009  35.624  1.00  0.00    -0.744 OA
ENDBRANCH  87  90
ENDBRANCH  60  83
ENDBRANCH  34  35
ENDBRANCH  27  29
ENDBRANCH  26  27
ENDBRANCH  25  26
ENDBRANCH  24  25
ENDBRANCH  23  24
ENDBRANCH   1  23
TORSDOF 21
ENDMDL
MODEL 2
REMARK VINA RESULT:      -9.9      1.681      2.792
REMARK SMILES Cc1cc(C)nc(N2CCCC[C@H]2C(=O)OCCOCCOCCOC(=O)c2ccc(-c3c4nc(c(-c5cccc(S(=O)(=O)[O-])c5F)c5ccc([nH]5)c(-c5cccc(S(=O)(=O)[O-])c5F)c5nc(c(-c6cccc(S(=O)(=O)[O-])c6F)c6ccc3[nH]6)C=C5)C=C4)cc2)n1
REMARK SMILES IDX 21 1 20 2 19 3 18 4 17 5 16 6 14 7 15 8 13 9 8 10 9 11 10 12
REMARK SMILES IDX 12 13 11 14 7 15 1 16 2 17 3 18 91 19 4 20 5 21 6 22 22 23
REMARK SMILES IDX 23 24 24 25 25 26 26 27 27 28 28 29 29 30 90 31 30 32 89 33
REMARK SMILES IDX 31 34 32 35 33 36 83 37 34 38 88 39 82 40 84 41 35 42 87 43
REMARK SMILES IDX 81 44 80 45 36 47 68 48 48 49 67 50 49 51 52 52 66 53 85 54
REMARK SMILES IDX 50 55 51 56 65 58 86 59 53 60 37 61 38 62 46 63 39 64 41 65
REMARK SMILES IDX 47 66 40 67 42 68 43 69 44 70 45 71 69 72 70 73 78 74 71 75
REMARK SMILES IDX 73 76 79 77 72 78 74 79 75 80 76 81 77 82 54 83 55 84 63 85
REMARK SMILES IDX 56 86 58 87 64 88 57 89 59 90 60 91 61 92 62 93
REMARK H PARENT 84 46 52 57
REMARK Flexibility Score: inf
ROOT
ATOM      1  C   UNL A   1      31.937  28.939  23.659  1.00  0.00     0.188 C 
ENDROOT
BRANCH   1   2
ATOM      2  C   UNL A   1      33.304  28.399  24.142  1.00  0.00     0.188 C 
BRANCH   2   3
ATOM      3  O   UNL A   1      33.319  26.990  24.297  1.00  0.00    -0.376 OA
BRANCH   3   4
ATOM      4  C   UNL A   1      33.719  26.496  25.567  1.00  0.00     0.202 C 
BRANCH   4   5
ATOM      5  C   UNL A   1      33.159  25.144  26.045  1.00  0.00     0.261 C 
BRANCH   5   6
ATOM      6  O   UNL A   1      34.146  24.142  26.305  1.00  0.00    -0.462 OA
BRANCH   6   7
ATOM      7  C   UNL A   1      33.838  22.847  26.014  1.00  0.00     0.328 C 
ATOM      8  O   UNL A   1      33.207  22.112  26.763  1.00  0.00    -0.250 OA
BRANCH   7   9
ATOM      9  C   UNL A   1      34.332  22.486  24.590  1.00  0.00     0.195 C 
ATOM     10  N   UNL A   1      35.182  21.303  24.575  1.00  0.00    -0.327 N 
ATOM     11  C   UNL A   1      34.586  20.038  24.946  1.00  0.00     0.120 C 
ATOM     12  C   UNL A   1      33.297  19.790  24.140  1.00  0.00     0.022 C 
ATOM     13  C   UNL A   1      33.201  22.263  23.585  1.00  0.00     0.037 C 
ATOM     14  C   UNL A   1      32.399  21.013  23.916  1.00  0.00     0.005 C 
BRANCH  10  15
ATOM     15  C   UNL A   1      36.512  21.574  24.800  1.00  0.00     0.226 A 
ATOM     16  C   UNL A   1      39.385  19.452  25.631  1.00  0.00     0.067 C 
ATOM     17  C   UNL A   1      38.536  20.677  25.483  1.00  0.00     0.043 A 
ATOM     18  C   UNL A   1      38.920  21.881  26.023  1.00  0.00     0.047 A 
ATOM     19  N   UNL A   1      37.355  20.527  24.862  1.00  0.00    -0.218 NA
ATOM     20  C   UNL A   1      38.026  22.923  25.881  1.00  0.00     0.043 A 
ATOM     21  C   UNL A   1      38.327  24.249  26.511  1.00  0.00     0.067 C 
ATOM     22  N   UNL A   1      36.838  22.793  25.248  1.00  0.00    -0.218 NA
ENDBRANCH  10  15
ENDBRANCH   7   9
ENDBRANCH   6   7
ENDBRANCH   5   6
ENDBRANCH   4   5
ENDBRANCH   3   4
ENDBRANCH   2   3
ENDBRANCH   1   2
BRANCH   1  23
ATOM     23  O   UNL A   1      31.063  29.589  24.568  1.00  0.00    -0.376 OA
BRANCH  23  24
ATOM     24  C   UNL A   1      31.554  29.867  25.871  1.00  0.00     0.202 C 
BRANCH  24  25
ATOM     25  C   UNL A   1      31.914  31.314  26.282  1.00  0.00     0.261 C 
BRANCH  25  26
ATOM     26  O   UNL A   1      32.668  31.482  27.500  1.00  0.00    -0.460 OA
BRANCH  26  27
ATOM     27  C   UNL A   1      33.662  32.405  27.468  1.00  0.00     0.338 C 
ATOM     28  O   UNL A   1      33.533  33.613  27.287  1.00  0.00    -0.246 OA
BRANCH  27  29
ATOM     29  C   UNL A   1      34.939  31.799  27.909  1.00  0.00     0.060 A 
ATOM     30  C   UNL A   1      35.004  30.406  28.089  1.00  0.00     0.016 A 
ATOM     31  C   UNL A   1      36.052  32.590  28.190  1.00  0.00     0.016 A 
ATOM     32  C   UNL A   1      36.171  29.803  28.560  1.00  0.00     0.010 A 
ATOM     33  C   UNL A   1      37.210  31.987  28.700  1.00  0.00     0.010 A 
ATOM     34  C   UNL A   1      37.267  30.597  28.914  1.00  0.00    -0.014 A 
BRANCH  34  35
ATOM     35  C   UNL A   1      38.387  30.007  29.690  1.00  0.00     0.031 A 
ATOM     36  C   UNL A   1      38.575  30.441  31.120  1.00  0.00     0.074 A 
ATOM     37  C   UNL A   1      39.234  29.117  29.142  1.00  0.00     0.049 A 
ATOM     38  N   UNL A   1      39.520  30.127  31.966  1.00  0.00    -0.248 NA
ATOM     39  C   UNL A   1      37.558  31.356  31.665  1.00  0.00     0.031 C 
ATOM     40  C   UNL A   1      39.147  28.591  27.782  1.00  0.00     0.029 A 
ATOM     41  N   UNL A   1      40.356  28.521  29.664  1.00  0.00    -0.354 N 
ATOM     42  C   UNL A   1      39.238  30.836  33.127  1.00  0.00     0.074 A 
ATOM     43  C   UNL A   1      38.033  31.596  32.878  1.00  0.00     0.031 C 
ATOM     44  C   UNL A   1      40.197  27.778  27.562  1.00  0.00     0.029 A 
ATOM     45  C   UNL A   1      41.043  27.750  28.755  1.00  0.00     0.049 A 
ATOM     46  H   UNL A   1      40.642  28.634  30.600  1.00  0.00     0.167 HD
ATOM     47  C   UNL A   1      39.917  30.853  34.299  1.00  0.00     0.034 A 
ATOM     48  C   UNL A   1      42.233  27.123  28.863  1.00  0.00     0.034 A 
ATOM     49  C   UNL A   1      41.109  30.089  34.552  1.00  0.00     0.049 A 
ATOM     50  C   UNL A   1      42.993  27.192  30.165  1.00  0.00     0.074 A 
ATOM     51  C   UNL A   1      41.840  30.002  35.724  1.00  0.00     0.029 A 
ATOM     52  N   UNL A   1      41.757  29.298  33.617  1.00  0.00    -0.354 N 
ATOM     53  N   UNL A   1      42.660  27.779  31.289  1.00  0.00    -0.248 NA
ATOM     54  C   UNL A   1      44.284  26.487  30.221  1.00  0.00     0.031 C 
ATOM     55  C   UNL A   1      42.955  29.193  35.484  1.00  0.00     0.029 A 
ATOM     56  C   UNL A   1      42.891  28.736  34.178  1.00  0.00     0.049 A 
ATOM     57  H   UNL A   1      41.455  29.157  32.691  1.00  0.00     0.167 HD
ATOM     58  C   UNL A   1      43.672  27.478  32.195  1.00  0.00     0.074 A 
ATOM     59  C   UNL A   1      44.625  26.643  31.493  1.00  0.00     0.031 C 
ATOM     60  C   UNL A   1      43.807  27.863  33.489  1.00  0.00     0.034 A 
BRANCH  47  61
ATOM     61  C   UNL A   1      39.387  31.730  35.402  1.00  0.00     0.023 A 
ATOM     62  C   UNL A   1      38.486  31.205  36.350  1.00  0.00     0.012 A 
ATOM     63  C   UNL A   1      39.824  33.064  35.528  1.00  0.00     0.148 A 
ATOM     64  C   UNL A   1      38.002  32.002  37.387  1.00  0.00     0.002 A 
ATOM     65  C   UNL A   1      39.376  33.838  36.592  1.00  0.00     0.091 A 
ATOM     66  F   UNL A   1      40.664  33.551  34.604  1.00  0.00    -0.205 F 
ATOM     67  C   UNL A   1      38.455  33.313  37.513  1.00  0.00     0.022 A 
BRANCH  65  68
ATOM     68  S   UNL A   1      39.963  35.508  36.889  1.00  0.00     0.127 S 
ATOM     69  O   UNL A   1      39.468  36.209  35.704  1.00  0.00    -0.237 OA
ATOM     70  O   UNL A   1      39.279  35.856  38.133  1.00  0.00    -0.237 OA
ATOM     71  O   UNL A   1      41.411  35.414  36.997  1.00  0.00    -0.744 OA
ENDBRANCH  65  68
ENDBRANCH  47  61
BRANCH  48  72
ATOM     72  C   UNL A   1      42.783  26.352  27.711  1.00  0.00     0.023 A 
ATOM     73  C   UNL A   1      43.450  27.033  26.674  1.00  0.00     0.012 A 
ATOM     74  C   UNL A   1      42.642  24.953  27.633  1.00  0.00     0.148 A 
ATOM     75  C   UNL A   1      43.935  26.340  25.564  1.00  0.00     0.002 A 
ATOM     76  C   UNL A   1      43.176  24.262  26.552  1.00  0.00     0.091 A 
ATOM     77  F   UNL A   1      41.989  24.326  28.621  1.00  0.00    -0.205 F 
ATOM     78  C   UNL A   1      43.807  24.956  25.507  1.00  0.00     0.022 A 
BRANCH  76  79
ATOM     79  S   UNL A   1      43.162  22.469  26.447  1.00  0.00     0.127 S 
ATOM     80  O   UNL A   1      42.624  22.097  27.753  1.00  0.00    -0.237 OA
ATOM     81  O   UNL A   1      42.256  22.244  25.320  1.00  0.00    -0.237 OA
ATOM     82  O   UNL A   1      44.541  22.076  26.199  1.00  0.00    -0.744 OA
ENDBRANCH  76  79
ENDBRANCH  48  72
BRANCH  60  83
ATOM     83  C   UNL A   1      44.996  27.348  34.262  1.00  0.00     0.023 A 
ATOM     84  C   UNL A   1      46.156  28.136  34.387  1.00  0.00     0.012 A 
ATOM     85  C   UNL A   1      44.928  26.110  34.933  1.00  0.00     0.148 A 
ATOM     86  C   UNL A   1      47.243  27.686  35.137  1.00  0.00     0.002 A 
ATOM     87  C   UNL A   1      45.993  25.692  35.722  1.00  0.00     0.091 A 
ATOM     88  F   UNL A   1      43.821  25.366  34.792  1.00  0.00    -0.205 F 
ATOM     89  C   UNL A   1      47.157  26.471  35.813  1.00  0.00     0.022 A 
BRANCH  87  90
ATOM     90  S   UNL A   1      45.933  24.192  36.710  1.00  0.00     0.127 S 
ATOM     91  O   UNL A   1      45.946  23.155  35.679  1.00  0.00    -0.237 OA
ATOM     92  O   UNL A   1      47.165  24.289  37.493  1.00  0.00    -0.237 OA
ATOM     93  O   UNL A   1      44.708  24.274  37.495  1.00  0.00    -0.744 OA
ENDBRANCH  87  90
ENDBRANCH  60  83
ENDBRANCH  34  35
ENDBRANCH  27  29
ENDBRANCH  26  27
ENDBRANCH  25  26
ENDBRANCH  24  25
ENDBRANCH  23  24
ENDBRANCH   1  23
TORSDOF 21
ENDMDL
MODEL 3
REMARK VINA RESULT:      -9.9      2.542      3.882
REMARK SMILES Cc1cc(C)nc(N2CCCC[C@H]2C(=O)OCCOCCOCCOC(=O)c2ccc(-c3c4nc(c(-c5cccc(S(=O)(=O)[O-])c5F)c5ccc([nH]5)c(-c5cccc(S(=O)(=O)[O-])c5F)c5nc(c(-c6cccc(S(=O)(=O)[O-])c6F)c6ccc3[nH]6)C=C5)C=C4)cc2)n1
REMARK SMILES IDX 21 1 20 2 19 3 18 4 17 5 16 6 14 7 15 8 13 9 8 10 9 11 10 12
REMARK SMILES IDX 12 13 11 14 7 15 1 16 2 17 3 18 91 19 4 20 5 21 6 22 22 23
REMARK SMILES IDX 23 24 24 25 25 26 26 27 27 28 28 29 29 30 90 31 30 32 89 33
REMARK SMILES IDX 31 34 32 35 33 36 83 37 34 38 88 39 82 40 84 41 35 42 87 43
REMARK SMILES IDX 81 44 80 45 36 47 68 48 48 49 67 50 49 51 52 52 66 53 85 54
REMARK SMILES IDX 50 55 51 56 65 58 86 59 53 60 37 61 38 62 46 63 39 64 41 65
REMARK SMILES IDX 47 66 40 67 42 68 43 69 44 70 45 71 69 72 70 73 78 74 71 75
REMARK SMILES IDX 73 76 79 77 72 78 74 79 75 80 76 81 77 82 54 83 55 84 63 85
REMARK SMILES IDX 56 86 58 87 64 88 57 89 59 90 60 91 61 92 62 93
REMARK H PARENT 84 46 52 57
REMARK Flexibility Score: inf
ROOT
ATOM      1  C   UNL A   1      30.293  28.318  23.850  1.00  0.00     0.188 C 
ENDROOT
BRANCH   1   2
ATOM      2  C   UNL A   1      30.657  28.124  22.359  1.00  0.00     0.188 C 
BRANCH   2   3
ATOM      3  O   UNL A   1      31.439  26.966  22.126  1.00  0.00    -0.376 OA
BRANCH   3   4
ATOM      4  C   UNL A   1      32.830  27.075  22.395  1.00  0.00     0.202 C 
BRANCH   4   5
ATOM      5  C   UNL A   1      33.641  25.788  22.632  1.00  0.00     0.261 C 
BRANCH   5   6
ATOM      6  O   UNL A   1      32.986  24.581  22.227  1.00  0.00    -0.462 OA
BRANCH   6   7
ATOM      7  C   UNL A   1      33.222  23.450  22.948  1.00  0.00     0.328 C 
ATOM      8  O   UNL A   1      34.335  23.097  23.316  1.00  0.00    -0.250 OA
BRANCH   7   9
ATOM      9  C   UNL A   1      31.885  22.742  23.287  1.00  0.00     0.195 C 
ATOM     10  N   UNL A   1      31.987  21.887  24.463  1.00  0.00    -0.327 N 
ATOM     11  C   UNL A   1      32.249  22.518  25.737  1.00  0.00     0.120 C 
ATOM     12  C   UNL A   1      31.254  23.668  25.987  1.00  0.00     0.022 C 
ATOM     13  C   UNL A   1      30.718  23.705  23.508  1.00  0.00     0.037 C 
ATOM     14  C   UNL A   1      30.910  24.534  24.769  1.00  0.00     0.005 C 
BRANCH  10  15
ATOM     15  C   UNL A   1      32.415  20.609  24.182  1.00  0.00     0.226 A 
ATOM     16  C   UNL A   1      32.100  18.469  21.221  1.00  0.00     0.067 C 
ATOM     17  C   UNL A   1      32.318  18.878  22.645  1.00  0.00     0.043 A 
ATOM     18  C   UNL A   1      32.430  17.945  23.647  1.00  0.00     0.047 A 
ATOM     19  N   UNL A   1      32.329  20.196  22.904  1.00  0.00    -0.218 NA
ATOM     20  C   UNL A   1      32.562  18.441  24.929  1.00  0.00     0.043 A 
ATOM     21  C   UNL A   1      32.607  17.495  26.090  1.00  0.00     0.067 C 
ATOM     22  N   UNL A   1      32.587  19.765  25.207  1.00  0.00    -0.218 NA
ENDBRANCH  10  15
ENDBRANCH   7   9
ENDBRANCH   6   7
ENDBRANCH   5   6
ENDBRANCH   4   5
ENDBRANCH   3   4
ENDBRANCH   2   3
ENDBRANCH   1   2
BRANCH   1  23
ATOM     23  O   UNL A   1      30.882  29.369  24.599  1.00  0.00    -0.376 OA
BRANCH  23  24
ATOM     24  C   UNL A   1      31.759  29.014  25.659  1.00  0.00     0.202 C 
BRANCH  24  25
ATOM     25  C   UNL A   1      33.273  29.304  25.555  1.00  0.00     0.261 C 
BRANCH  25  26
ATOM     26  O   UNL A   1      34.064  29.100  26.743  1.00  0.00    -0.460 OA
BRANCH  26  27
ATOM     27  C   UNL A   1      34.480  30.220  27.388  1.00  0.00     0.338 C 
ATOM     28  O   UNL A   1      33.814  31.229  27.604  1.00  0.00    -0.246 OA
BRANCH  27  29
ATOM     29  C   UNL A   1      35.802  29.990  28.013  1.00  0.00     0.060 A 
ATOM     30  C   UNL A   1      36.963  30.254  27.265  1.00  0.00     0.016 A 
ATOM     31  C   UNL A   1      35.908  29.476  29.305  1.00  0.00     0.016 A 
ATOM     32  C   UNL A   1      38.227  29.995  27.797  1.00  0.00     0.010 A 
ATOM     33  C   UNL A   1      37.176  29.180  29.823  1.00  0.00     0.010 A 
ATOM     34  C   UNL A   1      38.339  29.410  29.063  1.00  0.00    -0.014 A 
BRANCH  34  35
ATOM     35  C   UNL A   1      39.643  28.857  29.510  1.00  0.00     0.031 A 
ATOM     36  C   UNL A   1      40.370  29.553  30.629  1.00  0.00     0.074 A 
ATOM     37  C   UNL A   1      40.184  27.770  28.931  1.00  0.00     0.049 A 
ATOM     38  N   UNL A   1      41.549  29.305  31.135  1.00  0.00    -0.248 NA
ATOM     39  C   UNL A   1      39.670  30.685  31.260  1.00  0.00     0.031 C 
ATOM     40  C   UNL A   1      39.573  26.986  27.860  1.00  0.00     0.029 A 
ATOM     41  N   UNL A   1      41.395  27.158  29.149  1.00  0.00    -0.354 N 
ATOM     42  C   UNL A   1      41.753  30.272  32.111  1.00  0.00     0.074 A 
ATOM     43  C   UNL A   1      40.575  31.111  32.129  1.00  0.00     0.031 C 
ATOM     44  C   UNL A   1      40.429  26.017  27.488  1.00  0.00     0.029 A 
ATOM     45  C   UNL A   1      41.658  26.132  28.272  1.00  0.00     0.049 A 
ATOM     46  H   UNL A   1      42.015  27.427  29.866  1.00  0.00     0.167 HD
ATOM     47  C   UNL A   1      42.821  30.447  32.925  1.00  0.00     0.034 A 
ATOM     48  C   UNL A   1      42.774  25.394  28.099  1.00  0.00     0.034 A 
ATOM     49  C   UNL A   1      43.988  29.606  32.917  1.00  0.00     0.049 A 
ATOM     50  C   UNL A   1      43.969  25.636  28.989  1.00  0.00     0.074 A 
ATOM     51  C   UNL A   1      45.101  29.674  33.738  1.00  0.00     0.029 A 
ATOM     52  N   UNL A   1      44.205  28.561  32.034  1.00  0.00    -0.354 N 
ATOM     53  N   UNL A   1      44.106  26.484  29.981  1.00  0.00    -0.248 NA
ATOM     54  C   UNL A   1      45.156  24.798  28.754  1.00  0.00     0.031 C 
ATOM     55  C   UNL A   1      46.010  28.696  33.322  1.00  0.00     0.029 A 
ATOM     56  C   UNL A   1      45.442  27.987  32.276  1.00  0.00     0.049 A 
ATOM     57  H   UNL A   1      43.573  28.268  31.339  1.00  0.00     0.167 HD
ATOM     58  C   UNL A   1      45.370  26.251  30.513  1.00  0.00     0.074 A 
ATOM     59  C   UNL A   1      45.955  25.172  29.744  1.00  0.00     0.031 C 
ATOM     60  C   UNL A   1      45.996  26.879  31.540  1.00  0.00     0.034 A 
BRANCH  47  61
ATOM     61  C   UNL A   1      42.780  31.597  33.896  1.00  0.00     0.023 A 
ATOM     62  C   UNL A   1      43.309  32.850  33.529  1.00  0.00     0.012 A 
ATOM     63  C   UNL A   1      42.167  31.447  35.156  1.00  0.00     0.148 A 
ATOM     64  C   UNL A   1      43.261  33.928  34.413  1.00  0.00     0.002 A 
ATOM     65  C   UNL A   1      42.078  32.538  36.013  1.00  0.00     0.091 A 
ATOM     66  F   UNL A   1      41.689  30.241  35.496  1.00  0.00    -0.205 F 
ATOM     67  C   UNL A   1      42.636  33.774  35.648  1.00  0.00     0.022 A 
BRANCH  65  68
ATOM     68  S   UNL A   1      41.222  32.464  37.589  1.00  0.00     0.127 S 
ATOM     69  O   UNL A   1      41.231  33.870  37.995  1.00  0.00    -0.237 OA
ATOM     70  O   UNL A   1      39.909  31.951  37.200  1.00  0.00    -0.237 OA
ATOM     71  O   UNL A   1      42.001  31.567  38.430  1.00  0.00    -0.744 OA
ENDBRANCH  65  68
ENDBRANCH  47  61
BRANCH  48  72
ATOM     72  C   UNL A   1      42.820  24.334  27.051  1.00  0.00     0.023 A 
ATOM     73  C   UNL A   1      43.474  24.592  25.830  1.00  0.00     0.012 A 
ATOM     74  C   UNL A   1      42.214  23.078  27.253  1.00  0.00     0.148 A 
ATOM     75  C   UNL A   1      43.493  23.633  24.816  1.00  0.00     0.002 A 
ATOM     76  C   UNL A   1      42.285  22.107  26.260  1.00  0.00     0.091 A 
ATOM     77  F   UNL A   1      41.582  22.859  28.414  1.00  0.00    -0.205 F 
ATOM     78  C   UNL A   1      42.907  22.389  25.034  1.00  0.00     0.022 A 
BRANCH  76  79
ATOM     79  S   UNL A   1      41.661  20.440  26.493  1.00  0.00     0.127 S 
ATOM     80  O   UNL A   1      40.252  20.595  26.141  1.00  0.00    -0.237 OA
ATOM     81  O   UNL A   1      42.459  19.685  25.526  1.00  0.00    -0.237 OA
ATOM     82  O   UNL A   1      41.929  20.108  27.885  1.00  0.00    -0.744 OA
ENDBRANCH  76  79
ENDBRANCH  48  72
BRANCH  60  83
ATOM     83  C   UNL A   1      47.365  26.389  31.942  1.00  0.00     0.023 A 
ATOM     84  C   UNL A   1      48.519  26.967  31.378  1.00  0.00     0.012 A 
ATOM     85  C   UNL A   1      47.505  25.406  32.943  1.00  0.00     0.148 A 
ATOM     86  C   UNL A   1      49.789  26.550  31.777  1.00  0.00     0.002 A 
ATOM     87  C   UNL A   1      48.773  25.034  33.375  1.00  0.00     0.091 A 
ATOM     88  F   UNL A   1      46.396  24.857  33.460  1.00  0.00    -0.205 F 
ATOM     89  C   UNL A   1      49.916  25.594  32.782  1.00  0.00     0.022 A 
BRANCH  87  90
ATOM     90  S   UNL A   1      49.034  23.886  34.732  1.00  0.00     0.127 S 
ATOM     91  O   UNL A   1      50.277  23.228  34.332  1.00  0.00    -0.237 OA
ATOM     92  O   UNL A   1      49.161  24.787  35.878  1.00  0.00    -0.237 OA
ATOM     93  O   UNL A   1      47.857  23.027  34.765  1.00  0.00    -0.744 OA
ENDBRANCH  87  90
ENDBRANCH  60  83
ENDBRANCH  34  35
ENDBRANCH  27  29
ENDBRANCH  26  27
ENDBRANCH  25  26
ENDBRANCH  24  25
ENDBRANCH  23  24
ENDBRANCH   1  23
TORSDOF 21
ENDMDL
