MODEL 1
REMARK VINA RESULT:      -9.6      0.000      0.000
REMARK SMILES O=C(OCCOCCOCCOC(=O)[C@@H]1CCc2[nH]ncc2C1)c1ccc(-c2c3nc(c(-c4cccc(S(=O)(=O)[O-])c4F)c4ccc([nH]4)c(-c4cccc(S(=O)(=O)[O-])c4F)c4nc(c(-c5cccc(S(=O)(=O)[O-])c5F)c5ccc2[nH]5)C=C4)C=C3)cc1
REMARK SMILES IDX 6 1 5 2 4 3 3 4 2 5 1 6 24 7 25 8 86 9 26 10 85 11 27 12
REMARK SMILES IDX 28 13 29 14 79 15 30 16 84 17 78 18 80 19 31 20 83 21 77 22
REMARK SMILES IDX 76 23 32 25 64 26 44 27 63 28 45 29 48 30 62 31 81 32 46 33
REMARK SMILES IDX 47 34 61 36 82 37 49 38 33 39 34 40 42 41 35 42 37 43 43 44
REMARK SMILES IDX 36 45 38 46 39 47 40 48 41 49 65 50 66 51 74 52 67 53 69 54
REMARK SMILES IDX 75 55 68 56 70 57 71 58 72 59 73 60 50 61 51 62 59 63 52 64
REMARK SMILES IDX 54 65 60 66 53 67 55 68 56 69 57 70 58 71 7 72 8 73 9 74
REMARK SMILES IDX 10 75 11 76 12 77 13 78 14 79 15 80 16 81 23 82 17 83 22 84
REMARK SMILES IDX 18 85 21 86 19 87 20 88
REMARK H PARENT 80 24 48 35 19 89
REMARK Flexibility Score: inf
ROOT
ATOM      1  O   UNL A   1      32.611  34.658  29.025  1.00  0.00    -0.376 OA
ENDROOT
BRANCH   1   2
ATOM      2  C   UNL A   1      33.123  33.801  27.996  1.00  0.00     0.202 C 
BRANCH   2   3
ATOM      3  C   UNL A   1      34.448  33.077  28.301  1.00  0.00     0.261 C 
BRANCH   3   4
ATOM      4  O   UNL A   1      34.285  31.711  28.704  1.00  0.00    -0.460 OA
BRANCH   4   5
ATOM      5  C   UNL A   1      34.793  30.590  28.131  1.00  0.00     0.338 C 
ATOM      6  O   UNL A   1      34.078  29.987  27.331  1.00  0.00    -0.246 OA
BRANCH   5   7
ATOM      7  C   UNL A   1      36.149  30.021  28.441  1.00  0.00     0.060 A 
ATOM      8  C   UNL A   1      36.533  29.423  29.645  1.00  0.00     0.016 A 
ATOM      9  C   UNL A   1      37.106  30.075  27.416  1.00  0.00     0.016 A 
ATOM     10  C   UNL A   1      37.823  28.970  29.878  1.00  0.00     0.010 A 
ATOM     11  C   UNL A   1      38.405  29.607  27.628  1.00  0.00     0.010 A 
ATOM     12  C   UNL A   1      38.773  29.091  28.882  1.00  0.00    -0.014 A 
BRANCH  12  13
ATOM     13  C   UNL A   1      40.192  28.896  29.221  1.00  0.00     0.031 A 
ATOM     14  C   UNL A   1      40.839  27.661  28.694  1.00  0.00     0.074 A 
ATOM     15  C   UNL A   1      40.882  29.794  29.945  1.00  0.00     0.049 A 
ATOM     16  N   UNL A   1      42.013  27.171  28.962  1.00  0.00    -0.248 NA
ATOM     17  C   UNL A   1      40.077  26.903  27.683  1.00  0.00     0.031 C 
ATOM     18  C   UNL A   1      40.415  31.124  30.322  1.00  0.00     0.029 A 
ATOM     19  N   UNL A   1      42.082  29.675  30.592  1.00  0.00    -0.354 N 
ATOM     20  C   UNL A   1      42.139  26.058  28.148  1.00  0.00     0.074 A 
ATOM     21  C   UNL A   1      40.906  25.909  27.412  1.00  0.00     0.031 C 
ATOM     22  C   UNL A   1      41.189  31.602  31.309  1.00  0.00     0.029 A 
ATOM     23  C   UNL A   1      42.225  30.621  31.588  1.00  0.00     0.049 A 
ATOM     24  H   UNL A   1      42.762  28.997  30.374  1.00  0.00     0.167 HD
ATOM     25  C   UNL A   1      43.217  25.260  28.008  1.00  0.00     0.034 A 
ATOM     26  C   UNL A   1      43.067  30.640  32.637  1.00  0.00     0.034 A 
ATOM     27  C   UNL A   1      44.404  25.430  28.794  1.00  0.00     0.049 A 
ATOM     28  C   UNL A   1      44.165  29.618  32.635  1.00  0.00     0.074 A 
ATOM     29  C   UNL A   1      45.577  24.706  28.763  1.00  0.00     0.029 A 
ATOM     30  N   UNL A   1      44.540  26.388  29.794  1.00  0.00    -0.354 N 
ATOM     31  N   UNL A   1      44.337  28.606  31.816  1.00  0.00    -0.248 NA
ATOM     32  C   UNL A   1      45.244  29.796  33.610  1.00  0.00     0.031 C 
ATOM     33  C   UNL A   1      46.404  25.194  29.781  1.00  0.00     0.029 A 
ATOM     34  C   UNL A   1      45.769  26.259  30.407  1.00  0.00     0.049 A 
ATOM     35  H   UNL A   1      43.860  27.059  30.028  1.00  0.00     0.167 HD
ATOM     36  C   UNL A   1      45.588  28.088  32.104  1.00  0.00     0.074 A 
ATOM     37  C   UNL A   1      46.108  28.870  33.212  1.00  0.00     0.031 C 
ATOM     38  C   UNL A   1      46.262  27.088  31.482  1.00  0.00     0.034 A 
BRANCH  25  39
ATOM     39  C   UNL A   1      43.110  24.153  27.000  1.00  0.00     0.023 A 
ATOM     40  C   UNL A   1      43.607  24.337  25.691  1.00  0.00     0.012 A 
ATOM     41  C   UNL A   1      42.456  22.954  27.328  1.00  0.00     0.148 A 
ATOM     42  C   UNL A   1      43.402  23.367  24.710  1.00  0.00     0.002 A 
ATOM     43  C   UNL A   1      42.299  21.971  26.360  1.00  0.00     0.091 A 
ATOM     44  F   UNL A   1      41.961  22.813  28.566  1.00  0.00    -0.205 F 
ATOM     45  C   UNL A   1      42.753  22.182  25.047  1.00  0.00     0.022 A 
BRANCH  43  46
ATOM     46  S   UNL A   1      41.528  20.389  26.706  1.00  0.00     0.127 S 
ATOM     47  O   UNL A   1      40.192  20.796  27.133  1.00  0.00    -0.237 OA
ATOM     48  O   UNL A   1      41.580  19.733  25.402  1.00  0.00    -0.237 OA
ATOM     49  O   UNL A   1      42.348  19.760  27.737  1.00  0.00    -0.744 OA
ENDBRANCH  43  46
ENDBRANCH  25  39
BRANCH  26  50
ATOM     50  C   UNL A   1      42.944  31.698  33.678  1.00  0.00     0.023 A 
ATOM     51  C   UNL A   1      43.331  33.015  33.373  1.00  0.00     0.012 A 
ATOM     52  C   UNL A   1      42.388  31.423  34.949  1.00  0.00     0.148 A 
ATOM     53  C   UNL A   1      43.192  34.035  34.315  1.00  0.00     0.002 A 
ATOM     54  C   UNL A   1      42.214  32.452  35.872  1.00  0.00     0.091 A 
ATOM     55  F   UNL A   1      42.052  30.161  35.242  1.00  0.00    -0.205 F 
ATOM     56  C   UNL A   1      42.628  33.756  35.559  1.00  0.00     0.022 A 
BRANCH  54  57
ATOM     57  S   UNL A   1      41.404  32.217  37.464  1.00  0.00     0.127 S 
ATOM     58  O   UNL A   1      42.264  31.222  38.098  1.00  0.00    -0.237 OA
ATOM     59  O   UNL A   1      41.478  33.557  38.048  1.00  0.00    -0.237 OA
ATOM     60  O   UNL A   1      40.040  31.789  37.173  1.00  0.00    -0.744 OA
ENDBRANCH  54  57
ENDBRANCH  26  50
BRANCH  38  61
ATOM     61  C   UNL A   1      47.674  26.834  31.921  1.00  0.00     0.023 A 
ATOM     62  C   UNL A   1      48.724  27.639  31.447  1.00  0.00     0.012 A 
ATOM     63  C   UNL A   1      47.925  25.860  32.908  1.00  0.00     0.148 A 
ATOM     64  C   UNL A   1      50.014  27.466  31.942  1.00  0.00     0.002 A 
ATOM     65  C   UNL A   1      49.198  25.737  33.440  1.00  0.00     0.091 A 
ATOM     66  F   UNL A   1      46.906  25.091  33.322  1.00  0.00    -0.205 F 
ATOM     67  C   UNL A   1      50.247  26.530  32.949  1.00  0.00     0.022 A 
BRANCH  65  68
ATOM     68  S   UNL A   1      49.558  24.651  34.822  1.00  0.00     0.127 S 
ATOM     69  O   UNL A   1      49.345  23.333  34.228  1.00  0.00    -0.237 OA
ATOM     70  O   UNL A   1      50.957  24.973  35.109  1.00  0.00    -0.237 OA
ATOM     71  O   UNL A   1      48.624  25.015  35.880  1.00  0.00    -0.744 OA
ENDBRANCH  65  68
ENDBRANCH  38  61
ENDBRANCH  12  13
ENDBRANCH   5   7
ENDBRANCH   4   5
ENDBRANCH   3   4
ENDBRANCH   2   3
ENDBRANCH   1   2
BRANCH   1  72
ATOM     72  C   UNL A   1      32.955  36.038  28.857  1.00  0.00     0.188 C 
BRANCH  72  73
ATOM     73  C   UNL A   1      33.133  36.816  30.162  1.00  0.00     0.188 C 
BRANCH  73  74
ATOM     74  O   UNL A   1      32.168  36.615  31.190  1.00  0.00    -0.376 OA
BRANCH  74  75
ATOM     75  C   UNL A   1      32.630  36.640  32.534  1.00  0.00     0.202 C 
BRANCH  75  76
ATOM     76  C   UNL A   1      34.115  36.353  32.823  1.00  0.00     0.261 C 
BRANCH  76  77
ATOM     77  O   UNL A   1      34.378  35.171  33.600  1.00  0.00    -0.463 OA
BRANCH  77  78
ATOM     78  C   UNL A   1      34.544  34.026  32.878  1.00  0.00     0.309 C 
ATOM     79  O   UNL A   1      34.114  33.877  31.738  1.00  0.00    -0.252 OA
BRANCH  78  80
ATOM     80  C   UNL A   1      35.442  33.004  33.571  1.00  0.00     0.104 C 
ATOM     81  C   UNL A   1      36.458  33.778  34.464  1.00  0.00     0.022 C 
ATOM     82  C   UNL A   1      36.161  32.045  32.599  1.00  0.00     0.054 C 
ATOM     83  C   UNL A   1      37.424  32.890  35.267  1.00  0.00     0.057 C 
ATOM     84  C   UNL A   1      37.199  31.261  33.325  1.00  0.00    -0.006 A 
ATOM     85  C   UNL A   1      37.810  31.716  34.469  1.00  0.00     0.038 A 
ATOM     86  C   UNL A   1      37.786  30.002  33.125  1.00  0.00     0.138 A 
ATOM     87  N   UNL A   1      38.858  30.871  34.717  1.00  0.00    -0.282 N 
ATOM     88  N   UNL A   1      38.737  29.725  34.016  1.00  0.00    -0.184 NA
ATOM     89  H   UNL A   1      39.602  31.074  35.328  1.00  0.00     0.190 HD
ENDBRANCH  78  80
ENDBRANCH  77  78
ENDBRANCH  76  77
ENDBRANCH  75  76
ENDBRANCH  74  75
ENDBRANCH  73  74
ENDBRANCH  72  73
ENDBRANCH   1  72
TORSDOF 20
ENDMDL
MODEL 2
REMARK VINA RESULT:      -9.4      4.316      6.836
REMARK SMILES O=C(OCCOCCOCCOC(=O)[C@@H]1CCc2[nH]ncc2C1)c1ccc(-c2c3nc(c(-c4cccc(S(=O)(=O)[O-])c4F)c4ccc([nH]4)c(-c4cccc(S(=O)(=O)[O-])c4F)c4nc(c(-c5cccc(S(=O)(=O)[O-])c5F)c5ccc2[nH]5)C=C4)C=C3)cc1
REMARK SMILES IDX 6 1 5 2 4 3 3 4 2 5 1 6 24 7 25 8 86 9 26 10 85 11 27 12
REMARK SMILES IDX 28 13 29 14 79 15 30 16 84 17 78 18 80 19 31 20 83 21 77 22
REMARK SMILES IDX 76 23 32 25 64 26 44 27 63 28 45 29 48 30 62 31 81 32 46 33
REMARK SMILES IDX 47 34 61 36 82 37 49 38 33 39 34 40 42 41 35 42 37 43 43 44
REMARK SMILES IDX 36 45 38 46 39 47 40 48 41 49 65 50 66 51 74 52 67 53 69 54
REMARK SMILES IDX 75 55 68 56 70 57 71 58 72 59 73 60 50 61 51 62 59 63 52 64
REMARK SMILES IDX 54 65 60 66 53 67 55 68 56 69 57 70 58 71 7 72 8 73 9 74
REMARK SMILES IDX 10 75 11 76 12 77 13 78 14 79 15 80 16 81 23 82 17 83 22 84
REMARK SMILES IDX 18 85 21 86 19 87 20 88
REMARK H PARENT 80 24 48 35 19 89
REMARK Flexibility Score: inf
ROOT
ATOM      1  O   UNL A   1      32.031  29.223  24.491  1.00  0.00    -0.376 OA
ENDROOT
BRANCH   1   2
ATOM      2  C   UNL A   1      31.845  28.788  25.844  1.00  0.00     0.202 C 
BRANCH   2   3
ATOM      3  C   UNL A   1      31.879  29.881  26.929  1.00  0.00     0.261 C 
BRANCH   3   4
ATOM      4  O   UNL A   1      32.775  30.962  26.639  1.00  0.00    -0.460 OA
BRANCH   4   5
ATOM      5  C   UNL A   1      33.557  31.669  27.494  1.00  0.00     0.338 C 
ATOM      6  O   UNL A   1      33.150  32.773  27.855  1.00  0.00    -0.246 OA
BRANCH   5   7
ATOM      7  C   UNL A   1      34.898  31.209  27.991  1.00  0.00     0.060 A 
ATOM      8  C   UNL A   1      35.200  29.933  28.477  1.00  0.00     0.016 A 
ATOM      9  C   UNL A   1      35.945  32.142  27.938  1.00  0.00     0.016 A 
ATOM     10  C   UNL A   1      36.451  29.598  28.972  1.00  0.00     0.010 A 
ATOM     11  C   UNL A   1      37.216  31.814  28.417  1.00  0.00     0.010 A 
ATOM     12  C   UNL A   1      37.455  30.548  28.976  1.00  0.00    -0.014 A 
BRANCH  12  13
ATOM     13  C   UNL A   1      38.673  30.297  29.764  1.00  0.00     0.031 A 
ATOM     14  C   UNL A   1      39.584  29.230  29.262  1.00  0.00     0.074 A 
ATOM     15  C   UNL A   1      38.966  31.009  30.866  1.00  0.00     0.049 A 
ATOM     16  N   UNL A   1      40.628  28.708  29.832  1.00  0.00    -0.248 NA
ATOM     17  C   UNL A   1      39.312  28.722  27.904  1.00  0.00     0.031 C 
ATOM     18  C   UNL A   1      38.267  32.206  31.319  1.00  0.00     0.029 A 
ATOM     19  N   UNL A   1      39.864  30.757  31.869  1.00  0.00    -0.354 N 
ATOM     20  C   UNL A   1      41.146  27.820  28.904  1.00  0.00     0.074 A 
ATOM     21  C   UNL A   1      40.276  27.831  27.752  1.00  0.00     0.031 C 
ATOM     22  C   UNL A   1      38.587  32.448  32.600  1.00  0.00     0.029 A 
ATOM     23  C   UNL A   1      39.548  31.444  33.024  1.00  0.00     0.049 A 
ATOM     24  H   UNL A   1      40.641  30.159  31.777  1.00  0.00     0.167 HD
ATOM     25  C   UNL A   1      42.277  27.093  29.004  1.00  0.00     0.034 A 
ATOM     26  C   UNL A   1      39.955  31.227  34.288  1.00  0.00     0.034 A 
ATOM     27  C   UNL A   1      43.084  27.089  30.190  1.00  0.00     0.049 A 
ATOM     28  C   UNL A   1      41.079  30.249  34.473  1.00  0.00     0.074 A 
ATOM     29  C   UNL A   1      44.257  26.409  30.439  1.00  0.00     0.029 A 
ATOM     30  N   UNL A   1      42.760  27.786  31.350  1.00  0.00    -0.354 N 
ATOM     31  N   UNL A   1      41.630  29.462  33.578  1.00  0.00    -0.248 NA
ATOM     32  C   UNL A   1      41.717  30.208  35.791  1.00  0.00     0.031 C 
ATOM     33  C   UNL A   1      44.615  26.654  31.770  1.00  0.00     0.029 A 
ATOM     34  C   UNL A   1      43.696  27.533  32.330  1.00  0.00     0.049 A 
ATOM     35  H   UNL A   1      41.977  28.374  31.454  1.00  0.00     0.167 HD
ATOM     36  C   UNL A   1      42.742  28.907  34.189  1.00  0.00     0.074 A 
ATOM     37  C   UNL A   1      42.754  29.413  35.552  1.00  0.00     0.031 C 
ATOM     38  C   UNL A   1      43.689  28.092  33.662  1.00  0.00     0.034 A 
BRANCH  25  39
ATOM     39  C   UNL A   1      42.647  26.253  27.817  1.00  0.00     0.023 A 
ATOM     40  C   UNL A   1      43.412  26.808  26.767  1.00  0.00     0.012 A 
ATOM     41  C   UNL A   1      42.178  24.933  27.706  1.00  0.00     0.148 A 
ATOM     42  C   UNL A   1      43.655  26.081  25.603  1.00  0.00     0.002 A 
ATOM     43  C   UNL A   1      42.465  24.197  26.564  1.00  0.00     0.091 A 
ATOM     44  F   UNL A   1      41.424  24.437  28.697  1.00  0.00    -0.205 F 
ATOM     45  C   UNL A   1      43.186  24.774  25.504  1.00  0.00     0.022 A 
BRANCH  43  46
ATOM     46  S   UNL A   1      41.956  22.489  26.363  1.00  0.00     0.127 S 
ATOM     47  O   UNL A   1      42.586  22.139  25.093  1.00  0.00    -0.237 OA
ATOM     48  O   UNL A   1      42.551  21.854  27.537  1.00  0.00    -0.237 OA
ATOM     49  O   UNL A   1      40.497  22.503  26.353  1.00  0.00    -0.744 OA
ENDBRANCH  43  46
ENDBRANCH  25  39
BRANCH  26  50
ATOM     50  C   UNL A   1      39.366  32.007  35.411  1.00  0.00     0.023 A 
ATOM     51  C   UNL A   1      38.385  31.412  36.224  1.00  0.00     0.012 A 
ATOM     52  C   UNL A   1      39.814  33.313  35.720  1.00  0.00     0.148 A 
ATOM     53  C   UNL A   1      37.841  32.105  37.307  1.00  0.00     0.002 A 
ATOM     54  C   UNL A   1      39.298  33.985  36.825  1.00  0.00     0.091 A 
ATOM     55  F   UNL A   1      40.726  33.882  34.921  1.00  0.00    -0.205 F 
ATOM     56  C   UNL A   1      38.302  33.385  37.612  1.00  0.00     0.022 A 
BRANCH  54  57
ATOM     57  S   UNL A   1      39.897  35.596  37.363  1.00  0.00     0.127 S 
ATOM     58  O   UNL A   1      41.321  35.339  37.562  1.00  0.00    -0.237 OA
ATOM     59  O   UNL A   1      39.579  36.443  36.213  1.00  0.00    -0.237 OA
ATOM     60  O   UNL A   1      39.138  35.940  38.561  1.00  0.00    -0.744 OA
ENDBRANCH  54  57
ENDBRANCH  26  50
BRANCH  38  61
ATOM     61  C   UNL A   1      44.871  27.761  34.525  1.00  0.00     0.023 A 
ATOM     62  C   UNL A   1      45.985  28.617  34.569  1.00  0.00     0.012 A 
ATOM     63  C   UNL A   1      44.805  26.649  35.388  1.00  0.00     0.148 A 
ATOM     64  C   UNL A   1      47.029  28.360  35.453  1.00  0.00     0.002 A 
ATOM     65  C   UNL A   1      45.818  26.435  36.308  1.00  0.00     0.091 A 
ATOM     66  F   UNL A   1      43.739  25.838  35.306  1.00  0.00    -0.205 F 
ATOM     67  C   UNL A   1      46.938  27.282  36.333  1.00  0.00     0.022 A 
BRANCH  65  68
ATOM     68  S   UNL A   1      45.722  25.152  37.559  1.00  0.00     0.127 S 
ATOM     69  O   UNL A   1      46.545  24.099  36.969  1.00  0.00    -0.237 OA
ATOM     70  O   UNL A   1      46.316  25.813  38.722  1.00  0.00    -0.237 OA
ATOM     71  O   UNL A   1      44.308  24.829  37.703  1.00  0.00    -0.744 OA
ENDBRANCH  65  68
ENDBRANCH  38  61
ENDBRANCH  12  13
ENDBRANCH   5   7
ENDBRANCH   4   5
ENDBRANCH   3   4
ENDBRANCH   2   3
ENDBRANCH   1   2
BRANCH   1  72
ATOM     72  C   UNL A   1      30.917  28.948  23.634  1.00  0.00     0.188 C 
BRANCH  72  73
ATOM     73  C   UNL A   1      30.613  27.462  23.437  1.00  0.00     0.188 C 
BRANCH  73  74
ATOM     74  O   UNL A   1      31.595  26.665  22.783  1.00  0.00    -0.376 OA
BRANCH  74  75
ATOM     75  C   UNL A   1      31.854  25.375  23.320  1.00  0.00     0.202 C 
BRANCH  75  76
ATOM     76  C   UNL A   1      32.632  25.254  24.643  1.00  0.00     0.261 C 
BRANCH  76  77
ATOM     77  O   UNL A   1      34.057  25.425  24.542  1.00  0.00    -0.463 OA
BRANCH  77  78
ATOM     78  C   UNL A   1      34.796  24.303  24.780  1.00  0.00     0.309 C 
ATOM     79  O   UNL A   1      36.023  24.284  24.762  1.00  0.00    -0.252 OA
BRANCH  78  80
ATOM     80  C   UNL A   1      33.949  23.109  25.214  1.00  0.00     0.104 C 
ATOM     81  C   UNL A   1      34.490  22.602  26.584  1.00  0.00     0.022 C 
ATOM     82  C   UNL A   1      33.896  21.972  24.171  1.00  0.00     0.054 C 
ATOM     83  C   UNL A   1      33.721  21.413  27.186  1.00  0.00     0.057 C 
ATOM     84  C   UNL A   1      33.273  20.757  24.767  1.00  0.00    -0.006 A 
ATOM     85  C   UNL A   1      33.296  20.495  26.116  1.00  0.00     0.038 A 
ATOM     86  C   UNL A   1      32.560  19.669  24.240  1.00  0.00     0.138 A 
ATOM     87  N   UNL A   1      32.859  19.207  26.274  1.00  0.00    -0.282 N 
ATOM     88  N   UNL A   1      32.235  18.765  25.163  1.00  0.00    -0.184 NA
ATOM     89  H   UNL A   1      32.984  18.675  27.092  1.00  0.00     0.190 HD
ENDBRANCH  78  80
ENDBRANCH  77  78
ENDBRANCH  76  77
ENDBRANCH  75  76
ENDBRANCH  74  75
ENDBRANCH  73  74
ENDBRANCH  72  73
ENDBRANCH   1  72
TORSDOF 20
ENDMDL
MODEL 3
REMARK VINA RESULT:      -9.3      4.093      6.640
REMARK SMILES O=C(OCCOCCOCCOC(=O)[C@@H]1CCc2[nH]ncc2C1)c1ccc(-c2c3nc(c(-c4cccc(S(=O)(=O)[O-])c4F)c4ccc([nH]4)c(-c4cccc(S(=O)(=O)[O-])c4F)c4nc(c(-c5cccc(S(=O)(=O)[O-])c5F)c5ccc2[nH]5)C=C4)C=C3)cc1
REMARK SMILES IDX 6 1 5 2 4 3 3 4 2 5 1 6 24 7 25 8 86 9 26 10 85 11 27 12
REMARK SMILES IDX 28 13 29 14 79 15 30 16 84 17 78 18 80 19 31 20 83 21 77 22
REMARK SMILES IDX 76 23 32 25 64 26 44 27 63 28 45 29 48 30 62 31 81 32 46 33
REMARK SMILES IDX 47 34 61 36 82 37 49 38 33 39 34 40 42 41 35 42 37 43 43 44
REMARK SMILES IDX 36 45 38 46 39 47 40 48 41 49 65 50 66 51 74 52 67 53 69 54
REMARK SMILES IDX 75 55 68 56 70 57 71 58 72 59 73 60 50 61 51 62 59 63 52 64
REMARK SMILES IDX 54 65 60 66 53 67 55 68 56 69 57 70 58 71 7 72 8 73 9 74
REMARK SMILES IDX 10 75 11 76 12 77 13 78 14 79 15 80 16 81 23 82 17 83 22 84
REMARK SMILES IDX 18 85 21 86 19 87 20 88
REMARK H PARENT 80 24 48 35 19 89
REMARK Flexibility Score: inf
ROOT
ATOM      1  O   UNL A   1      31.918  29.207  24.599  1.00  0.00    -0.376 OA
ENDROOT
BRANCH   1   2
ATOM      2  C   UNL A   1      31.808  28.580  25.884  1.00  0.00     0.202 C 
BRANCH   2   3
ATOM      3  C   UNL A   1      32.109  29.464  27.109  1.00  0.00     0.261 C 
BRANCH   3   4
ATOM      4  O   UNL A   1      32.513  30.799  26.779  1.00  0.00    -0.460 OA
BRANCH   4   5
ATOM      5  C   UNL A   1      33.359  31.621  27.452  1.00  0.00     0.338 C 
ATOM      6  O   UNL A   1      32.977  32.770  27.675  1.00  0.00    -0.246 OA
BRANCH   5   7
ATOM      7  C   UNL A   1      34.738  31.230  27.903  1.00  0.00     0.060 A 
ATOM      8  C   UNL A   1      35.157  29.940  28.240  1.00  0.00     0.016 A 
ATOM      9  C   UNL A   1      35.695  32.255  27.966  1.00  0.00     0.016 A 
ATOM     10  C   UNL A   1      36.436  29.666  28.703  1.00  0.00     0.010 A 
ATOM     11  C   UNL A   1      36.992  31.992  28.414  1.00  0.00     0.010 A 
ATOM     12  C   UNL A   1      37.348  30.696  28.824  1.00  0.00    -0.014 A 
BRANCH  12  13
ATOM     13  C   UNL A   1      38.585  30.469  29.588  1.00  0.00     0.031 A 
ATOM     14  C   UNL A   1      39.492  29.399  29.083  1.00  0.00     0.074 A 
ATOM     15  C   UNL A   1      38.900  31.202  30.670  1.00  0.00     0.049 A 
ATOM     16  N   UNL A   1      40.554  28.895  29.637  1.00  0.00    -0.248 NA
ATOM     17  C   UNL A   1      39.192  28.865  27.740  1.00  0.00     0.031 C 
ATOM     18  C   UNL A   1      38.202  32.402  31.118  1.00  0.00     0.029 A 
ATOM     19  N   UNL A   1      39.822  30.974  31.655  1.00  0.00    -0.354 N 
ATOM     20  C   UNL A   1      41.056  27.994  28.713  1.00  0.00     0.074 A 
ATOM     21  C   UNL A   1      40.160  27.979  27.581  1.00  0.00     0.031 C 
ATOM     22  C   UNL A   1      38.550  32.669  32.387  1.00  0.00     0.029 A 
ATOM     23  C   UNL A   1      39.529  31.679  32.805  1.00  0.00     0.049 A 
ATOM     24  H   UNL A   1      40.601  30.380  31.555  1.00  0.00     0.167 HD
ATOM     25  C   UNL A   1      42.195  27.277  28.799  1.00  0.00     0.034 A 
ATOM     26  C   UNL A   1      39.968  31.487  34.063  1.00  0.00     0.034 A 
ATOM     27  C   UNL A   1      43.029  27.300  29.965  1.00  0.00     0.049 A 
ATOM     28  C   UNL A   1      41.103  30.521  34.238  1.00  0.00     0.074 A 
ATOM     29  C   UNL A   1      44.213  26.633  30.198  1.00  0.00     0.029 A 
ATOM     30  N   UNL A   1      42.727  28.014  31.119  1.00  0.00    -0.354 N 
ATOM     31  N   UNL A   1      41.638  29.722  33.345  1.00  0.00    -0.248 NA
ATOM     32  C   UNL A   1      41.772  30.507  35.541  1.00  0.00     0.031 C 
ATOM     33  C   UNL A   1      44.601  26.904  31.515  1.00  0.00     0.029 A 
ATOM     34  C   UNL A   1      43.688  27.786  32.081  1.00  0.00     0.049 A 
ATOM     35  H   UNL A   1      41.943  28.598  31.232  1.00  0.00     0.167 HD
ATOM     36  C   UNL A   1      42.769  29.186  33.939  1.00  0.00     0.074 A 
ATOM     37  C   UNL A   1      42.809  29.716  35.291  1.00  0.00     0.031 C 
ATOM     38  C   UNL A   1      43.709  28.368  33.403  1.00  0.00     0.034 A 
BRANCH  25  39
ATOM     39  C   UNL A   1      42.543  26.419  27.618  1.00  0.00     0.023 A 
ATOM     40  C   UNL A   1      43.142  26.995  26.476  1.00  0.00     0.012 A 
ATOM     41  C   UNL A   1      42.212  25.053  27.609  1.00  0.00     0.148 A 
ATOM     42  C   UNL A   1      43.355  26.236  25.325  1.00  0.00     0.002 A 
ATOM     43  C   UNL A   1      42.471  24.292  26.477  1.00  0.00     0.091 A 
ATOM     44  F   UNL A   1      41.611  24.534  28.689  1.00  0.00    -0.205 F 
ATOM     45  C   UNL A   1      43.024  24.884  25.328  1.00  0.00     0.022 A 
BRANCH  43  46
ATOM     46  S   UNL A   1      42.135  22.531  26.399  1.00  0.00     0.127 S 
ATOM     47  O   UNL A   1      42.479  22.225  25.014  1.00  0.00    -0.237 OA
ATOM     48  O   UNL A   1      43.066  22.000  27.393  1.00  0.00    -0.237 OA
ATOM     49  O   UNL A   1      40.725  22.376  26.742  1.00  0.00    -0.744 OA
ENDBRANCH  43  46
ENDBRANCH  25  39
BRANCH  26  50
ATOM     50  C   UNL A   1      39.399  32.283  35.186  1.00  0.00     0.023 A 
ATOM     51  C   UNL A   1      38.402  31.715  35.999  1.00  0.00     0.012 A 
ATOM     52  C   UNL A   1      39.882  33.576  35.495  1.00  0.00     0.148 A 
ATOM     53  C   UNL A   1      37.877  32.422  37.082  1.00  0.00     0.002 A 
ATOM     54  C   UNL A   1      39.384  34.261  36.600  1.00  0.00     0.091 A 
ATOM     55  F   UNL A   1      40.809  34.121  34.696  1.00  0.00    -0.205 F 
ATOM     56  C   UNL A   1      38.372  33.689  37.386  1.00  0.00     0.022 A 
BRANCH  54  57
ATOM     57  S   UNL A   1      40.026  35.856  37.138  1.00  0.00     0.127 S 
ATOM     58  O   UNL A   1      39.736  36.705  35.986  1.00  0.00    -0.237 OA
ATOM     59  O   UNL A   1      39.215  36.130  38.325  1.00  0.00    -0.237 OA
ATOM     60  O   UNL A   1      41.439  35.651  37.440  1.00  0.00    -0.744 OA
ENDBRANCH  54  57
ENDBRANCH  26  50
BRANCH  38  61
ATOM     61  C   UNL A   1      44.913  28.060  34.244  1.00  0.00     0.023 A 
ATOM     62  C   UNL A   1      44.952  26.899  35.035  1.00  0.00     0.012 A 
ATOM     63  C   UNL A   1      46.055  28.879  34.139  1.00  0.00     0.148 A 
ATOM     64  C   UNL A   1      46.114  26.565  35.727  1.00  0.00     0.002 A 
ATOM     65  C   UNL A   1      47.226  28.506  34.779  1.00  0.00     0.091 A 
ATOM     66  F   UNL A   1      45.978  29.992  33.395  1.00  0.00    -0.205 F 
ATOM     67  C   UNL A   1      47.254  27.356  35.585  1.00  0.00     0.022 A 
BRANCH  65  68
ATOM     68  S   UNL A   1      48.768  29.393  34.550  1.00  0.00     0.127 S 
ATOM     69  O   UNL A   1      48.376  30.762  34.875  1.00  0.00    -0.237 OA
ATOM     70  O   UNL A   1      49.639  28.755  35.539  1.00  0.00    -0.237 OA
ATOM     71  O   UNL A   1      49.162  29.172  33.164  1.00  0.00    -0.744 OA
ENDBRANCH  65  68
ENDBRANCH  38  61
ENDBRANCH  12  13
ENDBRANCH   5   7
ENDBRANCH   4   5
ENDBRANCH   3   4
ENDBRANCH   2   3
ENDBRANCH   1   2
BRANCH   1  72
ATOM     72  C   UNL A   1      30.663  29.405  23.940  1.00  0.00     0.188 C 
BRANCH  72  73
ATOM     73  C   UNL A   1      30.077  28.149  23.292  1.00  0.00     0.188 C 
BRANCH  73  74
ATOM     74  O   UNL A   1      30.674  27.685  22.085  1.00  0.00    -0.376 OA
BRANCH  74  75
ATOM     75  C   UNL A   1      31.466  26.507  22.159  1.00  0.00     0.202 C 
BRANCH  75  76
ATOM     76  C   UNL A   1      32.974  26.632  22.447  1.00  0.00     0.261 C 
BRANCH  76  77
ATOM     77  O   UNL A   1      33.815  25.680  21.772  1.00  0.00    -0.463 OA
BRANCH  77  78
ATOM     78  C   UNL A   1      33.685  24.389  22.191  1.00  0.00     0.309 C 
ATOM     79  O   UNL A   1      33.512  23.444  21.427  1.00  0.00    -0.252 OA
BRANCH  78  80
ATOM     80  C   UNL A   1      33.921  24.218  23.690  1.00  0.00     0.104 C 
ATOM     81  C   UNL A   1      35.368  23.678  23.895  1.00  0.00     0.022 C 
ATOM     82  C   UNL A   1      32.879  23.318  24.386  1.00  0.00     0.054 C 
ATOM     83  C   UNL A   1      35.786  23.480  25.362  1.00  0.00     0.057 C 
ATOM     84  C   UNL A   1      33.320  22.998  25.772  1.00  0.00    -0.006 A 
ATOM     85  C   UNL A   1      34.642  22.991  26.149  1.00  0.00     0.038 A 
ATOM     86  C   UNL A   1      32.645  22.670  26.958  1.00  0.00     0.138 A 
ATOM     87  N   UNL A   1      34.692  22.427  27.395  1.00  0.00    -0.282 N 
ATOM     88  N   UNL A   1      33.472  22.402  27.969  1.00  0.00    -0.184 NA
ATOM     89  H   UNL A   1      35.513  22.085  27.817  1.00  0.00     0.190 HD
ENDBRANCH  78  80
ENDBRANCH  77  78
ENDBRANCH  76  77
ENDBRANCH  75  76
ENDBRANCH  74  75
ENDBRANCH  73  74
ENDBRANCH  72  73
ENDBRANCH   1  72
TORSDOF 20
ENDMDL
