MODEL 1
REMARK VINA RESULT:     -11.0      0.000      0.000
REMARK SMILES Cc1nc(-c2ccccc2Cl)nc2sc(C(=O)OCCOCCOCCOC(=O)c3ccc(-c4c5nc(c(-c6cccc(S(=O)(=O)[O-])c6F)c6ccc([nH]6)c(-c6cccc(S(=O)(=O)[O-])c6F)c6nc(c(-c7cccc(S(=O)(=O)[O-])c7F)c7ccc4[nH]7)C=C6)C=C5)cc3)c(N)c12
REMARK SMILES IDX 23 1 22 2 21 3 20 4 19 5 18 6 16 7 17 8 15 9 1 10 2 11 3 12
REMARK SMILES IDX 95 13 4 14 13 15 93 16 12 17 14 18 5 19 6 20 10 21 7 22 9 23
REMARK SMILES IDX 11 24 8 25 94 26 24 29 25 30 26 31 27 32 28 33 29 34 30 35
REMARK SMILES IDX 31 36 92 37 32 38 91 39 33 40 34 41 35 42 85 43 36 44 90 45
REMARK SMILES IDX 84 46 86 47 37 48 89 49 83 50 82 51 38 53 70 54 50 55 69 56
REMARK SMILES IDX 51 57 54 58 68 59 87 60 52 61 53 62 67 64 88 65 55 66 39 67
REMARK SMILES IDX 40 68 48 69 41 70 43 71 49 72 42 73 44 74 45 75 46 76 47 77
REMARK SMILES IDX 71 78 72 79 80 80 73 81 75 82 81 83 74 84 76 85 77 86 78 87
REMARK SMILES IDX 79 88 56 89 57 90 65 91 58 92 60 93 66 94 59 95 61 96 62 97
REMARK SMILES IDX 63 98 64 99
REMARK H PARENT 94 27 94 28 86 52 54 63
REMARK Flexibility Score: inf
ROOT
ATOM      1  C   UNL A   1      42.605  19.099  25.994  1.00  0.00     0.188 C 
ENDROOT
BRANCH   1   2
ATOM      2  C   UNL A   1      41.152  19.413  26.418  1.00  0.00     0.188 C 
BRANCH   2   3
ATOM      3  O   UNL A   1      40.171  19.838  25.479  1.00  0.00    -0.376 OA
BRANCH   3   4
ATOM      4  C   UNL A   1      39.121  20.711  25.860  1.00  0.00     0.202 C 
BRANCH   4   5
ATOM      5  C   UNL A   1      37.755  20.641  25.155  1.00  0.00     0.261 C 
BRANCH   5   6
ATOM      6  O   UNL A   1      36.722  21.480  25.684  1.00  0.00    -0.459 OA
BRANCH   6   7
ATOM      7  C   UNL A   1      35.437  21.170  25.352  1.00  0.00     0.350 C 
ATOM      8  O   UNL A   1      35.067  20.061  24.971  1.00  0.00    -0.245 OA
BRANCH   7   9
ATOM      9  C   UNL A   1      34.552  22.284  25.633  1.00  0.00     0.138 A 
ATOM     10  C   UNL A   1      30.171  23.260  26.836  1.00  0.00     0.067 C 
ATOM     11  C   UNL A   1      31.382  24.088  26.528  1.00  0.00     0.052 A 
ATOM     12  N   UNL A   1      31.185  25.439  26.484  1.00  0.00    -0.233 NA
ATOM     13  C   UNL A   1      32.659  23.576  26.201  1.00  0.00     0.057 A 
ATOM     14  C   UNL A   1      32.217  26.250  26.192  1.00  0.00     0.162 A 
ATOM     15  C   UNL A   1      33.615  24.531  25.900  1.00  0.00     0.130 A 
ATOM     16  C   UNL A   1      33.237  22.258  26.074  1.00  0.00     0.069 A 
ATOM     17  N   UNL A   1      33.456  25.858  25.891  1.00  0.00    -0.217 NA
ATOM     18  S   UNL A   1      35.118  23.885  25.454  1.00  0.00    -0.106 S 
BRANCH  14  19
ATOM     19  C   UNL A   1      31.968  27.684  26.008  1.00  0.00     0.038 A 
ATOM     20  C   UNL A   1      32.179  28.542  27.113  1.00  0.00     0.013 A 
ATOM     21  C   UNL A   1      31.471  28.257  24.828  1.00  0.00     0.052 A 
ATOM     22  C   UNL A   1      31.888  29.904  27.057  1.00  0.00     0.001 A 
ATOM     23  C   UNL A   1      31.177  29.629  24.773  1.00  0.00     0.021 A 
ATOM     24  Cl  UNL A   1      31.125  27.326  23.412  1.00  0.00    -0.084 Cl
ATOM     25  C   UNL A   1      31.380  30.448  25.885  1.00  0.00     0.002 A 
ENDBRANCH  14  19
BRANCH  16  26
ATOM     26  N   UNL A   1      32.591  21.106  26.367  1.00  0.00    -0.397 N 
ATOM     27  H   UNL A   1      32.076  21.029  27.202  1.00  0.00     0.156 HD
ATOM     28  H   UNL A   1      32.637  20.344  25.744  1.00  0.00     0.156 HD
ENDBRANCH  16  26
ENDBRANCH   7   9
ENDBRANCH   6   7
ENDBRANCH   5   6
ENDBRANCH   4   5
ENDBRANCH   3   4
ENDBRANCH   2   3
ENDBRANCH   1   2
BRANCH   1  29
ATOM     29  O   UNL A   1      43.203  20.084  25.175  1.00  0.00    -0.376 OA
BRANCH  29  30
ATOM     30  C   UNL A   1      43.785  21.233  25.769  1.00  0.00     0.202 C 
BRANCH  30  31
ATOM     31  C   UNL A   1      43.163  22.620  25.608  1.00  0.00     0.261 C 
BRANCH  31  32
ATOM     32  O   UNL A   1      41.882  22.794  26.181  1.00  0.00    -0.460 OA
BRANCH  32  33
ATOM     33  C   UNL A   1      41.904  23.214  27.460  1.00  0.00     0.338 C 
ATOM     34  O   UNL A   1      41.567  22.583  28.447  1.00  0.00    -0.246 OA
BRANCH  33  35
ATOM     35  C   UNL A   1      42.285  24.624  27.475  1.00  0.00     0.060 A 
ATOM     36  C   UNL A   1      43.141  25.030  28.498  1.00  0.00     0.016 A 
ATOM     37  C   UNL A   1      41.493  25.522  26.744  1.00  0.00     0.016 A 
ATOM     38  C   UNL A   1      43.005  26.313  28.966  1.00  0.00     0.010 A 
ATOM     39  C   UNL A   1      41.340  26.792  27.231  1.00  0.00     0.010 A 
ATOM     40  C   UNL A   1      42.025  27.133  28.392  1.00  0.00    -0.014 A 
BRANCH  40  41
ATOM     41  C   UNL A   1      41.814  28.436  28.973  1.00  0.00     0.031 A 
ATOM     42  C   UNL A   1      42.791  29.411  28.457  1.00  0.00     0.074 A 
ATOM     43  C   UNL A   1      40.802  28.697  29.820  1.00  0.00     0.049 A 
ATOM     44  N   UNL A   1      43.815  29.885  29.082  1.00  0.00    -0.248 NA
ATOM     45  C   UNL A   1      42.780  29.694  27.013  1.00  0.00     0.031 C 
ATOM     46  C   UNL A   1      39.663  27.838  30.157  1.00  0.00     0.029 A 
ATOM     47  N   UNL A   1      40.509  29.857  30.467  1.00  0.00    -0.354 N 
ATOM     48  C   UNL A   1      44.402  30.760  28.177  1.00  0.00     0.074 A 
ATOM     49  C   UNL A   1      43.908  30.391  26.880  1.00  0.00     0.031 C 
ATOM     50  C   UNL A   1      38.693  28.589  30.728  1.00  0.00     0.029 A 
ATOM     51  C   UNL A   1      39.193  29.940  30.916  1.00  0.00     0.049 A 
ATOM     52  H   UNL A   1      41.169  30.574  30.606  1.00  0.00     0.167 HD
ATOM     53  C   UNL A   1      44.950  31.924  28.613  1.00  0.00     0.034 A 
ATOM     54  C   UNL A   1      38.560  31.067  31.328  1.00  0.00     0.034 A 
ATOM     55  C   UNL A   1      45.207  31.875  30.032  1.00  0.00     0.049 A 
ATOM     56  C   UNL A   1      39.612  32.050  31.680  1.00  0.00     0.074 A 
ATOM     57  C   UNL A   1      45.953  31.069  30.867  1.00  0.00     0.029 A 
ATOM     58  N   UNL A   1      44.304  32.532  30.831  1.00  0.00    -0.354 N 
ATOM     59  N   UNL A   1      40.417  31.913  32.694  1.00  0.00    -0.248 NA
ATOM     60  C   UNL A   1      40.048  32.981  30.652  1.00  0.00     0.031 C 
ATOM     61  C   UNL A   1      45.194  30.971  32.069  1.00  0.00     0.029 A 
ATOM     62  C   UNL A   1      44.056  31.770  31.938  1.00  0.00     0.049 A 
ATOM     63  H   UNL A   1      43.900  33.409  30.637  1.00  0.00     0.167 HD
ATOM     64  C   UNL A   1      41.643  32.352  32.215  1.00  0.00     0.074 A 
ATOM     65  C   UNL A   1      41.327  33.117  31.011  1.00  0.00     0.031 C 
ATOM     66  C   UNL A   1      42.806  31.798  32.669  1.00  0.00     0.034 A 
BRANCH  53  67
ATOM     67  C   UNL A   1      44.833  33.242  27.875  1.00  0.00     0.023 A 
ATOM     68  C   UNL A   1      46.003  33.723  27.250  1.00  0.00     0.012 A 
ATOM     69  C   UNL A   1      43.753  34.152  27.991  1.00  0.00     0.148 A 
ATOM     70  C   UNL A   1      46.114  35.050  26.822  1.00  0.00     0.002 A 
ATOM     71  C   UNL A   1      43.835  35.441  27.483  1.00  0.00     0.091 A 
ATOM     72  F   UNL A   1      42.677  33.842  28.716  1.00  0.00    -0.205 F 
ATOM     73  C   UNL A   1      45.027  35.908  26.929  1.00  0.00     0.022 A 
BRANCH  71  74
ATOM     74  S   UNL A   1      42.436  36.570  27.546  1.00  0.00     0.127 S 
ATOM     75  O   UNL A   1      42.860  37.614  26.619  1.00  0.00    -0.237 OA
ATOM     76  O   UNL A   1      41.349  35.715  27.066  1.00  0.00    -0.237 OA
ATOM     77  O   UNL A   1      42.309  36.967  28.943  1.00  0.00    -0.744 OA
ENDBRANCH  71  74
ENDBRANCH  53  67
BRANCH  54  78
ATOM     78  C   UNL A   1      37.143  31.489  31.197  1.00  0.00     0.023 A 
ATOM     79  C   UNL A   1      36.452  31.943  32.341  1.00  0.00     0.012 A 
ATOM     80  C   UNL A   1      36.577  31.756  29.931  1.00  0.00     0.148 A 
ATOM     81  C   UNL A   1      35.267  32.682  32.228  1.00  0.00     0.002 A 
ATOM     82  C   UNL A   1      35.399  32.493  29.824  1.00  0.00     0.091 A 
ATOM     83  F   UNL A   1      37.240  31.371  28.834  1.00  0.00    -0.205 F 
ATOM     84  C   UNL A   1      34.749  32.969  30.970  1.00  0.00     0.022 A 
BRANCH  82  85
ATOM     85  S   UNL A   1      34.692  32.951  28.235  1.00  0.00     0.127 S 
ATOM     86  O   UNL A   1      35.782  33.717  27.630  1.00  0.00    -0.237 OA
ATOM     87  O   UNL A   1      34.450  31.645  27.625  1.00  0.00    -0.237 OA
ATOM     88  O   UNL A   1      33.502  33.735  28.538  1.00  0.00    -0.744 OA
ENDBRANCH  82  85
ENDBRANCH  54  78
BRANCH  66  89
ATOM     89  C   UNL A   1      42.750  30.945  33.913  1.00  0.00     0.023 A 
ATOM     90  C   UNL A   1      42.791  31.485  35.216  1.00  0.00     0.012 A 
ATOM     91  C   UNL A   1      42.457  29.580  33.753  1.00  0.00     0.148 A 
ATOM     92  C   UNL A   1      42.554  30.677  36.331  1.00  0.00     0.002 A 
ATOM     93  C   UNL A   1      42.164  28.795  34.858  1.00  0.00     0.091 A 
ATOM     94  F   UNL A   1      42.429  29.082  32.507  1.00  0.00    -0.205 F 
ATOM     95  C   UNL A   1      42.221  29.336  36.152  1.00  0.00     0.022 A 
BRANCH  93  96
ATOM     96  S   UNL A   1      41.584  27.106  34.678  1.00  0.00     0.127 S 
ATOM     97  O   UNL A   1      41.215  26.761  36.048  1.00  0.00    -0.237 OA
ATOM     98  O   UNL A   1      40.455  27.259  33.759  1.00  0.00    -0.237 OA
ATOM     99  O   UNL A   1      42.703  26.355  34.122  1.00  0.00    -0.744 OA
ENDBRANCH  93  96
ENDBRANCH  66  89
ENDBRANCH  40  41
ENDBRANCH  33  35
ENDBRANCH  32  33
ENDBRANCH  31  32
ENDBRANCH  30  31
ENDBRANCH  29  30
ENDBRANCH   1  29
TORSDOF 22
ENDMDL
MODEL 2
REMARK VINA RESULT:     -10.6      4.994     12.315
REMARK SMILES Cc1nc(-c2ccccc2Cl)nc2sc(C(=O)OCCOCCOCCOC(=O)c3ccc(-c4c5nc(c(-c6cccc(S(=O)(=O)[O-])c6F)c6ccc([nH]6)c(-c6cccc(S(=O)(=O)[O-])c6F)c6nc(c(-c7cccc(S(=O)(=O)[O-])c7F)c7ccc4[nH]7)C=C6)C=C5)cc3)c(N)c12
REMARK SMILES IDX 23 1 22 2 21 3 20 4 19 5 18 6 16 7 17 8 15 9 1 10 2 11 3 12
REMARK SMILES IDX 95 13 4 14 13 15 93 16 12 17 14 18 5 19 6 20 10 21 7 22 9 23
REMARK SMILES IDX 11 24 8 25 94 26 24 29 25 30 26 31 27 32 28 33 29 34 30 35
REMARK SMILES IDX 31 36 92 37 32 38 91 39 33 40 34 41 35 42 85 43 36 44 90 45
REMARK SMILES IDX 84 46 86 47 37 48 89 49 83 50 82 51 38 53 70 54 50 55 69 56
REMARK SMILES IDX 51 57 54 58 68 59 87 60 52 61 53 62 67 64 88 65 55 66 39 67
REMARK SMILES IDX 40 68 48 69 41 70 43 71 49 72 42 73 44 74 45 75 46 76 47 77
REMARK SMILES IDX 71 78 72 79 80 80 73 81 75 82 81 83 74 84 76 85 77 86 78 87
REMARK SMILES IDX 79 88 56 89 57 90 65 91 58 92 60 93 66 94 59 95 61 96 62 97
REMARK SMILES IDX 63 98 64 99
REMARK H PARENT 94 27 94 28 86 52 54 63
REMARK Flexibility Score: inf
ROOT
ATOM      1  C   UNL A   1      35.178  34.916  33.931  1.00  0.00     0.188 C 
ENDROOT
BRANCH   1   2
ATOM      2  C   UNL A   1      36.592  34.294  33.999  1.00  0.00     0.188 C 
BRANCH   2   3
ATOM      3  O   UNL A   1      37.765  35.074  33.793  1.00  0.00    -0.376 OA
BRANCH   3   4
ATOM      4  C   UNL A   1      38.985  34.745  34.436  1.00  0.00     0.202 C 
BRANCH   4   5
ATOM      5  C   UNL A   1      39.626  35.722  35.436  1.00  0.00     0.261 C 
BRANCH   5   6
ATOM      6  O   UNL A   1      39.386  35.461  36.824  1.00  0.00    -0.459 OA
BRANCH   6   7
ATOM      7  C   UNL A   1      40.359  34.793  37.509  1.00  0.00     0.350 C 
ATOM      8  O   UNL A   1      41.564  34.993  37.375  1.00  0.00    -0.245 OA
BRANCH   7   9
ATOM      9  C   UNL A   1      39.773  33.914  38.503  1.00  0.00     0.138 A 
ATOM     10  C   UNL A   1      35.799  31.767  39.595  1.00  0.00     0.067 C 
ATOM     11  C   UNL A   1      37.155  31.847  40.228  1.00  0.00     0.052 A 
ATOM     12  N   UNL A   1      37.279  31.250  41.451  1.00  0.00    -0.233 NA
ATOM     13  C   UNL A   1      38.261  32.554  39.703  1.00  0.00     0.057 A 
ATOM     14  C   UNL A   1      38.457  31.296  42.096  1.00  0.00     0.162 A 
ATOM     15  C   UNL A   1      39.400  32.532  40.490  1.00  0.00     0.130 A 
ATOM     16  C   UNL A   1      38.509  33.342  38.518  1.00  0.00     0.069 A 
ATOM     17  N   UNL A   1      39.555  31.922  41.669  1.00  0.00    -0.217 NA
ATOM     18  S   UNL A   1      40.689  33.438  39.862  1.00  0.00    -0.106 S 
BRANCH  14  19
ATOM     19  C   UNL A   1      38.543  30.779  43.466  1.00  0.00     0.038 A 
ATOM     20  C   UNL A   1      39.799  30.315  43.923  1.00  0.00     0.013 A 
ATOM     21  C   UNL A   1      37.449  30.650  44.335  1.00  0.00     0.052 A 
ATOM     22  C   UNL A   1      39.958  29.730  45.178  1.00  0.00     0.001 A 
ATOM     23  C   UNL A   1      37.610  30.059  45.598  1.00  0.00     0.021 A 
ATOM     24  Cl  UNL A   1      35.847  31.134  43.896  1.00  0.00    -0.084 Cl
ATOM     25  C   UNL A   1      38.858  29.595  46.015  1.00  0.00     0.002 A 
ENDBRANCH  14  19
BRANCH  16  26
ATOM     26  N   UNL A   1      37.625  33.505  37.506  1.00  0.00    -0.397 N 
ATOM     27  H   UNL A   1      36.853  32.901  37.426  1.00  0.00     0.156 HD
ATOM     28  H   UNL A   1      37.755  34.229  36.852  1.00  0.00     0.156 HD
ENDBRANCH  16  26
ENDBRANCH   7   9
ENDBRANCH   6   7
ENDBRANCH   5   6
ENDBRANCH   4   5
ENDBRANCH   3   4
ENDBRANCH   2   3
ENDBRANCH   1   2
BRANCH   1  29
ATOM     29  O   UNL A   1      35.069  36.034  33.074  1.00  0.00    -0.376 OA
BRANCH  29  30
ATOM     30  C   UNL A   1      33.827  36.708  32.952  1.00  0.00     0.202 C 
BRANCH  30  31
ATOM     31  C   UNL A   1      32.848  36.383  31.824  1.00  0.00     0.261 C 
BRANCH  31  32
ATOM     32  O   UNL A   1      32.968  35.097  31.251  1.00  0.00    -0.460 OA
BRANCH  32  33
ATOM     33  C   UNL A   1      33.246  35.104  29.933  1.00  0.00     0.338 C 
ATOM     34  O   UNL A   1      32.773  35.842  29.086  1.00  0.00    -0.246 OA
BRANCH  33  35
ATOM     35  C   UNL A   1      34.134  33.980  29.644  1.00  0.00     0.060 A 
ATOM     36  C   UNL A   1      34.467  33.155  30.718  1.00  0.00     0.016 A 
ATOM     37  C   UNL A   1      34.882  34.028  28.459  1.00  0.00     0.016 A 
ATOM     38  C   UNL A   1      35.708  32.569  30.704  1.00  0.00     0.010 A 
ATOM     39  C   UNL A   1      36.130  33.465  28.460  1.00  0.00     0.010 A 
ATOM     40  C   UNL A   1      36.558  32.829  29.621  1.00  0.00    -0.014 A 
BRANCH  40  41
ATOM     41  C   UNL A   1      37.900  32.304  29.678  1.00  0.00     0.031 A 
ATOM     42  C   UNL A   1      37.937  30.897  29.243  1.00  0.00     0.074 A 
ATOM     43  C   UNL A   1      38.960  33.057  30.024  1.00  0.00     0.049 A 
ATOM     44  N   UNL A   1      38.068  29.857  29.996  1.00  0.00    -0.248 NA
ATOM     45  C   UNL A   1      37.527  30.595  27.862  1.00  0.00     0.031 C 
ATOM     46  C   UNL A   1      39.012  34.510  30.210  1.00  0.00     0.029 A 
ATOM     47  N   UNL A   1      40.262  32.687  30.155  1.00  0.00    -0.354 N 
ATOM     48  C   UNL A   1      38.050  28.783  29.114  1.00  0.00     0.074 A 
ATOM     49  C   UNL A   1      37.447  29.265  27.903  1.00  0.00     0.031 C 
ATOM     50  C   UNL A   1      40.303  34.917  30.175  1.00  0.00     0.029 A 
ATOM     51  C   UNL A   1      41.162  33.748  30.099  1.00  0.00     0.049 A 
ATOM     52  H   UNL A   1      40.543  31.752  30.281  1.00  0.00     0.167 HD
ATOM     53  C   UNL A   1      38.853  27.710  29.333  1.00  0.00     0.034 A 
ATOM     54  C   UNL A   1      42.503  33.648  29.919  1.00  0.00     0.034 A 
ATOM     55  C   UNL A   1      39.307  27.675  30.702  1.00  0.00     0.049 A 
ATOM     56  C   UNL A   1      42.886  32.264  30.282  1.00  0.00     0.074 A 
ATOM     57  C   UNL A   1      38.697  27.624  31.939  1.00  0.00     0.029 A 
ATOM     58  N   UNL A   1      40.593  28.105  30.922  1.00  0.00    -0.354 N 
ATOM     59  N   UNL A   1      42.832  31.796  31.496  1.00  0.00    -0.248 NA
ATOM     60  C   UNL A   1      42.932  31.268  29.225  1.00  0.00     0.031 C 
ATOM     61  C   UNL A   1      39.516  28.416  32.794  1.00  0.00     0.029 A 
ATOM     62  C   UNL A   1      40.619  28.860  32.060  1.00  0.00     0.049 A 
ATOM     63  H   UNL A   1      41.369  27.904  30.350  1.00  0.00     0.167 HD
ATOM     64  C   UNL A   1      42.357  30.501  31.339  1.00  0.00     0.074 A 
ATOM     65  C   UNL A   1      42.566  30.191  29.926  1.00  0.00     0.031 C 
ATOM     66  C   UNL A   1      41.568  29.928  32.295  1.00  0.00     0.034 A 
BRANCH  53  67
ATOM     67  C   UNL A   1      39.586  26.966  28.237  1.00  0.00     0.023 A 
ATOM     68  C   UNL A   1      39.425  25.564  28.206  1.00  0.00     0.012 A 
ATOM     69  C   UNL A   1      40.619  27.505  27.431  1.00  0.00     0.148 A 
ATOM     70  C   UNL A   1      40.281  24.743  27.466  1.00  0.00     0.002 A 
ATOM     71  C   UNL A   1      41.408  26.694  26.626  1.00  0.00     0.091 A 
ATOM     72  F   UNL A   1      40.955  28.792  27.527  1.00  0.00    -0.205 F 
ATOM     73  C   UNL A   1      41.267  25.307  26.667  1.00  0.00     0.022 A 
BRANCH  71  74
ATOM     74  S   UNL A   1      42.659  27.382  25.533  1.00  0.00     0.127 S 
ATOM     75  O   UNL A   1      43.703  27.756  26.481  1.00  0.00    -0.237 OA
ATOM     76  O   UNL A   1      42.971  26.231  24.685  1.00  0.00    -0.237 OA
ATOM     77  O   UNL A   1      42.010  28.482  24.829  1.00  0.00    -0.744 OA
ENDBRANCH  71  74
ENDBRANCH  53  67
BRANCH  54  78
ATOM     78  C   UNL A   1      43.457  34.537  29.207  1.00  0.00     0.023 A 
ATOM     79  C   UNL A   1      44.149  35.527  29.937  1.00  0.00     0.012 A 
ATOM     80  C   UNL A   1      43.929  34.213  27.917  1.00  0.00     0.148 A 
ATOM     81  C   UNL A   1      45.300  36.137  29.422  1.00  0.00     0.002 A 
ATOM     82  C   UNL A   1      45.075  34.821  27.409  1.00  0.00     0.091 A 
ATOM     83  F   UNL A   1      43.311  33.246  27.227  1.00  0.00    -0.205 F 
ATOM     84  C   UNL A   1      45.771  35.774  28.166  1.00  0.00     0.022 A 
BRANCH  82  85
ATOM     85  S   UNL A   1      45.779  34.371  25.816  1.00  0.00     0.127 S 
ATOM     86  O   UNL A   1      46.136  32.969  26.030  1.00  0.00    -0.237 OA
ATOM     87  O   UNL A   1      44.647  34.583  24.917  1.00  0.00    -0.237 OA
ATOM     88  O   UNL A   1      46.917  35.258  25.617  1.00  0.00    -0.744 OA
ENDBRANCH  82  85
ENDBRANCH  54  78
BRANCH  66  89
ATOM     89  C   UNL A   1      41.491  30.595  33.647  1.00  0.00     0.023 A 
ATOM     90  C   UNL A   1      40.354  31.307  34.087  1.00  0.00     0.012 A 
ATOM     91  C   UNL A   1      42.522  30.330  34.563  1.00  0.00     0.148 A 
ATOM     92  C   UNL A   1      40.257  31.749  35.409  1.00  0.00     0.002 A 
ATOM     93  C   UNL A   1      42.396  30.719  35.888  1.00  0.00     0.091 A 
ATOM     94  F   UNL A   1      43.599  29.659  34.125  1.00  0.00    -0.205 F 
ATOM     95  C   UNL A   1      41.269  31.439  36.315  1.00  0.00     0.022 A 
BRANCH  93  96
ATOM     96  S   UNL A   1      43.593  30.218  37.128  1.00  0.00     0.127 S 
ATOM     97  O   UNL A   1      43.062  30.844  38.336  1.00  0.00    -0.237 OA
ATOM     98  O   UNL A   1      43.485  28.759  37.096  1.00  0.00    -0.237 OA
ATOM     99  O   UNL A   1      44.881  30.727  36.672  1.00  0.00    -0.744 OA
ENDBRANCH  93  96
ENDBRANCH  66  89
ENDBRANCH  40  41
ENDBRANCH  33  35
ENDBRANCH  32  33
ENDBRANCH  31  32
ENDBRANCH  30  31
ENDBRANCH  29  30
ENDBRANCH   1  29
TORSDOF 22
ENDMDL
MODEL 3
REMARK VINA RESULT:     -10.6      1.397      2.119
REMARK SMILES Cc1nc(-c2ccccc2Cl)nc2sc(C(=O)OCCOCCOCCOC(=O)c3ccc(-c4c5nc(c(-c6cccc(S(=O)(=O)[O-])c6F)c6ccc([nH]6)c(-c6cccc(S(=O)(=O)[O-])c6F)c6nc(c(-c7cccc(S(=O)(=O)[O-])c7F)c7ccc4[nH]7)C=C6)C=C5)cc3)c(N)c12
REMARK SMILES IDX 23 1 22 2 21 3 20 4 19 5 18 6 16 7 17 8 15 9 1 10 2 11 3 12
REMARK SMILES IDX 95 13 4 14 13 15 93 16 12 17 14 18 5 19 6 20 10 21 7 22 9 23
REMARK SMILES IDX 11 24 8 25 94 26 24 29 25 30 26 31 27 32 28 33 29 34 30 35
REMARK SMILES IDX 31 36 92 37 32 38 91 39 33 40 34 41 35 42 85 43 36 44 90 45
REMARK SMILES IDX 84 46 86 47 37 48 89 49 83 50 82 51 38 53 70 54 50 55 69 56
REMARK SMILES IDX 51 57 54 58 68 59 87 60 52 61 53 62 67 64 88 65 55 66 39 67
REMARK SMILES IDX 40 68 48 69 41 70 43 71 49 72 42 73 44 74 45 75 46 76 47 77
REMARK SMILES IDX 71 78 72 79 80 80 73 81 75 82 81 83 74 84 76 85 77 86 78 87
REMARK SMILES IDX 79 88 56 89 57 90 65 91 58 92 60 93 66 94 59 95 61 96 62 97
REMARK SMILES IDX 63 98 64 99
REMARK H PARENT 94 27 94 28 86 52 54 63
REMARK Flexibility Score: inf
ROOT
ATOM      1  C   UNL A   1      44.194  20.524  25.351  1.00  0.00     0.188 C 
ENDROOT
BRANCH   1   2
ATOM      2  C   UNL A   1      43.691  19.090  25.059  1.00  0.00     0.188 C 
BRANCH   2   3
ATOM      3  O   UNL A   1      42.367  18.680  25.383  1.00  0.00    -0.376 OA
BRANCH   3   4
ATOM      4  C   UNL A   1      41.486  19.538  26.087  1.00  0.00     0.202 C 
BRANCH   4   5
ATOM      5  C   UNL A   1      39.962  19.364  25.960  1.00  0.00     0.261 C 
BRANCH   5   6
ATOM      6  O   UNL A   1      39.248  20.442  25.342  1.00  0.00    -0.459 OA
BRANCH   6   7
ATOM      7  C   UNL A   1      38.904  21.496  26.135  1.00  0.00     0.350 C 
ATOM      8  O   UNL A   1      39.637  21.990  26.990  1.00  0.00    -0.245 OA
BRANCH   7   9
ATOM      9  C   UNL A   1      37.615  22.032  25.742  1.00  0.00     0.138 A 
ATOM     10  C   UNL A   1      33.454  20.733  24.132  1.00  0.00     0.067 C 
ATOM     11  C   UNL A   1      34.079  22.051  24.479  1.00  0.00     0.052 A 
ATOM     12  N   UNL A   1      33.335  23.159  24.186  1.00  0.00    -0.233 NA
ATOM     13  C   UNL A   1      35.385  22.225  24.992  1.00  0.00     0.057 A 
ATOM     14  C   UNL A   1      33.833  24.380  24.445  1.00  0.00     0.162 A 
ATOM     15  C   UNL A   1      35.769  23.542  25.186  1.00  0.00     0.130 A 
ATOM     16  C   UNL A   1      36.471  21.347  25.359  1.00  0.00     0.069 A 
ATOM     17  N   UNL A   1      35.043  24.638  24.945  1.00  0.00    -0.217 NA
ATOM     18  S   UNL A   1      37.359  23.720  25.745  1.00  0.00    -0.106 S 
BRANCH  14  19
ATOM     19  C   UNL A   1      33.092  25.565  23.999  1.00  0.00     0.038 A 
ATOM     20  C   UNL A   1      33.552  26.241  22.845  1.00  0.00     0.013 A 
ATOM     21  C   UNL A   1      31.994  26.114  24.677  1.00  0.00     0.052 A 
ATOM     22  C   UNL A   1      32.963  27.421  22.396  1.00  0.00     0.001 A 
ATOM     23  C   UNL A   1      31.401  27.304  24.225  1.00  0.00     0.021 A 
ATOM     24  Cl  UNL A   1      31.348  25.421  26.124  1.00  0.00    -0.084 Cl
ATOM     25  C   UNL A   1      31.889  27.958  23.092  1.00  0.00     0.002 A 
ENDBRANCH  14  19
BRANCH  16  26
ATOM     26  N   UNL A   1      36.400  19.996  25.356  1.00  0.00    -0.397 N 
ATOM     27  H   UNL A   1      36.431  19.504  24.504  1.00  0.00     0.156 HD
ATOM     28  H   UNL A   1      36.318  19.505  26.205  1.00  0.00     0.156 HD
ENDBRANCH  16  26
ENDBRANCH   7   9
ENDBRANCH   6   7
ENDBRANCH   5   6
ENDBRANCH   4   5
ENDBRANCH   3   4
ENDBRANCH   2   3
ENDBRANCH   1   2
BRANCH   1  29
ATOM     29  O   UNL A   1      44.668  21.220  24.216  1.00  0.00    -0.376 OA
BRANCH  29  30
ATOM     30  C   UNL A   1      44.703  22.638  24.227  1.00  0.00     0.202 C 
BRANCH  30  31
ATOM     31  C   UNL A   1      44.828  23.426  25.531  1.00  0.00     0.261 C 
BRANCH  31  32
ATOM     32  O   UNL A   1      43.803  24.366  25.787  1.00  0.00    -0.460 OA
BRANCH  32  33
ATOM     33  C   UNL A   1      42.635  23.818  26.173  1.00  0.00     0.338 C 
ATOM     34  O   UNL A   1      42.059  22.876  25.657  1.00  0.00    -0.246 OA
BRANCH  33  35
ATOM     35  C   UNL A   1      42.087  24.624  27.261  1.00  0.00     0.060 A 
ATOM     36  C   UNL A   1      40.889  25.289  27.003  1.00  0.00     0.016 A 
ATOM     37  C   UNL A   1      42.952  24.989  28.303  1.00  0.00     0.016 A 
ATOM     38  C   UNL A   1      40.686  26.493  27.630  1.00  0.00     0.010 A 
ATOM     39  C   UNL A   1      42.761  26.203  28.906  1.00  0.00     0.010 A 
ATOM     40  C   UNL A   1      41.684  26.977  28.487  1.00  0.00    -0.014 A 
BRANCH  40  41
ATOM     41  C   UNL A   1      41.510  28.296  29.044  1.00  0.00     0.031 A 
ATOM     42  C   UNL A   1      42.482  29.245  28.473  1.00  0.00     0.074 A 
ATOM     43  C   UNL A   1      40.531  28.591  29.919  1.00  0.00     0.049 A 
ATOM     44  N   UNL A   1      43.534  29.718  29.052  1.00  0.00    -0.248 NA
ATOM     45  C   UNL A   1      42.426  29.494  27.024  1.00  0.00     0.031 C 
ATOM     46  C   UNL A   1      39.393  27.756  30.314  1.00  0.00     0.029 A 
ATOM     47  N   UNL A   1      40.277  29.770  30.548  1.00  0.00    -0.354 N 
ATOM     48  C   UNL A   1      44.101  30.564  28.106  1.00  0.00     0.074 A 
ATOM     49  C   UNL A   1      43.558  30.172  26.836  1.00  0.00     0.031 C 
ATOM     50  C   UNL A   1      38.453  28.535  30.900  1.00  0.00     0.029 A 
ATOM     51  C   UNL A   1      38.978  29.882  31.039  1.00  0.00     0.049 A 
ATOM     52  H   UNL A   1      40.951  30.480  30.648  1.00  0.00     0.167 HD
ATOM     53  C   UNL A   1      44.679  31.729  28.497  1.00  0.00     0.034 A 
ATOM     54  C   UNL A   1      38.375  31.027  31.446  1.00  0.00     0.034 A 
ATOM     55  C   UNL A   1      44.984  31.709  29.907  1.00  0.00     0.049 A 
ATOM     56  C   UNL A   1      39.452  32.002  31.739  1.00  0.00     0.074 A 
ATOM     57  C   UNL A   1      45.747  30.911  30.735  1.00  0.00     0.029 A 
ATOM     58  N   UNL A   1      44.118  32.397  30.721  1.00  0.00    -0.354 N 
ATOM     59  N   UNL A   1      40.289  31.877  32.728  1.00  0.00    -0.248 NA
ATOM     60  C   UNL A   1      39.865  32.903  30.676  1.00  0.00     0.031 C 
ATOM     61  C   UNL A   1      45.028  30.852  31.964  1.00  0.00     0.029 A 
ATOM     62  C   UNL A   1      43.898  31.664  31.853  1.00  0.00     0.049 A 
ATOM     63  H   UNL A   1      43.720  33.275  30.520  1.00  0.00     0.167 HD
ATOM     64  C   UNL A   1      41.504  32.287  32.198  1.00  0.00     0.074 A 
ATOM     65  C   UNL A   1      41.158  33.029  30.987  1.00  0.00     0.031 C 
ATOM     66  C   UNL A   1      42.674  31.727  32.625  1.00  0.00     0.034 A 
BRANCH  53  67
ATOM     67  C   UNL A   1      44.556  33.031  27.733  1.00  0.00     0.023 A 
ATOM     68  C   UNL A   1      45.647  33.391  26.915  1.00  0.00     0.012 A 
ATOM     69  C   UNL A   1      43.586  34.035  27.979  1.00  0.00     0.148 A 
ATOM     70  C   UNL A   1      45.797  34.691  26.421  1.00  0.00     0.002 A 
ATOM     71  C   UNL A   1      43.691  35.298  27.411  1.00  0.00     0.091 A 
ATOM     72  F   UNL A   1      42.617  33.840  28.873  1.00  0.00    -0.205 F 
ATOM     73  C   UNL A   1      44.815  35.643  26.660  1.00  0.00     0.022 A 
BRANCH  71  74
ATOM     74  S   UNL A   1      42.417  36.545  27.645  1.00  0.00     0.127 S 
ATOM     75  O   UNL A   1      42.628  36.921  29.040  1.00  0.00    -0.237 OA
ATOM     76  O   UNL A   1      42.813  37.555  26.662  1.00  0.00    -0.237 OA
ATOM     77  O   UNL A   1      41.153  35.884  27.344  1.00  0.00    -0.744 OA
ENDBRANCH  71  74
ENDBRANCH  53  67
BRANCH  54  78
ATOM     78  C   UNL A   1      36.960  31.467  31.353  1.00  0.00     0.023 A 
ATOM     79  C   UNL A   1      36.308  31.935  32.514  1.00  0.00     0.012 A 
ATOM     80  C   UNL A   1      36.362  31.734  30.103  1.00  0.00     0.148 A 
ATOM     81  C   UNL A   1      35.130  32.688  32.431  1.00  0.00     0.002 A 
ATOM     82  C   UNL A   1      35.191  32.485  30.025  1.00  0.00     0.091 A 
ATOM     83  F   UNL A   1      36.988  31.335  28.989  1.00  0.00    -0.205 F 
ATOM     84  C   UNL A   1      34.580  32.976  31.187  1.00  0.00     0.022 A 
BRANCH  82  85
ATOM     85  S   UNL A   1      34.445  32.945  28.454  1.00  0.00     0.127 S 
ATOM     86  O   UNL A   1      33.885  31.672  28.002  1.00  0.00    -0.237 OA
ATOM     87  O   UNL A   1      33.454  33.935  28.870  1.00  0.00    -0.237 OA
ATOM     88  O   UNL A   1      35.532  33.452  27.627  1.00  0.00    -0.744 OA
ENDBRANCH  82  85
ENDBRANCH  54  78
BRANCH  66  89
ATOM     89  C   UNL A   1      42.648  30.903  33.889  1.00  0.00     0.023 A 
ATOM     90  C   UNL A   1      42.705  31.475  35.179  1.00  0.00     0.012 A 
ATOM     91  C   UNL A   1      42.369  29.532  33.767  1.00  0.00     0.148 A 
ATOM     92  C   UNL A   1      42.496  30.691  36.316  1.00  0.00     0.002 A 
ATOM     93  C   UNL A   1      42.104  28.770  34.896  1.00  0.00     0.091 A 
ATOM     94  F   UNL A   1      42.326  29.004  32.534  1.00  0.00    -0.205 F 
ATOM     95  C   UNL A   1      42.176  29.343  36.175  1.00  0.00     0.022 A 
BRANCH  93  96
ATOM     96  S   UNL A   1      41.540  27.071  34.765  1.00  0.00     0.127 S 
ATOM     97  O   UNL A   1      42.732  26.392  34.264  1.00  0.00    -0.237 OA
ATOM     98  O   UNL A   1      41.189  26.750  36.149  1.00  0.00    -0.237 OA
ATOM     99  O   UNL A   1      40.402  27.094  33.854  1.00  0.00    -0.744 OA
ENDBRANCH  93  96
ENDBRANCH  66  89
ENDBRANCH  40  41
ENDBRANCH  33  35
ENDBRANCH  32  33
ENDBRANCH  31  32
ENDBRANCH  30  31
ENDBRANCH  29  30
ENDBRANCH   1  29
TORSDOF 22
ENDMDL
