MODEL 1
REMARK VINA RESULT:     -10.5      0.000      0.000
REMARK SMILES Cc1ccc(-c2csc(NC(=O)[C@H]3[C@@H](C(=O)OCCOCCOCCOC(=O)c4ccc(-c5c6nc(c(-c7cccc(S(=O)(=O)[O-])c7F)c7ccc([nH]7)c(-c7cccc(S(=O)(=O)[O-])c7F)c7nc(c(-c8cccc(S(=O)(=O)[O-])c8F)c8ccc5[nH]8)C=C7)C=C6)cc4)[C@H]4C=C[C@@H]3C4)c2C(=O)NC2CC2)cc1
REMARK SMILES IDX 21 1 20 2 19 3 18 4 17 5 15 6 16 7 14 8 13 9 95 10 92 11
REMARK SMILES IDX 94 12 96 13 93 14 11 15 10 16 12 18 9 19 6 20 7 21 97 22
REMARK SMILES IDX 8 23 5 24 1 25 2 26 3 27 105 28 4 29 104 30 98 31 99 32
REMARK SMILES IDX 100 33 101 35 102 36 103 37 22 38 23 39 24 40 25 41 26 42
REMARK SMILES IDX 27 43 28 44 29 45 30 46 91 47 31 48 90 49 32 50 33 51 34 52
REMARK SMILES IDX 84 53 35 54 89 55 83 56 85 57 36 58 88 59 82 60 81 61 37 63
REMARK SMILES IDX 69 64 49 65 68 66 50 67 53 68 67 69 86 70 51 71 52 72 66 74
REMARK SMILES IDX 87 75 54 76 38 77 39 78 47 79 40 80 42 81 48 82 41 83 43 84
REMARK SMILES IDX 44 85 45 86 46 87 70 88 71 89 79 90 72 91 74 92 80 93 73 94
REMARK SMILES IDX 75 95 76 96 77 97 78 98 55 99 56 100 64 101 57 102 59 103
REMARK SMILES IDX 65 104 58 105 60 106 61 107 62 108 63 109
REMARK H PARENT 10 17 100 34 85 62 53 73
REMARK Flexibility Score: inf
ROOT
ATOM      1  C   UNL A   1      39.680  26.797  28.452  1.00  0.00     0.188 C 
ENDROOT
BRANCH   1   2
ATOM      2  O   UNL A   1      39.857  27.874  27.500  1.00  0.00    -0.376 OA
BRANCH   2   3
ATOM      3  C   UNL A   1      39.270  29.213  27.629  1.00  0.00     0.202 C 
BRANCH   3   4
ATOM      4  C   UNL A   1      37.691  29.793  27.180  1.00  0.00     0.261 C 
BRANCH   4   5
ATOM      5  O   UNL A   1      36.282  29.743  28.184  1.00  0.00    -0.463 OA
BRANCH   5   6
ATOM      6  C   UNL A   1      35.129  29.704  27.415  1.00  0.00     0.310 C 
ATOM      7  O   UNL A   1      35.088  30.920  27.311  1.00  0.00    -0.252 OA
BRANCH   6   8
ATOM      8  C   UNL A   1      33.537  28.462  27.148  1.00  0.00     0.119 C 
ATOM      9  C   UNL A   1      33.008  27.066  25.998  1.00  0.00     0.100 C 
ATOM     10  C   UNL A   1      31.501  27.216  25.687  1.00  0.00     0.025 C 
ATOM     11  C   UNL A   1      31.819  28.999  26.946  1.00  0.00     0.027 C 
ATOM     12  C   UNL A   1      31.220  28.366  24.790  1.00  0.00    -0.027 C 
ATOM     13  C   UNL A   1      30.992  27.726  26.990  1.00  0.00     0.017 C 
ATOM     14  C   UNL A   1      31.403  29.452  25.533  1.00  0.00    -0.027 C 
BRANCH   9  15
ATOM     15  C   UNL A   1      33.506  26.395  24.614  1.00  0.00     0.229 C 
ATOM     16  N   UNL A   1      34.325  25.268  24.658  1.00  0.00    -0.317 N 
ATOM     17  H   UNL A   1      35.271  25.346  24.918  1.00  0.00     0.170 HD
ATOM     18  O   UNL A   1      33.556  26.977  23.541  1.00  0.00    -0.274 OA
BRANCH  16  19
ATOM     19  C   UNL A   1      33.782  24.027  24.327  1.00  0.00     0.108 A 
ATOM     20  C   UNL A   1      33.238  21.794  24.074  1.00  0.00     0.007 A 
ATOM     21  C   UNL A   1      32.254  22.444  23.347  1.00  0.00     0.076 A 
ATOM     22  C   UNL A   1      34.176  22.734  24.705  1.00  0.00     0.082 A 
ATOM     23  S   UNL A   1      32.261  24.110  23.596  1.00  0.00    -0.125 S 
BRANCH  20  24
ATOM     24  C   UNL A   1      32.998  20.367  24.213  1.00  0.00    -0.017 A 
ATOM     25  C   UNL A   1      32.737  16.120  24.719  1.00  0.00     0.044 C 
ATOM     26  C   UNL A   1      32.631  17.608  24.574  1.00  0.00    -0.051 A 
ATOM     27  C   UNL A   1      32.937  18.424  25.666  1.00  0.00     0.004 A 
ATOM     28  C   UNL A   1      32.376  18.200  23.326  1.00  0.00     0.004 A 
ATOM     29  C   UNL A   1      33.088  19.799  25.490  1.00  0.00     0.009 A 
ATOM     30  C   UNL A   1      32.550  19.580  23.146  1.00  0.00     0.009 A 
ENDBRANCH  20  24
BRANCH  22  31
ATOM     31  C   UNL A   1      35.355  22.586  25.609  1.00  0.00     0.255 C 
ATOM     32  O   UNL A   1      35.193  22.264  26.794  1.00  0.00    -0.269 OA
ATOM     33  N   UNL A   1      36.649  22.888  25.214  1.00  0.00    -0.349 N 
ATOM     34  H   UNL A   1      36.917  23.835  25.240  1.00  0.00     0.164 HD
BRANCH  33  35
ATOM     35  C   UNL A   1      37.636  21.936  24.769  1.00  0.00     0.082 C 
ATOM     36  C   UNL A   1      38.335  21.024  25.720  1.00  0.00     0.027 C 
ATOM     37  C   UNL A   1      37.276  20.485  24.792  1.00  0.00     0.027 C 
ENDBRANCH  33  35
ENDBRANCH  22  31
ENDBRANCH  16  19
ENDBRANCH   9  15
ENDBRANCH   6   8
ENDBRANCH   5   6
ENDBRANCH   4   5
ENDBRANCH   3   4
ENDBRANCH   2   3
ENDBRANCH   1   2
BRANCH   1  38
ATOM     38  C   UNL A   1      40.095  25.348  28.166  1.00  0.00     0.188 C 
BRANCH  38  39
ATOM     39  O   UNL A   1      41.348  25.088  28.755  1.00  0.00    -0.376 OA
BRANCH  39  40
ATOM     40  C   UNL A   1      42.399  24.620  27.948  1.00  0.00     0.202 C 
BRANCH  40  41
ATOM     41  C   UNL A   1      42.948  25.617  26.916  1.00  0.00     0.261 C 
BRANCH  41  42
ATOM     42  O   UNL A   1      43.079  26.977  27.409  1.00  0.00    -0.460 OA
BRANCH  42  43
ATOM     43  C   UNL A   1      44.133  27.227  28.243  1.00  0.00     0.338 C 
ATOM     44  O   UNL A   1      45.076  26.472  28.410  1.00  0.00    -0.246 OA
BRANCH  43  45
ATOM     45  C   UNL A   1      43.965  28.524  28.914  1.00  0.00     0.060 A 
ATOM     46  C   UNL A   1      44.884  29.150  29.698  1.00  0.00     0.016 A 
ATOM     47  C   UNL A   1      42.801  29.195  28.815  1.00  0.00     0.016 A 
ATOM     48  C   UNL A   1      44.415  30.196  30.578  1.00  0.00     0.010 A 
ATOM     49  C   UNL A   1      42.419  29.940  29.958  1.00  0.00     0.010 A 
ATOM     50  C   UNL A   1      43.163  30.409  31.193  1.00  0.00    -0.014 A 
BRANCH  50  51
ATOM     51  C   UNL A   1      42.552  31.478  32.711  1.00  0.00     0.031 A 
ATOM     52  C   UNL A   1      43.641  32.322  34.106  1.00  0.00     0.074 A 
ATOM     53  C   UNL A   1      41.564  32.438  32.562  1.00  0.00     0.049 A 
ATOM     54  N   UNL A   1      43.506  33.459  34.787  1.00  0.00    -0.248 NA
ATOM     55  C   UNL A   1      45.108  31.826  34.779  1.00  0.00     0.031 C 
ATOM     56  C   UNL A   1      41.824  33.868  32.824  1.00  0.00     0.029 A 
ATOM     57  N   UNL A   1      40.246  32.495  32.081  1.00  0.00    -0.354 N 
ATOM     58  C   UNL A   1      44.761  33.852  35.371  1.00  0.00     0.074 A 
ATOM     59  C   UNL A   1      45.566  32.733  35.589  1.00  0.00     0.031 C 
ATOM     60  C   UNL A   1      40.727  34.600  32.702  1.00  0.00     0.029 A 
ATOM     61  C   UNL A   1      39.634  33.692  32.528  1.00  0.00     0.049 A 
ATOM     62  H   UNL A   1      39.814  31.810  31.520  1.00  0.00     0.167 HD
ATOM     63  C   UNL A   1      45.210  35.128  35.525  1.00  0.00     0.034 A 
ATOM     64  C   UNL A   1      38.409  33.987  33.056  1.00  0.00     0.034 A 
ATOM     65  C   UNL A   1      44.078  36.007  35.554  1.00  0.00     0.049 A 
ATOM     66  C   UNL A   1      38.630  34.452  34.515  1.00  0.00     0.074 A 
ATOM     67  C   UNL A   1      43.490  36.947  34.746  1.00  0.00     0.029 A 
ATOM     68  N   UNL A   1      43.162  35.702  36.530  1.00  0.00    -0.354 N 
ATOM     69  N   UNL A   1      39.550  35.304  34.918  1.00  0.00    -0.248 NA
ATOM     70  C   UNL A   1      37.927  33.869  35.660  1.00  0.00     0.031 C 
ATOM     71  C   UNL A   1      42.115  37.026  35.158  1.00  0.00     0.029 A 
ATOM     72  C   UNL A   1      41.913  36.184  36.244  1.00  0.00     0.049 A 
ATOM     73  H   UNL A   1      43.380  35.194  37.345  1.00  0.00     0.167 HD
ATOM     74  C   UNL A   1      39.740  35.145  36.283  1.00  0.00     0.074 A 
ATOM     75  C   UNL A   1      38.653  34.290  36.702  1.00  0.00     0.031 C 
ATOM     76  C   UNL A   1      40.808  35.613  37.008  1.00  0.00     0.034 A 
BRANCH  63  77
ATOM     77  C   UNL A   1      46.677  35.566  35.747  1.00  0.00     0.023 A 
ATOM     78  C   UNL A   1      47.499  35.589  34.602  1.00  0.00     0.012 A 
ATOM     79  C   UNL A   1      47.340  35.858  36.987  1.00  0.00     0.148 A 
ATOM     80  C   UNL A   1      48.876  35.856  34.660  1.00  0.00     0.002 A 
ATOM     81  C   UNL A   1      48.712  36.180  37.035  1.00  0.00     0.091 A 
ATOM     82  F   UNL A   1      46.668  35.766  38.142  1.00  0.00    -0.205 F 
ATOM     83  C   UNL A   1      49.482  36.158  35.871  1.00  0.00     0.022 A 
BRANCH  81  84
ATOM     84  S   UNL A   1      49.605  36.641  38.546  1.00  0.00     0.127 S 
ATOM     85  O   UNL A   1      50.975  36.803  38.061  1.00  0.00    -0.237 OA
ATOM     86  O   UNL A   1      48.954  37.895  38.934  1.00  0.00    -0.237 OA
ATOM     87  O   UNL A   1      49.406  35.548  39.489  1.00  0.00    -0.744 OA
ENDBRANCH  81  84
ENDBRANCH  63  77
BRANCH  64  88
ATOM     88  C   UNL A   1      37.250  33.290  32.425  1.00  0.00     0.023 A 
ATOM     89  C   UNL A   1      37.131  33.478  31.023  1.00  0.00     0.012 A 
ATOM     90  C   UNL A   1      36.700  32.139  32.945  1.00  0.00     0.148 A 
ATOM     91  C   UNL A   1      36.893  32.391  30.177  1.00  0.00     0.002 A 
ATOM     92  C   UNL A   1      36.780  31.012  32.163  1.00  0.00     0.091 A 
ATOM     93  F   UNL A   1      36.364  32.010  34.228  1.00  0.00    -0.205 F 
ATOM     94  C   UNL A   1      36.841  31.128  30.752  1.00  0.00     0.022 A 
BRANCH  92  95
ATOM     95  S   UNL A   1      38.049  29.908  32.865  1.00  0.00     0.127 S 
ATOM     96  O   UNL A   1      37.314  28.687  33.158  1.00  0.00    -0.237 OA
ATOM     97  O   UNL A   1      38.869  29.919  31.676  1.00  0.00    -0.237 OA
ATOM     98  O   UNL A   1      38.609  30.604  34.014  1.00  0.00    -0.744 OA
ENDBRANCH  92  95
ENDBRANCH  64  88
BRANCH  76  99
ATOM     99  C   UNL A   1      40.874  35.518  38.548  1.00  0.00     0.023 A 
ATOM    100  C   UNL A   1      40.636  34.267  39.154  1.00  0.00     0.012 A 
ATOM    101  C   UNL A   1      40.963  36.625  39.442  1.00  0.00     0.148 A 
ATOM    102  C   UNL A   1      40.515  34.115  40.541  1.00  0.00     0.002 A 
ATOM    103  C   UNL A   1      40.701  36.491  40.806  1.00  0.00     0.091 A 
ATOM    104  F   UNL A   1      41.375  37.819  39.003  1.00  0.00    -0.205 F 
ATOM    105  C   UNL A   1      40.508  35.231  41.364  1.00  0.00     0.022 A 
BRANCH 103 106
ATOM    106  S   UNL A   1      40.426  37.914  41.883  1.00  0.00     0.127 S 
ATOM    107  O   UNL A   1      39.191  38.472  41.329  1.00  0.00    -0.237 OA
ATOM    108  O   UNL A   1      40.273  37.282  43.192  1.00  0.00    -0.237 OA
ATOM    109  O   UNL A   1      41.594  38.768  41.725  1.00  0.00    -0.744 OA
ENDBRANCH 103 106
ENDBRANCH  76  99
ENDBRANCH  50  51
ENDBRANCH  43  45
ENDBRANCH  42  43
ENDBRANCH  41  42
ENDBRANCH  40  41
ENDBRANCH  39  40
ENDBRANCH  38  39
ENDBRANCH   1  38
TORSDOF 25
ENDMDL
MODEL 2
REMARK VINA RESULT:     -10.5      5.280     14.374
REMARK SMILES Cc1ccc(-c2csc(NC(=O)[C@H]3[C@@H](C(=O)OCCOCCOCCOC(=O)c4ccc(-c5c6nc(c(-c7cccc(S(=O)(=O)[O-])c7F)c7ccc([nH]7)c(-c7cccc(S(=O)(=O)[O-])c7F)c7nc(c(-c8cccc(S(=O)(=O)[O-])c8F)c8ccc5[nH]8)C=C7)C=C6)cc4)[C@H]4C=C[C@@H]3C4)c2C(=O)NC2CC2)cc1
REMARK SMILES IDX 21 1 20 2 19 3 18 4 17 5 15 6 16 7 14 8 13 9 95 10 92 11
REMARK SMILES IDX 94 12 96 13 93 14 11 15 10 16 12 18 9 19 6 20 7 21 97 22
REMARK SMILES IDX 8 23 5 24 1 25 2 26 3 27 105 28 4 29 104 30 98 31 99 32
REMARK SMILES IDX 100 33 101 35 102 36 103 37 22 38 23 39 24 40 25 41 26 42
REMARK SMILES IDX 27 43 28 44 29 45 30 46 91 47 31 48 90 49 32 50 33 51 34 52
REMARK SMILES IDX 84 53 35 54 89 55 83 56 85 57 36 58 88 59 82 60 81 61 37 63
REMARK SMILES IDX 69 64 49 65 68 66 50 67 53 68 67 69 86 70 51 71 52 72 66 74
REMARK SMILES IDX 87 75 54 76 38 77 39 78 47 79 40 80 42 81 48 82 41 83 43 84
REMARK SMILES IDX 44 85 45 86 46 87 70 88 71 89 79 90 72 91 74 92 80 93 73 94
REMARK SMILES IDX 75 95 76 96 77 97 78 98 55 99 56 100 64 101 57 102 59 103
REMARK SMILES IDX 65 104 58 105 60 106 61 107 62 108 63 109
REMARK H PARENT 10 17 100 34 85 62 53 73
REMARK Flexibility Score: inf
ROOT
ATOM      1  C   UNL A   1      47.302  28.139  25.845  1.00  0.00     0.188 C 
ENDROOT
BRANCH   1   2
ATOM      2  O   UNL A   1      46.104  28.799  26.319  1.00  0.00    -0.376 OA
BRANCH   2   3
ATOM      3  C   UNL A   1      46.074  30.108  26.982  1.00  0.00     0.202 C 
BRANCH   3   4
ATOM      4  C   UNL A   1      45.074  31.500  26.673  1.00  0.00     0.261 C 
BRANCH   4   5
ATOM      5  O   UNL A   1      45.478  32.808  25.614  1.00  0.00    -0.463 OA
BRANCH   5   6
ATOM      6  C   UNL A   1      44.375  33.616  25.385  1.00  0.00     0.310 C 
ATOM      7  O   UNL A   1      44.229  33.194  24.249  1.00  0.00    -0.252 OA
BRANCH   6   8
ATOM      8  C   UNL A   1      43.635  35.386  26.069  1.00  0.00     0.119 C 
ATOM      9  C   UNL A   1      44.182  36.822  27.160  1.00  0.00     0.100 C 
ATOM     10  C   UNL A   1      42.982  37.287  28.017  1.00  0.00     0.025 C 
ATOM     11  C   UNL A   1      42.064  35.590  26.947  1.00  0.00     0.027 C 
ATOM     12  C   UNL A   1      42.635  36.312  29.082  1.00  0.00    -0.027 C 
ATOM     13  C   UNL A   1      41.858  37.090  27.059  1.00  0.00     0.017 C 
ATOM     14  C   UNL A   1      42.076  35.282  28.456  1.00  0.00    -0.027 C 
BRANCH   9  15
ATOM     15  C   UNL A   1      45.391  37.165  28.178  1.00  0.00     0.229 C 
ATOM     16  N   UNL A   1      45.953  38.442  28.162  1.00  0.00    -0.317 N 
ATOM     17  H   UNL A   1      46.543  38.720  27.425  1.00  0.00     0.170 HD
ATOM     18  O   UNL A   1      46.117  36.333  28.697  1.00  0.00    -0.274 OA
BRANCH  16  19
ATOM     19  C   UNL A   1      45.667  39.316  29.209  1.00  0.00     0.108 A 
ATOM     20  C   UNL A   1      44.984  41.042  30.589  1.00  0.00     0.007 A 
ATOM     21  C   UNL A   1      45.532  40.126  31.473  1.00  0.00     0.076 A 
ATOM     22  C   UNL A   1      45.031  40.567  29.198  1.00  0.00     0.082 A 
ATOM     23  S   UNL A   1      45.861  38.643  30.747  1.00  0.00    -0.125 S 
BRANCH  20  24
ATOM     24  C   UNL A   1      44.315  42.149  31.253  1.00  0.00    -0.017 A 
ATOM     25  C   UNL A   1      42.511  45.243  33.604  1.00  0.00     0.044 C 
ATOM     26  C   UNL A   1      43.122  44.285  32.626  1.00  0.00    -0.051 A 
ATOM     27  C   UNL A   1      44.513  44.203  32.530  1.00  0.00     0.004 A 
ATOM     28  C   UNL A   1      42.330  43.368  31.917  1.00  0.00     0.004 A 
ATOM     29  C   UNL A   1      45.103  43.158  31.821  1.00  0.00     0.009 A 
ATOM     30  C   UNL A   1      42.925  42.304  31.222  1.00  0.00     0.009 A 
ENDBRANCH  20  24
BRANCH  22  31
ATOM     31  C   UNL A   1      44.554  41.110  27.892  1.00  0.00     0.255 C 
ATOM     32  O   UNL A   1      43.521  40.664  27.374  1.00  0.00    -0.269 OA
ATOM     33  N   UNL A   1      45.268  42.045  27.159  1.00  0.00    -0.349 N 
ATOM     34  H   UNL A   1      46.004  41.708  26.598  1.00  0.00     0.164 HD
BRANCH  33  35
ATOM     35  C   UNL A   1      45.028  43.466  27.147  1.00  0.00     0.082 C 
ATOM     36  C   UNL A   1      45.251  44.312  28.354  1.00  0.00     0.027 C 
ATOM     37  C   UNL A   1      46.210  44.380  27.194  1.00  0.00     0.027 C 
ENDBRANCH  33  35
ENDBRANCH  22  31
ENDBRANCH  16  19
ENDBRANCH   9  15
ENDBRANCH   6   8
ENDBRANCH   5   6
ENDBRANCH   4   5
ENDBRANCH   3   4
ENDBRANCH   2   3
ENDBRANCH   1   2
BRANCH   1  38
ATOM     38  C   UNL A   1      48.338  27.505  26.783  1.00  0.00     0.188 C 
BRANCH  38  39
ATOM     39  O   UNL A   1      49.482  28.325  26.853  1.00  0.00    -0.376 OA
BRANCH  39  40
ATOM     40  C   UNL A   1      50.051  28.599  28.107  1.00  0.00     0.202 C 
BRANCH  40  41
ATOM     41  C   UNL A   1      49.146  28.354  29.325  1.00  0.00     0.261 C 
BRANCH  41  42
ATOM     42  O   UNL A   1      49.643  28.928  30.563  1.00  0.00    -0.460 OA
BRANCH  42  43
ATOM     43  C   UNL A   1      49.653  30.292  30.645  1.00  0.00     0.338 C 
ATOM     44  O   UNL A   1      50.621  30.991  30.394  1.00  0.00    -0.246 OA
BRANCH  43  45
ATOM     45  C   UNL A   1      48.344  30.795  31.084  1.00  0.00     0.060 A 
ATOM     46  C   UNL A   1      47.582  30.285  32.090  1.00  0.00     0.016 A 
ATOM     47  C   UNL A   1      47.766  31.833  30.449  1.00  0.00     0.016 A 
ATOM     48  C   UNL A   1      46.182  30.642  32.119  1.00  0.00     0.010 A 
ATOM     49  C   UNL A   1      46.352  31.796  30.366  1.00  0.00     0.010 A 
ATOM     50  C   UNL A   1      45.286  30.997  31.088  1.00  0.00    -0.014 A 
BRANCH  50  51
ATOM     51  C   UNL A   1      43.338  31.047  30.930  1.00  0.00     0.031 A 
ATOM     52  C   UNL A   1      42.204  30.040  29.687  1.00  0.00     0.074 A 
ATOM     53  C   UNL A   1      42.526  31.046  32.053  1.00  0.00     0.049 A 
ATOM     54  N   UNL A   1      40.983  29.519  29.806  1.00  0.00    -0.248 NA
ATOM     55  C   UNL A   1      42.526  29.515  28.116  1.00  0.00     0.031 C 
ATOM     56  C   UNL A   1      41.570  29.953  32.319  1.00  0.00     0.029 A 
ATOM     57  N   UNL A   1      42.382  31.812  33.222  1.00  0.00    -0.354 N 
ATOM     58  C   UNL A   1      40.762  28.515  28.799  1.00  0.00     0.074 A 
ATOM     59  C   UNL A   1      41.556  28.768  27.679  1.00  0.00     0.031 C 
ATOM     60  C   UNL A   1      40.837  30.190  33.398  1.00  0.00     0.029 A 
ATOM     61  C   UNL A   1      41.129  31.527  33.818  1.00  0.00     0.049 A 
ATOM     62  H   UNL A   1      43.048  32.448  33.572  1.00  0.00     0.167 HD
ATOM     63  C   UNL A   1      40.040  27.371  28.952  1.00  0.00     0.034 A 
ATOM     64  C   UNL A   1      40.147  32.301  34.368  1.00  0.00     0.034 A 
ATOM     65  C   UNL A   1      39.100  27.567  30.016  1.00  0.00     0.049 A 
ATOM     66  C   UNL A   1      38.893  32.171  33.471  1.00  0.00     0.074 A 
ATOM     67  C   UNL A   1      38.913  27.148  31.308  1.00  0.00     0.029 A 
ATOM     68  N   UNL A   1      38.261  28.638  29.826  1.00  0.00    -0.354 N 
ATOM     69  N   UNL A   1      38.410  31.045  32.987  1.00  0.00    -0.248 NA
ATOM     70  C   UNL A   1      38.174  33.322  32.921  1.00  0.00     0.031 C 
ATOM     71  C   UNL A   1      38.092  28.146  31.939  1.00  0.00     0.029 A 
ATOM     72  C   UNL A   1      37.745  29.112  31.002  1.00  0.00     0.049 A 
ATOM     73  H   UNL A   1      38.055  29.021  28.943  1.00  0.00     0.167 HD
ATOM     74  C   UNL A   1      37.588  31.338  31.909  1.00  0.00     0.074 A 
ATOM     75  C   UNL A   1      37.423  32.773  31.960  1.00  0.00     0.031 C 
ATOM     76  C   UNL A   1      37.155  30.446  30.959  1.00  0.00     0.034 A 
BRANCH  63  77
ATOM     77  C   UNL A   1      40.126  26.105  28.068  1.00  0.00     0.023 A 
ATOM     78  C   UNL A   1      38.898  25.550  27.655  1.00  0.00     0.012 A 
ATOM     79  C   UNL A   1      41.296  25.359  27.693  1.00  0.00     0.148 A 
ATOM     80  C   UNL A   1      38.810  24.342  26.945  1.00  0.00     0.002 A 
ATOM     81  C   UNL A   1      41.207  24.175  26.933  1.00  0.00     0.091 A 
ATOM     82  F   UNL A   1      42.504  25.751  28.122  1.00  0.00    -0.205 F 
ATOM     83  C   UNL A   1      39.960  23.658  26.577  1.00  0.00     0.022 A 
BRANCH  81  84
ATOM     84  S   UNL A   1      42.637  23.222  26.350  1.00  0.00     0.127 S 
ATOM     85  O   UNL A   1      43.255  22.790  27.603  1.00  0.00    -0.237 OA
ATOM     86  O   UNL A   1      42.011  22.139  25.587  1.00  0.00    -0.237 OA
ATOM     87  O   UNL A   1      43.438  24.135  25.546  1.00  0.00    -0.744 OA
ENDBRANCH  81  84
ENDBRANCH  63  77
BRANCH  64  88
ATOM     88  C   UNL A   1      40.618  33.434  35.217  1.00  0.00     0.023 A 
ATOM     89  C   UNL A   1      41.409  33.056  36.333  1.00  0.00     0.012 A 
ATOM     90  C   UNL A   1      40.813  34.705  34.723  1.00  0.00     0.148 A 
ATOM     91  C   UNL A   1      42.601  33.726  36.622  1.00  0.00     0.002 A 
ATOM     92  C   UNL A   1      42.098  35.189  34.760  1.00  0.00     0.091 A 
ATOM     93  F   UNL A   1      39.904  35.343  33.985  1.00  0.00    -0.205 F 
ATOM     94  C   UNL A   1      43.004  34.726  35.746  1.00  0.00     0.022 A 
BRANCH  92  95
ATOM     95  S   UNL A   1      42.775  35.166  33.068  1.00  0.00     0.127 S 
ATOM     96  O   UNL A   1      43.046  36.567  32.790  1.00  0.00    -0.237 OA
ATOM     97  O   UNL A   1      43.901  34.329  33.416  1.00  0.00    -0.237 OA
ATOM     98  O   UNL A   1      41.766  34.534  32.230  1.00  0.00    -0.744 OA
ENDBRANCH  92  95
ENDBRANCH  64  88
BRANCH  76  99
ATOM     99  C   UNL A   1      36.125  30.823  29.872  1.00  0.00     0.023 A 
ATOM    100  C   UNL A   1      36.162  30.131  28.644  1.00  0.00     0.012 A 
ATOM    101  C   UNL A   1      35.250  31.948  29.916  1.00  0.00     0.148 A 
ATOM    102  C   UNL A   1      35.379  30.509  27.545  1.00  0.00     0.002 A 
ATOM    103  C   UNL A   1      34.581  32.404  28.779  1.00  0.00     0.091 A 
ATOM    104  F   UNL A   1      34.988  32.558  31.077  1.00  0.00    -0.205 F 
ATOM    105  C   UNL A   1      34.619  31.668  27.598  1.00  0.00     0.022 A 
BRANCH 103 106
ATOM    106  S   UNL A   1      33.789  34.024  28.707  1.00  0.00     0.127 S 
ATOM    107  O   UNL A   1      33.796  34.422  30.116  1.00  0.00    -0.237 OA
ATOM    108  O   UNL A   1      34.709  34.779  27.859  1.00  0.00    -0.237 OA
ATOM    109  O   UNL A   1      32.461  33.797  28.154  1.00  0.00    -0.744 OA
ENDBRANCH 103 106
ENDBRANCH  76  99
ENDBRANCH  50  51
ENDBRANCH  43  45
ENDBRANCH  42  43
ENDBRANCH  41  42
ENDBRANCH  40  41
ENDBRANCH  39  40
ENDBRANCH  38  39
ENDBRANCH   1  38
TORSDOF 25
ENDMDL
MODEL 3
REMARK VINA RESULT:     -10.4      2.935      6.573
REMARK SMILES Cc1ccc(-c2csc(NC(=O)[C@H]3[C@@H](C(=O)OCCOCCOCCOC(=O)c4ccc(-c5c6nc(c(-c7cccc(S(=O)(=O)[O-])c7F)c7ccc([nH]7)c(-c7cccc(S(=O)(=O)[O-])c7F)c7nc(c(-c8cccc(S(=O)(=O)[O-])c8F)c8ccc5[nH]8)C=C7)C=C6)cc4)[C@H]4C=C[C@@H]3C4)c2C(=O)NC2CC2)cc1
REMARK SMILES IDX 21 1 20 2 19 3 18 4 17 5 15 6 16 7 14 8 13 9 95 10 92 11
REMARK SMILES IDX 94 12 96 13 93 14 11 15 10 16 12 18 9 19 6 20 7 21 97 22
REMARK SMILES IDX 8 23 5 24 1 25 2 26 3 27 105 28 4 29 104 30 98 31 99 32
REMARK SMILES IDX 100 33 101 35 102 36 103 37 22 38 23 39 24 40 25 41 26 42
REMARK SMILES IDX 27 43 28 44 29 45 30 46 91 47 31 48 90 49 32 50 33 51 34 52
REMARK SMILES IDX 84 53 35 54 89 55 83 56 85 57 36 58 88 59 82 60 81 61 37 63
REMARK SMILES IDX 69 64 49 65 68 66 50 67 53 68 67 69 86 70 51 71 52 72 66 74
REMARK SMILES IDX 87 75 54 76 38 77 39 78 47 79 40 80 42 81 48 82 41 83 43 84
REMARK SMILES IDX 44 85 45 86 46 87 70 88 71 89 79 90 72 91 74 92 80 93 73 94
REMARK SMILES IDX 75 95 76 96 77 97 78 98 55 99 56 100 64 101 57 102 59 103
REMARK SMILES IDX 65 104 58 105 60 106 61 107 62 108 63 109
REMARK H PARENT 10 17 100 34 85 62 53 73
REMARK Flexibility Score: inf
ROOT
ATOM      1  C   UNL A   1      39.585  27.000  28.546  1.00  0.00     0.188 C 
ENDROOT
BRANCH   1   2
ATOM      2  O   UNL A   1      39.603  28.070  27.570  1.00  0.00    -0.376 OA
BRANCH   2   3
ATOM      3  C   UNL A   1      39.061  29.415  27.790  1.00  0.00     0.202 C 
BRANCH   3   4
ATOM      4  C   UNL A   1      37.459  30.039  27.513  1.00  0.00     0.261 C 
BRANCH   4   5
ATOM      5  O   UNL A   1      36.019  29.487  28.298  1.00  0.00    -0.463 OA
BRANCH   5   6
ATOM      6  C   UNL A   1      34.982  29.348  27.388  1.00  0.00     0.310 C 
ATOM      7  O   UNL A   1      34.954  30.545  27.149  1.00  0.00    -0.252 OA
BRANCH   6   8
ATOM      8  C   UNL A   1      33.443  28.059  27.043  1.00  0.00     0.119 C 
ATOM      9  C   UNL A   1      33.007  26.661  25.856  1.00  0.00     0.100 C 
ATOM     10  C   UNL A   1      31.510  26.767  25.486  1.00  0.00     0.025 C 
ATOM     11  C   UNL A   1      31.718  28.543  26.777  1.00  0.00     0.027 C 
ATOM     12  C   UNL A   1      31.228  27.919  24.592  1.00  0.00    -0.027 C 
ATOM     13  C   UNL A   1      30.932  27.244  26.774  1.00  0.00     0.017 C 
ATOM     14  C   UNL A   1      31.345  29.000  25.354  1.00  0.00    -0.027 C 
BRANCH   9  15
ATOM     15  C   UNL A   1      33.581  26.025  24.486  1.00  0.00     0.229 C 
ATOM     16  N   UNL A   1      34.514  24.990  24.553  1.00  0.00    -0.317 N 
ATOM     17  H   UNL A   1      35.445  25.172  24.817  1.00  0.00     0.170 HD
ATOM     18  O   UNL A   1      33.577  26.591  23.404  1.00  0.00    -0.274 OA
BRANCH  16  19
ATOM     19  C   UNL A   1      34.106  23.695  24.240  1.00  0.00     0.108 A 
ATOM     20  C   UNL A   1      33.763  21.415  24.064  1.00  0.00     0.007 A 
ATOM     21  C   UNL A   1      32.822  21.945  23.195  1.00  0.00     0.076 A 
ATOM     22  C   UNL A   1      34.550  22.459  24.736  1.00  0.00     0.082 A 
ATOM     23  S   UNL A   1      32.677  23.616  23.342  1.00  0.00    -0.125 S 
BRANCH  20  24
ATOM     24  C   UNL A   1      33.615  19.982  24.261  1.00  0.00    -0.017 A 
ATOM     25  C   UNL A   1      32.889  15.862  25.186  1.00  0.00     0.044 C 
ATOM     26  C   UNL A   1      33.203  17.238  24.682  1.00  0.00    -0.051 A 
ATOM     27  C   UNL A   1      32.169  18.034  24.183  1.00  0.00     0.004 A 
ATOM     28  C   UNL A   1      34.481  17.796  24.841  1.00  0.00     0.004 A 
ATOM     29  C   UNL A   1      32.385  19.391  23.944  1.00  0.00     0.009 A 
ATOM     30  C   UNL A   1      34.692  19.165  24.622  1.00  0.00     0.009 A 
ENDBRANCH  20  24
BRANCH  22  31
ATOM     31  C   UNL A   1      35.626  22.454  25.771  1.00  0.00     0.255 C 
ATOM     32  O   UNL A   1      35.369  22.104  26.932  1.00  0.00    -0.269 OA
ATOM     33  N   UNL A   1      36.908  22.918  25.527  1.00  0.00    -0.349 N 
ATOM     34  H   UNL A   1      37.050  23.892  25.577  1.00  0.00     0.164 HD
BRANCH  33  35
ATOM     35  C   UNL A   1      38.052  22.102  25.206  1.00  0.00     0.082 C 
ATOM     36  C   UNL A   1      38.394  20.882  25.993  1.00  0.00     0.027 C 
ATOM     37  C   UNL A   1      37.809  20.752  24.610  1.00  0.00     0.027 C 
ENDBRANCH  33  35
ENDBRANCH  22  31
ENDBRANCH  16  19
ENDBRANCH   9  15
ENDBRANCH   6   8
ENDBRANCH   5   6
ENDBRANCH   4   5
ENDBRANCH   3   4
ENDBRANCH   2   3
ENDBRANCH   1   2
BRANCH   1  38
ATOM     38  C   UNL A   1      39.718  25.518  28.169  1.00  0.00     0.188 C 
BRANCH  38  39
ATOM     39  O   UNL A   1      41.069  25.127  28.249  1.00  0.00    -0.376 OA
BRANCH  39  40
ATOM     40  C   UNL A   1      41.715  24.658  27.093  1.00  0.00     0.202 C 
BRANCH  40  41
ATOM     41  C   UNL A   1      41.873  25.674  25.952  1.00  0.00     0.261 C 
BRANCH  41  42
ATOM     42  O   UNL A   1      42.691  26.827  26.287  1.00  0.00    -0.460 OA
BRANCH  42  43
ATOM     43  C   UNL A   1      43.618  26.653  27.276  1.00  0.00     0.338 C 
ATOM     44  O   UNL A   1      44.244  25.623  27.461  1.00  0.00    -0.246 OA
BRANCH  43  45
ATOM     45  C   UNL A   1      43.747  27.874  28.084  1.00  0.00     0.060 A 
ATOM     46  C   UNL A   1      44.738  28.148  28.975  1.00  0.00     0.016 A 
ATOM     47  C   UNL A   1      42.809  28.838  28.014  1.00  0.00     0.016 A 
ATOM     48  C   UNL A   1      44.496  29.188  29.949  1.00  0.00     0.010 A 
ATOM     49  C   UNL A   1      42.553  29.539  29.218  1.00  0.00     0.010 A 
ATOM     50  C   UNL A   1      43.302  29.666  30.530  1.00  0.00    -0.014 A 
BRANCH  50  51
ATOM     51  C   UNL A   1      42.882  30.701  32.134  1.00  0.00     0.031 A 
ATOM     52  C   UNL A   1      41.563  32.138  32.330  1.00  0.00     0.074 A 
ATOM     53  C   UNL A   1      42.757  30.088  33.371  1.00  0.00     0.049 A 
ATOM     54  N   UNL A   1      40.777  32.505  33.341  1.00  0.00    -0.248 NA
ATOM     55  C   UNL A   1      41.035  33.279  31.204  1.00  0.00     0.031 C 
ATOM     56  C   UNL A   1      41.487  30.111  34.125  1.00  0.00     0.029 A 
ATOM     57  N   UNL A   1      43.536  29.258  34.194  1.00  0.00    -0.354 N 
ATOM     58  C   UNL A   1      39.690  33.322  32.868  1.00  0.00     0.074 A 
ATOM     59  C   UNL A   1      40.056  33.980  31.692  1.00  0.00     0.031 C 
ATOM     60  C   UNL A   1      41.609  29.541  35.315  1.00  0.00     0.029 A 
ATOM     61  C   UNL A   1      43.000  29.261  35.505  1.00  0.00     0.049 A 
ATOM     62  H   UNL A   1      44.330  28.753  33.905  1.00  0.00     0.167 HD
ATOM     63  C   UNL A   1      38.420  33.328  33.356  1.00  0.00     0.034 A 
ATOM     64  C   UNL A   1      43.552  29.355  36.751  1.00  0.00     0.034 A 
ATOM     65  C   UNL A   1      38.452  32.859  34.710  1.00  0.00     0.049 A 
ATOM     66  C   UNL A   1      43.076  30.690  37.373  1.00  0.00     0.074 A 
ATOM     67  C   UNL A   1      38.080  31.744  35.417  1.00  0.00     0.029 A 
ATOM     68  N   UNL A   1      39.282  33.583  35.530  1.00  0.00    -0.354 N 
ATOM     69  N   UNL A   1      41.841  31.148  37.353  1.00  0.00    -0.248 NA
ATOM     70  C   UNL A   1      43.990  31.689  37.931  1.00  0.00     0.031 C 
ATOM     71  C   UNL A   1      38.892  31.731  36.604  1.00  0.00     0.029 A 
ATOM     72  C   UNL A   1      39.691  32.869  36.623  1.00  0.00     0.049 A 
ATOM     73  H   UNL A   1      39.552  34.513  35.350  1.00  0.00     0.167 HD
ATOM     74  C   UNL A   1      41.867  32.514  37.593  1.00  0.00     0.074 A 
ATOM     75  C   UNL A   1      43.223  32.782  38.015  1.00  0.00     0.031 C 
ATOM     76  C   UNL A   1      40.843  33.395  37.347  1.00  0.00     0.034 A 
BRANCH  63  77
ATOM     77  C   UNL A   1      37.159  33.853  32.630  1.00  0.00     0.023 A 
ATOM     78  C   UNL A   1      36.376  34.786  33.340  1.00  0.00     0.012 A 
ATOM     79  C   UNL A   1      36.624  33.438  31.363  1.00  0.00     0.148 A 
ATOM     80  C   UNL A   1      35.148  35.268  32.861  1.00  0.00     0.002 A 
ATOM     81  C   UNL A   1      35.417  33.965  30.860  1.00  0.00     0.091 A 
ATOM     82  F   UNL A   1      37.243  32.482  30.657  1.00  0.00    -0.205 F 
ATOM     83  C   UNL A   1      34.670  34.866  31.622  1.00  0.00     0.022 A 
BRANCH  81  84
ATOM     84  S   UNL A   1      34.718  33.557  29.236  1.00  0.00     0.127 S 
ATOM     85  O   UNL A   1      34.210  32.201  29.448  1.00  0.00    -0.237 OA
ATOM     86  O   UNL A   1      33.672  34.569  29.074  1.00  0.00    -0.237 OA
ATOM     87  O   UNL A   1      35.811  33.667  28.279  1.00  0.00    -0.744 OA
ENDBRANCH  81  84
ENDBRANCH  63  77
BRANCH  64  88
ATOM     88  C   UNL A   1      44.813  28.585  36.958  1.00  0.00     0.023 A 
ATOM     89  C   UNL A   1      44.702  27.187  36.737  1.00  0.00     0.012 A 
ATOM     90  C   UNL A   1      46.062  29.141  36.791  1.00  0.00     0.148 A 
ATOM     91  C   UNL A   1      45.656  26.509  35.972  1.00  0.00     0.002 A 
ATOM     92  C   UNL A   1      46.842  28.611  35.792  1.00  0.00     0.091 A 
ATOM     93  F   UNL A   1      46.419  30.301  37.341  1.00  0.00    -0.205 F 
ATOM     94  C   UNL A   1      46.669  27.262  35.394  1.00  0.00     0.022 A 
BRANCH  92  95
ATOM     95  S   UNL A   1      46.883  29.789  34.402  1.00  0.00     0.127 S 
ATOM     96  O   UNL A   1      48.292  30.131  34.286  1.00  0.00    -0.237 OA
ATOM     97  O   UNL A   1      46.349  28.845  33.447  1.00  0.00    -0.237 OA
ATOM     98  O   UNL A   1      45.991  30.882  34.763  1.00  0.00    -0.744 OA
ENDBRANCH  92  95
ENDBRANCH  64  88
BRANCH  76  99
ATOM     99  C   UNL A   1      40.900  34.878  37.776  1.00  0.00     0.023 A 
ATOM    100  C   UNL A   1      42.103  35.587  37.579  1.00  0.00     0.012 A 
ATOM    101  C   UNL A   1      39.905  35.559  38.537  1.00  0.00     0.148 A 
ATOM    102  C   UNL A   1      42.303  36.880  38.079  1.00  0.00     0.002 A 
ATOM    103  C   UNL A   1      40.161  36.785  39.152  1.00  0.00     0.091 A 
ATOM    104  F   UNL A   1      38.664  35.068  38.622  1.00  0.00    -0.205 F 
ATOM    105  C   UNL A   1      41.349  37.464  38.898  1.00  0.00     0.022 A 
BRANCH 103 106
ATOM    106  S   UNL A   1      39.079  37.476  40.420  1.00  0.00     0.127 S 
ATOM    107  O   UNL A   1      38.199  38.336  39.625  1.00  0.00    -0.237 OA
ATOM    108  O   UNL A   1      38.434  36.280  40.958  1.00  0.00    -0.237 OA
ATOM    109  O   UNL A   1      39.948  38.195  41.340  1.00  0.00    -0.744 OA
ENDBRANCH 103 106
ENDBRANCH  76  99
ENDBRANCH  50  51
ENDBRANCH  43  45
ENDBRANCH  42  43
ENDBRANCH  41  42
ENDBRANCH  40  41
ENDBRANCH  39  40
ENDBRANCH  38  39
ENDBRANCH   1  38
TORSDOF 25
ENDMDL
