MODEL 1
REMARK VINA RESULT:     -10.7      0.000      0.000
REMARK SMILES Cc1cc(N2CC[NH+]([C@@H](C(=O)OCCOCCOCCOC(=O)c3ccc(-c4c5nc(c(-c6cccc(S(=O)(=O)[O-])c6F)c6ccc([nH]6)c(-c6cccc(S(=O)(=O)[O-])c6F)c6nc(c(-c7cccc(S(=O)(=O)[O-])c7F)c7ccc4[nH]7)C=C6)C=C5)cc3)c3c[nH]c4ccccc34)CC2)nc2ccccc12
REMARK SMILES IDX 17 1 16 2 15 3 14 4 13 5 12 6 10 7 11 8 9 9 8 10 5 11 6 12
REMARK SMILES IDX 97 13 7 14 96 15 4 17 1 18 2 19 3 20 104 21 99 22 103 23
REMARK SMILES IDX 98 24 100 25 102 26 101 27 87 28 88 29 95 30 89 31 90 32
REMARK SMILES IDX 94 33 91 35 93 36 92 37 18 38 19 39 20 40 21 41 22 42 23 43
REMARK SMILES IDX 24 44 25 45 86 46 26 47 85 48 27 49 28 50 29 51 79 52 30 53
REMARK SMILES IDX 84 54 78 55 80 56 31 57 83 58 77 59 76 60 32 62 64 63 44 64
REMARK SMILES IDX 63 65 45 66 48 67 62 68 81 69 46 70 47 71 61 73 82 74 49 75
REMARK SMILES IDX 33 76 34 77 42 78 35 79 37 80 43 81 36 82 38 83 39 84 40 85
REMARK SMILES IDX 41 86 65 87 66 88 74 89 67 90 69 91 75 92 68 93 70 94 71 95
REMARK SMILES IDX 72 96 73 97 50 98 51 99 59 100 52 101 54 102 60 103 53 104
REMARK SMILES IDX 55 105 56 106 57 107 58 108
REMARK H PARENT 8 16 89 34 80 61 48 72
REMARK Flexibility Score: inf
ROOT
ATOM      1  C   UNL A   1      34.874  31.612  27.974  1.00  0.00     0.188 C 
ENDROOT
BRANCH   1   2
ATOM      2  C   UNL A   1      33.913  30.852  27.058  1.00  0.00     0.188 C 
BRANCH   2   3
ATOM      3  O   UNL A   1      32.941  30.044  27.706  1.00  0.00    -0.376 OA
BRANCH   3   4
ATOM      4  C   UNL A   1      31.809  29.656  26.936  1.00  0.00     0.202 C 
BRANCH   4   5
ATOM      5  C   UNL A   1      31.680  28.169  26.575  1.00  0.00     0.261 C 
BRANCH   5   6
ATOM      6  O   UNL A   1      31.199  27.981  25.236  1.00  0.00    -0.459 OA
BRANCH   6   7
ATOM      7  C   UNL A   1      30.701  26.770  24.881  1.00  0.00     0.370 C 
ATOM      8  O   UNL A   1      29.559  26.611  24.457  1.00  0.00    -0.245 OA
BRANCH   7   9
ATOM      9  C   UNL A   1      31.697  25.628  25.140  1.00  0.00     0.328 C 
BRANCH   9  10
ATOM     10  N   UNL A   1      31.180  24.462  26.010  1.00  0.00    -0.316 N 
ATOM     11  N   UNL A   1      32.105  21.547  26.008  1.00  0.00    -0.345 N 
ATOM     12  C   UNL A   1      31.073  22.087  25.093  1.00  0.00     0.179 C 
ATOM     13  C   UNL A   1      32.906  22.589  26.673  1.00  0.00     0.179 C 
ATOM     14  C   UNL A   1      30.339  23.363  25.565  1.00  0.00     0.285 C 
ATOM     15  C   UNL A   1      32.082  23.888  27.042  1.00  0.00     0.285 C 
ATOM     16  H   UNL A   1      30.517  25.169  26.330  1.00  0.00     0.349 HD
BRANCH  11  17
ATOM     17  C   UNL A   1      32.812  20.421  25.472  1.00  0.00     0.129 A 
ATOM     18  C   UNL A   1      36.393  19.476  24.657  1.00  0.00     0.045 C 
ATOM     19  C   UNL A   1      34.936  19.342  24.987  1.00  0.00    -0.038 A 
ATOM     20  C   UNL A   1      34.191  20.486  25.355  1.00  0.00     0.051 A 
ATOM     21  C   UNL A   1      34.313  18.076  24.934  1.00  0.00     0.003 A 
ATOM     22  C   UNL A   1      32.922  18.078  25.008  1.00  0.00     0.073 A 
ATOM     23  C   UNL A   1      35.019  16.837  24.838  1.00  0.00     0.010 A 
ATOM     24  N   UNL A   1      32.210  19.247  25.137  1.00  0.00    -0.231 NA
ATOM     25  C   UNL A   1      32.304  16.808  25.011  1.00  0.00     0.029 A 
ATOM     26  C   UNL A   1      34.373  15.605  24.932  1.00  0.00     0.001 A 
ATOM     27  C   UNL A   1      33.000  15.590  25.046  1.00  0.00     0.002 A 
ENDBRANCH  11  17
ENDBRANCH   9  10
BRANCH   9  28
ATOM     28  C   UNL A   1      33.253  25.807  24.675  1.00  0.00     0.046 A 
ATOM     29  C   UNL A   1      33.483  26.340  23.404  1.00  0.00     0.094 A 
ATOM     30  C   UNL A   1      34.598  25.188  24.816  1.00  0.00     0.009 A 
ATOM     31  N   UNL A   1      33.601  25.145  22.678  1.00  0.00    -0.361 N 
ATOM     32  C   UNL A   1      34.650  24.346  23.251  1.00  0.00     0.046 A 
ATOM     33  C   UNL A   1      35.931  24.772  25.949  1.00  0.00     0.011 A 
ATOM     34  H   UNL A   1      33.053  24.894  21.900  1.00  0.00     0.166 HD
ATOM     35  C   UNL A   1      36.013  22.897  22.951  1.00  0.00     0.026 A 
ATOM     36  C   UNL A   1      37.162  23.493  25.689  1.00  0.00     0.001 A 
ATOM     37  C   UNL A   1      37.216  22.540  24.241  1.00  0.00     0.002 A 
ENDBRANCH   9  28
ENDBRANCH   7   9
ENDBRANCH   6   7
ENDBRANCH   5   6
ENDBRANCH   4   5
ENDBRANCH   3   4
ENDBRANCH   2   3
ENDBRANCH   1   2
BRANCH   1  38
ATOM     38  O   UNL A   1      35.137  32.931  27.607  1.00  0.00    -0.376 OA
BRANCH  38  39
ATOM     39  C   UNL A   1      34.959  33.909  28.601  1.00  0.00     0.202 C 
BRANCH  39  40
ATOM     40  C   UNL A   1      34.407  33.628  29.997  1.00  0.00     0.261 C 
BRANCH  40  41
ATOM     41  O   UNL A   1      34.806  34.659  30.890  1.00  0.00    -0.460 OA
BRANCH  41  42
ATOM     42  C   UNL A   1      35.592  34.665  31.973  1.00  0.00     0.338 C 
ATOM     43  O   UNL A   1      35.582  35.396  32.936  1.00  0.00    -0.246 OA
BRANCH  42  44
ATOM     44  C   UNL A   1      36.436  33.477  31.709  1.00  0.00     0.060 A 
ATOM     45  C   UNL A   1      36.300  31.854  32.406  1.00  0.00     0.016 A 
ATOM     46  C   UNL A   1      37.935  33.871  30.815  1.00  0.00     0.016 A 
ATOM     47  C   UNL A   1      37.626  30.631  32.316  1.00  0.00     0.010 A 
ATOM     48  C   UNL A   1      39.399  32.497  30.694  1.00  0.00     0.010 A 
ATOM     49  C   UNL A   1      39.171  30.922  31.494  1.00  0.00    -0.014 A 
BRANCH  49  50
ATOM     50  C   UNL A   1      40.435  30.200  31.687  1.00  0.00     0.031 A 
ATOM     51  C   UNL A   1      41.382  30.656  32.753  1.00  0.00     0.074 A 
ATOM     52  C   UNL A   1      40.910  29.414  30.702  1.00  0.00     0.049 A 
ATOM     53  N   UNL A   1      42.407  30.038  33.266  1.00  0.00    -0.248 NA
ATOM     54  C   UNL A   1      41.195  32.014  33.284  1.00  0.00     0.031 C 
ATOM     55  C   UNL A   1      40.287  29.207  29.392  1.00  0.00     0.029 A 
ATOM     56  N   UNL A   1      42.060  28.678  30.628  1.00  0.00    -0.354 N 
ATOM     57  C   UNL A   1      42.919  30.903  34.227  1.00  0.00     0.074 A 
ATOM     58  C   UNL A   1      42.176  32.128  34.160  1.00  0.00     0.031 C 
ATOM     59  C   UNL A   1      41.033  28.363  28.665  1.00  0.00     0.029 A 
ATOM     60  C   UNL A   1      42.159  27.937  29.476  1.00  0.00     0.049 A 
ATOM     61  H   UNL A   1      42.749  28.679  31.332  1.00  0.00     0.167 HD
ATOM     62  C   UNL A   1      43.907  30.668  35.115  1.00  0.00     0.034 A 
ATOM     63  C   UNL A   1      43.033  26.971  29.146  1.00  0.00     0.034 A 
ATOM     64  C   UNL A   1      44.727  29.500  35.018  1.00  0.00     0.049 A 
ATOM     65  C   UNL A   1      44.044  26.592  30.184  1.00  0.00     0.074 A 
ATOM     66  C   UNL A   1      45.691  29.029  35.882  1.00  0.00     0.029 A 
ATOM     67  N   UNL A   1      44.713  28.652  33.917  1.00  0.00    -0.354 N 
ATOM     68  N   UNL A   1      44.308  27.184  31.326  1.00  0.00    -0.248 NA
ATOM     69  C   UNL A   1      44.823  25.379  29.930  1.00  0.00     0.031 C 
ATOM     70  C   UNL A   1      46.302  27.927  35.272  1.00  0.00     0.029 A 
ATOM     71  C   UNL A   1      45.661  27.665  34.067  1.00  0.00     0.049 A 
ATOM     72  H   UNL A   1      44.113  28.744  33.142  1.00  0.00     0.167 HD
ATOM     73  C   UNL A   1      45.261  26.397  31.952  1.00  0.00     0.074 A 
ATOM     74  C   UNL A   1      45.507  25.274  31.062  1.00  0.00     0.031 C 
ATOM     75  C   UNL A   1      45.875  26.574  33.149  1.00  0.00     0.034 A 
BRANCH  62  76
ATOM     76  C   UNL A   1      44.089  31.668  36.228  1.00  0.00     0.023 A 
ATOM     77  C   UNL A   1      45.201  32.544  36.198  1.00  0.00     0.012 A 
ATOM     78  C   UNL A   1      43.188  31.748  37.303  1.00  0.00     0.148 A 
ATOM     79  C   UNL A   1      45.445  33.435  37.242  1.00  0.00     0.002 A 
ATOM     80  C   UNL A   1      43.408  32.679  38.314  1.00  0.00     0.091 A 
ATOM     81  F   UNL A   1      42.155  30.897  37.338  1.00  0.00    -0.205 F 
ATOM     82  C   UNL A   1      44.542  33.507  38.296  1.00  0.00     0.022 A 
BRANCH  80  83
ATOM     83  S   UNL A   1      42.269  32.906  39.683  1.00  0.00     0.127 S 
ATOM     84  O   UNL A   1      42.217  31.557  40.249  1.00  0.00    -0.237 OA
ATOM     85  O   UNL A   1      42.978  33.885  40.506  1.00  0.00    -0.237 OA
ATOM     86  O   UNL A   1      41.024  33.383  39.099  1.00  0.00    -0.744 OA
ENDBRANCH  80  83
ENDBRANCH  62  76
BRANCH  63  87
ATOM     87  C   UNL A   1      42.857  26.221  27.875  1.00  0.00     0.023 A 
ATOM     88  C   UNL A   1      43.330  26.761  26.662  1.00  0.00     0.012 A 
ATOM     89  C   UNL A   1      42.302  24.929  27.880  1.00  0.00     0.148 A 
ATOM     90  C   UNL A   1      43.219  26.040  25.471  1.00  0.00     0.002 A 
ATOM     91  C   UNL A   1      42.237  24.198  26.701  1.00  0.00     0.091 A 
ATOM     92  F   UNL A   1      41.884  24.429  29.051  1.00  0.00    -0.205 F 
ATOM     93  C   UNL A   1      42.681  24.757  25.491  1.00  0.00     0.022 A 
BRANCH  91  94
ATOM     94  S   UNL A   1      41.662  22.497  26.654  1.00  0.00     0.127 S 
ATOM     95  O   UNL A   1      42.404  21.904  27.765  1.00  0.00    -0.237 OA
ATOM     96  O   UNL A   1      40.228  22.660  26.888  1.00  0.00    -0.237 OA
ATOM     97  O   UNL A   1      42.009  21.997  25.331  1.00  0.00    -0.744 OA
ENDBRANCH  91  94
ENDBRANCH  63  87
BRANCH  75  98
ATOM     98  C   UNL A   1      46.833  25.503  33.577  1.00  0.00     0.023 A 
ATOM     99  C   UNL A   1      48.214  25.639  33.339  1.00  0.00     0.012 A 
ATOM    100  C   UNL A   1      46.345  24.369  34.250  1.00  0.00     0.148 A 
ATOM    101  C   UNL A   1      49.090  24.621  33.706  1.00  0.00     0.002 A 
ATOM    102  C   UNL A   1      47.231  23.395  34.678  1.00  0.00     0.091 A 
ATOM    103  F   UNL A   1      45.024  24.259  34.451  1.00  0.00    -0.205 F 
ATOM    104  C   UNL A   1      48.601  23.507  34.386  1.00  0.00     0.022 A 
BRANCH 102 105
ATOM    105  S   UNL A   1      46.701  21.992  35.658  1.00  0.00     0.127 S 
ATOM    106  O   UNL A   1      45.893  21.247  34.694  1.00  0.00    -0.237 OA
ATOM    107  O   UNL A   1      47.976  21.362  36.005  1.00  0.00    -0.237 OA
ATOM    108  O   UNL A   1      45.972  22.542  36.793  1.00  0.00    -0.744 OA
ENDBRANCH 102 105
ENDBRANCH  75  98
ENDBRANCH  49  50
ENDBRANCH  42  44
ENDBRANCH  41  42
ENDBRANCH  40  41
ENDBRANCH  39  40
ENDBRANCH  38  39
ENDBRANCH   1  38
TORSDOF 23
ENDMDL
MODEL 2
REMARK VINA RESULT:     -10.2      5.711      9.166
REMARK SMILES Cc1cc(N2CC[NH+]([C@@H](C(=O)OCCOCCOCCOC(=O)c3ccc(-c4c5nc(c(-c6cccc(S(=O)(=O)[O-])c6F)c6ccc([nH]6)c(-c6cccc(S(=O)(=O)[O-])c6F)c6nc(c(-c7cccc(S(=O)(=O)[O-])c7F)c7ccc4[nH]7)C=C6)C=C5)cc3)c3c[nH]c4ccccc34)CC2)nc2ccccc12
REMARK SMILES IDX 17 1 16 2 15 3 14 4 13 5 12 6 10 7 11 8 9 9 8 10 5 11 6 12
REMARK SMILES IDX 97 13 7 14 96 15 4 17 1 18 2 19 3 20 104 21 99 22 103 23
REMARK SMILES IDX 98 24 100 25 102 26 101 27 87 28 88 29 95 30 89 31 90 32
REMARK SMILES IDX 94 33 91 35 93 36 92 37 18 38 19 39 20 40 21 41 22 42 23 43
REMARK SMILES IDX 24 44 25 45 86 46 26 47 85 48 27 49 28 50 29 51 79 52 30 53
REMARK SMILES IDX 84 54 78 55 80 56 31 57 83 58 77 59 76 60 32 62 64 63 44 64
REMARK SMILES IDX 63 65 45 66 48 67 62 68 81 69 46 70 47 71 61 73 82 74 49 75
REMARK SMILES IDX 33 76 34 77 42 78 35 79 37 80 43 81 36 82 38 83 39 84 40 85
REMARK SMILES IDX 41 86 65 87 66 88 74 89 67 90 69 91 75 92 68 93 70 94 71 95
REMARK SMILES IDX 72 96 73 97 50 98 51 99 59 100 52 101 54 102 60 103 53 104
REMARK SMILES IDX 55 105 56 106 57 107 58 108
REMARK H PARENT 8 16 89 34 80 61 48 72
REMARK Flexibility Score: inf
ROOT
ATOM      1  C   UNL A   1      32.898  30.874  27.234  1.00  0.00     0.188 C 
ENDROOT
BRANCH   1   2
ATOM      2  C   UNL A   1      31.868  30.761  26.107  1.00  0.00     0.188 C 
BRANCH   2   3
ATOM      3  O   UNL A   1      31.638  29.454  25.601  1.00  0.00    -0.376 OA
BRANCH   3   4
ATOM      4  C   UNL A   1      31.436  29.333  24.198  1.00  0.00     0.202 C 
BRANCH   4   5
ATOM      5  C   UNL A   1      30.084  28.779  23.727  1.00  0.00     0.261 C 
BRANCH   5   6
ATOM      6  O   UNL A   1      30.232  27.557  22.987  1.00  0.00    -0.459 OA
BRANCH   6   7
ATOM      7  C   UNL A   1      29.842  26.391  23.559  1.00  0.00     0.370 C 
ATOM      8  O   UNL A   1      28.664  26.082  23.718  1.00  0.00    -0.245 OA
BRANCH   7   9
ATOM      9  C   UNL A   1      31.034  25.550  24.044  1.00  0.00     0.328 C 
BRANCH   9  10
ATOM     10  N   UNL A   1      32.401  25.879  23.407  1.00  0.00    -0.316 N 
ATOM     11  N   UNL A   1      35.107  24.560  23.951  1.00  0.00    -0.345 N 
ATOM     12  C   UNL A   1      34.557  25.679  24.750  1.00  0.00     0.179 C 
ATOM     13  C   UNL A   1      34.104  23.895  23.102  1.00  0.00     0.179 C 
ATOM     14  C   UNL A   1      33.506  26.571  24.051  1.00  0.00     0.285 C 
ATOM     15  C   UNL A   1      33.023  24.881  22.499  1.00  0.00     0.285 C 
ATOM     16  H   UNL A   1      31.865  26.625  22.962  1.00  0.00     0.349 HD
BRANCH  11  17
ATOM     17  C   UNL A   1      36.003  23.718  24.685  1.00  0.00     0.129 A 
ATOM     18  C   UNL A   1      37.030  20.068  24.736  1.00  0.00     0.045 C 
ATOM     19  C   UNL A   1      37.079  21.553  24.941  1.00  0.00    -0.038 A 
ATOM     20  C   UNL A   1      36.092  22.376  24.352  1.00  0.00     0.051 A 
ATOM     21  C   UNL A   1      38.111  22.125  25.716  1.00  0.00     0.003 A 
ATOM     22  C   UNL A   1      37.943  23.464  26.061  1.00  0.00     0.073 A 
ATOM     23  C   UNL A   1      39.290  21.428  26.125  1.00  0.00     0.010 A 
ATOM     24  N   UNL A   1      36.840  24.178  25.655  1.00  0.00    -0.231 NA
ATOM     25  C   UNL A   1      39.003  24.050  26.788  1.00  0.00     0.029 A 
ATOM     26  C   UNL A   1      40.348  22.069  26.767  1.00  0.00     0.001 A 
ATOM     27  C   UNL A   1      40.214  23.404  27.079  1.00  0.00     0.002 A 
ENDBRANCH  11  17
ENDBRANCH   9  10
BRANCH   9  28
ATOM     28  C   UNL A   1      30.758  24.262  25.011  1.00  0.00     0.046 A 
ATOM     29  C   UNL A   1      30.141  24.507  26.240  1.00  0.00     0.094 A 
ATOM     30  C   UNL A   1      31.323  22.942  25.396  1.00  0.00     0.009 A 
ATOM     31  N   UNL A   1      31.284  24.628  27.045  1.00  0.00    -0.361 N 
ATOM     32  C   UNL A   1      32.068  23.429  26.935  1.00  0.00     0.046 A 
ATOM     33  C   UNL A   1      31.747  21.286  24.836  1.00  0.00     0.011 A 
ATOM     34  H   UNL A   1      31.512  25.411  27.598  1.00  0.00     0.166 HD
ATOM     35  C   UNL A   1      33.434  22.230  27.797  1.00  0.00     0.026 A 
ATOM     36  C   UNL A   1      32.951  20.200  25.602  1.00  0.00     0.001 A 
ATOM     37  C   UNL A   1      33.813  20.641  27.042  1.00  0.00     0.002 A 
ENDBRANCH   9  28
ENDBRANCH   7   9
ENDBRANCH   6   7
ENDBRANCH   5   6
ENDBRANCH   4   5
ENDBRANCH   3   4
ENDBRANCH   2   3
ENDBRANCH   1   2
BRANCH   1  38
ATOM     38  O   UNL A   1      34.232  30.860  26.832  1.00  0.00    -0.376 OA
BRANCH  38  39
ATOM     39  C   UNL A   1      35.191  30.654  27.839  1.00  0.00     0.202 C 
BRANCH  39  40
ATOM     40  C   UNL A   1      35.573  29.286  28.398  1.00  0.00     0.261 C 
BRANCH  40  41
ATOM     41  O   UNL A   1      36.978  29.224  28.605  1.00  0.00    -0.460 OA
BRANCH  41  42
ATOM     42  C   UNL A   1      38.008  29.853  28.026  1.00  0.00     0.338 C 
ATOM     43  O   UNL A   1      38.473  29.723  26.917  1.00  0.00    -0.246 OA
BRANCH  42  44
ATOM     44  C   UNL A   1      38.379  30.813  29.090  1.00  0.00     0.060 A 
ATOM     45  C   UNL A   1      37.892  32.508  29.262  1.00  0.00     0.016 A 
ATOM     46  C   UNL A   1      39.723  30.230  30.117  1.00  0.00     0.016 A 
ATOM     47  C   UNL A   1      38.737  33.667  30.359  1.00  0.00     0.010 A 
ATOM     48  C   UNL A   1      40.645  31.518  31.358  1.00  0.00     0.010 A 
ATOM     49  C   UNL A   1      40.106  33.215  31.393  1.00  0.00    -0.014 A 
BRANCH  49  50
ATOM     50  C   UNL A   1      41.101  34.110  31.999  1.00  0.00     0.031 A 
ATOM     51  C   UNL A   1      40.896  34.587  33.402  1.00  0.00     0.074 A 
ATOM     52  C   UNL A   1      41.951  34.792  31.207  1.00  0.00     0.049 A 
ATOM     53  N   UNL A   1      41.741  35.157  34.212  1.00  0.00    -0.248 NA
ATOM     54  C   UNL A   1      39.544  34.464  33.965  1.00  0.00     0.031 C 
ATOM     55  C   UNL A   1      41.982  34.752  29.743  1.00  0.00     0.029 A 
ATOM     56  N   UNL A   1      42.927  35.696  31.522  1.00  0.00    -0.354 N 
ATOM     57  C   UNL A   1      41.038  35.374  35.392  1.00  0.00     0.074 A 
ATOM     58  C   UNL A   1      39.674  34.985  35.171  1.00  0.00     0.031 C 
ATOM     59  C   UNL A   1      42.955  35.554  29.289  1.00  0.00     0.029 A 
ATOM     60  C   UNL A   1      43.644  36.126  30.432  1.00  0.00     0.049 A 
ATOM     61  H   UNL A   1      43.098  36.010  32.441  1.00  0.00     0.167 HD
ATOM     62  C   UNL A   1      41.511  35.828  36.571  1.00  0.00     0.034 A 
ATOM     63  C   UNL A   1      44.776  36.848  30.377  1.00  0.00     0.034 A 
ATOM     64  C   UNL A   1      42.832  36.365  36.680  1.00  0.00     0.049 A 
ATOM     65  C   UNL A   1      45.397  37.231  31.684  1.00  0.00     0.074 A 
ATOM     66  C   UNL A   1      43.529  36.762  37.800  1.00  0.00     0.029 A 
ATOM     67  N   UNL A   1      43.629  36.652  35.578  1.00  0.00    -0.354 N 
ATOM     68  N   UNL A   1      44.907  37.099  32.896  1.00  0.00    -0.248 NA
ATOM     69  C   UNL A   1      46.749  37.790  31.631  1.00  0.00     0.031 C 
ATOM     70  C   UNL A   1      44.727  37.343  37.368  1.00  0.00     0.029 A 
ATOM     71  C   UNL A   1      44.808  37.234  35.986  1.00  0.00     0.049 A 
ATOM     72  H   UNL A   1      43.386  36.466  34.643  1.00  0.00     0.167 HD
ATOM     73  C   UNL A   1      45.904  37.524  33.758  1.00  0.00     0.074 A 
ATOM     74  C   UNL A   1      47.033  37.896  32.922  1.00  0.00     0.031 C 
ATOM     75  C   UNL A   1      45.898  37.596  35.114  1.00  0.00     0.034 A 
BRANCH  62  76
ATOM     76  C   UNL A   1      40.604  35.715  37.769  1.00  0.00     0.023 A 
ATOM     77  C   UNL A   1      40.005  36.884  38.297  1.00  0.00     0.012 A 
ATOM     78  C   UNL A   1      40.345  34.480  38.385  1.00  0.00     0.148 A 
ATOM     79  C   UNL A   1      39.217  36.834  39.447  1.00  0.00     0.002 A 
ATOM     80  C   UNL A   1      39.511  34.429  39.498  1.00  0.00     0.091 A 
ATOM     81  F   UNL A   1      40.938  33.383  37.897  1.00  0.00    -0.205 F 
ATOM     82  C   UNL A   1      38.964  35.604  40.041  1.00  0.00     0.022 A 
BRANCH  80  83
ATOM     83  S   UNL A   1      39.061  32.888  40.300  1.00  0.00     0.127 S 
ATOM     84  O   UNL A   1      38.188  33.359  41.376  1.00  0.00    -0.237 OA
ATOM     85  O   UNL A   1      38.371  32.178  39.223  1.00  0.00    -0.237 OA
ATOM     86  O   UNL A   1      40.309  32.277  40.734  1.00  0.00    -0.744 OA
ENDBRANCH  80  83
ENDBRANCH  62  76
BRANCH  63  87
ATOM     87  C   UNL A   1      45.436  37.082  29.066  1.00  0.00     0.023 A 
ATOM     88  C   UNL A   1      46.186  36.056  28.457  1.00  0.00     0.012 A 
ATOM     89  C   UNL A   1      45.245  38.293  28.377  1.00  0.00     0.148 A 
ATOM     90  C   UNL A   1      46.764  36.247  27.200  1.00  0.00     0.002 A 
ATOM     91  C   UNL A   1      45.782  38.461  27.108  1.00  0.00     0.091 A 
ATOM     92  F   UNL A   1      44.506  39.243  28.968  1.00  0.00    -0.205 F 
ATOM     93  C   UNL A   1      46.556  37.445  26.522  1.00  0.00     0.022 A 
BRANCH  91  94
ATOM     94  S   UNL A   1      45.472  39.926  26.118  1.00  0.00     0.127 S 
ATOM     95  O   UNL A   1      46.016  40.981  26.971  1.00  0.00    -0.237 OA
ATOM     96  O   UNL A   1      46.252  39.645  24.913  1.00  0.00    -0.237 OA
ATOM     97  O   UNL A   1      44.031  39.969  25.912  1.00  0.00    -0.744 OA
ENDBRANCH  91  94
ENDBRANCH  63  87
BRANCH  75  98
ATOM     98  C   UNL A   1      47.168  38.054  35.766  1.00  0.00     0.023 A 
ATOM     99  C   UNL A   1      48.211  37.144  36.022  1.00  0.00     0.012 A 
ATOM    100  C   UNL A   1      47.325  39.412  36.095  1.00  0.00     0.148 A 
ATOM    101  C   UNL A   1      49.371  37.572  36.663  1.00  0.00     0.002 A 
ATOM    102  C   UNL A   1      48.511  39.844  36.665  1.00  0.00     0.091 A 
ATOM    103  F   UNL A   1      46.310  40.254  35.853  1.00  0.00    -0.205 F 
ATOM    104  C   UNL A   1      49.525  38.922  36.972  1.00  0.00     0.022 A 
BRANCH 102 105
ATOM    105  S   UNL A   1      48.835  41.577  36.985  1.00  0.00     0.127 S 
ATOM    106  O   UNL A   1      48.287  41.736  38.332  1.00  0.00    -0.237 OA
ATOM    107  O   UNL A   1      50.296  41.634  36.908  1.00  0.00    -0.237 OA
ATOM    108  O   UNL A   1      48.146  42.319  35.939  1.00  0.00    -0.744 OA
ENDBRANCH 102 105
ENDBRANCH  75  98
ENDBRANCH  49  50
ENDBRANCH  42  44
ENDBRANCH  41  42
ENDBRANCH  40  41
ENDBRANCH  39  40
ENDBRANCH  38  39
ENDBRANCH   1  38
TORSDOF 23
ENDMDL
MODEL 3
REMARK VINA RESULT:      -9.6      9.616     17.486
REMARK SMILES Cc1cc(N2CC[NH+]([C@@H](C(=O)OCCOCCOCCOC(=O)c3ccc(-c4c5nc(c(-c6cccc(S(=O)(=O)[O-])c6F)c6ccc([nH]6)c(-c6cccc(S(=O)(=O)[O-])c6F)c6nc(c(-c7cccc(S(=O)(=O)[O-])c7F)c7ccc4[nH]7)C=C6)C=C5)cc3)c3c[nH]c4ccccc34)CC2)nc2ccccc12
REMARK SMILES IDX 17 1 16 2 15 3 14 4 13 5 12 6 10 7 11 8 9 9 8 10 5 11 6 12
REMARK SMILES IDX 97 13 7 14 96 15 4 17 1 18 2 19 3 20 104 21 99 22 103 23
REMARK SMILES IDX 98 24 100 25 102 26 101 27 87 28 88 29 95 30 89 31 90 32
REMARK SMILES IDX 94 33 91 35 93 36 92 37 18 38 19 39 20 40 21 41 22 42 23 43
REMARK SMILES IDX 24 44 25 45 86 46 26 47 85 48 27 49 28 50 29 51 79 52 30 53
REMARK SMILES IDX 84 54 78 55 80 56 31 57 83 58 77 59 76 60 32 62 64 63 44 64
REMARK SMILES IDX 63 65 45 66 48 67 62 68 81 69 46 70 47 71 61 73 82 74 49 75
REMARK SMILES IDX 33 76 34 77 42 78 35 79 37 80 43 81 36 82 38 83 39 84 40 85
REMARK SMILES IDX 41 86 65 87 66 88 74 89 67 90 69 91 75 92 68 93 70 94 71 95
REMARK SMILES IDX 72 96 73 97 50 98 51 99 59 100 52 101 54 102 60 103 53 104
REMARK SMILES IDX 55 105 56 106 57 107 58 108
REMARK H PARENT 8 16 89 34 80 61 48 72
REMARK Flexibility Score: inf
ROOT
ATOM      1  C   UNL A   1      45.465  22.169  36.280  1.00  0.00     0.188 C 
ENDROOT
BRANCH   1   2
ATOM      2  C   UNL A   1      46.128  20.929  36.884  1.00  0.00     0.188 C 
BRANCH   2   3
ATOM      3  O   UNL A   1      47.542  20.857  36.762  1.00  0.00    -0.376 OA
BRANCH   3   4
ATOM      4  C   UNL A   1      48.286  20.726  37.968  1.00  0.00     0.202 C 
BRANCH   4   5
ATOM      5  C   UNL A   1      48.015  19.485  38.830  1.00  0.00     0.261 C 
BRANCH   5   6
ATOM      6  O   UNL A   1      47.974  19.800  40.230  1.00  0.00    -0.459 OA
BRANCH   6   7
ATOM      7  C   UNL A   1      48.245  18.824  41.131  1.00  0.00     0.370 C 
ATOM      8  O   UNL A   1      49.248  18.117  41.076  1.00  0.00    -0.245 OA
BRANCH   7   9
ATOM      9  C   UNL A   1      47.125  18.661  42.172  1.00  0.00     0.328 C 
BRANCH   9  10
ATOM     10  N   UNL A   1      45.682  18.667  41.623  1.00  0.00    -0.316 N 
ATOM     11  N   UNL A   1      43.488  16.578  42.049  1.00  0.00    -0.345 N 
ATOM     12  C   UNL A   1      44.513  16.495  40.983  1.00  0.00     0.179 C 
ATOM     13  C   UNL A   1      43.817  17.549  43.106  1.00  0.00     0.179 C 
ATOM     14  C   UNL A   1      45.165  17.829  40.553  1.00  0.00     0.285 C 
ATOM     15  C   UNL A   1      44.556  18.844  42.576  1.00  0.00     0.285 C 
ATOM     16  H   UNL A   1      46.008  19.508  41.145  1.00  0.00     0.349 HD
BRANCH  11  17
ATOM     17  C   UNL A   1      42.992  15.301  42.466  1.00  0.00     0.129 A 
ATOM     18  C   UNL A   1      40.890  12.492  41.028  1.00  0.00     0.045 C 
ATOM     19  C   UNL A   1      41.875  13.218  41.894  1.00  0.00    -0.038 A 
ATOM     20  C   UNL A   1      42.241  14.547  41.579  1.00  0.00     0.051 A 
ATOM     21  C   UNL A   1      42.436  12.575  43.018  1.00  0.00     0.003 A 
ATOM     22  C   UNL A   1      43.139  13.393  43.901  1.00  0.00     0.073 A 
ATOM     23  C   UNL A   1      42.344  11.171  43.270  1.00  0.00     0.010 A 
ATOM     24  N   UNL A   1      43.280  14.741  43.674  1.00  0.00    -0.231 NA
ATOM     25  C   UNL A   1      43.748  12.738  44.995  1.00  0.00     0.029 A 
ATOM     26  C   UNL A   1      43.032  10.556  44.314  1.00  0.00     0.001 A 
ATOM     27  C   UNL A   1      43.765  11.346  45.173  1.00  0.00     0.002 A 
ENDBRANCH  11  17
ENDBRANCH   9  10
BRANCH   9  28
ATOM     28  C   UNL A   1      47.502  18.704  43.761  1.00  0.00     0.046 A 
ATOM     29  C   UNL A   1      48.147  17.585  44.295  1.00  0.00     0.094 A 
ATOM     30  C   UNL A   1      47.021  19.228  45.068  1.00  0.00     0.009 A 
ATOM     31  N   UNL A   1      47.027  16.888  44.773  1.00  0.00    -0.361 N 
ATOM     32  C   UNL A   1      46.305  17.726  45.691  1.00  0.00     0.046 A 
ATOM     33  C   UNL A   1      46.669  20.700  46.039  1.00  0.00     0.011 A 
ATOM     34  H   UNL A   1      46.776  15.970  44.520  1.00  0.00     0.166 HD
ATOM     35  C   UNL A   1      45.035  17.807  47.249  1.00  0.00     0.026 A 
ATOM     36  C   UNL A   1      45.551  20.785  47.439  1.00  0.00     0.001 A 
ATOM     37  C   UNL A   1      44.716  19.390  48.043  1.00  0.00     0.002 A 
ENDBRANCH   9  28
ENDBRANCH   7   9
ENDBRANCH   6   7
ENDBRANCH   5   6
ENDBRANCH   4   5
ENDBRANCH   3   4
ENDBRANCH   2   3
ENDBRANCH   1   2
BRANCH   1  38
ATOM     38  O   UNL A   1      45.101  22.062  34.939  1.00  0.00    -0.376 OA
BRANCH  38  39
ATOM     39  C   UNL A   1      44.823  23.264  34.265  1.00  0.00     0.202 C 
BRANCH  39  40
ATOM     40  C   UNL A   1      44.549  24.597  34.957  1.00  0.00     0.261 C 
BRANCH  40  41
ATOM     41  O   UNL A   1      45.680  25.449  34.831  1.00  0.00    -0.460 OA
BRANCH  41  42
ATOM     42  C   UNL A   1      46.759  25.641  35.598  1.00  0.00     0.338 C 
ATOM     43  O   UNL A   1      46.911  25.463  36.785  1.00  0.00    -0.246 OA
BRANCH  42  44
ATOM     44  C   UNL A   1      47.751  26.060  34.580  1.00  0.00     0.060 A 
ATOM     45  C   UNL A   1      47.946  27.649  33.824  1.00  0.00     0.016 A 
ATOM     46  C   UNL A   1      48.618  24.679  33.843  1.00  0.00     0.016 A 
ATOM     47  C   UNL A   1      48.909  27.910  32.317  1.00  0.00     0.010 A 
ATOM     48  C   UNL A   1      49.711  24.978  32.181  1.00  0.00     0.010 A 
ATOM     49  C   UNL A   1      49.777  26.611  31.475  1.00  0.00    -0.014 A 
BRANCH  49  50
ATOM     50  C   UNL A   1      50.238  26.605  30.080  1.00  0.00     0.031 A 
ATOM     51  C   UNL A   1      49.270  26.261  28.992  1.00  0.00     0.074 A 
ATOM     52  C   UNL A   1      51.556  26.521  29.816  1.00  0.00     0.049 A 
ATOM     53  N   UNL A   1      49.377  26.436  27.706  1.00  0.00    -0.248 NA
ATOM     54  C   UNL A   1      48.032  25.574  29.384  1.00  0.00     0.031 C 
ATOM     55  C   UNL A   1      52.627  26.412  30.811  1.00  0.00     0.029 A 
ATOM     56  N   UNL A   1      52.222  26.465  28.623  1.00  0.00    -0.354 N 
ATOM     57  C   UNL A   1      48.189  25.958  27.166  1.00  0.00     0.074 A 
ATOM     58  C   UNL A   1      47.418  25.384  28.231  1.00  0.00     0.031 C 
ATOM     59  C   UNL A   1      53.814  26.349  30.191  1.00  0.00     0.029 A 
ATOM     60  C   UNL A   1      53.589  26.462  28.761  1.00  0.00     0.049 A 
ATOM     61  H   UNL A   1      51.766  26.430  27.751  1.00  0.00     0.167 HD
ATOM     62  C   UNL A   1      47.769  26.030  25.885  1.00  0.00     0.034 A 
ATOM     63  C   UNL A   1      54.548  26.603  27.831  1.00  0.00     0.034 A 
ATOM     64  C   UNL A   1      48.651  26.450  24.841  1.00  0.00     0.049 A 
ATOM     65  C   UNL A   1      54.095  26.837  26.423  1.00  0.00     0.074 A 
ATOM     66  C   UNL A   1      48.382  26.701  23.513  1.00  0.00     0.029 A 
ATOM     67  N   UNL A   1      50.020  26.606  25.019  1.00  0.00    -0.354 N 
ATOM     68  N   UNL A   1      52.879  26.766  25.930  1.00  0.00    -0.248 NA
ATOM     69  C   UNL A   1      55.121  27.242  25.461  1.00  0.00     0.031 C 
ATOM     70  C   UNL A   1      49.603  26.951  22.876  1.00  0.00     0.029 A 
ATOM     71  C   UNL A   1      50.619  26.936  23.824  1.00  0.00     0.049 A 
ATOM     72  H   UNL A   1      50.493  26.496  25.875  1.00  0.00     0.167 HD
ATOM     73  C   UNL A   1      52.983  27.153  24.605  1.00  0.00     0.074 A 
ATOM     74  C   UNL A   1      54.383  27.478  24.385  1.00  0.00     0.031 C 
ATOM     75  C   UNL A   1      52.018  27.240  23.654  1.00  0.00     0.034 A 
BRANCH  62  76
ATOM     76  C   UNL A   1      46.329  25.682  25.610  1.00  0.00     0.023 A 
ATOM     77  C   UNL A   1      45.354  26.709  25.614  1.00  0.00     0.012 A 
ATOM     78  C   UNL A   1      45.925  24.361  25.358  1.00  0.00     0.148 A 
ATOM     79  C   UNL A   1      44.002  26.420  25.434  1.00  0.00     0.002 A 
ATOM     80  C   UNL A   1      44.580  24.088  25.123  1.00  0.00     0.091 A 
ATOM     81  F   UNL A   1      46.848  23.391  25.385  1.00  0.00    -0.205 F 
ATOM     82  C   UNL A   1      43.618  25.109  25.180  1.00  0.00     0.022 A 
BRANCH  80  83
ATOM     83  S   UNL A   1      43.984  22.444  24.716  1.00  0.00     0.127 S 
ATOM     84  O   UNL A   1      44.885  21.601  25.503  1.00  0.00    -0.237 OA
ATOM     85  O   UNL A   1      42.608  22.492  25.209  1.00  0.00    -0.237 OA
ATOM     86  O   UNL A   1      44.113  22.313  23.272  1.00  0.00    -0.744 OA
ENDBRANCH  80  83
ENDBRANCH  62  76
BRANCH  63  87
ATOM     87  C   UNL A   1      55.972  26.691  28.250  1.00  0.00     0.023 A 
ATOM     88  C   UNL A   1      56.482  27.893  28.779  1.00  0.00     0.012 A 
ATOM     89  C   UNL A   1      56.798  25.554  28.209  1.00  0.00     0.148 A 
ATOM     90  C   UNL A   1      57.802  27.970  29.226  1.00  0.00     0.002 A 
ATOM     91  C   UNL A   1      58.096  25.623  28.699  1.00  0.00     0.091 A 
ATOM     92  F   UNL A   1      56.280  24.417  27.726  1.00  0.00    -0.205 F 
ATOM     93  C   UNL A   1      58.607  26.835  29.194  1.00  0.00     0.022 A 
BRANCH  91  94
ATOM     94  S   UNL A   1      59.164  24.184  28.799  1.00  0.00     0.127 S 
ATOM     95  O   UNL A   1      60.025  24.532  29.929  1.00  0.00    -0.237 OA
ATOM     96  O   UNL A   1      58.202  23.115  29.065  1.00  0.00    -0.237 OA
ATOM     97  O   UNL A   1      59.831  24.094  27.508  1.00  0.00    -0.744 OA
ENDBRANCH  91  94
ENDBRANCH  63  87
BRANCH  75  98
ATOM     98  C   UNL A   1      52.445  27.750  22.310  1.00  0.00     0.023 A 
ATOM     99  C   UNL A   1      53.010  26.880  21.359  1.00  0.00     0.012 A 
ATOM    100  C   UNL A   1      52.246  29.105  21.990  1.00  0.00     0.148 A 
ATOM    101  C   UNL A   1      53.438  27.371  20.129  1.00  0.00     0.002 A 
ATOM    102  C   UNL A   1      52.605  29.571  20.737  1.00  0.00     0.091 A 
ATOM    103  F   UNL A   1      51.717  29.915  22.920  1.00  0.00    -0.205 F 
ATOM    104  C   UNL A   1      53.224  28.712  19.814  1.00  0.00     0.022 A 
BRANCH 102 105
ATOM    105  S   UNL A   1      52.259  31.249  20.211  1.00  0.00     0.127 S 
ATOM    106  O   UNL A   1      52.981  32.028  21.215  1.00  0.00    -0.237 OA
ATOM    107  O   UNL A   1      52.850  31.277  18.872  1.00  0.00    -0.237 OA
ATOM    108  O   UNL A   1      50.809  31.390  20.234  1.00  0.00    -0.744 OA
ENDBRANCH 102 105
ENDBRANCH  75  98
ENDBRANCH  49  50
ENDBRANCH  42  44
ENDBRANCH  41  42
ENDBRANCH  40  41
ENDBRANCH  39  40
ENDBRANCH  38  39
ENDBRANCH   1  38
TORSDOF 23
ENDMDL
