MODEL 1
REMARK VINA RESULT:      -9.0      0.000      0.000
REMARK SMILES COCCS(=O)(=O)N[C@@H]1C=C[C@@H](C(=O)OCCOCCOCCOC(=O)c2ccc(-c3c4nc(c(-c5cccc(S(=O)(=O)[O-])c5F)c5ccc([nH]5)c(-c5cccc(S(=O)(=O)[O-])c5F)c5nc(c(-c6cccc(S(=O)(=O)[O-])c6F)c6ccc3[nH]6)C=C5)C=C4)cc2)C1
REMARK SMILES IDX 19 1 18 2 17 3 16 4 15 5 13 6 14 7 12 8 9 9 10 10 90 11
REMARK SMILES IDX 11 12 8 13 5 15 6 16 7 17 4 18 3 19 2 20 1 21 20 22 21 23
REMARK SMILES IDX 22 24 23 25 24 26 25 27 26 28 27 29 28 30 89 31 29 32 88 33
REMARK SMILES IDX 30 34 31 35 32 36 82 37 33 38 87 39 81 40 83 41 34 42 86 43
REMARK SMILES IDX 80 44 79 45 35 47 67 48 47 49 66 50 48 51 51 52 65 53 84 54
REMARK SMILES IDX 49 55 50 56 64 58 85 59 52 60 36 61 37 62 45 63 38 64 40 65
REMARK SMILES IDX 46 66 39 67 41 68 42 69 43 70 44 71 68 72 69 73 77 74 70 75
REMARK SMILES IDX 72 76 78 77 71 78 73 79 74 80 75 81 76 82 53 83 54 84 62 85
REMARK SMILES IDX 55 86 57 87 63 88 56 89 58 90 59 91 60 92 61 93
REMARK H PARENT 8 14 83 46 51 57
REMARK Flexibility Score: inf
ROOT
ATOM      1  C   UNL A   1      35.220  23.390  24.928  1.00  0.00     0.188 C 
ENDROOT
BRANCH   1   2
ATOM      2  O   UNL A   1      34.228  23.626  23.956  1.00  0.00    -0.376 OA
BRANCH   2   3
ATOM      3  C   UNL A   1      33.501  24.845  23.962  1.00  0.00     0.202 C 
BRANCH   3   4
ATOM      4  C   UNL A   1      34.019  26.219  24.459  1.00  0.00     0.261 C 
BRANCH   4   5
ATOM      5  O   UNL A   1      33.341  26.833  25.567  1.00  0.00    -0.463 OA
BRANCH   5   6
ATOM      6  C   UNL A   1      33.187  28.179  25.535  1.00  0.00     0.312 C 
ATOM      7  O   UNL A   1      32.968  28.811  24.506  1.00  0.00    -0.252 OA
BRANCH   6   8
ATOM      8  C   UNL A   1      33.186  28.834  26.930  1.00  0.00     0.123 C 
ATOM      9  C   UNL A   1      33.894  31.161  27.443  1.00  0.00     0.093 C 
ATOM     10  C   UNL A   1      32.433  31.049  27.209  1.00  0.00    -0.011 C 
ATOM     11  C   UNL A   1      34.368  29.712  27.401  1.00  0.00     0.043 C 
ATOM     12  C   UNL A   1      32.041  29.799  26.964  1.00  0.00    -0.015 C 
BRANCH   9  13
ATOM     13  N   UNL A   1      34.094  31.844  28.719  1.00  0.00    -0.208 NA
ATOM     14  H   UNL A   1      33.198  31.842  29.208  1.00  0.00     0.141 HD
BRANCH  13  15
ATOM     15  S   UNL A   1      34.641  33.435  28.684  1.00  0.00     0.214 S 
ATOM     16  O   UNL A   1      35.526  33.568  27.548  1.00  0.00    -0.212 OA
ATOM     17  O   UNL A   1      35.138  33.700  30.019  1.00  0.00    -0.212 OA
BRANCH  15  18
ATOM     18  C   UNL A   1      33.168  34.435  28.439  1.00  0.00     0.182 C 
BRANCH  18  19
ATOM     19  C   UNL A   1      33.349  35.896  28.827  1.00  0.00     0.177 C 
BRANCH  19  20
ATOM     20  O   UNL A   1      32.410  36.313  29.816  1.00  0.00    -0.384 OA
ATOM     21  C   UNL A   1      32.794  35.951  31.143  1.00  0.00     0.194 C 
ENDBRANCH  19  20
ENDBRANCH  18  19
ENDBRANCH  15  18
ENDBRANCH  13  15
ENDBRANCH   9  13
ENDBRANCH   6   8
ENDBRANCH   5   6
ENDBRANCH   4   5
ENDBRANCH   3   4
ENDBRANCH   2   3
ENDBRANCH   1   2
BRANCH   1  22
ATOM     22  C   UNL A   1      35.363  21.930  25.363  1.00  0.00     0.188 C 
BRANCH  22  23
ATOM     23  O   UNL A   1      36.101  21.086  24.515  1.00  0.00    -0.376 OA
BRANCH  23  24
ATOM     24  C   UNL A   1      37.180  20.345  25.060  1.00  0.00     0.202 C 
BRANCH  24  25
ATOM     25  C   UNL A   1      38.628  20.857  25.260  1.00  0.00     0.261 C 
BRANCH  25  26
ATOM     26  O   UNL A   1      39.364  20.470  26.428  1.00  0.00    -0.460 OA
BRANCH  26  27
ATOM     27  C   UNL A   1      40.684  20.185  26.271  1.00  0.00     0.338 C 
ATOM     28  O   UNL A   1      41.161  19.213  25.727  1.00  0.00    -0.246 OA
BRANCH  27  29
ATOM     29  C   UNL A   1      41.441  21.410  26.643  1.00  0.00     0.060 A 
ATOM     30  C   UNL A   1      42.015  21.504  27.923  1.00  0.00     0.016 A 
ATOM     31  C   UNL A   1      41.626  22.434  25.717  1.00  0.00     0.016 A 
ATOM     32  C   UNL A   1      42.780  22.620  28.275  1.00  0.00     0.010 A 
ATOM     33  C   UNL A   1      42.361  23.565  26.082  1.00  0.00     0.010 A 
ATOM     34  C   UNL A   1      42.931  23.673  27.365  1.00  0.00    -0.014 A 
BRANCH  34  35
ATOM     35  C   UNL A   1      43.535  24.962  27.782  1.00  0.00     0.031 A 
ATOM     36  C   UNL A   1      42.621  26.062  28.245  1.00  0.00     0.074 A 
ATOM     37  C   UNL A   1      44.860  25.183  27.690  1.00  0.00     0.049 A 
ATOM     38  N   UNL A   1      42.891  27.315  28.498  1.00  0.00    -0.248 NA
ATOM     39  C   UNL A   1      41.208  25.697  28.441  1.00  0.00     0.031 C 
ATOM     40  C   UNL A   1      45.858  24.197  27.284  1.00  0.00     0.029 A 
ATOM     41  N   UNL A   1      45.585  26.334  27.892  1.00  0.00    -0.354 N 
ATOM     42  C   UNL A   1      41.679  27.900  28.842  1.00  0.00     0.074 A 
ATOM     43  C   UNL A   1      40.672  26.864  28.769  1.00  0.00     0.031 C 
ATOM     44  C   UNL A   1      47.060  24.796  27.220  1.00  0.00     0.029 A 
ATOM     45  C   UNL A   1      46.909  26.215  27.538  1.00  0.00     0.049 A 
ATOM     46  H   UNL A   1      45.195  27.161  28.255  1.00  0.00     0.167 HD
ATOM     47  C   UNL A   1      41.425  29.184  29.188  1.00  0.00     0.034 A 
ATOM     48  C   UNL A   1      47.874  27.152  27.435  1.00  0.00     0.034 A 
ATOM     49  C   UNL A   1      42.426  30.212  29.268  1.00  0.00     0.049 A 
ATOM     50  C   UNL A   1      47.553  28.591  27.763  1.00  0.00     0.074 A 
ATOM     51  C   UNL A   1      42.271  31.532  29.655  1.00  0.00     0.029 A 
ATOM     52  N   UNL A   1      43.760  30.047  28.933  1.00  0.00    -0.354 N 
ATOM     53  N   UNL A   1      46.427  29.110  28.191  1.00  0.00    -0.248 NA
ATOM     54  C   UNL A   1      48.641  29.569  27.612  1.00  0.00     0.031 C 
ATOM     55  C   UNL A   1      43.505  32.175  29.515  1.00  0.00     0.029 A 
ATOM     56  C   UNL A   1      44.436  31.246  29.079  1.00  0.00     0.049 A 
ATOM     57  H   UNL A   1      44.167  29.202  28.635  1.00  0.00     0.167 HD
ATOM     58  C   UNL A   1      46.681  30.465  28.388  1.00  0.00     0.074 A 
ATOM     59  C   UNL A   1      48.073  30.682  28.056  1.00  0.00     0.031 C 
ATOM     60  C   UNL A   1      45.834  31.444  28.792  1.00  0.00     0.034 A 
BRANCH  47  61
ATOM     61  C   UNL A   1      40.002  29.551  29.512  1.00  0.00     0.023 A 
ATOM     62  C   UNL A   1      39.099  29.847  28.470  1.00  0.00     0.012 A 
ATOM     63  C   UNL A   1      39.544  29.544  30.844  1.00  0.00     0.148 A 
ATOM     64  C   UNL A   1      37.770  30.162  28.752  1.00  0.00     0.002 A 
ATOM     65  C   UNL A   1      38.208  29.813  31.114  1.00  0.00     0.091 A 
ATOM     66  F   UNL A   1      40.424  29.280  31.821  1.00  0.00    -0.205 F 
ATOM     67  C   UNL A   1      37.324  30.133  30.071  1.00  0.00     0.022 A 
BRANCH  65  68
ATOM     68  S   UNL A   1      37.516  29.724  32.768  1.00  0.00     0.127 S 
ATOM     69  O   UNL A   1      37.511  28.281  33.008  1.00  0.00    -0.237 OA
ATOM     70  O   UNL A   1      38.502  30.468  33.552  1.00  0.00    -0.237 OA
ATOM     71  O   UNL A   1      36.202  30.347  32.691  1.00  0.00    -0.744 OA
ENDBRANCH  65  68
ENDBRANCH  47  61
BRANCH  48  72
ATOM     72  C   UNL A   1      49.246  26.772  26.990  1.00  0.00     0.023 A 
ATOM     73  C   UNL A   1      50.089  26.061  27.868  1.00  0.00     0.012 A 
ATOM     74  C   UNL A   1      49.725  27.118  25.712  1.00  0.00     0.148 A 
ATOM     75  C   UNL A   1      51.392  25.731  27.492  1.00  0.00     0.002 A 
ATOM     76  C   UNL A   1      51.004  26.736  25.322  1.00  0.00     0.091 A 
ATOM     77  F   UNL A   1      48.917  27.813  24.898  1.00  0.00    -0.205 F 
ATOM     78  C   UNL A   1      51.846  26.058  26.218  1.00  0.00     0.022 A 
BRANCH  76  79
ATOM     79  S   UNL A   1      51.631  27.009  23.662  1.00  0.00     0.127 S 
ATOM     80  O   UNL A   1      50.495  26.598  22.841  1.00  0.00    -0.237 OA
ATOM     81  O   UNL A   1      51.895  28.448  23.675  1.00  0.00    -0.237 OA
ATOM     82  O   UNL A   1      52.823  26.179  23.549  1.00  0.00    -0.744 OA
ENDBRANCH  76  79
ENDBRANCH  48  72
BRANCH  60  83
ATOM     83  C   UNL A   1      46.381  32.843  28.934  1.00  0.00     0.023 A 
ATOM     84  C   UNL A   1      46.983  33.242  30.144  1.00  0.00     0.012 A 
ATOM     85  C   UNL A   1      46.381  33.730  27.839  1.00  0.00     0.148 A 
ATOM     86  C   UNL A   1      47.553  34.509  30.270  1.00  0.00     0.002 A 
ATOM     87  C   UNL A   1      46.995  34.972  27.955  1.00  0.00     0.091 A 
ATOM     88  F   UNL A   1      45.794  33.337  26.699  1.00  0.00    -0.205 F 
ATOM     89  C   UNL A   1      47.570  35.368  29.173  1.00  0.00     0.022 A 
BRANCH  87  90
ATOM     90  S   UNL A   1      47.153  36.110  26.573  1.00  0.00     0.127 S 
ATOM     91  O   UNL A   1      48.576  35.995  26.254  1.00  0.00    -0.237 OA
ATOM     92  O   UNL A   1      46.255  35.518  25.582  1.00  0.00    -0.237 OA
ATOM     93  O   UNL A   1      46.734  37.414  27.072  1.00  0.00    -0.744 OA
ENDBRANCH  87  90
ENDBRANCH  60  83
ENDBRANCH  34  35
ENDBRANCH  27  29
ENDBRANCH  26  27
ENDBRANCH  25  26
ENDBRANCH  24  25
ENDBRANCH  23  24
ENDBRANCH  22  23
ENDBRANCH   1  22
TORSDOF 25
ENDMDL
MODEL 2
REMARK VINA RESULT:      -8.7      5.943     11.008
REMARK SMILES COCCS(=O)(=O)N[C@@H]1C=C[C@@H](C(=O)OCCOCCOCCOC(=O)c2ccc(-c3c4nc(c(-c5cccc(S(=O)(=O)[O-])c5F)c5ccc([nH]5)c(-c5cccc(S(=O)(=O)[O-])c5F)c5nc(c(-c6cccc(S(=O)(=O)[O-])c6F)c6ccc3[nH]6)C=C5)C=C4)cc2)C1
REMARK SMILES IDX 19 1 18 2 17 3 16 4 15 5 13 6 14 7 12 8 9 9 10 10 90 11
REMARK SMILES IDX 11 12 8 13 5 15 6 16 7 17 4 18 3 19 2 20 1 21 20 22 21 23
REMARK SMILES IDX 22 24 23 25 24 26 25 27 26 28 27 29 28 30 89 31 29 32 88 33
REMARK SMILES IDX 30 34 31 35 32 36 82 37 33 38 87 39 81 40 83 41 34 42 86 43
REMARK SMILES IDX 80 44 79 45 35 47 67 48 47 49 66 50 48 51 51 52 65 53 84 54
REMARK SMILES IDX 49 55 50 56 64 58 85 59 52 60 36 61 37 62 45 63 38 64 40 65
REMARK SMILES IDX 46 66 39 67 41 68 42 69 43 70 44 71 68 72 69 73 77 74 70 75
REMARK SMILES IDX 72 76 78 77 71 78 73 79 74 80 75 81 76 82 53 83 54 84 62 85
REMARK SMILES IDX 55 86 57 87 63 88 56 89 58 90 59 91 60 92 61 93
REMARK H PARENT 8 14 83 46 51 57
REMARK Flexibility Score: inf
ROOT
ATOM      1  C   UNL A   1      35.006  31.792  28.477  1.00  0.00     0.188 C 
ENDROOT
BRANCH   1   2
ATOM      2  O   UNL A   1      34.602  31.201  27.263  1.00  0.00    -0.376 OA
BRANCH   2   3
ATOM      3  C   UNL A   1      33.668  30.133  27.266  1.00  0.00     0.202 C 
BRANCH   3   4
ATOM      4  C   UNL A   1      32.200  30.199  26.775  1.00  0.00     0.261 C 
BRANCH   4   5
ATOM      5  O   UNL A   1      31.696  29.095  26.006  1.00  0.00    -0.463 OA
BRANCH   5   6
ATOM      6  C   UNL A   1      31.409  29.322  24.701  1.00  0.00     0.312 C 
ATOM      7  O   UNL A   1      30.492  30.045  24.325  1.00  0.00    -0.252 OA
BRANCH   6   8
ATOM      8  C   UNL A   1      32.421  28.687  23.727  1.00  0.00     0.123 C 
ATOM      9  C   UNL A   1      32.980  26.269  23.585  1.00  0.00     0.093 C 
ATOM     10  C   UNL A   1      31.915  26.665  22.629  1.00  0.00    -0.011 C 
ATOM     11  C   UNL A   1      33.409  27.596  24.201  1.00  0.00     0.043 C 
ATOM     12  C   UNL A   1      31.632  27.966  22.678  1.00  0.00    -0.015 C 
BRANCH   9  13
ATOM     13  N   UNL A   1      34.018  25.567  22.834  1.00  0.00    -0.208 NA
ATOM     14  H   UNL A   1      34.143  26.063  21.952  1.00  0.00     0.141 HD
BRANCH  13  15
ATOM     15  S   UNL A   1      33.762  23.945  22.465  1.00  0.00     0.214 S 
ATOM     16  O   UNL A   1      35.004  23.242  22.702  1.00  0.00    -0.212 OA
ATOM     17  O   UNL A   1      33.174  23.941  21.141  1.00  0.00    -0.212 OA
BRANCH  15  18
ATOM     18  C   UNL A   1      32.507  23.389  23.624  1.00  0.00     0.182 C 
BRANCH  18  19
ATOM     19  C   UNL A   1      33.017  22.372  24.636  1.00  0.00     0.177 C 
BRANCH  19  20
ATOM     20  O   UNL A   1      33.704  22.990  25.722  1.00  0.00    -0.384 OA
ATOM     21  C   UNL A   1      32.902  23.938  26.428  1.00  0.00     0.194 C 
ENDBRANCH  19  20
ENDBRANCH  18  19
ENDBRANCH  15  18
ENDBRANCH  13  15
ENDBRANCH   9  13
ENDBRANCH   6   8
ENDBRANCH   5   6
ENDBRANCH   4   5
ENDBRANCH   3   4
ENDBRANCH   2   3
ENDBRANCH   1   2
BRANCH   1  22
ATOM     22  C   UNL A   1      34.075  32.886  29.005  1.00  0.00     0.188 C 
BRANCH  22  23
ATOM     23  O   UNL A   1      34.568  34.202  28.980  1.00  0.00    -0.376 OA
BRANCH  23  24
ATOM     24  C   UNL A   1      33.662  35.265  28.731  1.00  0.00     0.202 C 
BRANCH  24  25
ATOM     25  C   UNL A   1      32.932  36.111  29.803  1.00  0.00     0.261 C 
BRANCH  25  26
ATOM     26  O   UNL A   1      32.476  35.489  31.010  1.00  0.00    -0.460 OA
BRANCH  26  27
ATOM     27  C   UNL A   1      33.059  35.880  32.175  1.00  0.00     0.338 C 
ATOM     28  O   UNL A   1      32.627  36.685  32.972  1.00  0.00    -0.246 OA
BRANCH  27  29
ATOM     29  C   UNL A   1      34.188  34.947  32.433  1.00  0.00     0.060 A 
ATOM     30  C   UNL A   1      33.919  33.654  32.915  1.00  0.00     0.016 A 
ATOM     31  C   UNL A   1      35.497  35.330  32.150  1.00  0.00     0.016 A 
ATOM     32  C   UNL A   1      34.960  32.741  33.107  1.00  0.00     0.010 A 
ATOM     33  C   UNL A   1      36.540  34.428  32.378  1.00  0.00     0.010 A 
ATOM     34  C   UNL A   1      36.282  33.134  32.871  1.00  0.00    -0.014 A 
BRANCH  34  35
ATOM     35  C   UNL A   1      37.420  32.276  33.281  1.00  0.00     0.031 A 
ATOM     36  C   UNL A   1      38.168  32.636  34.535  1.00  0.00     0.074 A 
ATOM     37  C   UNL A   1      37.830  31.239  32.528  1.00  0.00     0.049 A 
ATOM     38  N   UNL A   1      39.284  32.146  35.005  1.00  0.00    -0.248 NA
ATOM     39  C   UNL A   1      37.577  33.698  35.366  1.00  0.00     0.031 C 
ATOM     40  C   UNL A   1      37.179  30.767  31.308  1.00  0.00     0.029 A 
ATOM     41  N   UNL A   1      38.928  30.422  32.662  1.00  0.00    -0.354 N 
ATOM     42  C   UNL A   1      39.554  32.866  36.162  1.00  0.00     0.074 A 
ATOM     43  C   UNL A   1      38.482  33.825  36.325  1.00  0.00     0.031 C 
ATOM     44  C   UNL A   1      37.916  29.775  30.778  1.00  0.00     0.029 A 
ATOM     45  C   UNL A   1      39.110  29.572  31.597  1.00  0.00     0.049 A 
ATOM     46  H   UNL A   1      39.524  30.444  33.445  1.00  0.00     0.167 HD
ATOM     47  C   UNL A   1      40.599  32.742  37.013  1.00  0.00     0.034 A 
ATOM     48  C   UNL A   1      40.144  28.759  31.293  1.00  0.00     0.034 A 
ATOM     49  C   UNL A   1      41.661  31.786  36.856  1.00  0.00     0.049 A 
ATOM     50  C   UNL A   1      41.331  28.685  32.224  1.00  0.00     0.074 A 
ATOM     51  C   UNL A   1      42.738  31.555  37.693  1.00  0.00     0.029 A 
ATOM     52  N   UNL A   1      41.795  30.921  35.782  1.00  0.00    -0.354 N 
ATOM     53  N   UNL A   1      41.522  29.293  33.370  1.00  0.00    -0.248 NA
ATOM     54  C   UNL A   1      42.436  27.798  31.828  1.00  0.00     0.031 C 
ATOM     55  C   UNL A   1      43.546  30.577  37.104  1.00  0.00     0.029 A 
ATOM     56  C   UNL A   1      42.950  30.171  35.921  1.00  0.00     0.049 A 
ATOM     57  H   UNL A   1      41.162  30.849  35.032  1.00  0.00     0.167 HD
ATOM     58  C   UNL A   1      42.750  28.839  33.844  1.00  0.00     0.074 A 
ATOM     59  C   UNL A   1      43.247  27.888  32.873  1.00  0.00     0.031 C 
ATOM     60  C   UNL A   1      43.414  29.190  34.973  1.00  0.00     0.034 A 
BRANCH  47  61
ATOM     61  C   UNL A   1      40.646  33.666  38.200  1.00  0.00     0.023 A 
ATOM     62  C   UNL A   1      40.077  33.263  39.426  1.00  0.00     0.012 A 
ATOM     63  C   UNL A   1      41.305  34.909  38.118  1.00  0.00     0.148 A 
ATOM     64  C   UNL A   1      40.136  34.096  40.543  1.00  0.00     0.002 A 
ATOM     65  C   UNL A   1      41.400  35.712  39.247  1.00  0.00     0.091 A 
ATOM     66  F   UNL A   1      41.820  35.282  36.938  1.00  0.00    -0.205 F 
ATOM     67  C   UNL A   1      40.807  35.313  40.456  1.00  0.00     0.022 A 
BRANCH  65  68
ATOM     68  S   UNL A   1      42.309  37.260  39.261  1.00  0.00     0.127 S 
ATOM     69  O   UNL A   1      43.341  36.988  40.261  1.00  0.00    -0.237 OA
ATOM     70  O   UNL A   1      42.801  37.338  37.885  1.00  0.00    -0.237 OA
ATOM     71  O   UNL A   1      41.348  38.291  39.624  1.00  0.00    -0.744 OA
ENDBRANCH  65  68
ENDBRANCH  47  61
BRANCH  48  72
ATOM     72  C   UNL A   1      40.120  27.948  30.041  1.00  0.00     0.023 A 
ATOM     73  C   UNL A   1      39.273  26.825  29.957  1.00  0.00     0.012 A 
ATOM     74  C   UNL A   1      40.936  28.275  28.941  1.00  0.00     0.148 A 
ATOM     75  C   UNL A   1      39.263  26.026  28.814  1.00  0.00     0.002 A 
ATOM     76  C   UNL A   1      40.879  27.507  27.783  1.00  0.00     0.091 A 
ATOM     77  F   UNL A   1      41.751  29.334  29.046  1.00  0.00    -0.205 F 
ATOM     78  C   UNL A   1      40.057  26.371  27.724  1.00  0.00     0.022 A 
BRANCH  76  79
ATOM     79  S   UNL A   1      41.775  27.943  26.288  1.00  0.00     0.127 S 
ATOM     80  O   UNL A   1      43.157  27.964  26.763  1.00  0.00    -0.237 OA
ATOM     81  O   UNL A   1      41.441  26.827  25.403  1.00  0.00    -0.237 OA
ATOM     82  O   UNL A   1      41.235  29.228  25.865  1.00  0.00    -0.744 OA
ENDBRANCH  76  79
ENDBRANCH  48  72
BRANCH  60  83
ATOM     83  C   UNL A   1      44.741  28.528  35.253  1.00  0.00     0.023 A 
ATOM     84  C   UNL A   1      45.937  29.158  34.856  1.00  0.00     0.012 A 
ATOM     85  C   UNL A   1      44.805  27.328  35.990  1.00  0.00     0.148 A 
ATOM     86  C   UNL A   1      47.174  28.591  35.165  1.00  0.00     0.002 A 
ATOM     87  C   UNL A   1      46.041  26.796  36.338  1.00  0.00     0.091 A 
ATOM     88  F   UNL A   1      43.655  26.738  36.349  1.00  0.00    -0.205 F 
ATOM     89  C   UNL A   1      47.226  27.419  35.916  1.00  0.00     0.022 A 
BRANCH  87  90
ATOM     90  S   UNL A   1      46.213  25.344  37.383  1.00  0.00     0.127 S 
ATOM     91  O   UNL A   1      45.936  25.896  38.709  1.00  0.00    -0.237 OA
ATOM     92  O   UNL A   1      45.170  24.461  36.859  1.00  0.00    -0.237 OA
ATOM     93  O   UNL A   1      47.574  24.862  37.186  1.00  0.00    -0.744 OA
ENDBRANCH  87  90
ENDBRANCH  60  83
ENDBRANCH  34  35
ENDBRANCH  27  29
ENDBRANCH  26  27
ENDBRANCH  25  26
ENDBRANCH  24  25
ENDBRANCH  23  24
ENDBRANCH  22  23
ENDBRANCH   1  22
TORSDOF 25
ENDMDL
MODEL 3
REMARK VINA RESULT:      -8.6      6.121     11.070
REMARK SMILES COCCS(=O)(=O)N[C@@H]1C=C[C@@H](C(=O)OCCOCCOCCOC(=O)c2ccc(-c3c4nc(c(-c5cccc(S(=O)(=O)[O-])c5F)c5ccc([nH]5)c(-c5cccc(S(=O)(=O)[O-])c5F)c5nc(c(-c6cccc(S(=O)(=O)[O-])c6F)c6ccc3[nH]6)C=C5)C=C4)cc2)C1
REMARK SMILES IDX 19 1 18 2 17 3 16 4 15 5 13 6 14 7 12 8 9 9 10 10 90 11
REMARK SMILES IDX 11 12 8 13 5 15 6 16 7 17 4 18 3 19 2 20 1 21 20 22 21 23
REMARK SMILES IDX 22 24 23 25 24 26 25 27 26 28 27 29 28 30 89 31 29 32 88 33
REMARK SMILES IDX 30 34 31 35 32 36 82 37 33 38 87 39 81 40 83 41 34 42 86 43
REMARK SMILES IDX 80 44 79 45 35 47 67 48 47 49 66 50 48 51 51 52 65 53 84 54
REMARK SMILES IDX 49 55 50 56 64 58 85 59 52 60 36 61 37 62 45 63 38 64 40 65
REMARK SMILES IDX 46 66 39 67 41 68 42 69 43 70 44 71 68 72 69 73 77 74 70 75
REMARK SMILES IDX 72 76 78 77 71 78 73 79 74 80 75 81 76 82 53 83 54 84 62 85
REMARK SMILES IDX 55 86 57 87 63 88 56 89 58 90 59 91 60 92 61 93
REMARK H PARENT 8 14 83 46 51 57
REMARK Flexibility Score: inf
ROOT
ATOM      1  C   UNL A   1      35.035  31.863  28.534  1.00  0.00     0.188 C 
ENDROOT
BRANCH   1   2
ATOM      2  O   UNL A   1      34.821  31.168  27.327  1.00  0.00    -0.376 OA
BRANCH   2   3
ATOM      3  C   UNL A   1      33.747  30.247  27.215  1.00  0.00     0.202 C 
BRANCH   3   4
ATOM      4  C   UNL A   1      32.520  30.381  26.277  1.00  0.00     0.261 C 
BRANCH   4   5
ATOM      5  O   UNL A   1      31.918  29.175  25.780  1.00  0.00    -0.463 OA
BRANCH   5   6
ATOM      6  C   UNL A   1      32.122  28.866  24.476  1.00  0.00     0.312 C 
ATOM      7  O   UNL A   1      31.443  29.318  23.559  1.00  0.00    -0.252 OA
BRANCH   6   8
ATOM      8  C   UNL A   1      33.369  27.992  24.237  1.00  0.00     0.123 C 
ATOM      9  C   UNL A   1      33.425  25.506  24.261  1.00  0.00     0.093 C 
ATOM     10  C   UNL A   1      33.232  26.059  22.897  1.00  0.00    -0.011 C 
ATOM     11  C   UNL A   1      33.653  26.750  25.114  1.00  0.00     0.043 C 
ATOM     12  C   UNL A   1      33.232  27.391  22.872  1.00  0.00    -0.015 C 
BRANCH   9  13
ATOM     13  N   UNL A   1      34.546  24.572  24.212  1.00  0.00    -0.208 NA
ATOM     14  H   UNL A   1      35.299  25.028  23.696  1.00  0.00     0.141 HD
BRANCH  13  15
ATOM     15  S   UNL A   1      34.289  23.069  23.500  1.00  0.00     0.214 S 
ATOM     16  O   UNL A   1      35.320  22.175  23.981  1.00  0.00    -0.212 OA
ATOM     17  O   UNL A   1      34.170  23.332  22.080  1.00  0.00    -0.212 OA
BRANCH  15  18
ATOM     18  C   UNL A   1      32.680  22.534  24.095  1.00  0.00     0.182 C 
BRANCH  18  19
ATOM     19  C   UNL A   1      32.721  21.901  25.480  1.00  0.00     0.177 C 
BRANCH  19  20
ATOM     20  O   UNL A   1      33.160  22.818  26.479  1.00  0.00    -0.384 OA
ATOM     21  C   UNL A   1      33.867  22.187  27.548  1.00  0.00     0.194 C 
ENDBRANCH  19  20
ENDBRANCH  18  19
ENDBRANCH  15  18
ENDBRANCH  13  15
ENDBRANCH   9  13
ENDBRANCH   6   8
ENDBRANCH   5   6
ENDBRANCH   4   5
ENDBRANCH   3   4
ENDBRANCH   2   3
ENDBRANCH   1   2
BRANCH   1  22
ATOM     22  C   UNL A   1      34.056  33.007  28.803  1.00  0.00     0.188 C 
BRANCH  22  23
ATOM     23  O   UNL A   1      34.588  34.308  28.811  1.00  0.00    -0.376 OA
BRANCH  23  24
ATOM     24  C   UNL A   1      33.735  35.397  28.500  1.00  0.00     0.202 C 
BRANCH  24  25
ATOM     25  C   UNL A   1      32.877  36.201  29.509  1.00  0.00     0.261 C 
BRANCH  25  26
ATOM     26  O   UNL A   1      32.214  35.518  30.580  1.00  0.00    -0.460 OA
BRANCH  26  27
ATOM     27  C   UNL A   1      32.588  35.832  31.850  1.00  0.00     0.338 C 
ATOM     28  O   UNL A   1      31.953  36.472  32.659  1.00  0.00    -0.246 OA
BRANCH  27  29
ATOM     29  C   UNL A   1      33.795  35.021  32.161  1.00  0.00     0.060 A 
ATOM     30  C   UNL A   1      33.652  33.653  32.453  1.00  0.00     0.016 A 
ATOM     31  C   UNL A   1      35.063  35.597  32.112  1.00  0.00     0.016 A 
ATOM     32  C   UNL A   1      34.778  32.860  32.690  1.00  0.00     0.010 A 
ATOM     33  C   UNL A   1      36.184  34.810  32.385  1.00  0.00     0.010 A 
ATOM     34  C   UNL A   1      36.051  33.442  32.690  1.00  0.00    -0.014 A 
BRANCH  34  35
ATOM     35  C   UNL A   1      37.237  32.687  33.161  1.00  0.00     0.031 A 
ATOM     36  C   UNL A   1      37.729  32.932  34.561  1.00  0.00     0.074 A 
ATOM     37  C   UNL A   1      37.910  31.850  32.349  1.00  0.00     0.049 A 
ATOM     38  N   UNL A   1      38.827  32.524  35.139  1.00  0.00    -0.248 NA
ATOM     39  C   UNL A   1      36.864  33.755  35.421  1.00  0.00     0.031 C 
ATOM     40  C   UNL A   1      37.526  31.502  30.983  1.00  0.00     0.029 A 
ATOM     41  N   UNL A   1      39.091  31.175  32.550  1.00  0.00    -0.354 N 
ATOM     42  C   UNL A   1      38.809  33.074  36.414  1.00  0.00     0.074 A 
ATOM     43  C   UNL A   1      37.588  33.842  36.527  1.00  0.00     0.031 C 
ATOM     44  C   UNL A   1      38.479  30.717  30.451  1.00  0.00     0.029 A 
ATOM     45  C   UNL A   1      39.558  30.542  31.422  1.00  0.00     0.049 A 
ATOM     46  H   UNL A   1      39.556  31.147  33.417  1.00  0.00     0.167 HD
ATOM     47  C   UNL A   1      39.725  32.952  37.403  1.00  0.00     0.034 A 
ATOM     48  C   UNL A   1      40.739  29.935  31.185  1.00  0.00     0.034 A 
ATOM     49  C   UNL A   1      40.935  32.183  37.293  1.00  0.00     0.049 A 
ATOM     50  C   UNL A   1      41.774  29.867  32.283  1.00  0.00     0.074 A 
ATOM     51  C   UNL A   1      41.901  31.963  38.259  1.00  0.00     0.029 A 
ATOM     52  N   UNL A   1      41.358  31.531  36.147  1.00  0.00    -0.354 N 
ATOM     53  N   UNL A   1      41.699  30.298  33.519  1.00  0.00    -0.248 NA
ATOM     54  C   UNL A   1      43.051  29.210  31.957  1.00  0.00     0.031 C 
ATOM     55  C   UNL A   1      42.929  31.210  37.683  1.00  0.00     0.029 A 
ATOM     56  C   UNL A   1      42.584  30.928  36.371  1.00  0.00     0.049 A 
ATOM     57  H   UNL A   1      40.860  31.500  35.298  1.00  0.00     0.167 HD
ATOM     58  C   UNL A   1      42.900  29.940  34.124  1.00  0.00     0.074 A 
ATOM     59  C   UNL A   1      43.677  29.235  33.126  1.00  0.00     0.031 C 
ATOM     60  C   UNL A   1      43.329  30.186  35.386  1.00  0.00     0.034 A 
BRANCH  47  61
ATOM     61  C   UNL A   1      39.452  33.667  38.699  1.00  0.00     0.023 A 
ATOM     62  C   UNL A   1      40.069  34.907  38.959  1.00  0.00     0.012 A 
ATOM     63  C   UNL A   1      38.539  33.138  39.632  1.00  0.00     0.148 A 
ATOM     64  C   UNL A   1      39.805  35.595  40.143  1.00  0.00     0.002 A 
ATOM     65  C   UNL A   1      38.245  33.851  40.787  1.00  0.00     0.091 A 
ATOM     66  F   UNL A   1      37.980  31.947  39.374  1.00  0.00    -0.205 F 
ATOM     67  C   UNL A   1      38.886  35.073  41.050  1.00  0.00     0.022 A 
BRANCH  65  68
ATOM     68  S   UNL A   1      37.019  33.304  41.979  1.00  0.00     0.127 S 
ATOM     69  O   UNL A   1      37.857  32.661  42.990  1.00  0.00    -0.237 OA
ATOM     70  O   UNL A   1      36.417  34.569  42.401  1.00  0.00    -0.237 OA
ATOM     71  O   UNL A   1      36.122  32.414  41.256  1.00  0.00    -0.744 OA
ENDBRANCH  65  68
ENDBRANCH  47  61
BRANCH  48  72
ATOM     72  C   UNL A   1      41.026  29.344  29.846  1.00  0.00     0.023 A 
ATOM     73  C   UNL A   1      41.791  30.073  28.914  1.00  0.00     0.012 A 
ATOM     74  C   UNL A   1      40.538  28.072  29.486  1.00  0.00     0.148 A 
ATOM     75  C   UNL A   1      42.037  29.560  27.639  1.00  0.00     0.002 A 
ATOM     76  C   UNL A   1      40.836  27.543  28.235  1.00  0.00     0.091 A 
ATOM     77  F   UNL A   1      39.794  27.402  30.378  1.00  0.00    -0.205 F 
ATOM     78  C   UNL A   1      41.569  28.293  27.303  1.00  0.00     0.022 A 
BRANCH  76  79
ATOM     79  S   UNL A   1      40.378  25.873  27.758  1.00  0.00     0.127 S 
ATOM     80  O   UNL A   1      40.882  25.805  26.388  1.00  0.00    -0.237 OA
ATOM     81  O   UNL A   1      41.120  25.070  28.730  1.00  0.00    -0.237 OA
ATOM     82  O   UNL A   1      38.930  25.805  27.900  1.00  0.00    -0.744 OA
ENDBRANCH  76  79
ENDBRANCH  48  72
BRANCH  60  83
ATOM     83  C   UNL A   1      44.688  29.668  35.789  1.00  0.00     0.023 A 
ATOM     84  C   UNL A   1      45.824  30.489  35.642  1.00  0.00     0.012 A 
ATOM     85  C   UNL A   1      44.825  28.405  36.400  1.00  0.00     0.148 A 
ATOM     86  C   UNL A   1      47.077  30.051  36.071  1.00  0.00     0.002 A 
ATOM     87  C   UNL A   1      46.067  27.995  36.870  1.00  0.00     0.091 A 
ATOM     88  F   UNL A   1      43.734  27.634  36.521  1.00  0.00    -0.205 F 
ATOM     89  C   UNL A   1      47.196  28.811  36.695  1.00  0.00     0.022 A 
BRANCH  87  90
ATOM     90  S   UNL A   1      46.305  26.459  37.773  1.00  0.00     0.127 S 
ATOM     91  O   UNL A   1      45.311  26.583  38.838  1.00  0.00    -0.237 OA
ATOM     92  O   UNL A   1      45.991  25.454  36.758  1.00  0.00    -0.237 OA
ATOM     93  O   UNL A   1      47.693  26.462  38.218  1.00  0.00    -0.744 OA
ENDBRANCH  87  90
ENDBRANCH  60  83
ENDBRANCH  34  35
ENDBRANCH  27  29
ENDBRANCH  26  27
ENDBRANCH  25  26
ENDBRANCH  24  25
ENDBRANCH  23  24
ENDBRANCH  22  23
ENDBRANCH   1  22
TORSDOF 25
ENDMDL
