MODEL 1
REMARK VINA RESULT:      -7.3      0.000      0.000
REMARK SMILES COc1ccc([C@H]2CC(c3ccc(S(C)(=O)=O)cc3)=NN2c2ccc(C(=O)OCCOCCOCCOC(=O)c3ccc(-c4c5nc(c(-c6cccc(S(=O)(=O)[O-])c6F)c6ccc([nH]6)c(-c6cccc(S(=O)(=O)[O-])c6F)c6nc(c(-c7cccc(S(=O)(=O)[O-])c7F)c7ccc4[nH]7)C=C6)C=C5)cc3)cc2)cc1
REMARK SMILES IDX 32 1 31 2 30 3 29 4 28 5 26 6 27 7 25 8 22 9 23 10 104 11
REMARK SMILES IDX 24 12 103 13 21 14 7 15 8 16 9 17 20 18 6 19 3 20 4 21
REMARK SMILES IDX 106 22 5 23 105 24 2 25 1 26 10 27 11 28 19 29 12 30 18 31
REMARK SMILES IDX 13 32 14 33 15 34 16 35 17 36 33 37 34 38 35 39 36 40 37 41
REMARK SMILES IDX 38 42 39 43 40 44 41 45 102 46 42 47 101 48 43 49 44 50
REMARK SMILES IDX 45 51 95 52 46 53 100 54 94 55 96 56 47 57 99 58 93 59 92 60
REMARK SMILES IDX 48 62 80 63 60 64 79 65 61 66 64 67 78 68 97 69 62 70 63 71
REMARK SMILES IDX 77 73 98 74 65 75 49 76 50 77 58 78 51 79 53 80 59 81 52 82
REMARK SMILES IDX 54 83 55 84 56 85 57 86 81 87 82 88 90 89 83 90 85 91 91 92
REMARK SMILES IDX 84 93 86 94 87 95 88 96 89 97 66 98 67 99 75 100 68 101
REMARK SMILES IDX 70 102 76 103 69 104 71 105 72 106 73 107 74 108
REMARK H PARENT 96 61 64 72
REMARK Flexibility Score: inf
ROOT
ATOM      1  C   UNL A   1      43.537  37.774  33.616  1.00  0.00     0.188 C 
ENDROOT
BRANCH   1   2
ATOM      2  O   UNL A   1      43.838  37.103  34.815  1.00  0.00    -0.376 OA
BRANCH   2   3
ATOM      3  C   UNL A   1      42.810  36.508  35.585  1.00  0.00     0.202 C 
BRANCH   3   4
ATOM      4  C   UNL A   1      41.387  36.173  35.093  1.00  0.00     0.261 C 
BRANCH   4   5
ATOM      5  O   UNL A   1      40.925  34.827  35.216  1.00  0.00    -0.460 OA
BRANCH   5   6
ATOM      6  C   UNL A   1      39.675  34.589  34.745  1.00  0.00     0.338 C 
ATOM      7  O   UNL A   1      38.724  35.350  34.782  1.00  0.00    -0.246 OA
BRANCH   6   8
ATOM      8  C   UNL A   1      39.655  33.293  34.033  1.00  0.00     0.060 A 
ATOM      9  C   UNL A   1      39.461  30.891  32.588  1.00  0.00     0.060 A 
ATOM     10  C   UNL A   1      39.772  32.091  31.935  1.00  0.00     0.029 A 
ATOM     11  C   UNL A   1      39.337  30.904  33.987  1.00  0.00     0.029 A 
ATOM     12  C   UNL A   1      39.835  33.293  32.646  1.00  0.00     0.018 A 
ATOM     13  C   UNL A   1      39.452  32.093  34.715  1.00  0.00     0.018 A 
BRANCH   9  14
ATOM     14  N   UNL A   1      39.175  29.738  31.862  1.00  0.00    -0.257 N 
ATOM     15  C   UNL A   1      37.801  29.267  31.672  1.00  0.00     0.144 C 
ATOM     16  C   UNL A   1      37.966  28.146  30.643  1.00  0.00     0.091 C 
ATOM     17  C   UNL A   1      39.442  28.243  30.375  1.00  0.00     0.071 C 
ATOM     18  N   UNL A   1      40.088  29.149  31.044  1.00  0.00    -0.176 NA
BRANCH  15  19
ATOM     19  C   UNL A   1      36.850  30.362  31.206  1.00  0.00    -0.023 A 
ATOM     20  C   UNL A   1      35.066  32.399  30.395  1.00  0.00     0.118 A 
ATOM     21  C   UNL A   1      35.216  32.083  31.745  1.00  0.00     0.047 A 
ATOM     22  C   UNL A   1      35.837  31.726  29.449  1.00  0.00     0.047 A 
ATOM     23  C   UNL A   1      36.092  31.072  32.149  1.00  0.00     0.010 A 
ATOM     24  C   UNL A   1      36.727  30.721  29.853  1.00  0.00     0.010 A 
BRANCH  20  25
ATOM     25  O   UNL A   1      34.174  33.401  30.134  1.00  0.00    -0.497 OA
ATOM     26  C   UNL A   1      34.553  34.334  29.127  1.00  0.00     0.278 C 
ENDBRANCH  20  25
ENDBRANCH  15  19
BRANCH  17  27
ATOM     27  C   UNL A   1      40.085  27.295  29.454  1.00  0.00    -0.002 A 
ATOM     28  C   UNL A   1      41.447  27.450  29.177  1.00  0.00     0.011 A 
ATOM     29  C   UNL A   1      39.362  26.228  28.913  1.00  0.00     0.011 A 
ATOM     30  C   UNL A   1      42.099  26.521  28.363  1.00  0.00     0.021 A 
ATOM     31  C   UNL A   1      40.006  25.312  28.077  1.00  0.00     0.021 A 
ATOM     32  C   UNL A   1      41.371  25.464  27.806  1.00  0.00     0.067 A 
BRANCH  32  33
ATOM     33  S   UNL A   1      42.214  24.280  26.780  1.00  0.00     0.175 S 
ATOM     34  C   UNL A   1      41.104  22.897  26.708  1.00  0.00     0.163 C 
ATOM     35  O   UNL A   1      42.305  24.870  25.458  1.00  0.00    -0.224 OA
ATOM     36  O   UNL A   1      43.410  23.861  27.485  1.00  0.00    -0.224 OA
ENDBRANCH  32  33
ENDBRANCH  17  27
ENDBRANCH   9  14
ENDBRANCH   6   8
ENDBRANCH   5   6
ENDBRANCH   4   5
ENDBRANCH   3   4
ENDBRANCH   2   3
ENDBRANCH   1   2
BRANCH   1  37
ATOM     37  C   UNL A   1      43.542  39.314  33.724  1.00  0.00     0.188 C 
BRANCH  37  38
ATOM     38  O   UNL A   1      42.667  40.095  32.921  1.00  0.00    -0.376 OA
BRANCH  38  39
ATOM     39  C   UNL A   1      43.100  40.541  31.643  1.00  0.00     0.202 C 
BRANCH  39  40
ATOM     40  C   UNL A   1      43.833  39.614  30.655  1.00  0.00     0.261 C 
BRANCH  40  41
ATOM     41  O   UNL A   1      43.035  38.630  29.988  1.00  0.00    -0.460 OA
BRANCH  41  42
ATOM     42  C   UNL A   1      43.606  38.056  28.901  1.00  0.00     0.338 C 
ATOM     43  O   UNL A   1      44.044  38.619  27.909  1.00  0.00    -0.246 OA
BRANCH  42  44
ATOM     44  C   UNL A   1      43.783  36.614  29.151  1.00  0.00     0.060 A 
ATOM     45  C   UNL A   1      42.661  35.777  29.079  1.00  0.00     0.016 A 
ATOM     46  C   UNL A   1      45.032  36.100  29.502  1.00  0.00     0.016 A 
ATOM     47  C   UNL A   1      42.782  34.420  29.372  1.00  0.00     0.010 A 
ATOM     48  C   UNL A   1      45.145  34.744  29.820  1.00  0.00     0.010 A 
ATOM     49  C   UNL A   1      44.017  33.905  29.782  1.00  0.00    -0.014 A 
BRANCH  49  50
ATOM     50  C   UNL A   1      44.098  32.527  30.321  1.00  0.00     0.031 A 
ATOM     51  C   UNL A   1      43.860  32.307  31.788  1.00  0.00     0.074 A 
ATOM     52  C   UNL A   1      44.400  31.489  29.523  1.00  0.00     0.049 A 
ATOM     53  N   UNL A   1      43.925  31.202  32.483  1.00  0.00    -0.248 NA
ATOM     54  C   UNL A   1      43.508  33.497  32.581  1.00  0.00     0.031 C 
ATOM     55  C   UNL A   1      44.654  31.576  28.086  1.00  0.00     0.029 A 
ATOM     56  N   UNL A   1      44.579  30.161  29.820  1.00  0.00    -0.354 N 
ATOM     57  C   UNL A   1      43.661  31.565  33.797  1.00  0.00     0.074 A 
ATOM     58  C   UNL A   1      43.440  32.995  33.804  1.00  0.00     0.031 C 
ATOM     59  C   UNL A   1      44.996  30.357  27.633  1.00  0.00     0.029 A 
ATOM     60  C   UNL A   1      45.010  29.415  28.750  1.00  0.00     0.049 A 
ATOM     61  H   UNL A   1      44.414  29.781  30.713  1.00  0.00     0.167 HD
ATOM     62  C   UNL A   1      43.602  30.780  34.898  1.00  0.00     0.034 A 
ATOM     63  C   UNL A   1      45.400  28.126  28.687  1.00  0.00     0.034 A 
ATOM     64  C   UNL A   1      43.813  29.358  34.886  1.00  0.00     0.049 A 
ATOM     65  C   UNL A   1      45.344  27.273  29.928  1.00  0.00     0.074 A 
ATOM     66  C   UNL A   1      43.708  28.463  35.936  1.00  0.00     0.029 A 
ATOM     67  N   UNL A   1      44.202  28.624  33.775  1.00  0.00    -0.354 N 
ATOM     68  N   UNL A   1      44.960  27.600  31.138  1.00  0.00    -0.248 NA
ATOM     69  C   UNL A   1      45.745  25.866  29.787  1.00  0.00     0.031 C 
ATOM     70  C   UNL A   1      44.072  27.196  35.469  1.00  0.00     0.029 A 
ATOM     71  C   UNL A   1      44.363  27.292  34.118  1.00  0.00     0.049 A 
ATOM     72  H   UNL A   1      44.343  28.996  32.874  1.00  0.00     0.167 HD
ATOM     73  C   UNL A   1      45.041  26.434  31.894  1.00  0.00     0.074 A 
ATOM     74  C   UNL A   1      45.494  25.389  31.000  1.00  0.00     0.031 C 
ATOM     75  C   UNL A   1      44.775  26.250  33.211  1.00  0.00     0.034 A 
BRANCH  62  76
ATOM     76  C   UNL A   1      43.289  31.448  36.211  1.00  0.00     0.023 A 
ATOM     77  C   UNL A   1      41.948  31.629  36.608  1.00  0.00     0.012 A 
ATOM     78  C   UNL A   1      44.326  31.869  37.067  1.00  0.00     0.148 A 
ATOM     79  C   UNL A   1      41.644  32.256  37.816  1.00  0.00     0.002 A 
ATOM     80  C   UNL A   1      44.015  32.449  38.291  1.00  0.00     0.091 A 
ATOM     81  F   UNL A   1      45.594  31.712  36.662  1.00  0.00    -0.205 F 
ATOM     82  C   UNL A   1      42.676  32.656  38.661  1.00  0.00     0.022 A 
BRANCH  80  83
ATOM     83  S   UNL A   1      45.273  32.923  39.481  1.00  0.00     0.127 S 
ATOM     84  O   UNL A   1      44.459  33.426  40.587  1.00  0.00    -0.237 OA
ATOM     85  O   UNL A   1      45.940  31.648  39.746  1.00  0.00    -0.237 OA
ATOM     86  O   UNL A   1      46.105  33.914  38.812  1.00  0.00    -0.744 OA
ENDBRANCH  80  83
ENDBRANCH  62  76
BRANCH  63  87
ATOM     87  C   UNL A   1      45.860  27.560  27.388  1.00  0.00     0.023 A 
ATOM     88  C   UNL A   1      44.916  27.048  26.477  1.00  0.00     0.012 A 
ATOM     89  C   UNL A   1      47.225  27.560  27.040  1.00  0.00     0.148 A 
ATOM     90  C   UNL A   1      45.325  26.526  25.250  1.00  0.00     0.002 A 
ATOM     91  C   UNL A   1      47.620  27.088  25.794  1.00  0.00     0.091 A 
ATOM     92  F   UNL A   1      48.107  28.038  27.929  1.00  0.00    -0.205 F 
ATOM     93  C   UNL A   1      46.674  26.557  24.904  1.00  0.00     0.022 A 
BRANCH  91  94
ATOM     94  S   UNL A   1      49.315  27.197  25.211  1.00  0.00     0.127 S 
ATOM     95  O   UNL A   1      50.016  26.344  26.169  1.00  0.00    -0.237 OA
ATOM     96  O   UNL A   1      49.203  26.644  23.862  1.00  0.00    -0.237 OA
ATOM     97  O   UNL A   1      49.661  28.611  25.259  1.00  0.00    -0.744 OA
ENDBRANCH  91  94
ENDBRANCH  63  87
BRANCH  75  98
ATOM     98  C   UNL A   1      44.927  24.858  33.773  1.00  0.00     0.023 A 
ATOM     99  C   UNL A   1      43.873  23.930  33.655  1.00  0.00     0.012 A 
ATOM    100  C   UNL A   1      46.146  24.446  34.349  1.00  0.00     0.148 A 
ATOM    101  C   UNL A   1      44.019  22.626  34.130  1.00  0.00     0.002 A 
ATOM    102  C   UNL A   1      46.302  23.132  34.772  1.00  0.00     0.091 A 
ATOM    103  F   UNL A   1      47.133  25.347  34.468  1.00  0.00    -0.205 F 
ATOM    104  C   UNL A   1      45.236  22.224  34.676  1.00  0.00     0.022 A 
BRANCH 102 105
ATOM    105  S   UNL A   1      47.864  22.499  35.396  1.00  0.00     0.127 S 
ATOM    106  O   UNL A   1      48.197  23.487  36.421  1.00  0.00    -0.237 OA
ATOM    107  O   UNL A   1      47.480  21.186  35.916  1.00  0.00    -0.237 OA
ATOM    108  O   UNL A   1      48.767  22.456  34.253  1.00  0.00    -0.744 OA
ENDBRANCH 102 105
ENDBRANCH  75  98
ENDBRANCH  49  50
ENDBRANCH  42  44
ENDBRANCH  41  42
ENDBRANCH  40  41
ENDBRANCH  39  40
ENDBRANCH  38  39
ENDBRANCH  37  38
ENDBRANCH   1  37
TORSDOF 25
ENDMDL
MODEL 2
REMARK VINA RESULT:      -6.9      4.664     11.550
REMARK SMILES COc1ccc([C@H]2CC(c3ccc(S(C)(=O)=O)cc3)=NN2c2ccc(C(=O)OCCOCCOCCOC(=O)c3ccc(-c4c5nc(c(-c6cccc(S(=O)(=O)[O-])c6F)c6ccc([nH]6)c(-c6cccc(S(=O)(=O)[O-])c6F)c6nc(c(-c7cccc(S(=O)(=O)[O-])c7F)c7ccc4[nH]7)C=C6)C=C5)cc3)cc2)cc1
REMARK SMILES IDX 32 1 31 2 30 3 29 4 28 5 26 6 27 7 25 8 22 9 23 10 104 11
REMARK SMILES IDX 24 12 103 13 21 14 7 15 8 16 9 17 20 18 6 19 3 20 4 21
REMARK SMILES IDX 106 22 5 23 105 24 2 25 1 26 10 27 11 28 19 29 12 30 18 31
REMARK SMILES IDX 13 32 14 33 15 34 16 35 17 36 33 37 34 38 35 39 36 40 37 41
REMARK SMILES IDX 38 42 39 43 40 44 41 45 102 46 42 47 101 48 43 49 44 50
REMARK SMILES IDX 45 51 95 52 46 53 100 54 94 55 96 56 47 57 99 58 93 59 92 60
REMARK SMILES IDX 48 62 80 63 60 64 79 65 61 66 64 67 78 68 97 69 62 70 63 71
REMARK SMILES IDX 77 73 98 74 65 75 49 76 50 77 58 78 51 79 53 80 59 81 52 82
REMARK SMILES IDX 54 83 55 84 56 85 57 86 81 87 82 88 90 89 83 90 85 91 91 92
REMARK SMILES IDX 84 93 86 94 87 95 88 96 89 97 66 98 67 99 75 100 68 101
REMARK SMILES IDX 70 102 76 103 69 104 71 105 72 106 73 107 74 108
REMARK H PARENT 96 61 64 72
REMARK Flexibility Score: inf
ROOT
ATOM      1  C   UNL A   1      43.201  22.012  26.597  1.00  0.00     0.188 C 
ENDROOT
BRANCH   1   2
ATOM      2  O   UNL A   1      42.628  22.629  25.470  1.00  0.00    -0.376 OA
BRANCH   2   3
ATOM      3  C   UNL A   1      43.354  23.593  24.730  1.00  0.00     0.202 C 
BRANCH   3   4
ATOM      4  C   UNL A   1      43.435  25.101  25.042  1.00  0.00     0.261 C 
BRANCH   4   5
ATOM      5  O   UNL A   1      42.216  25.837  25.165  1.00  0.00    -0.460 OA
BRANCH   5   6
ATOM      6  C   UNL A   1      42.352  27.161  25.426  1.00  0.00     0.338 C 
ATOM      7  O   UNL A   1      42.340  28.069  24.615  1.00  0.00    -0.246 OA
BRANCH   6   8
ATOM      8  C   UNL A   1      42.377  27.375  26.889  1.00  0.00     0.060 A 
ATOM      9  C   UNL A   1      42.609  27.742  29.665  1.00  0.00     0.060 A 
ATOM     10  C   UNL A   1      43.230  28.629  28.776  1.00  0.00     0.029 A 
ATOM     11  C   UNL A   1      41.798  26.723  29.137  1.00  0.00     0.029 A 
ATOM     12  C   UNL A   1      43.145  28.429  27.395  1.00  0.00     0.018 A 
ATOM     13  C   UNL A   1      41.663  26.547  27.756  1.00  0.00     0.018 A 
BRANCH   9  14
ATOM     14  N   UNL A   1      42.872  27.800  31.031  1.00  0.00    -0.257 N 
ATOM     15  C   UNL A   1      42.361  28.888  31.869  1.00  0.00     0.144 C 
ATOM     16  C   UNL A   1      42.691  28.409  33.285  1.00  0.00     0.091 C 
ATOM     17  C   UNL A   1      43.279  27.059  32.981  1.00  0.00     0.071 C 
ATOM     18  N   UNL A   1      43.347  26.732  31.726  1.00  0.00    -0.176 NA
BRANCH  15  19
ATOM     19  C   UNL A   1      40.874  29.154  31.666  1.00  0.00    -0.023 A 
ATOM     20  C   UNL A   1      38.130  29.697  31.265  1.00  0.00     0.118 A 
ATOM     21  C   UNL A   1      39.105  30.540  30.733  1.00  0.00     0.047 A 
ATOM     22  C   UNL A   1      38.523  28.558  31.966  1.00  0.00     0.047 A 
ATOM     23  C   UNL A   1      40.463  30.277  30.934  1.00  0.00     0.010 A 
ATOM     24  C   UNL A   1      39.884  28.285  32.158  1.00  0.00     0.010 A 
BRANCH  20  25
ATOM     25  O   UNL A   1      36.841  30.069  31.001  1.00  0.00    -0.497 OA
ATOM     26  C   UNL A   1      36.334  29.715  29.720  1.00  0.00     0.278 C 
ENDBRANCH  20  25
ENDBRANCH  15  19
BRANCH  17  27
ATOM     27  C   UNL A   1      43.802  26.224  34.072  1.00  0.00    -0.002 A 
ATOM     28  C   UNL A   1      44.434  25.019  33.748  1.00  0.00     0.011 A 
ATOM     29  C   UNL A   1      43.719  26.654  35.399  1.00  0.00     0.011 A 
ATOM     30  C   UNL A   1      45.004  24.243  34.759  1.00  0.00     0.021 A 
ATOM     31  C   UNL A   1      44.265  25.865  36.415  1.00  0.00     0.021 A 
ATOM     32  C   UNL A   1      44.904  24.663  36.089  1.00  0.00     0.067 A 
BRANCH  32  33
ATOM     33  S   UNL A   1      45.643  23.671  37.368  1.00  0.00     0.175 S 
ATOM     34  C   UNL A   1      47.367  24.088  37.302  1.00  0.00     0.163 C 
ATOM     35  O   UNL A   1      45.099  24.146  38.626  1.00  0.00    -0.224 OA
ATOM     36  O   UNL A   1      45.502  22.280  36.981  1.00  0.00    -0.224 OA
ENDBRANCH  32  33
ENDBRANCH  17  27
ENDBRANCH   9  14
ENDBRANCH   6   8
ENDBRANCH   5   6
ENDBRANCH   4   5
ENDBRANCH   3   4
ENDBRANCH   2   3
ENDBRANCH   1   2
BRANCH   1  37
ATOM     37  C   UNL A   1      42.977  22.767  27.925  1.00  0.00     0.188 C 
BRANCH  37  38
ATOM     38  O   UNL A   1      43.933  23.713  28.384  1.00  0.00    -0.376 OA
BRANCH  38  39
ATOM     39  C   UNL A   1      45.293  23.581  27.995  1.00  0.00     0.202 C 
BRANCH  39  40
ATOM     40  C   UNL A   1      46.105  24.764  27.435  1.00  0.00     0.261 C 
BRANCH  40  41
ATOM     41  O   UNL A   1      46.564  25.732  28.385  1.00  0.00    -0.460 OA
BRANCH  41  42
ATOM     42  C   UNL A   1      47.584  26.521  27.967  1.00  0.00     0.338 C 
ATOM     43  O   UNL A   1      48.645  26.163  27.479  1.00  0.00    -0.246 OA
BRANCH  42  44
ATOM     44  C   UNL A   1      47.164  27.932  28.033  1.00  0.00     0.060 A 
ATOM     45  C   UNL A   1      46.746  28.564  26.854  1.00  0.00     0.016 A 
ATOM     46  C   UNL A   1      47.228  28.639  29.235  1.00  0.00     0.016 A 
ATOM     47  C   UNL A   1      46.402  29.915  26.871  1.00  0.00     0.010 A 
ATOM     48  C   UNL A   1      46.908  29.999  29.243  1.00  0.00     0.010 A 
ATOM     49  C   UNL A   1      46.520  30.648  28.057  1.00  0.00    -0.014 A 
BRANCH  49  50
ATOM     50  C   UNL A   1      46.388  32.124  28.028  1.00  0.00     0.031 A 
ATOM     51  C   UNL A   1      45.095  32.744  28.476  1.00  0.00     0.074 A 
ATOM     52  C   UNL A   1      47.393  32.900  27.588  1.00  0.00     0.049 A 
ATOM     53  N   UNL A   1      44.740  34.002  28.491  1.00  0.00    -0.248 NA
ATOM     54  C   UNL A   1      44.059  31.820  28.968  1.00  0.00     0.031 C 
ATOM     55  C   UNL A   1      48.692  32.415  27.125  1.00  0.00     0.029 A 
ATOM     56  N   UNL A   1      47.460  34.261  27.427  1.00  0.00    -0.354 N 
ATOM     57  C   UNL A   1      43.430  34.020  28.955  1.00  0.00     0.074 A 
ATOM     58  C   UNL A   1      43.052  32.646  29.205  1.00  0.00     0.031 C 
ATOM     59  C   UNL A   1      49.415  33.463  26.694  1.00  0.00     0.029 A 
ATOM     60  C   UNL A   1      48.621  34.683  26.826  1.00  0.00     0.049 A 
ATOM     61  H   UNL A   1      46.746  34.874  27.714  1.00  0.00     0.167 HD
ATOM     62  C   UNL A   1      42.619  35.083  29.160  1.00  0.00     0.034 A 
ATOM     63  C   UNL A   1      48.987  35.910  26.403  1.00  0.00     0.034 A 
ATOM     64  C   UNL A   1      43.001  36.448  28.919  1.00  0.00     0.049 A 
ATOM     65  C   UNL A   1      48.061  37.077  26.624  1.00  0.00     0.074 A 
ATOM     66  C   UNL A   1      42.274  37.601  29.160  1.00  0.00     0.029 A 
ATOM     67  N   UNL A   1      44.204  36.846  28.353  1.00  0.00    -0.354 N 
ATOM     68  N   UNL A   1      46.879  37.098  27.190  1.00  0.00    -0.248 NA
ATOM     69  C   UNL A   1      48.534  38.395  26.176  1.00  0.00     0.031 C 
ATOM     70  C   UNL A   1      43.022  38.692  28.703  1.00  0.00     0.029 A 
ATOM     71  C   UNL A   1      44.232  38.223  28.217  1.00  0.00     0.049 A 
ATOM     72  H   UNL A   1      44.931  36.237  28.088  1.00  0.00     0.167 HD
ATOM     73  C   UNL A   1      46.481  38.431  27.197  1.00  0.00     0.074 A 
ATOM     74  C   UNL A   1      47.557  39.190  26.595  1.00  0.00     0.031 C 
ATOM     75  C   UNL A   1      45.324  38.975  27.653  1.00  0.00     0.034 A 
BRANCH  62  76
ATOM     76  C   UNL A   1      41.232  34.807  29.679  1.00  0.00     0.023 A 
ATOM     77  C   UNL A   1      40.142  34.756  28.785  1.00  0.00     0.012 A 
ATOM     78  C   UNL A   1      41.012  34.568  31.050  1.00  0.00     0.148 A 
ATOM     79  C   UNL A   1      38.851  34.513  29.253  1.00  0.00     0.002 A 
ATOM     80  C   UNL A   1      39.730  34.278  31.501  1.00  0.00     0.091 A 
ATOM     81  F   UNL A   1      42.055  34.645  31.888  1.00  0.00    -0.205 F 
ATOM     82  C   UNL A   1      38.647  34.264  30.607  1.00  0.00     0.022 A 
BRANCH  80  83
ATOM     83  S   UNL A   1      39.381  33.864  33.213  1.00  0.00     0.127 S 
ATOM     84  O   UNL A   1      37.932  33.671  33.180  1.00  0.00    -0.237 OA
ATOM     85  O   UNL A   1      40.156  32.636  33.396  1.00  0.00    -0.237 OA
ATOM     86  O   UNL A   1      39.847  34.996  34.002  1.00  0.00    -0.744 OA
ENDBRANCH  80  83
ENDBRANCH  62  76
BRANCH  63  87
ATOM     87  C   UNL A   1      50.310  36.095  25.743  1.00  0.00     0.023 A 
ATOM     88  C   UNL A   1      50.407  36.018  24.340  1.00  0.00     0.012 A 
ATOM     89  C   UNL A   1      51.464  36.380  26.499  1.00  0.00     0.148 A 
ATOM     90  C   UNL A   1      51.634  36.202  23.703  1.00  0.00     0.002 A 
ATOM     91  C   UNL A   1      52.673  36.615  25.855  1.00  0.00     0.091 A 
ATOM     92  F   UNL A   1      51.351  36.433  27.834  1.00  0.00    -0.205 F 
ATOM     93  C   UNL A   1      52.763  36.511  24.458  1.00  0.00     0.022 A 
BRANCH  91  94
ATOM     94  S   UNL A   1      54.151  37.138  26.730  1.00  0.00     0.127 S 
ATOM     95  O   UNL A   1      54.412  35.985  27.590  1.00  0.00    -0.237 OA
ATOM     96  O   UNL A   1      55.100  37.315  25.632  1.00  0.00    -0.237 OA
ATOM     97  O   UNL A   1      53.788  38.367  27.422  1.00  0.00    -0.744 OA
ENDBRANCH  91  94
ENDBRANCH  63  87
BRANCH  75  98
ATOM     98  C   UNL A   1      45.163  40.472  27.555  1.00  0.00     0.023 A 
ATOM     99  C   UNL A   1      45.475  41.289  28.660  1.00  0.00     0.012 A 
ATOM    100  C   UNL A   1      44.778  41.074  26.341  1.00  0.00     0.148 A 
ATOM    101  C   UNL A   1      45.373  42.677  28.568  1.00  0.00     0.002 A 
ATOM    102  C   UNL A   1      44.730  42.460  26.240  1.00  0.00     0.091 A 
ATOM    103  F   UNL A   1      44.469  40.281  25.304  1.00  0.00    -0.205 F 
ATOM    104  C   UNL A   1      45.013  43.262  27.356  1.00  0.00     0.022 A 
BRANCH 102 105
ATOM    105  S   UNL A   1      44.372  43.303  24.694  1.00  0.00     0.127 S 
ATOM    106  O   UNL A   1      45.406  42.761  23.813  1.00  0.00    -0.237 OA
ATOM    107  O   UNL A   1      43.016  42.843  24.397  1.00  0.00    -0.237 OA
ATOM    108  O   UNL A   1      44.480  44.728  24.979  1.00  0.00    -0.744 OA
ENDBRANCH 102 105
ENDBRANCH  75  98
ENDBRANCH  49  50
ENDBRANCH  42  44
ENDBRANCH  41  42
ENDBRANCH  40  41
ENDBRANCH  39  40
ENDBRANCH  38  39
ENDBRANCH  37  38
ENDBRANCH   1  37
TORSDOF 25
ENDMDL
MODEL 3
REMARK VINA RESULT:      -6.9      3.629     10.455
REMARK SMILES COc1ccc([C@H]2CC(c3ccc(S(C)(=O)=O)cc3)=NN2c2ccc(C(=O)OCCOCCOCCOC(=O)c3ccc(-c4c5nc(c(-c6cccc(S(=O)(=O)[O-])c6F)c6ccc([nH]6)c(-c6cccc(S(=O)(=O)[O-])c6F)c6nc(c(-c7cccc(S(=O)(=O)[O-])c7F)c7ccc4[nH]7)C=C6)C=C5)cc3)cc2)cc1
REMARK SMILES IDX 32 1 31 2 30 3 29 4 28 5 26 6 27 7 25 8 22 9 23 10 104 11
REMARK SMILES IDX 24 12 103 13 21 14 7 15 8 16 9 17 20 18 6 19 3 20 4 21
REMARK SMILES IDX 106 22 5 23 105 24 2 25 1 26 10 27 11 28 19 29 12 30 18 31
REMARK SMILES IDX 13 32 14 33 15 34 16 35 17 36 33 37 34 38 35 39 36 40 37 41
REMARK SMILES IDX 38 42 39 43 40 44 41 45 102 46 42 47 101 48 43 49 44 50
REMARK SMILES IDX 45 51 95 52 46 53 100 54 94 55 96 56 47 57 99 58 93 59 92 60
REMARK SMILES IDX 48 62 80 63 60 64 79 65 61 66 64 67 78 68 97 69 62 70 63 71
REMARK SMILES IDX 77 73 98 74 65 75 49 76 50 77 58 78 51 79 53 80 59 81 52 82
REMARK SMILES IDX 54 83 55 84 56 85 57 86 81 87 82 88 90 89 83 90 85 91 91 92
REMARK SMILES IDX 84 93 86 94 87 95 88 96 89 97 66 98 67 99 75 100 68 101
REMARK SMILES IDX 70 102 76 103 69 104 71 105 72 106 73 107 74 108
REMARK H PARENT 96 61 64 72
REMARK Flexibility Score: inf
ROOT
ATOM      1  C   UNL A   1      37.915  31.572  36.089  1.00  0.00     0.188 C 
ENDROOT
BRANCH   1   2
ATOM      2  O   UNL A   1      38.875  32.506  36.522  1.00  0.00    -0.376 OA
BRANCH   2   3
ATOM      3  C   UNL A   1      39.801  33.065  35.609  1.00  0.00     0.202 C 
BRANCH   3   4
ATOM      4  C   UNL A   1      41.171  32.468  35.229  1.00  0.00     0.261 C 
BRANCH   4   5
ATOM      5  O   UNL A   1      41.533  31.196  35.770  1.00  0.00    -0.460 OA
BRANCH   5   6
ATOM      6  C   UNL A   1      42.862  30.931  35.814  1.00  0.00     0.338 C 
ATOM      7  O   UNL A   1      43.659  31.333  36.644  1.00  0.00    -0.246 OA
BRANCH   6   8
ATOM      8  C   UNL A   1      43.203  29.944  34.768  1.00  0.00     0.060 A 
ATOM      9  C   UNL A   1      43.881  27.942  32.917  1.00  0.00     0.060 A 
ATOM     10  C   UNL A   1      42.701  27.848  33.667  1.00  0.00     0.029 A 
ATOM     11  C   UNL A   1      44.666  29.098  33.048  1.00  0.00     0.029 A 
ATOM     12  C   UNL A   1      42.379  28.825  34.613  1.00  0.00     0.018 A 
ATOM     13  C   UNL A   1      44.325  30.108  33.953  1.00  0.00     0.018 A 
BRANCH   9  14
ATOM     14  N   UNL A   1      44.320  26.871  32.143  1.00  0.00    -0.257 N 
ATOM     15  C   UNL A   1      45.456  26.040  32.550  1.00  0.00     0.144 C 
ATOM     16  C   UNL A   1      45.410  24.887  31.545  1.00  0.00     0.091 C 
ATOM     17  C   UNL A   1      44.169  25.250  30.777  1.00  0.00     0.071 C 
ATOM     18  N   UNL A   1      43.568  26.341  31.142  1.00  0.00    -0.176 NA
BRANCH  15  19
ATOM     19  C   UNL A   1      45.368  25.569  33.996  1.00  0.00    -0.023 A 
ATOM     20  C   UNL A   1      45.157  24.661  36.664  1.00  0.00     0.118 A 
ATOM     21  C   UNL A   1      44.377  24.093  35.658  1.00  0.00     0.047 A 
ATOM     22  C   UNL A   1      46.075  25.657  36.333  1.00  0.00     0.047 A 
ATOM     23  C   UNL A   1      44.474  24.544  34.338  1.00  0.00     0.010 A 
ATOM     24  C   UNL A   1      46.184  26.101  35.009  1.00  0.00     0.010 A 
BRANCH  20  25
ATOM     25  O   UNL A   1      44.962  24.135  37.911  1.00  0.00    -0.497 OA
ATOM     26  C   UNL A   1      45.669  22.934  38.204  1.00  0.00     0.278 C 
ENDBRANCH  20  25
ENDBRANCH  15  19
BRANCH  17  27
ATOM     27  C   UNL A   1      43.744  24.425  29.637  1.00  0.00    -0.002 A 
ATOM     28  C   UNL A   1      43.688  25.012  28.369  1.00  0.00     0.011 A 
ATOM     29  C   UNL A   1      43.456  23.068  29.810  1.00  0.00     0.011 A 
ATOM     30  C   UNL A   1      43.358  24.234  27.259  1.00  0.00     0.021 A 
ATOM     31  C   UNL A   1      43.098  22.293  28.704  1.00  0.00     0.021 A 
ATOM     32  C   UNL A   1      43.050  22.880  27.434  1.00  0.00     0.067 A 
BRANCH  32  33
ATOM     33  S   UNL A   1      42.641  21.895  26.010  1.00  0.00     0.175 S 
ATOM     34  C   UNL A   1      40.900  21.590  26.176  1.00  0.00     0.163 C 
ATOM     35  O   UNL A   1      42.856  22.737  24.849  1.00  0.00    -0.224 OA
ATOM     36  O   UNL A   1      43.334  20.627  26.140  1.00  0.00    -0.224 OA
ENDBRANCH  32  33
ENDBRANCH  17  27
ENDBRANCH   9  14
ENDBRANCH   6   8
ENDBRANCH   5   6
ENDBRANCH   4   5
ENDBRANCH   3   4
ENDBRANCH   2   3
ENDBRANCH   1   2
BRANCH   1  37
ATOM     37  C   UNL A   1      37.485  31.733  34.614  1.00  0.00     0.188 C 
BRANCH  37  38
ATOM     38  O   UNL A   1      36.397  32.579  34.270  1.00  0.00    -0.376 OA
BRANCH  38  39
ATOM     39  C   UNL A   1      35.711  32.375  33.043  1.00  0.00     0.202 C 
BRANCH  39  40
ATOM     40  C   UNL A   1      36.455  32.140  31.715  1.00  0.00     0.261 C 
BRANCH  40  41
ATOM     41  O   UNL A   1      36.355  30.828  31.149  1.00  0.00    -0.460 OA
BRANCH  41  42
ATOM     42  C   UNL A   1      37.198  29.903  31.668  1.00  0.00     0.338 C 
ATOM     43  O   UNL A   1      36.904  28.930  32.345  1.00  0.00    -0.246 OA
BRANCH  42  44
ATOM     44  C   UNL A   1      38.558  30.144  31.155  1.00  0.00     0.060 A 
ATOM     45  C   UNL A   1      39.611  30.264  32.073  1.00  0.00     0.016 A 
ATOM     46  C   UNL A   1      38.786  30.301  29.787  1.00  0.00     0.016 A 
ATOM     47  C   UNL A   1      40.898  30.555  31.624  1.00  0.00     0.010 A 
ATOM     48  C   UNL A   1      40.073  30.618  29.343  1.00  0.00     0.010 A 
ATOM     49  C   UNL A   1      41.127  30.772  30.261  1.00  0.00    -0.014 A 
BRANCH  49  50
ATOM     50  C   UNL A   1      42.431  31.313  29.810  1.00  0.00     0.031 A 
ATOM     51  C   UNL A   1      43.490  30.354  29.343  1.00  0.00     0.074 A 
ATOM     52  C   UNL A   1      42.679  32.633  29.835  1.00  0.00     0.049 A 
ATOM     53  N   UNL A   1      44.712  30.596  28.950  1.00  0.00    -0.248 NA
ATOM     54  C   UNL A   1      43.121  28.929  29.322  1.00  0.00     0.031 C 
ATOM     55  C   UNL A   1      41.734  33.661  30.269  1.00  0.00     0.029 A 
ATOM     56  N   UNL A   1      43.819  33.330  29.521  1.00  0.00    -0.354 N 
ATOM     57  C   UNL A   1      45.273  29.356  28.673  1.00  0.00     0.074 A 
ATOM     58  C   UNL A   1      44.257  28.362  28.947  1.00  0.00     0.031 C 
ATOM     59  C   UNL A   1      42.348  34.856  30.231  1.00  0.00     0.029 A 
ATOM     60  C   UNL A   1      43.731  34.673  29.797  1.00  0.00     0.049 A 
ATOM     61  H   UNL A   1      44.620  32.908  29.135  1.00  0.00     0.167 HD
ATOM     62  C   UNL A   1      46.518  29.069  28.225  1.00  0.00     0.034 A 
ATOM     63  C   UNL A   1      44.671  35.638  29.735  1.00  0.00     0.034 A 
ATOM     64  C   UNL A   1      47.522  30.060  27.945  1.00  0.00     0.049 A 
ATOM     65  C   UNL A   1      46.055  35.295  29.252  1.00  0.00     0.074 A 
ATOM     66  C   UNL A   1      48.790  29.875  27.424  1.00  0.00     0.029 A 
ATOM     67  N   UNL A   1      47.385  31.418  28.191  1.00  0.00    -0.354 N 
ATOM     68  N   UNL A   1      46.531  34.137  28.862  1.00  0.00    -0.248 NA
ATOM     69  C   UNL A   1      47.024  36.398  29.169  1.00  0.00     0.031 C 
ATOM     70  C   UNL A   1      49.434  31.117  27.392  1.00  0.00     0.029 A 
ATOM     71  C   UNL A   1      48.552  32.081  27.854  1.00  0.00     0.049 A 
ATOM     72  H   UNL A   1      46.576  31.847  28.553  1.00  0.00     0.167 HD
ATOM     73  C   UNL A   1      47.840  34.377  28.457  1.00  0.00     0.074 A 
ATOM     74  C   UNL A   1      48.077  35.795  28.632  1.00  0.00     0.031 C 
ATOM     75  C   UNL A   1      48.765  33.500  27.993  1.00  0.00     0.034 A 
BRANCH  62  76
ATOM     76  C   UNL A   1      46.859  27.619  28.005  1.00  0.00     0.023 A 
ATOM     77  C   UNL A   1      47.395  26.853  29.061  1.00  0.00     0.012 A 
ATOM     78  C   UNL A   1      46.620  27.006  26.759  1.00  0.00     0.148 A 
ATOM     79  C   UNL A   1      47.726  25.512  28.868  1.00  0.00     0.002 A 
ATOM     80  C   UNL A   1      46.907  25.657  26.590  1.00  0.00     0.091 A 
ATOM     81  F   UNL A   1      46.134  27.756  25.760  1.00  0.00    -0.205 F 
ATOM     82  C   UNL A   1      47.473  24.912  27.638  1.00  0.00     0.022 A 
BRANCH  80  83
ATOM     83  S   UNL A   1      46.542  24.777  25.068  1.00  0.00     0.127 S 
ATOM     84  O   UNL A   1      47.648  25.199  24.210  1.00  0.00    -0.237 OA
ATOM     85  O   UNL A   1      46.603  23.380  25.499  1.00  0.00    -0.237 OA
ATOM     86  O   UNL A   1      45.219  25.225  24.654  1.00  0.00    -0.744 OA
ENDBRANCH  80  83
ENDBRANCH  62  76
BRANCH  63  87
ATOM     87  C   UNL A   1      44.318  37.032  30.125  1.00  0.00     0.023 A 
ATOM     88  C   UNL A   1      44.724  37.530  31.379  1.00  0.00     0.012 A 
ATOM     89  C   UNL A   1      43.613  37.876  29.245  1.00  0.00     0.148 A 
ATOM     90  C   UNL A   1      44.416  38.837  31.757  1.00  0.00     0.002 A 
ATOM     91  C   UNL A   1      43.355  39.193  29.606  1.00  0.00     0.091 A 
ATOM     92  F   UNL A   1      43.222  37.376  28.064  1.00  0.00    -0.205 F 
ATOM     93  C   UNL A   1      43.743  39.671  30.867  1.00  0.00     0.022 A 
BRANCH  91  94
ATOM     94  S   UNL A   1      42.603  40.375  28.483  1.00  0.00     0.127 S 
ATOM     95  O   UNL A   1      41.627  41.032  29.350  1.00  0.00    -0.237 OA
ATOM     96  O   UNL A   1      43.750  41.202  28.109  1.00  0.00    -0.237 OA
ATOM     97  O   UNL A   1      42.044  39.586  27.393  1.00  0.00    -0.744 OA
ENDBRANCH  91  94
ENDBRANCH  63  87
BRANCH  75  98
ATOM     98  C   UNL A   1      50.118  34.044  27.601  1.00  0.00     0.023 A 
ATOM     99  C   UNL A   1      51.146  34.137  28.559  1.00  0.00     0.012 A 
ATOM    100  C   UNL A   1      50.391  34.389  26.262  1.00  0.00     0.148 A 
ATOM    101  C   UNL A   1      52.413  34.595  28.199  1.00  0.00     0.002 A 
ATOM    102  C   UNL A   1      51.670  34.794  25.899  1.00  0.00     0.091 A 
ATOM    103  F   UNL A   1      49.396  34.309  25.366  1.00  0.00    -0.205 F 
ATOM    104  C   UNL A   1      52.678  34.912  26.868  1.00  0.00     0.022 A 
BRANCH 102 105
ATOM    105  S   UNL A   1      52.129  35.127  24.194  1.00  0.00     0.127 S 
ATOM    106  O   UNL A   1      53.546  35.465  24.328  1.00  0.00    -0.237 OA
ATOM    107  O   UNL A   1      51.867  33.842  23.546  1.00  0.00    -0.237 OA
ATOM    108  O   UNL A   1      51.268  36.216  23.751  1.00  0.00    -0.744 OA
ENDBRANCH 102 105
ENDBRANCH  75  98
ENDBRANCH  49  50
ENDBRANCH  42  44
ENDBRANCH  41  42
ENDBRANCH  40  41
ENDBRANCH  39  40
ENDBRANCH  38  39
ENDBRANCH  37  38
ENDBRANCH   1  37
TORSDOF 25
ENDMDL
