MODEL 1
REMARK VINA RESULT:     -10.4      0.000      0.000
REMARK SMILES O=C(OCCOCCOCCOC(=O)c1ccc(-c2ccc(F)c(C(F)(F)F)c2)cc1[N+](=O)[O-])c1ccc(-c2c3nc(c(-c4cccc(S(=O)(=O)[O-])c4F)c4ccc([nH]4)c(-c4cccc(S(=O)(=O)[O-])c4F)c4nc(c(-c5cccc(S(=O)(=O)[O-])c5F)c5ccc2[nH]5)C=C4)C=C3)cc1
REMARK SMILES IDX 7 1 6 2 5 3 4 4 3 5 2 6 1 7 35 8 36 9 97 10 37 11 96 12
REMARK SMILES IDX 38 13 39 14 40 15 90 16 41 17 95 18 89 19 91 20 42 21 94 22
REMARK SMILES IDX 88 23 87 24 43 26 75 27 55 28 74 29 56 30 59 31 73 32 92 33
REMARK SMILES IDX 57 34 58 35 72 37 93 38 60 39 44 40 45 41 53 42 46 43 48 44
REMARK SMILES IDX 54 45 47 46 49 47 50 48 51 49 52 50 76 51 77 52 85 53 78 54
REMARK SMILES IDX 80 55 86 56 79 57 81 58 82 59 83 60 84 61 61 62 62 63 70 64
REMARK SMILES IDX 63 65 65 66 71 67 64 68 66 69 67 70 68 71 69 72 8 73 9 74
REMARK SMILES IDX 10 75 11 76 12 77 13 78 14 79 15 80 16 81 31 82 17 83 30 84
REMARK SMILES IDX 18 85 32 86 33 87 34 88 19 89 20 90 29 91 21 92 24 93 22 94
REMARK SMILES IDX 23 95 25 96 26 97 27 98 28 99
REMARK H PARENT 91 25 59 36
REMARK Flexibility Score: inf
ROOT
ATOM      1  C   UNL A   1      38.665  22.838  26.183  1.00  0.00     0.188 C 
ENDROOT
BRANCH   1   2
ATOM      2  O   UNL A   1      39.030  21.529  25.725  1.00  0.00    -0.376 OA
BRANCH   2   3
ATOM      3  C   UNL A   1      40.007  20.882  26.544  1.00  0.00     0.202 C 
BRANCH   3   4
ATOM      4  C   UNL A   1      40.504  19.554  25.966  1.00  0.00     0.261 C 
BRANCH   4   5
ATOM      5  O   UNL A   1      41.923  19.410  26.143  1.00  0.00    -0.460 OA
BRANCH   5   6
ATOM      6  C   UNL A   1      42.909  20.113  25.530  1.00  0.00     0.338 C 
ATOM      7  O   UNL A   1      43.511  19.586  24.594  1.00  0.00    -0.246 OA
BRANCH   6   8
ATOM      8  C   UNL A   1      43.236  21.534  25.860  1.00  0.00     0.060 A 
ATOM      9  C   UNL A   1      43.070  22.624  25.003  1.00  0.00     0.016 A 
ATOM     10  C   UNL A   1      43.713  21.782  27.158  1.00  0.00     0.016 A 
ATOM     11  C   UNL A   1      43.537  23.890  25.359  1.00  0.00     0.010 A 
ATOM     12  C   UNL A   1      44.112  23.064  27.549  1.00  0.00     0.010 A 
ATOM     13  C   UNL A   1      44.094  24.111  26.622  1.00  0.00    -0.014 A 
BRANCH  13  14
ATOM     14  C   UNL A   1      44.758  25.406  26.902  1.00  0.00     0.031 A 
ATOM     15  C   UNL A   1      44.133  26.350  27.893  1.00  0.00     0.074 A 
ATOM     16  C   UNL A   1      45.949  25.691  26.345  1.00  0.00     0.049 A 
ATOM     17  N   UNL A   1      44.594  27.481  28.357  1.00  0.00    -0.248 NA
ATOM     18  C   UNL A   1      42.820  25.968  28.441  1.00  0.00     0.031 C 
ATOM     19  C   UNL A   1      46.652  24.843  25.382  1.00  0.00     0.029 A 
ATOM     20  N   UNL A   1      46.789  26.760  26.528  1.00  0.00    -0.354 N 
ATOM     21  C   UNL A   1      43.619  27.957  29.226  1.00  0.00     0.074 A 
ATOM     22  C   UNL A   1      42.535  27.001  29.217  1.00  0.00     0.031 C 
ATOM     23  C   UNL A   1      47.833  25.407  25.085  1.00  0.00     0.029 A 
ATOM     24  C   UNL A   1      47.960  26.667  25.814  1.00  0.00     0.049 A 
ATOM     25  H   UNL A   1      46.574  27.521  27.114  1.00  0.00     0.167 HD
ATOM     26  C   UNL A   1      43.632  29.078  29.983  1.00  0.00     0.034 A 
ATOM     27  C   UNL A   1      49.020  27.499  25.766  1.00  0.00     0.034 A 
ATOM     28  C   UNL A   1      44.723  30.008  30.025  1.00  0.00     0.049 A 
ATOM     29  C   UNL A   1      49.018  28.731  26.634  1.00  0.00     0.074 A 
ATOM     30  C   UNL A   1      44.831  31.179  30.750  1.00  0.00     0.029 A 
ATOM     31  N   UNL A   1      45.902  29.864  29.310  1.00  0.00    -0.354 N 
ATOM     32  N   UNL A   1      48.123  29.119  27.511  1.00  0.00    -0.248 NA
ATOM     33  C   UNL A   1      50.181  29.625  26.528  1.00  0.00     0.031 C 
ATOM     34  C   UNL A   1      46.083  31.743  30.477  1.00  0.00     0.029 A 
ATOM     35  C   UNL A   1      46.749  30.923  29.579  1.00  0.00     0.049 A 
ATOM     36  H   UNL A   1      46.106  29.118  28.701  1.00  0.00     0.167 HD
ATOM     37  C   UNL A   1      48.623  30.288  28.077  1.00  0.00     0.074 A 
ATOM     38  C   UNL A   1      49.912  30.530  27.462  1.00  0.00     0.031 C 
ATOM     39  C   UNL A   1      48.056  31.103  29.001  1.00  0.00     0.034 A 
BRANCH  26  40
ATOM     40  C   UNL A   1      42.433  29.322  30.856  1.00  0.00     0.023 A 
ATOM     41  C   UNL A   1      42.419  28.805  32.167  1.00  0.00     0.012 A 
ATOM     42  C   UNL A   1      41.323  30.043  30.381  1.00  0.00     0.148 A 
ATOM     43  C   UNL A   1      41.304  28.981  32.985  1.00  0.00     0.002 A 
ATOM     44  C   UNL A   1      40.224  30.235  31.211  1.00  0.00     0.091 A 
ATOM     45  F   UNL A   1      41.341  30.490  29.118  1.00  0.00    -0.205 F 
ATOM     46  C   UNL A   1      40.211  29.702  32.510  1.00  0.00     0.022 A 
BRANCH  44  47
ATOM     47  S   UNL A   1      38.789  31.177  30.684  1.00  0.00     0.127 S 
ATOM     48  O   UNL A   1      38.558  30.639  29.345  1.00  0.00    -0.237 OA
ATOM     49  O   UNL A   1      37.781  30.799  31.676  1.00  0.00    -0.237 OA
ATOM     50  O   UNL A   1      39.196  32.575  30.747  1.00  0.00    -0.744 OA
ENDBRANCH  44  47
ENDBRANCH  26  40
BRANCH  27  51
ATOM     51  C   UNL A   1      50.199  27.145  24.924  1.00  0.00     0.023 A 
ATOM     52  C   UNL A   1      50.324  27.691  23.633  1.00  0.00     0.012 A 
ATOM     53  C   UNL A   1      51.233  26.329  25.418  1.00  0.00     0.148 A 
ATOM     54  C   UNL A   1      51.447  27.417  22.848  1.00  0.00     0.002 A 
ATOM     55  C   UNL A   1      52.377  26.113  24.656  1.00  0.00     0.091 A 
ATOM     56  F   UNL A   1      51.110  25.797  26.644  1.00  0.00    -0.205 F 
ATOM     57  C   UNL A   1      52.482  26.640  23.364  1.00  0.00     0.022 A 
BRANCH  55  58
ATOM     58  S   UNL A   1      53.780  25.267  25.390  1.00  0.00     0.127 S 
ATOM     59  O   UNL A   1      53.275  23.909  25.557  1.00  0.00    -0.237 OA
ATOM     60  O   UNL A   1      54.825  25.412  24.378  1.00  0.00    -0.237 OA
ATOM     61  O   UNL A   1      54.033  26.030  26.612  1.00  0.00    -0.744 OA
ENDBRANCH  55  58
ENDBRANCH  27  51
BRANCH  39  62
ATOM     62  C   UNL A   1      48.821  32.330  29.411  1.00  0.00     0.023 A 
ATOM     63  C   UNL A   1      49.706  32.253  30.503  1.00  0.00     0.012 A 
ATOM     64  C   UNL A   1      48.744  33.518  28.662  1.00  0.00     0.148 A 
ATOM     65  C   UNL A   1      50.495  33.348  30.853  1.00  0.00     0.002 A 
ATOM     66  C   UNL A   1      49.561  34.594  28.994  1.00  0.00     0.091 A 
ATOM     67  F   UNL A   1      47.877  33.583  27.639  1.00  0.00    -0.205 F 
ATOM     68  C   UNL A   1      50.432  34.513  30.091  1.00  0.00     0.022 A 
BRANCH  66  69
ATOM     69  S   UNL A   1      49.585  36.087  27.995  1.00  0.00     0.127 S 
ATOM     70  O   UNL A   1      50.320  35.647  26.810  1.00  0.00    -0.237 OA
ATOM     71  O   UNL A   1      48.163  36.348  27.767  1.00  0.00    -0.237 OA
ATOM     72  O   UNL A   1      50.248  37.087  28.822  1.00  0.00    -0.744 OA
ENDBRANCH  66  69
ENDBRANCH  39  62
ENDBRANCH  13  14
ENDBRANCH   6   8
ENDBRANCH   5   6
ENDBRANCH   4   5
ENDBRANCH   3   4
ENDBRANCH   2   3
ENDBRANCH   1   2
BRANCH   1  73
ATOM     73  C   UNL A   1      37.272  23.216  25.677  1.00  0.00     0.188 C 
BRANCH  73  74
ATOM     74  O   UNL A   1      36.521  22.101  25.189  1.00  0.00    -0.376 OA
BRANCH  74  75
ATOM     75  C   UNL A   1      35.526  21.578  26.073  1.00  0.00     0.202 C 
BRANCH  75  76
ATOM     76  C   UNL A   1      34.302  20.992  25.371  1.00  0.00     0.261 C 
BRANCH  76  77
ATOM     77  O   UNL A   1      33.465  22.006  24.783  1.00  0.00    -0.459 OA
BRANCH  77  78
ATOM     78  C   UNL A   1      32.143  21.766  24.935  1.00  0.00     0.345 C 
ATOM     79  O   UNL A   1      31.612  20.714  25.251  1.00  0.00    -0.246 OA
BRANCH  78  80
ATOM     80  C   UNL A   1      31.327  22.953  24.647  1.00  0.00     0.137 A 
ATOM     81  C   UNL A   1      31.243  23.432  23.337  1.00  0.00     0.023 A 
ATOM     82  C   UNL A   1      30.925  23.773  25.704  1.00  0.00     0.284 A 
ATOM     83  C   UNL A   1      30.831  24.752  23.113  1.00  0.00     0.010 A 
ATOM     84  C   UNL A   1      30.524  25.096  25.491  1.00  0.00     0.095 A 
ATOM     85  C   UNL A   1      30.524  25.615  24.186  1.00  0.00    -0.011 A 
BRANCH  82  86
ATOM     86  N   UNL A   1      30.956  23.248  27.056  1.00  0.00     0.063 N 
ATOM     87  O   UNL A   1      29.886  22.890  27.558  1.00  0.00    -0.258 OA
ATOM     88  O   UNL A   1      32.062  23.215  27.615  1.00  0.00    -0.258 OA
ENDBRANCH  82  86
BRANCH  85  89
ATOM     89  C   UNL A   1      30.358  27.058  23.955  1.00  0.00    -0.017 A 
ATOM     90  C   UNL A   1      31.383  27.980  24.203  1.00  0.00     0.012 A 
ATOM     91  C   UNL A   1      29.107  27.549  23.527  1.00  0.00     0.025 A 
ATOM     92  C   UNL A   1      31.158  29.350  24.039  1.00  0.00     0.040 A 
ATOM     93  C   UNL A   1      28.867  28.923  23.372  1.00  0.00     0.092 A 
ATOM     94  C   UNL A   1      29.906  29.807  23.636  1.00  0.00     0.135 A 
ATOM     95  F   UNL A   1      29.702  31.129  23.538  1.00  0.00    -0.206 F 
BRANCH  93  96
ATOM     96  C   UNL A   1      27.521  29.450  22.987  1.00  0.00     0.419 C 
ATOM     97  F   UNL A   1      26.573  28.462  22.991  1.00  0.00    -0.166 F 
ATOM     98  F   UNL A   1      27.037  30.420  23.807  1.00  0.00    -0.166 F 
ATOM     99  F   UNL A   1      27.471  29.962  21.723  1.00  0.00    -0.166 F 
ENDBRANCH  93  96
ENDBRANCH  85  89
ENDBRANCH  78  80
ENDBRANCH  77  78
ENDBRANCH  76  77
ENDBRANCH  75  76
ENDBRANCH  74  75
ENDBRANCH  73  74
ENDBRANCH   1  73
TORSDOF 23
ENDMDL
MODEL 2
REMARK VINA RESULT:     -10.3      1.758      7.401
REMARK SMILES O=C(OCCOCCOCCOC(=O)c1ccc(-c2ccc(F)c(C(F)(F)F)c2)cc1[N+](=O)[O-])c1ccc(-c2c3nc(c(-c4cccc(S(=O)(=O)[O-])c4F)c4ccc([nH]4)c(-c4cccc(S(=O)(=O)[O-])c4F)c4nc(c(-c5cccc(S(=O)(=O)[O-])c5F)c5ccc2[nH]5)C=C4)C=C3)cc1
REMARK SMILES IDX 7 1 6 2 5 3 4 4 3 5 2 6 1 7 35 8 36 9 97 10 37 11 96 12
REMARK SMILES IDX 38 13 39 14 40 15 90 16 41 17 95 18 89 19 91 20 42 21 94 22
REMARK SMILES IDX 88 23 87 24 43 26 75 27 55 28 74 29 56 30 59 31 73 32 92 33
REMARK SMILES IDX 57 34 58 35 72 37 93 38 60 39 44 40 45 41 53 42 46 43 48 44
REMARK SMILES IDX 54 45 47 46 49 47 50 48 51 49 52 50 76 51 77 52 85 53 78 54
REMARK SMILES IDX 80 55 86 56 79 57 81 58 82 59 83 60 84 61 61 62 62 63 70 64
REMARK SMILES IDX 63 65 65 66 71 67 64 68 66 69 67 70 68 71 69 72 8 73 9 74
REMARK SMILES IDX 10 75 11 76 12 77 13 78 14 79 15 80 16 81 31 82 17 83 30 84
REMARK SMILES IDX 18 85 32 86 33 87 34 88 19 89 20 90 29 91 21 92 24 93 22 94
REMARK SMILES IDX 23 95 25 96 26 97 27 98 28 99
REMARK H PARENT 91 25 59 36
REMARK Flexibility Score: inf
ROOT
ATOM      1  C   UNL A   1      38.667  21.397  25.258  1.00  0.00     0.188 C 
ENDROOT
BRANCH   1   2
ATOM      2  O   UNL A   1      39.652  21.146  26.269  1.00  0.00    -0.376 OA
BRANCH   2   3
ATOM      3  C   UNL A   1      40.319  19.890  26.128  1.00  0.00     0.202 C 
BRANCH   3   4
ATOM      4  C   UNL A   1      41.828  19.967  26.375  1.00  0.00     0.261 C 
BRANCH   4   5
ATOM      5  O   UNL A   1      42.566  19.495  25.236  1.00  0.00    -0.460 OA
BRANCH   5   6
ATOM      6  C   UNL A   1      43.723  19.998  24.733  1.00  0.00     0.338 C 
ATOM      7  O   UNL A   1      44.275  19.394  23.814  1.00  0.00    -0.246 OA
BRANCH   6   8
ATOM      8  C   UNL A   1      44.310  21.304  25.165  1.00  0.00     0.060 A 
ATOM      9  C   UNL A   1      45.118  21.497  26.286  1.00  0.00     0.016 A 
ATOM     10  C   UNL A   1      44.048  22.411  24.340  1.00  0.00     0.016 A 
ATOM     11  C   UNL A   1      45.499  22.781  26.679  1.00  0.00     0.010 A 
ATOM     12  C   UNL A   1      44.492  23.691  24.688  1.00  0.00     0.010 A 
ATOM     13  C   UNL A   1      45.158  23.891  25.902  1.00  0.00    -0.014 A 
BRANCH  13  14
ATOM     14  C   UNL A   1      45.401  25.252  26.437  1.00  0.00     0.031 A 
ATOM     15  C   UNL A   1      46.781  25.843  26.337  1.00  0.00     0.074 A 
ATOM     16  C   UNL A   1      44.379  25.980  26.924  1.00  0.00     0.049 A 
ATOM     17  N   UNL A   1      47.187  27.045  26.649  1.00  0.00    -0.248 NA
ATOM     18  C   UNL A   1      47.843  24.970  25.808  1.00  0.00     0.031 C 
ATOM     19  C   UNL A   1      43.000  25.512  27.055  1.00  0.00     0.029 A 
ATOM     20  N   UNL A   1      44.339  27.275  27.373  1.00  0.00    -0.354 N 
ATOM     21  C   UNL A   1      48.551  27.063  26.383  1.00  0.00     0.074 A 
ATOM     22  C   UNL A   1      48.908  25.750  25.895  1.00  0.00     0.031 C 
ATOM     23  C   UNL A   1      42.241  26.516  27.519  1.00  0.00     0.029 A 
ATOM     24  C   UNL A   1      43.082  27.690  27.744  1.00  0.00     0.049 A 
ATOM     25  H   UNL A   1      45.135  27.853  27.426  1.00  0.00     0.167 HD
ATOM     26  C   UNL A   1      49.426  28.087  26.508  1.00  0.00     0.034 A 
ATOM     27  C   UNL A   1      42.657  28.886  28.198  1.00  0.00     0.034 A 
ATOM     28  C   UNL A   1      49.066  29.402  26.953  1.00  0.00     0.049 A 
ATOM     29  C   UNL A   1      43.648  30.016  28.311  1.00  0.00     0.074 A 
ATOM     30  C   UNL A   1      49.879  30.506  27.126  1.00  0.00     0.029 A 
ATOM     31  N   UNL A   1      47.779  29.790  27.291  1.00  0.00    -0.354 N 
ATOM     32  N   UNL A   1      44.916  30.036  27.975  1.00  0.00    -0.248 NA
ATOM     33  C   UNL A   1      43.148  31.293  28.840  1.00  0.00     0.031 C 
ATOM     34  C   UNL A   1      49.079  31.568  27.565  1.00  0.00     0.029 A 
ATOM     35  C   UNL A   1      47.771  31.120  27.667  1.00  0.00     0.049 A 
ATOM     36  H   UNL A   1      46.987  29.205  27.266  1.00  0.00     0.167 HD
ATOM     37  C   UNL A   1      45.359  31.330  28.228  1.00  0.00     0.074 A 
ATOM     38  C   UNL A   1      44.217  32.072  28.722  1.00  0.00     0.031 C 
ATOM     39  C   UNL A   1      46.604  31.851  28.092  1.00  0.00     0.034 A 
BRANCH  26  40
ATOM     40  C   UNL A   1      50.850  27.815  26.115  1.00  0.00     0.023 A 
ATOM     41  C   UNL A   1      51.810  27.587  27.122  1.00  0.00     0.012 A 
ATOM     42  C   UNL A   1      51.242  27.800  24.764  1.00  0.00     0.148 A 
ATOM     43  C   UNL A   1      53.147  27.372  26.790  1.00  0.00     0.002 A 
ATOM     44  C   UNL A   1      52.574  27.561  24.440  1.00  0.00     0.091 A 
ATOM     45  F   UNL A   1      50.322  28.060  23.826  1.00  0.00    -0.205 F 
ATOM     46  C   UNL A   1      53.527  27.352  25.449  1.00  0.00     0.022 A 
BRANCH  44  47
ATOM     47  S   UNL A   1      53.137  27.490  22.736  1.00  0.00     0.127 S 
ATOM     48  O   UNL A   1      53.143  28.904  22.367  1.00  0.00    -0.237 OA
ATOM     49  O   UNL A   1      54.465  26.888  22.867  1.00  0.00    -0.237 OA
ATOM     50  O   UNL A   1      52.167  26.655  22.040  1.00  0.00    -0.744 OA
ENDBRANCH  44  47
ENDBRANCH  26  40
BRANCH  27  51
ATOM     51  C   UNL A   1      41.211  29.090  28.500  1.00  0.00     0.023 A 
ATOM     52  C   UNL A   1      40.280  29.157  27.446  1.00  0.00     0.012 A 
ATOM     53  C   UNL A   1      40.740  29.146  29.825  1.00  0.00     0.148 A 
ATOM     54  C   UNL A   1      38.915  29.293  27.707  1.00  0.00     0.002 A 
ATOM     55  C   UNL A   1      39.374  29.215  30.078  1.00  0.00     0.091 A 
ATOM     56  F   UNL A   1      41.627  29.094  30.830  1.00  0.00    -0.205 F 
ATOM     57  C   UNL A   1      38.458  29.307  29.024  1.00  0.00     0.022 A 
BRANCH  55  58
ATOM     58  S   UNL A   1      38.779  29.050  31.764  1.00  0.00     0.127 S 
ATOM     59  O   UNL A   1      39.155  30.329  32.355  1.00  0.00    -0.237 OA
ATOM     60  O   UNL A   1      37.340  28.853  31.593  1.00  0.00    -0.237 OA
ATOM     61  O   UNL A   1      39.482  27.866  32.255  1.00  0.00    -0.744 OA
ENDBRANCH  55  58
ENDBRANCH  27  51
BRANCH  39  62
ATOM     62  C   UNL A   1      46.803  33.291  28.475  1.00  0.00     0.023 A 
ATOM     63  C   UNL A   1      47.063  33.613  29.821  1.00  0.00     0.012 A 
ATOM     64  C   UNL A   1      46.836  34.304  27.499  1.00  0.00     0.148 A 
ATOM     65  C   UNL A   1      47.340  34.928  30.192  1.00  0.00     0.002 A 
ATOM     66  C   UNL A   1      47.148  35.607  27.872  1.00  0.00     0.091 A 
ATOM     67  F   UNL A   1      46.561  33.983  26.225  1.00  0.00    -0.205 F 
ATOM     68  C   UNL A   1      47.395  35.922  29.217  1.00  0.00     0.022 A 
BRANCH  66  69
ATOM     69  S   UNL A   1      47.320  36.909  26.646  1.00  0.00     0.127 S 
ATOM     70  O   UNL A   1      47.976  36.205  25.546  1.00  0.00    -0.237 OA
ATOM     71  O   UNL A   1      45.932  37.292  26.383  1.00  0.00    -0.237 OA
ATOM     72  O   UNL A   1      48.108  37.946  27.302  1.00  0.00    -0.744 OA
ENDBRANCH  66  69
ENDBRANCH  39  62
ENDBRANCH  13  14
ENDBRANCH   6   8
ENDBRANCH   5   6
ENDBRANCH   4   5
ENDBRANCH   3   4
ENDBRANCH   2   3
ENDBRANCH   1   2
BRANCH   1  73
ATOM     73  C   UNL A   1      37.258  21.283  25.841  1.00  0.00     0.188 C 
BRANCH  73  74
ATOM     74  O   UNL A   1      36.310  20.713  24.934  1.00  0.00    -0.376 OA
BRANCH  74  75
ATOM     75  C   UNL A   1      35.021  20.414  25.478  1.00  0.00     0.202 C 
BRANCH  75  76
ATOM     76  C   UNL A   1      34.231  21.637  25.940  1.00  0.00     0.261 C 
BRANCH  76  77
ATOM     77  O   UNL A   1      33.720  22.411  24.838  1.00  0.00    -0.459 OA
BRANCH  77  78
ATOM     78  C   UNL A   1      32.466  22.063  24.472  1.00  0.00     0.345 C 
ATOM     79  O   UNL A   1      32.017  20.936  24.347  1.00  0.00    -0.246 OA
BRANCH  78  80
ATOM     80  C   UNL A   1      31.624  23.233  24.192  1.00  0.00     0.137 A 
ATOM     81  C   UNL A   1      31.764  23.910  22.977  1.00  0.00     0.023 A 
ATOM     82  C   UNL A   1      30.947  23.851  25.246  1.00  0.00     0.284 A 
ATOM     83  C   UNL A   1      31.292  25.223  22.863  1.00  0.00     0.010 A 
ATOM     84  C   UNL A   1      30.483  25.166  25.146  1.00  0.00     0.095 A 
ATOM     85  C   UNL A   1      30.701  25.886  23.959  1.00  0.00    -0.011 A 
BRANCH  82  86
ATOM     86  N   UNL A   1      30.750  23.119  26.483  1.00  0.00     0.063 N 
ATOM     87  O   UNL A   1      31.395  23.478  27.473  1.00  0.00    -0.258 OA
ATOM     88  O   UNL A   1      29.956  22.167  26.445  1.00  0.00    -0.258 OA
ENDBRANCH  82  86
BRANCH  85  89
ATOM     89  C   UNL A   1      30.459  27.335  23.909  1.00  0.00    -0.017 A 
ATOM     90  C   UNL A   1      31.300  28.259  24.544  1.00  0.00     0.012 A 
ATOM     91  C   UNL A   1      29.309  27.821  23.254  1.00  0.00     0.025 A 
ATOM     92  C   UNL A   1      30.991  29.622  24.532  1.00  0.00     0.040 A 
ATOM     93  C   UNL A   1      28.984  29.186  23.247  1.00  0.00     0.092 A 
ATOM     94  C   UNL A   1      29.837  30.071  23.895  1.00  0.00     0.135 A 
ATOM     95  F   UNL A   1      29.538  31.377  23.944  1.00  0.00    -0.206 F 
BRANCH  93  96
ATOM     96  C   UNL A   1      27.728  29.695  22.614  1.00  0.00     0.419 C 
ATOM     97  F   UNL A   1      27.321  30.876  23.176  1.00  0.00    -0.166 F 
ATOM     98  F   UNL A   1      27.825  29.943  21.281  1.00  0.00    -0.166 F 
ATOM     99  F   UNL A   1      26.657  28.862  22.766  1.00  0.00    -0.166 F 
ENDBRANCH  93  96
ENDBRANCH  85  89
ENDBRANCH  78  80
ENDBRANCH  77  78
ENDBRANCH  76  77
ENDBRANCH  75  76
ENDBRANCH  74  75
ENDBRANCH  73  74
ENDBRANCH   1  73
TORSDOF 23
ENDMDL
MODEL 3
REMARK VINA RESULT:     -10.1      2.413      3.077
REMARK SMILES O=C(OCCOCCOCCOC(=O)c1ccc(-c2ccc(F)c(C(F)(F)F)c2)cc1[N+](=O)[O-])c1ccc(-c2c3nc(c(-c4cccc(S(=O)(=O)[O-])c4F)c4ccc([nH]4)c(-c4cccc(S(=O)(=O)[O-])c4F)c4nc(c(-c5cccc(S(=O)(=O)[O-])c5F)c5ccc2[nH]5)C=C4)C=C3)cc1
REMARK SMILES IDX 7 1 6 2 5 3 4 4 3 5 2 6 1 7 35 8 36 9 97 10 37 11 96 12
REMARK SMILES IDX 38 13 39 14 40 15 90 16 41 17 95 18 89 19 91 20 42 21 94 22
REMARK SMILES IDX 88 23 87 24 43 26 75 27 55 28 74 29 56 30 59 31 73 32 92 33
REMARK SMILES IDX 57 34 58 35 72 37 93 38 60 39 44 40 45 41 53 42 46 43 48 44
REMARK SMILES IDX 54 45 47 46 49 47 50 48 51 49 52 50 76 51 77 52 85 53 78 54
REMARK SMILES IDX 80 55 86 56 79 57 81 58 82 59 83 60 84 61 61 62 62 63 70 64
REMARK SMILES IDX 63 65 65 66 71 67 64 68 66 69 67 70 68 71 69 72 8 73 9 74
REMARK SMILES IDX 10 75 11 76 12 77 13 78 14 79 15 80 16 81 31 82 17 83 30 84
REMARK SMILES IDX 18 85 32 86 33 87 34 88 19 89 20 90 29 91 21 92 24 93 22 94
REMARK SMILES IDX 23 95 25 96 26 97 27 98 28 99
REMARK H PARENT 91 25 59 36
REMARK Flexibility Score: inf
ROOT
ATOM      1  C   UNL A   1      38.897  22.654  26.107  1.00  0.00     0.188 C 
ENDROOT
BRANCH   1   2
ATOM      2  O   UNL A   1      39.176  21.364  25.547  1.00  0.00    -0.376 OA
BRANCH   2   3
ATOM      3  C   UNL A   1      39.808  20.463  26.459  1.00  0.00     0.202 C 
BRANCH   3   4
ATOM      4  C   UNL A   1      40.452  19.253  25.775  1.00  0.00     0.261 C 
BRANCH   4   5
ATOM      5  O   UNL A   1      41.847  19.154  26.101  1.00  0.00    -0.460 OA
BRANCH   5   6
ATOM      6  C   UNL A   1      42.842  20.012  25.754  1.00  0.00     0.338 C 
ATOM      7  O   UNL A   1      43.758  19.593  25.047  1.00  0.00    -0.246 OA
BRANCH   6   8
ATOM      8  C   UNL A   1      42.831  21.467  26.097  1.00  0.00     0.060 A 
ATOM      9  C   UNL A   1      42.666  22.512  25.187  1.00  0.00     0.016 A 
ATOM     10  C   UNL A   1      42.963  21.790  27.458  1.00  0.00     0.016 A 
ATOM     11  C   UNL A   1      42.813  23.841  25.591  1.00  0.00     0.010 A 
ATOM     12  C   UNL A   1      43.034  23.122  27.880  1.00  0.00     0.010 A 
ATOM     13  C   UNL A   1      43.033  24.153  26.935  1.00  0.00    -0.014 A 
BRANCH  13  14
ATOM     14  C   UNL A   1      43.381  25.545  27.306  1.00  0.00     0.031 A 
ATOM     15  C   UNL A   1      42.327  26.423  27.924  1.00  0.00     0.074 A 
ATOM     16  C   UNL A   1      44.646  25.985  27.175  1.00  0.00     0.049 A 
ATOM     17  N   UNL A   1      42.442  27.630  28.412  1.00  0.00    -0.248 NA
ATOM     18  C   UNL A   1      40.966  25.867  28.014  1.00  0.00     0.031 C 
ATOM     19  C   UNL A   1      45.749  25.216  26.601  1.00  0.00     0.029 A 
ATOM     20  N   UNL A   1      45.219  27.177  27.537  1.00  0.00    -0.354 N 
ATOM     21  C   UNL A   1      41.168  27.987  28.837  1.00  0.00     0.074 A 
ATOM     22  C   UNL A   1      40.292  26.876  28.542  1.00  0.00     0.031 C 
ATOM     23  C   UNL A   1      46.876  25.941  26.683  1.00  0.00     0.029 A 
ATOM     24  C   UNL A   1      46.571  27.235  27.288  1.00  0.00     0.049 A 
ATOM     25  H   UNL A   1      44.713  27.920  27.938  1.00  0.00     0.167 HD
ATOM     26  C   UNL A   1      40.765  29.127  29.444  1.00  0.00     0.034 A 
ATOM     27  C   UNL A   1      47.461  28.217  27.535  1.00  0.00     0.034 A 
ATOM     28  C   UNL A   1      41.639  30.214  29.775  1.00  0.00     0.049 A 
ATOM     29  C   UNL A   1      46.990  29.470  28.228  1.00  0.00     0.074 A 
ATOM     30  C   UNL A   1      41.329  31.418  30.379  1.00  0.00     0.029 A 
ATOM     31  N   UNL A   1      43.004  30.223  29.532  1.00  0.00    -0.354 N 
ATOM     32  N   UNL A   1      45.799  29.752  28.698  1.00  0.00    -0.248 NA
ATOM     33  C   UNL A   1      47.988  30.526  28.450  1.00  0.00     0.031 C 
ATOM     34  C   UNL A   1      42.512  32.155  30.508  1.00  0.00     0.029 A 
ATOM     35  C   UNL A   1      43.555  31.409  29.979  1.00  0.00     0.049 A 
ATOM     36  H   UNL A   1      43.507  29.492  29.105  1.00  0.00     0.167 HD
ATOM     37  C   UNL A   1      45.908  31.007  29.290  1.00  0.00     0.074 A 
ATOM     38  C   UNL A   1      47.289  31.418  29.142  1.00  0.00     0.031 C 
ATOM     39  C   UNL A   1      44.948  31.763  29.878  1.00  0.00     0.034 A 
BRANCH  26  40
ATOM     40  C   UNL A   1      39.312  29.221  29.817  1.00  0.00     0.023 A 
ATOM     41  C   UNL A   1      38.917  28.897  31.130  1.00  0.00     0.012 A 
ATOM     42  C   UNL A   1      38.343  29.611  28.875  1.00  0.00     0.148 A 
ATOM     43  C   UNL A   1      37.572  28.936  31.494  1.00  0.00     0.002 A 
ATOM     44  C   UNL A   1      37.006  29.671  29.252  1.00  0.00     0.091 A 
ATOM     45  F   UNL A   1      38.736  29.875  27.621  1.00  0.00    -0.205 F 
ATOM     46  C   UNL A   1      36.618  29.329  30.558  1.00  0.00     0.022 A 
BRANCH  44  47
ATOM     47  S   UNL A   1      35.721  30.196  28.113  1.00  0.00     0.127 S 
ATOM     48  O   UNL A   1      36.475  30.357  26.871  1.00  0.00    -0.237 OA
ATOM     49  O   UNL A   1      34.802  29.057  28.126  1.00  0.00    -0.237 OA
ATOM     50  O   UNL A   1      35.170  31.418  28.685  1.00  0.00    -0.744 OA
ENDBRANCH  44  47
ENDBRANCH  26  40
BRANCH  27  51
ATOM     51  C   UNL A   1      48.898  28.013  27.194  1.00  0.00     0.023 A 
ATOM     52  C   UNL A   1      49.377  28.398  25.927  1.00  0.00     0.012 A 
ATOM     53  C   UNL A   1      49.811  27.506  28.137  1.00  0.00     0.148 A 
ATOM     54  C   UNL A   1      50.730  28.267  25.605  1.00  0.00     0.002 A 
ATOM     55  C   UNL A   1      51.166  27.439  27.832  1.00  0.00     0.091 A 
ATOM     56  F   UNL A   1      49.354  27.127  29.340  1.00  0.00    -0.205 F 
ATOM     57  C   UNL A   1      51.629  27.801  26.562  1.00  0.00     0.022 A 
BRANCH  55  58
ATOM     58  S   UNL A   1      52.341  27.014  29.121  1.00  0.00     0.127 S 
ATOM     59  O   UNL A   1      52.467  28.268  29.856  1.00  0.00    -0.237 OA
ATOM     60  O   UNL A   1      51.664  25.941  29.849  1.00  0.00    -0.237 OA
ATOM     61  O   UNL A   1      53.516  26.569  28.374  1.00  0.00    -0.744 OA
ENDBRANCH  55  58
ENDBRANCH  27  51
BRANCH  39  62
ATOM     62  C   UNL A   1      45.351  33.110  30.412  1.00  0.00     0.023 A 
ATOM     63  C   UNL A   1      45.232  34.241  29.582  1.00  0.00     0.012 A 
ATOM     64  C   UNL A   1      45.744  33.270  31.753  1.00  0.00     0.148 A 
ATOM     65  C   UNL A   1      45.512  35.513  30.076  1.00  0.00     0.002 A 
ATOM     66  C   UNL A   1      45.987  34.547  32.249  1.00  0.00     0.091 A 
ATOM     67  F   UNL A   1      45.876  32.180  32.523  1.00  0.00    -0.205 F 
ATOM     68  C   UNL A   1      45.878  35.668  31.412  1.00  0.00     0.022 A 
BRANCH  66  69
ATOM     69  S   UNL A   1      46.374  34.814  33.983  1.00  0.00     0.127 S 
ATOM     70  O   UNL A   1      46.501  36.268  34.045  1.00  0.00    -0.237 OA
ATOM     71  O   UNL A   1      45.195  34.277  34.664  1.00  0.00    -0.237 OA
ATOM     72  O   UNL A   1      47.595  34.054  34.221  1.00  0.00    -0.744 OA
ENDBRANCH  66  69
ENDBRANCH  39  62
ENDBRANCH  13  14
ENDBRANCH   6   8
ENDBRANCH   5   6
ENDBRANCH   4   5
ENDBRANCH   3   4
ENDBRANCH   2   3
ENDBRANCH   1   2
BRANCH   1  73
ATOM     73  C   UNL A   1      37.437  23.041  25.865  1.00  0.00     0.188 C 
BRANCH  73  74
ATOM     74  O   UNL A   1      36.654  21.986  25.300  1.00  0.00    -0.376 OA
BRANCH  74  75
ATOM     75  C   UNL A   1      35.538  21.545  26.078  1.00  0.00     0.202 C 
BRANCH  75  76
ATOM     76  C   UNL A   1      34.369  21.003  25.257  1.00  0.00     0.261 C 
BRANCH  76  77
ATOM     77  O   UNL A   1      33.515  22.050  24.757  1.00  0.00    -0.459 OA
BRANCH  77  78
ATOM     78  C   UNL A   1      32.200  21.822  24.979  1.00  0.00     0.345 C 
ATOM     79  O   UNL A   1      31.680  20.781  25.344  1.00  0.00    -0.246 OA
BRANCH  78  80
ATOM     80  C   UNL A   1      31.378  23.008  24.705  1.00  0.00     0.137 A 
ATOM     81  C   UNL A   1      31.253  23.474  23.393  1.00  0.00     0.023 A 
ATOM     82  C   UNL A   1      31.010  23.839  25.765  1.00  0.00     0.284 A 
ATOM     83  C   UNL A   1      30.837  24.792  23.169  1.00  0.00     0.010 A 
ATOM     84  C   UNL A   1      30.605  25.160  25.551  1.00  0.00     0.095 A 
ATOM     85  C   UNL A   1      30.565  25.666  24.242  1.00  0.00    -0.011 A 
BRANCH  82  86
ATOM     86  N   UNL A   1      31.082  23.327  27.121  1.00  0.00     0.063 N 
ATOM     87  O   UNL A   1      32.187  23.314  27.673  1.00  0.00    -0.258 OA
ATOM     88  O   UNL A   1      30.022  22.921  27.619  1.00  0.00    -0.258 OA
ENDBRANCH  82  86
BRANCH  85  89
ATOM     89  C   UNL A   1      30.394  27.107  24.001  1.00  0.00    -0.017 A 
ATOM     90  C   UNL A   1      31.390  28.043  24.311  1.00  0.00     0.012 A 
ATOM     91  C   UNL A   1      29.165  27.582  23.499  1.00  0.00     0.025 A 
ATOM     92  C   UNL A   1      31.157  29.410  24.135  1.00  0.00     0.040 A 
ATOM     93  C   UNL A   1      28.917  28.953  23.330  1.00  0.00     0.092 A 
ATOM     94  C   UNL A   1      29.925  29.851  23.656  1.00  0.00     0.135 A 
ATOM     95  F   UNL A   1      29.710  31.170  23.546  1.00  0.00    -0.206 F 
BRANCH  93  96
ATOM     96  C   UNL A   1      27.589  29.462  22.865  1.00  0.00     0.419 C 
ATOM     97  F   UNL A   1      27.653  29.936  21.581  1.00  0.00    -0.166 F 
ATOM     98  F   UNL A   1      26.596  28.535  22.860  1.00  0.00    -0.166 F 
ATOM     99  F   UNL A   1      27.119  30.518  23.592  1.00  0.00    -0.166 F 
ENDBRANCH  93  96
ENDBRANCH  85  89
ENDBRANCH  78  80
ENDBRANCH  77  78
ENDBRANCH  76  77
ENDBRANCH  75  76
ENDBRANCH  74  75
ENDBRANCH  73  74
ENDBRANCH   1  73
TORSDOF 23
ENDMDL
