MODEL 1
REMARK VINA RESULT:      -9.6      0.000      0.000
REMARK SMILES CC(C)CSc1cc2c(cc1Cl)C=C(C(=O)OCCOCCOCCOC(=O)c1ccc(-c3c4nc(c(-c5cccc(S(=O)(=O)[O-])c5F)c5ccc([nH]5)c(-c5cccc(S(=O)(=O)[O-])c5F)c5nc(c(-c6cccc(S(=O)(=O)[O-])c6F)c6ccc3[nH]6)C=C5)C=C4)cc1)[C@@H](C(F)(F)F)O2
REMARK SMILES IDX 21 1 20 2 19 3 18 4 17 5 15 6 16 7 14 8 6 9 7 10 11 11 8 12
REMARK SMILES IDX 10 13 12 14 9 15 97 16 13 17 92 18 5 19 4 20 2 21 1 22 3 23
REMARK SMILES IDX 93 24 94 25 95 26 96 27 22 28 23 29 24 30 25 31 26 32 27 33
REMARK SMILES IDX 28 34 29 35 30 36 91 37 31 38 90 39 32 40 33 41 34 42 84 43
REMARK SMILES IDX 35 44 89 45 83 46 85 47 36 48 88 49 82 50 81 51 37 53 69 54
REMARK SMILES IDX 49 55 68 56 50 57 53 58 67 59 86 60 51 61 52 62 66 64 87 65
REMARK SMILES IDX 54 66 38 67 39 68 47 69 40 70 42 71 48 72 41 73 43 74 44 75
REMARK SMILES IDX 45 76 46 77 70 78 71 79 79 80 72 81 74 82 80 83 73 84 75 85
REMARK SMILES IDX 76 86 77 87 78 88 55 89 56 90 64 91 57 92 59 93 65 94 58 95
REMARK SMILES IDX 60 96 61 97 62 98 63 99
REMARK H PARENT 85 52 53 63
REMARK Flexibility Score: inf
ROOT
ATOM      1  C   UNL A   1      40.279  20.344  26.212  1.00  0.00     0.188 C 
ENDROOT
BRANCH   1   2
ATOM      2  O   UNL A   1      39.565  21.511  25.883  1.00  0.00    -0.376 OA
BRANCH   2   3
ATOM      3  C   UNL A   1      38.157  21.520  25.739  1.00  0.00     0.202 C 
BRANCH   3   4
ATOM      4  C   UNL A   1      37.311  22.645  25.121  1.00  0.00     0.261 C 
BRANCH   4   5
ATOM      5  O   UNL A   1      36.632  23.524  26.015  1.00  0.00    -0.460 OA
BRANCH   5   6
ATOM      6  C   UNL A   1      35.284  23.392  26.049  1.00  0.00     0.338 C 
ATOM      7  O   UNL A   1      34.643  22.626  26.747  1.00  0.00    -0.246 OA
BRANCH   6   8
ATOM      8  C   UNL A   1      34.685  24.420  25.180  1.00  0.00     0.087 C 
ATOM      9  C   UNL A   1      32.150  28.335  23.362  1.00  0.00     0.030 A 
ATOM     10  C   UNL A   1      32.782  27.224  22.785  1.00  0.00     0.063 A 
ATOM     11  C   UNL A   1      32.391  28.620  24.715  1.00  0.00     0.055 A 
ATOM     12  C   UNL A   1      33.505  26.329  23.572  1.00  0.00     0.129 A 
ATOM     13  C   UNL A   1      33.125  27.724  25.502  1.00  0.00     0.033 A 
ATOM     14  Cl  UNL A   1      31.823  30.061  25.482  1.00  0.00    -0.083 Cl
ATOM     15  C   UNL A   1      33.639  26.552  24.941  1.00  0.00     0.019 A 
ATOM     16  O   UNL A   1      34.014  25.242  22.920  1.00  0.00    -0.475 OA
ATOM     17  C   UNL A   1      34.264  25.542  25.777  1.00  0.00     0.027 C 
ATOM     18  C   UNL A   1      34.607  24.169  23.698  1.00  0.00     0.316 C 
BRANCH   9  19
ATOM     19  S   UNL A   1      31.022  29.233  22.303  1.00  0.00    -0.124 SA
BRANCH  19  20
ATOM     20  C   UNL A   1      29.404  28.531  22.825  1.00  0.00     0.078 C 
BRANCH  20  21
ATOM     21  C   UNL A   1      28.189  29.472  22.690  1.00  0.00    -0.007 C 
ATOM     22  C   UNL A   1      26.884  28.871  23.217  1.00  0.00     0.008 C 
ATOM     23  C   UNL A   1      28.471  30.767  23.462  1.00  0.00     0.008 C 
ENDBRANCH  20  21
ENDBRANCH  19  20
ENDBRANCH   9  19
BRANCH  18  24
ATOM     24  C   UNL A   1      33.872  22.864  23.362  1.00  0.00     0.430 C 
ATOM     25  F   UNL A   1      33.458  22.851  22.071  1.00  0.00    -0.167 F 
ATOM     26  F   UNL A   1      34.672  21.782  23.517  1.00  0.00    -0.167 F 
ATOM     27  F   UNL A   1      32.781  22.677  24.137  1.00  0.00    -0.167 F 
ENDBRANCH  18  24
ENDBRANCH   6   8
ENDBRANCH   5   6
ENDBRANCH   4   5
ENDBRANCH   3   4
ENDBRANCH   2   3
ENDBRANCH   1   2
BRANCH   1  28
ATOM     28  C   UNL A   1      41.815  20.474  26.300  1.00  0.00     0.188 C 
BRANCH  28  29
ATOM     29  O   UNL A   1      42.399  21.446  27.154  1.00  0.00    -0.376 OA
BRANCH  29  30
ATOM     30  C   UNL A   1      43.285  22.408  26.595  1.00  0.00     0.202 C 
BRANCH  30  31
ATOM     31  C   UNL A   1      43.097  22.863  25.141  1.00  0.00     0.261 C 
BRANCH  31  32
ATOM     32  O   UNL A   1      43.043  24.288  24.974  1.00  0.00    -0.460 OA
BRANCH  32  33
ATOM     33  C   UNL A   1      44.220  24.942  25.145  1.00  0.00     0.338 C 
ATOM     34  O   UNL A   1      45.271  24.728  24.567  1.00  0.00    -0.246 OA
BRANCH  33  35
ATOM     35  C   UNL A   1      43.990  26.121  26.006  1.00  0.00     0.060 A 
ATOM     36  C   UNL A   1      44.283  26.086  27.369  1.00  0.00     0.016 A 
ATOM     37  C   UNL A   1      43.465  27.281  25.420  1.00  0.00     0.016 A 
ATOM     38  C   UNL A   1      44.072  27.229  28.145  1.00  0.00     0.010 A 
ATOM     39  C   UNL A   1      43.235  28.414  26.201  1.00  0.00     0.010 A 
ATOM     40  C   UNL A   1      43.556  28.402  27.565  1.00  0.00    -0.014 A 
BRANCH  40  41
ATOM     41  C   UNL A   1      43.527  29.663  28.344  1.00  0.00     0.031 A 
ATOM     42  C   UNL A   1      42.315  30.104  29.106  1.00  0.00     0.074 A 
ATOM     43  C   UNL A   1      44.630  30.435  28.327  1.00  0.00     0.049 A 
ATOM     44  N   UNL A   1      42.181  31.138  29.895  1.00  0.00    -0.248 NA
ATOM     45  C   UNL A   1      41.097  29.291  28.964  1.00  0.00     0.031 C 
ATOM     46  C   UNL A   1      45.847  30.140  27.568  1.00  0.00     0.029 A 
ATOM     47  N   UNL A   1      44.904  31.623  28.954  1.00  0.00    -0.354 N 
ATOM     48  C   UNL A   1      40.870  31.108  30.348  1.00  0.00     0.074 A 
ATOM     49  C   UNL A   1      40.239  29.959  29.729  1.00  0.00     0.031 C 
ATOM     50  C   UNL A   1      46.740  31.118  27.777  1.00  0.00     0.029 A 
ATOM     51  C   UNL A   1      46.160  32.109  28.680  1.00  0.00     0.049 A 
ATOM     52  H   UNL A   1      44.264  32.084  29.542  1.00  0.00     0.167 HD
ATOM     53  C   UNL A   1      40.261  31.947  31.220  1.00  0.00     0.034 A 
ATOM     54  C   UNL A   1      46.784  33.219  29.114  1.00  0.00     0.034 A 
ATOM     55  C   UNL A   1      40.898  33.078  31.844  1.00  0.00     0.049 A 
ATOM     56  C   UNL A   1      46.092  34.122  30.092  1.00  0.00     0.074 A 
ATOM     57  C   UNL A   1      40.375  33.936  32.798  1.00  0.00     0.029 A 
ATOM     58  N   UNL A   1      42.181  33.522  31.570  1.00  0.00    -0.354 N 
ATOM     59  N   UNL A   1      44.906  33.989  30.633  1.00  0.00    -0.248 NA
ATOM     60  C   UNL A   1      46.833  35.309  30.545  1.00  0.00     0.031 C 
ATOM     61  C   UNL A   1      41.339  34.907  33.091  1.00  0.00     0.029 A 
ATOM     62  C   UNL A   1      42.465  34.646  32.328  1.00  0.00     0.049 A 
ATOM     63  H   UNL A   1      42.800  33.101  30.931  1.00  0.00     0.167 HD
ATOM     64  C   UNL A   1      44.763  35.061  31.504  1.00  0.00     0.074 A 
ATOM     65  C   UNL A   1      45.990  35.827  31.431  1.00  0.00     0.031 C 
ATOM     66  C   UNL A   1      43.701  35.385  32.280  1.00  0.00     0.034 A 
BRANCH  53  67
ATOM     67  C   UNL A   1      38.844  31.646  31.625  1.00  0.00     0.023 A 
ATOM     68  C   UNL A   1      38.615  30.698  32.641  1.00  0.00     0.012 A 
ATOM     69  C   UNL A   1      37.763  32.385  31.106  1.00  0.00     0.148 A 
ATOM     70  C   UNL A   1      37.330  30.484  33.135  1.00  0.00     0.002 A 
ATOM     71  C   UNL A   1      36.486  32.185  31.622  1.00  0.00     0.091 A 
ATOM     72  F   UNL A   1      38.005  33.274  30.133  1.00  0.00    -0.205 F 
ATOM     73  C   UNL A   1      36.268  31.234  32.634  1.00  0.00     0.022 A 
BRANCH  71  74
ATOM     74  S   UNL A   1      35.059  33.135  31.087  1.00  0.00     0.127 S 
ATOM     75  O   UNL A   1      34.932  32.714  29.693  1.00  0.00    -0.237 OA
ATOM     76  O   UNL A   1      34.007  32.634  31.973  1.00  0.00    -0.237 OA
ATOM     77  O   UNL A   1      35.408  34.535  31.282  1.00  0.00    -0.744 OA
ENDBRANCH  71  74
ENDBRANCH  53  67
BRANCH  54  78
ATOM     78  C   UNL A   1      48.183  33.474  28.681  1.00  0.00     0.023 A 
ATOM     79  C   UNL A   1      49.227  32.740  29.273  1.00  0.00     0.012 A 
ATOM     80  C   UNL A   1      48.467  34.362  27.627  1.00  0.00     0.148 A 
ATOM     81  C   UNL A   1      50.539  32.891  28.826  1.00  0.00     0.002 A 
ATOM     82  C   UNL A   1      49.771  34.479  27.161  1.00  0.00     0.091 A 
ATOM     83  F   UNL A   1      47.450  35.043  27.082  1.00  0.00    -0.205 F 
ATOM     84  C   UNL A   1      50.809  33.751  27.764  1.00  0.00     0.022 A 
BRANCH  82  85
ATOM     85  S   UNL A   1      50.203  35.479  25.733  1.00  0.00     0.127 S 
ATOM     86  O   UNL A   1      51.605  35.119  25.532  1.00  0.00    -0.237 OA
ATOM     87  O   UNL A   1      49.283  34.963  24.720  1.00  0.00    -0.237 OA
ATOM     88  O   UNL A   1      49.962  36.860  26.126  1.00  0.00    -0.744 OA
ENDBRANCH  82  85
ENDBRANCH  54  78
BRANCH  66  89
ATOM     89  C   UNL A   1      43.799  36.625  33.125  1.00  0.00     0.023 A 
ATOM     90  C   UNL A   1      44.181  36.510  34.475  1.00  0.00     0.012 A 
ATOM     91  C   UNL A   1      43.622  37.903  32.559  1.00  0.00     0.148 A 
ATOM     92  C   UNL A   1      44.376  37.649  35.254  1.00  0.00     0.002 A 
ATOM     93  C   UNL A   1      43.850  39.035  33.333  1.00  0.00     0.091 A 
ATOM     94  F   UNL A   1      43.247  37.985  31.274  1.00  0.00    -0.205 F 
ATOM     95  C   UNL A   1      44.221  38.909  34.682  1.00  0.00     0.022 A 
BRANCH  93  96
ATOM     96  S   UNL A   1      43.747  40.701  32.669  1.00  0.00     0.127 S 
ATOM     97  O   UNL A   1      42.342  41.030  32.908  1.00  0.00    -0.237 OA
ATOM     98  O   UNL A   1      44.696  41.429  33.513  1.00  0.00    -0.237 OA
ATOM     99  O   UNL A   1      44.130  40.603  31.267  1.00  0.00    -0.744 OA
ENDBRANCH  93  96
ENDBRANCH  66  89
ENDBRANCH  40  41
ENDBRANCH  33  35
ENDBRANCH  32  33
ENDBRANCH  31  32
ENDBRANCH  30  31
ENDBRANCH  29  30
ENDBRANCH  28  29
ENDBRANCH   1  28
TORSDOF 24
ENDMDL
MODEL 2
REMARK VINA RESULT:      -9.3      4.823      9.723
REMARK SMILES CC(C)CSc1cc2c(cc1Cl)C=C(C(=O)OCCOCCOCCOC(=O)c1ccc(-c3c4nc(c(-c5cccc(S(=O)(=O)[O-])c5F)c5ccc([nH]5)c(-c5cccc(S(=O)(=O)[O-])c5F)c5nc(c(-c6cccc(S(=O)(=O)[O-])c6F)c6ccc3[nH]6)C=C5)C=C4)cc1)[C@@H](C(F)(F)F)O2
REMARK SMILES IDX 21 1 20 2 19 3 18 4 17 5 15 6 16 7 14 8 6 9 7 10 11 11 8 12
REMARK SMILES IDX 10 13 12 14 9 15 97 16 13 17 92 18 5 19 4 20 2 21 1 22 3 23
REMARK SMILES IDX 93 24 94 25 95 26 96 27 22 28 23 29 24 30 25 31 26 32 27 33
REMARK SMILES IDX 28 34 29 35 30 36 91 37 31 38 90 39 32 40 33 41 34 42 84 43
REMARK SMILES IDX 35 44 89 45 83 46 85 47 36 48 88 49 82 50 81 51 37 53 69 54
REMARK SMILES IDX 49 55 68 56 50 57 53 58 67 59 86 60 51 61 52 62 66 64 87 65
REMARK SMILES IDX 54 66 38 67 39 68 47 69 40 70 42 71 48 72 41 73 43 74 44 75
REMARK SMILES IDX 45 76 46 77 70 78 71 79 79 80 72 81 74 82 80 83 73 84 75 85
REMARK SMILES IDX 76 86 77 87 78 88 55 89 56 90 64 91 57 92 59 93 65 94 58 95
REMARK SMILES IDX 60 96 61 97 62 98 63 99
REMARK H PARENT 85 52 53 63
REMARK Flexibility Score: inf
ROOT
ATOM      1  C   UNL A   1      31.055  32.041  26.713  1.00  0.00     0.188 C 
ENDROOT
BRANCH   1   2
ATOM      2  O   UNL A   1      30.916  31.468  25.435  1.00  0.00    -0.376 OA
BRANCH   2   3
ATOM      3  C   UNL A   1      29.787  31.709  24.618  1.00  0.00     0.202 C 
BRANCH   3   4
ATOM      4  C   UNL A   1      29.199  30.751  23.568  1.00  0.00     0.261 C 
BRANCH   4   5
ATOM      5  O   UNL A   1      29.335  29.352  23.805  1.00  0.00    -0.460 OA
BRANCH   5   6
ATOM      6  C   UNL A   1      29.918  28.647  22.806  1.00  0.00     0.338 C 
ATOM      7  O   UNL A   1      29.958  28.946  21.626  1.00  0.00    -0.246 OA
BRANCH   6   8
ATOM      8  C   UNL A   1      30.619  27.489  23.390  1.00  0.00     0.087 C 
ATOM      9  C   UNL A   1      31.995  23.594  26.218  1.00  0.00     0.030 A 
ATOM     10  C   UNL A   1      32.632  24.364  25.234  1.00  0.00     0.063 A 
ATOM     11  C   UNL A   1      30.606  23.724  26.380  1.00  0.00     0.055 A 
ATOM     12  C   UNL A   1      31.934  25.353  24.542  1.00  0.00     0.129 A 
ATOM     13  C   UNL A   1      29.906  24.712  25.679  1.00  0.00     0.033 A 
ATOM     14  Cl  UNL A   1      29.688  22.697  27.424  1.00  0.00    -0.083 Cl
ATOM     15  C   UNL A   1      30.580  25.561  24.796  1.00  0.00     0.019 A 
ATOM     16  O   UNL A   1      32.670  26.093  23.662  1.00  0.00    -0.475 OA
ATOM     17  C   UNL A   1      29.897  26.686  24.183  1.00  0.00     0.027 C 
ATOM     18  C   UNL A   1      32.068  27.264  23.051  1.00  0.00     0.316 C 
BRANCH   9  19
ATOM     19  S   UNL A   1      33.061  22.573  27.227  1.00  0.00    -0.124 SA
BRANCH  19  20
ATOM     20  C   UNL A   1      33.685  21.368  25.986  1.00  0.00     0.078 C 
BRANCH  20  21
ATOM     21  C   UNL A   1      32.608  20.565  25.229  1.00  0.00    -0.007 C 
ATOM     22  C   UNL A   1      32.528  20.896  23.736  1.00  0.00     0.008 C 
ATOM     23  C   UNL A   1      32.903  19.067  25.376  1.00  0.00     0.008 C 
ENDBRANCH  20  21
ENDBRANCH  19  20
ENDBRANCH   9  19
BRANCH  18  24
ATOM     24  C   UNL A   1      32.942  28.483  23.373  1.00  0.00     0.430 C 
ATOM     25  F   UNL A   1      34.212  28.113  23.670  1.00  0.00    -0.167 F 
ATOM     26  F   UNL A   1      33.029  29.333  22.321  1.00  0.00    -0.167 F 
ATOM     27  F   UNL A   1      32.471  29.188  24.426  1.00  0.00    -0.167 F 
ENDBRANCH  18  24
ENDBRANCH   6   8
ENDBRANCH   5   6
ENDBRANCH   4   5
ENDBRANCH   3   4
ENDBRANCH   2   3
ENDBRANCH   1   2
BRANCH   1  28
ATOM     28  C   UNL A   1      32.057  33.208  26.843  1.00  0.00     0.188 C 
BRANCH  28  29
ATOM     29  O   UNL A   1      32.582  33.558  28.115  1.00  0.00    -0.376 OA
BRANCH  29  30
ATOM     30  C   UNL A   1      33.960  33.322  28.378  1.00  0.00     0.202 C 
BRANCH  30  31
ATOM     31  C   UNL A   1      34.667  32.127  27.724  1.00  0.00     0.261 C 
BRANCH  31  32
ATOM     32  O   UNL A   1      34.155  30.848  28.131  1.00  0.00    -0.460 OA
BRANCH  32  33
ATOM     33  C   UNL A   1      34.802  29.770  27.618  1.00  0.00     0.338 C 
ATOM     34  O   UNL A   1      34.449  29.079  26.679  1.00  0.00    -0.246 OA
BRANCH  33  35
ATOM     35  C   UNL A   1      36.138  29.674  28.242  1.00  0.00     0.060 A 
ATOM     36  C   UNL A   1      36.278  29.429  29.609  1.00  0.00     0.016 A 
ATOM     37  C   UNL A   1      37.267  29.837  27.428  1.00  0.00     0.016 A 
ATOM     38  C   UNL A   1      37.559  29.323  30.158  1.00  0.00     0.010 A 
ATOM     39  C   UNL A   1      38.545  29.751  27.983  1.00  0.00     0.010 A 
ATOM     40  C   UNL A   1      38.700  29.473  29.348  1.00  0.00    -0.014 A 
BRANCH  40  41
ATOM     41  C   UNL A   1      40.042  29.159  29.892  1.00  0.00     0.031 A 
ATOM     42  C   UNL A   1      40.743  30.062  30.861  1.00  0.00     0.074 A 
ATOM     43  C   UNL A   1      40.643  28.033  29.465  1.00  0.00     0.049 A 
ATOM     44  N   UNL A   1      41.879  29.868  31.478  1.00  0.00    -0.248 NA
ATOM     45  C   UNL A   1      40.097  31.346  31.173  1.00  0.00     0.031 C 
ATOM     46  C   UNL A   1      40.085  27.110  28.474  1.00  0.00     0.029 A 
ATOM     47  N   UNL A   1      41.851  27.478  29.798  1.00  0.00    -0.354 N 
ATOM     48  C   UNL A   1      42.092  30.998  32.255  1.00  0.00     0.074 A 
ATOM     49  C   UNL A   1      40.972  31.887  32.015  1.00  0.00     0.031 C 
ATOM     50  C   UNL A   1      40.947  26.100  28.283  1.00  0.00     0.029 A 
ATOM     51  C   UNL A   1      42.117  26.305  29.132  1.00  0.00     0.049 A 
ATOM     52  H   UNL A   1      42.470  27.880  30.449  1.00  0.00     0.167 HD
ATOM     53  C   UNL A   1      43.113  31.254  33.107  1.00  0.00     0.034 A 
ATOM     54  C   UNL A   1      43.176  25.477  29.204  1.00  0.00     0.034 A 
ATOM     55  C   UNL A   1      44.215  30.359  33.352  1.00  0.00     0.049 A 
ATOM     56  C   UNL A   1      44.285  25.777  30.168  1.00  0.00     0.074 A 
ATOM     57  C   UNL A   1      45.254  30.508  34.257  1.00  0.00     0.029 A 
ATOM     58  N   UNL A   1      44.435  29.165  32.687  1.00  0.00    -0.354 N 
ATOM     59  N   UNL A   1      44.390  26.773  31.012  1.00  0.00    -0.248 NA
ATOM     60  C   UNL A   1      45.405  24.825  30.215  1.00  0.00     0.031 C 
ATOM     61  C   UNL A   1      46.109  29.409  34.128  1.00  0.00     0.029 A 
ATOM     62  C   UNL A   1      45.596  28.571  33.152  1.00  0.00     0.049 A 
ATOM     63  H   UNL A   1      43.852  28.792  31.986  1.00  0.00     0.167 HD
ATOM     64  C   UNL A   1      45.576  26.562  31.704  1.00  0.00     0.074 A 
ATOM     65  C   UNL A   1      46.146  25.333  31.193  1.00  0.00     0.031 C 
ATOM     66  C   UNL A   1      46.142  27.329  32.666  1.00  0.00     0.034 A 
BRANCH  53  67
ATOM     67  C   UNL A   1      43.069  32.526  33.908  1.00  0.00     0.023 A 
ATOM     68  C   UNL A   1      42.553  32.485  35.219  1.00  0.00     0.012 A 
ATOM     69  C   UNL A   1      43.651  33.715  33.427  1.00  0.00     0.148 A 
ATOM     70  C   UNL A   1      42.613  33.609  36.039  1.00  0.00     0.002 A 
ATOM     71  C   UNL A   1      43.729  34.825  34.261  1.00  0.00     0.091 A 
ATOM     72  F   UNL A   1      44.125  33.731  32.173  1.00  0.00    -0.205 F 
ATOM     73  C   UNL A   1      43.209  34.775  35.565  1.00  0.00     0.022 A 
BRANCH  71  74
ATOM     74  S   UNL A   1      44.526  36.358  33.769  1.00  0.00     0.127 S 
ATOM     75  O   UNL A   1      43.672  36.792  32.665  1.00  0.00    -0.237 OA
ATOM     76  O   UNL A   1      44.411  37.167  34.984  1.00  0.00    -0.237 OA
ATOM     77  O   UNL A   1      45.888  36.005  33.396  1.00  0.00    -0.744 OA
ENDBRANCH  71  74
ENDBRANCH  53  67
BRANCH  54  78
ATOM     78  C   UNL A   1      43.173  24.235  28.387  1.00  0.00     0.023 A 
ATOM     79  C   UNL A   1      42.260  23.212  28.701  1.00  0.00     0.012 A 
ATOM     80  C   UNL A   1      44.000  24.108  27.255  1.00  0.00     0.148 A 
ATOM     81  C   UNL A   1      42.172  22.074  27.900  1.00  0.00     0.002 A 
ATOM     82  C   UNL A   1      43.880  22.990  26.440  1.00  0.00     0.091 A 
ATOM     83  F   UNL A   1      44.856  25.102  26.983  1.00  0.00    -0.205 F 
ATOM     84  C   UNL A   1      42.973  21.968  26.765  1.00  0.00     0.022 A 
BRANCH  82  85
ATOM     85  S   UNL A   1      44.790  22.809  24.903  1.00  0.00     0.127 S 
ATOM     86  O   UNL A   1      44.121  21.661  24.294  1.00  0.00    -0.237 OA
ATOM     87  O   UNL A   1      44.528  24.092  24.251  1.00  0.00    -0.237 OA
ATOM     88  O   UNL A   1      46.178  22.593  25.285  1.00  0.00    -0.744 OA
ENDBRANCH  82  85
ENDBRANCH  54  78
BRANCH  66  89
ATOM     89  C   UNL A   1      47.455  26.877  33.244  1.00  0.00     0.023 A 
ATOM     90  C   UNL A   1      47.457  26.033  34.371  1.00  0.00     0.012 A 
ATOM     91  C   UNL A   1      48.673  27.195  32.611  1.00  0.00     0.148 A 
ATOM     92  C   UNL A   1      48.654  25.519  34.867  1.00  0.00     0.002 A 
ATOM     93  C   UNL A   1      49.860  26.653  33.092  1.00  0.00     0.091 A 
ATOM     94  F   UNL A   1      48.645  28.010  31.547  1.00  0.00    -0.205 F 
ATOM     95  C   UNL A   1      49.852  25.820  34.223  1.00  0.00     0.022 A 
BRANCH  93  96
ATOM     96  S   UNL A   1      51.444  26.922  32.289  1.00  0.00     0.127 S 
ATOM     97  O   UNL A   1      51.616  28.365  32.448  1.00  0.00    -0.237 OA
ATOM     98  O   UNL A   1      52.345  26.106  33.105  1.00  0.00    -0.237 OA
ATOM     99  O   UNL A   1      51.285  26.464  30.916  1.00  0.00    -0.744 OA
ENDBRANCH  93  96
ENDBRANCH  66  89
ENDBRANCH  40  41
ENDBRANCH  33  35
ENDBRANCH  32  33
ENDBRANCH  31  32
ENDBRANCH  30  31
ENDBRANCH  29  30
ENDBRANCH  28  29
ENDBRANCH   1  28
TORSDOF 24
ENDMDL
MODEL 3
REMARK VINA RESULT:      -9.2      5.409      9.685
REMARK SMILES CC(C)CSc1cc2c(cc1Cl)C=C(C(=O)OCCOCCOCCOC(=O)c1ccc(-c3c4nc(c(-c5cccc(S(=O)(=O)[O-])c5F)c5ccc([nH]5)c(-c5cccc(S(=O)(=O)[O-])c5F)c5nc(c(-c6cccc(S(=O)(=O)[O-])c6F)c6ccc3[nH]6)C=C5)C=C4)cc1)[C@@H](C(F)(F)F)O2
REMARK SMILES IDX 21 1 20 2 19 3 18 4 17 5 15 6 16 7 14 8 6 9 7 10 11 11 8 12
REMARK SMILES IDX 10 13 12 14 9 15 97 16 13 17 92 18 5 19 4 20 2 21 1 22 3 23
REMARK SMILES IDX 93 24 94 25 95 26 96 27 22 28 23 29 24 30 25 31 26 32 27 33
REMARK SMILES IDX 28 34 29 35 30 36 91 37 31 38 90 39 32 40 33 41 34 42 84 43
REMARK SMILES IDX 35 44 89 45 83 46 85 47 36 48 88 49 82 50 81 51 37 53 69 54
REMARK SMILES IDX 49 55 68 56 50 57 53 58 67 59 86 60 51 61 52 62 66 64 87 65
REMARK SMILES IDX 54 66 38 67 39 68 47 69 40 70 42 71 48 72 41 73 43 74 44 75
REMARK SMILES IDX 45 76 46 77 70 78 71 79 79 80 72 81 74 82 80 83 73 84 75 85
REMARK SMILES IDX 76 86 77 87 78 88 55 89 56 90 64 91 57 92 59 93 65 94 58 95
REMARK SMILES IDX 60 96 61 97 62 98 63 99
REMARK H PARENT 85 52 53 63
REMARK Flexibility Score: inf
ROOT
ATOM      1  C   UNL A   1      31.047  32.097  26.702  1.00  0.00     0.188 C 
ENDROOT
BRANCH   1   2
ATOM      2  O   UNL A   1      30.936  31.496  25.436  1.00  0.00    -0.376 OA
BRANCH   2   3
ATOM      3  C   UNL A   1      29.843  31.746  24.573  1.00  0.00     0.202 C 
BRANCH   3   4
ATOM      4  C   UNL A   1      29.252  30.769  23.543  1.00  0.00     0.261 C 
BRANCH   4   5
ATOM      5  O   UNL A   1      29.394  29.374  23.802  1.00  0.00    -0.460 OA
BRANCH   5   6
ATOM      6  C   UNL A   1      29.967  28.653  22.808  1.00  0.00     0.338 C 
ATOM      7  O   UNL A   1      30.008  28.943  21.625  1.00  0.00    -0.246 OA
BRANCH   6   8
ATOM      8  C   UNL A   1      30.654  27.492  23.402  1.00  0.00     0.087 C 
ATOM      9  C   UNL A   1      31.977  23.593  26.248  1.00  0.00     0.030 A 
ATOM     10  C   UNL A   1      32.629  24.358  25.271  1.00  0.00     0.063 A 
ATOM     11  C   UNL A   1      30.588  23.732  26.396  1.00  0.00     0.055 A 
ATOM     12  C   UNL A   1      31.945  25.350  24.570  1.00  0.00     0.129 A 
ATOM     13  C   UNL A   1      29.901  24.723  25.686  1.00  0.00     0.033 A 
ATOM     14  Cl  UNL A   1      29.653  22.711  27.431  1.00  0.00    -0.083 Cl
ATOM     15  C   UNL A   1      30.589  25.566  24.809  1.00  0.00     0.019 A 
ATOM     16  O   UNL A   1      32.694  26.084  23.697  1.00  0.00    -0.475 OA
ATOM     17  C   UNL A   1      29.919  26.695  24.187  1.00  0.00     0.027 C 
ATOM     18  C   UNL A   1      32.106  27.258  23.078  1.00  0.00     0.316 C 
BRANCH   9  19
ATOM     19  S   UNL A   1      33.026  22.567  27.271  1.00  0.00    -0.124 SA
BRANCH  19  20
ATOM     20  C   UNL A   1      33.665  21.363  26.035  1.00  0.00     0.078 C 
BRANCH  20  21
ATOM     21  C   UNL A   1      32.596  20.567  25.259  1.00  0.00    -0.007 C 
ATOM     22  C   UNL A   1      32.518  20.927  23.773  1.00  0.00     0.008 C 
ATOM     23  C   UNL A   1      32.902  19.068  25.377  1.00  0.00     0.008 C 
ENDBRANCH  20  21
ENDBRANCH  19  20
ENDBRANCH   9  19
BRANCH  18  24
ATOM     24  C   UNL A   1      32.984  28.473  23.408  1.00  0.00     0.430 C 
ATOM     25  F   UNL A   1      34.254  28.097  23.697  1.00  0.00    -0.167 F 
ATOM     26  F   UNL A   1      33.069  29.331  22.363  1.00  0.00    -0.167 F 
ATOM     27  F   UNL A   1      32.518  29.169  24.468  1.00  0.00    -0.167 F 
ENDBRANCH  18  24
ENDBRANCH   6   8
ENDBRANCH   5   6
ENDBRANCH   4   5
ENDBRANCH   3   4
ENDBRANCH   2   3
ENDBRANCH   1   2
BRANCH   1  28
ATOM     28  C   UNL A   1      32.065  33.251  26.835  1.00  0.00     0.188 C 
BRANCH  28  29
ATOM     29  O   UNL A   1      32.571  33.611  28.111  1.00  0.00    -0.376 OA
BRANCH  29  30
ATOM     30  C   UNL A   1      33.959  33.438  28.373  1.00  0.00     0.202 C 
BRANCH  30  31
ATOM     31  C   UNL A   1      34.723  32.288  27.702  1.00  0.00     0.261 C 
BRANCH  31  32
ATOM     32  O   UNL A   1      34.230  30.981  28.036  1.00  0.00    -0.460 OA
BRANCH  32  33
ATOM     33  C   UNL A   1      34.961  29.941  27.560  1.00  0.00     0.338 C 
ATOM     34  O   UNL A   1      34.751  29.298  26.547  1.00  0.00    -0.246 OA
BRANCH  33  35
ATOM     35  C   UNL A   1      36.202  29.828  28.354  1.00  0.00     0.060 A 
ATOM     36  C   UNL A   1      36.168  29.442  29.694  1.00  0.00     0.016 A 
ATOM     37  C   UNL A   1      37.422  30.121  27.728  1.00  0.00     0.016 A 
ATOM     38  C   UNL A   1      37.366  29.325  30.404  1.00  0.00     0.010 A 
ATOM     39  C   UNL A   1      38.615  30.024  28.446  1.00  0.00     0.010 A 
ATOM     40  C   UNL A   1      38.596  29.606  29.784  1.00  0.00    -0.014 A 
BRANCH  40  41
ATOM     41  C   UNL A   1      39.866  29.285  30.477  1.00  0.00     0.031 A 
ATOM     42  C   UNL A   1      40.363  30.083  31.644  1.00  0.00     0.074 A 
ATOM     43  C   UNL A   1      40.595  28.256  30.006  1.00  0.00     0.049 A 
ATOM     44  N   UNL A   1      41.411  29.861  32.394  1.00  0.00    -0.248 NA
ATOM     45  C   UNL A   1      39.597  31.282  32.016  1.00  0.00     0.031 C 
ATOM     46  C   UNL A   1      40.244  27.448  28.835  1.00  0.00     0.029 A 
ATOM     47  N   UNL A   1      41.778  27.719  30.442  1.00  0.00    -0.354 N 
ATOM     48  C   UNL A   1      41.437  30.886  33.329  1.00  0.00     0.074 A 
ATOM     49  C   UNL A   1      40.307  31.746  33.040  1.00  0.00     0.031 C 
ATOM     50  C   UNL A   1      41.189  26.515  28.649  1.00  0.00     0.029 A 
ATOM     51  C   UNL A   1      42.212  26.659  29.681  1.00  0.00     0.049 A 
ATOM     52  H   UNL A   1      42.271  28.059  31.222  1.00  0.00     0.167 HD
ATOM     53  C   UNL A   1      42.310  31.074  34.348  1.00  0.00     0.034 A 
ATOM     54  C   UNL A   1      43.302  25.880  29.805  1.00  0.00     0.034 A 
ATOM     55  C   UNL A   1      43.423  30.208  34.640  1.00  0.00     0.049 A 
ATOM     56  C   UNL A   1      44.243  26.100  30.952  1.00  0.00     0.074 A 
ATOM     57  C   UNL A   1      44.311  30.283  35.700  1.00  0.00     0.029 A 
ATOM     58  N   UNL A   1      43.812  29.124  33.870  1.00  0.00    -0.354 N 
ATOM     59  N   UNL A   1      44.162  26.979  31.921  1.00  0.00    -0.248 NA
ATOM     60  C   UNL A   1      45.405  25.204  31.045  1.00  0.00     0.031 C 
ATOM     61  C   UNL A   1      45.247  29.252  35.563  1.00  0.00     0.029 A 
ATOM     62  C   UNL A   1      44.933  28.529  34.424  1.00  0.00     0.049 A 
ATOM     63  H   UNL A   1      43.360  28.822  33.049  1.00  0.00     0.167 HD
ATOM     64  C   UNL A   1      45.249  26.733  32.749  1.00  0.00     0.074 A 
ATOM     65  C   UNL A   1      45.966  25.611  32.177  1.00  0.00     0.031 C 
ATOM     66  C   UNL A   1      45.623  27.390  33.873  1.00  0.00     0.034 A 
BRANCH  53  67
ATOM     67  C   UNL A   1      42.069  32.224  35.287  1.00  0.00     0.023 A 
ATOM     68  C   UNL A   1      41.400  31.979  36.503  1.00  0.00     0.012 A 
ATOM     69  C   UNL A   1      42.613  33.499  35.037  1.00  0.00     0.148 A 
ATOM     70  C   UNL A   1      41.272  32.987  37.457  1.00  0.00     0.002 A 
ATOM     71  C   UNL A   1      42.502  34.492  36.005  1.00  0.00     0.091 A 
ATOM     72  F   UNL A   1      43.235  33.709  33.869  1.00  0.00    -0.205 F 
ATOM     73  C   UNL A   1      41.831  34.239  37.213  1.00  0.00     0.022 A 
BRANCH  71  74
ATOM     74  S   UNL A   1      43.233  36.123  35.815  1.00  0.00     0.127 S 
ATOM     75  O   UNL A   1      42.511  36.635  34.652  1.00  0.00    -0.237 OA
ATOM     76  O   UNL A   1      42.882  36.765  37.082  1.00  0.00    -0.237 OA
ATOM     77  O   UNL A   1      44.658  35.906  35.612  1.00  0.00    -0.744 OA
ENDBRANCH  71  74
ENDBRANCH  53  67
BRANCH  54  78
ATOM     78  C   UNL A   1      43.497  24.760  28.847  1.00  0.00     0.023 A 
ATOM     79  C   UNL A   1      42.767  23.570  29.029  1.00  0.00     0.012 A 
ATOM     80  C   UNL A   1      44.322  24.905  27.716  1.00  0.00     0.148 A 
ATOM     81  C   UNL A   1      42.860  22.536  28.098  1.00  0.00     0.002 A 
ATOM     82  C   UNL A   1      44.380  23.886  26.774  1.00  0.00     0.091 A 
ATOM     83  F   UNL A   1      45.000  26.052  27.571  1.00  0.00    -0.205 F 
ATOM     84  C   UNL A   1      43.657  22.698  26.967  1.00  0.00     0.022 A 
BRANCH  82  85
ATOM     85  S   UNL A   1      45.293  24.040  25.235  1.00  0.00     0.127 S 
ATOM     86  O   UNL A   1      44.998  22.765  24.585  1.00  0.00    -0.237 OA
ATOM     87  O   UNL A   1      44.652  25.205  24.626  1.00  0.00    -0.237 OA
ATOM     88  O   UNL A   1      46.684  24.241  25.616  1.00  0.00    -0.744 OA
ENDBRANCH  82  85
ENDBRANCH  54  78
BRANCH  66  89
ATOM     89  C   UNL A   1      46.868  26.928  34.578  1.00  0.00     0.023 A 
ATOM     90  C   UNL A   1      48.097  27.549  34.283  1.00  0.00     0.012 A 
ATOM     91  C   UNL A   1      46.805  25.963  35.603  1.00  0.00     0.148 A 
ATOM     92  C   UNL A   1      49.248  27.210  34.991  1.00  0.00     0.002 A 
ATOM     93  C   UNL A   1      47.951  25.654  36.327  1.00  0.00     0.091 A 
ATOM     94  F   UNL A   1      45.626  25.378  35.857  1.00  0.00    -0.205 F 
ATOM     95  C   UNL A   1      49.174  26.272  36.018  1.00  0.00     0.022 A 
BRANCH  93  96
ATOM     96  S   UNL A   1      47.942  24.513  37.715  1.00  0.00     0.127 S 
ATOM     97  O   UNL A   1      47.573  23.256  37.064  1.00  0.00    -0.237 OA
ATOM     98  O   UNL A   1      49.331  24.577  38.175  1.00  0.00    -0.237 OA
ATOM     99  O   UNL A   1      46.964  25.032  38.660  1.00  0.00    -0.744 OA
ENDBRANCH  93  96
ENDBRANCH  66  89
ENDBRANCH  40  41
ENDBRANCH  33  35
ENDBRANCH  32  33
ENDBRANCH  31  32
ENDBRANCH  30  31
ENDBRANCH  29  30
ENDBRANCH  28  29
ENDBRANCH   1  28
TORSDOF 24
ENDMDL
