MODEL 1
REMARK VINA RESULT:      -9.5      0.000      0.000
REMARK SMILES CC1=C(C#N)c2nc(N)c(C#N)c(C)c2/C1=C\c1ccc(OCC(=O)OCCOCCOCCOC(=O)c2ccc(-c3c4nc(c(-c5cccc(S(=O)(=O)[O-])c5F)c5ccc([nH]5)c(-c5cccc(S(=O)(=O)[O-])c5F)c5nc(c(-c6cccc(S(=O)(=O)[O-])c6F)c6ccc3[nH]6)C=C5)C=C4)cc2)c(Cl)c1
REMARK SMILES IDX 30 1 29 2 28 3 27 4 26 5 24 6 25 7 23 8 22 9 21 10 18 11
REMARK SMILES IDX 19 12 103 13 20 14 101 15 102 16 17 17 1 18 2 19 3 20 16 21
REMARK SMILES IDX 6 22 15 23 7 24 13 25 8 26 10 27 14 28 4 29 5 30 9 31 11 34
REMARK SMILES IDX 12 35 31 36 32 37 33 38 34 39 35 40 36 41 37 42 38 43 39 44
REMARK SMILES IDX 100 45 40 46 99 47 41 48 42 49 43 50 93 51 44 52 98 53 92 54
REMARK SMILES IDX 94 55 45 56 97 57 91 58 90 59 46 61 78 62 58 63 77 64 59 65
REMARK SMILES IDX 62 66 76 67 95 68 60 69 61 70 75 72 96 73 63 74 47 75 48 76
REMARK SMILES IDX 56 77 49 78 51 79 57 80 50 81 52 82 53 83 54 84 55 85 79 86
REMARK SMILES IDX 80 87 88 88 81 89 83 90 89 91 82 92 84 93 85 94 86 95 87 96
REMARK SMILES IDX 64 97 65 98 73 99 66 100 68 101 74 102 67 103 69 104 70 105
REMARK SMILES IDX 71 106 72 107
REMARK H PARENT 9 32 9 33 94 60 62 71
REMARK Flexibility Score: inf
ROOT
ATOM      1  C   UNL A   1      34.824  21.789  24.641  1.00  0.00     0.188 C 
ENDROOT
BRANCH   1   2
ATOM      2  O   UNL A   1      34.434  22.784  23.734  1.00  0.00    -0.376 OA
BRANCH   2   3
ATOM      3  C   UNL A   1      33.079  22.815  23.340  1.00  0.00     0.202 C 
BRANCH   3   4
ATOM      4  C   UNL A   1      32.108  24.058  23.336  1.00  0.00     0.261 C 
BRANCH   4   5
ATOM      5  O   UNL A   1      30.960  24.242  24.225  1.00  0.00    -0.461 OA
BRANCH   5   6
ATOM      6  C   UNL A   1      31.097  24.330  25.575  1.00  0.00     0.344 C 
ATOM      7  O   UNL A   1      30.819  23.395  26.323  1.00  0.00    -0.248 OA
BRANCH   6   8
ATOM      8  C   UNL A   1      31.728  25.735  26.134  1.00  0.00     0.352 C 
BRANCH   8   9
ATOM      9  O   UNL A   1      32.616  26.686  25.502  1.00  0.00    -0.480 OA
BRANCH   9  10
ATOM     10  C   UNL A   1      32.891  28.011  25.810  1.00  0.00     0.138 A 
ATOM     11  C   UNL A   1      33.650  30.513  27.202  1.00  0.00    -0.023 A 
ATOM     12  C   UNL A   1      34.461  29.381  27.208  1.00  0.00     0.012 A 
ATOM     13  C   UNL A   1      32.597  30.445  26.253  1.00  0.00     0.032 A 
ATOM     14  C   UNL A   1      34.087  28.172  26.539  1.00  0.00     0.048 A 
ATOM     15  C   UNL A   1      32.221  29.216  25.567  1.00  0.00     0.083 A 
ATOM     16  Cl  UNL A   1      30.925  29.323  24.424  1.00  0.00    -0.080 Cl
BRANCH  11  17
ATOM     17  C   UNL A   1      33.929  31.714  28.123  1.00  0.00     0.017 C 
ATOM     18  C   UNL A   1      34.028  34.573  29.354  1.00  0.00     0.046 C 
ATOM     19  C   UNL A   1      34.596  33.325  29.942  1.00  0.00    -0.023 C 
ATOM     20  C   UNL A   1      35.202  33.216  31.145  1.00  0.00     0.082 C 
ATOM     21  C   UNL A   1      34.684  31.994  29.252  1.00  0.00    -0.011 C 
ATOM     22  C   UNL A   1      35.582  31.893  31.428  1.00  0.00     0.092 A 
ATOM     23  C   UNL A   1      35.614  31.239  30.218  1.00  0.00     0.014 A 
ATOM     24  N   UNL A   1      36.187  31.669  32.613  1.00  0.00    -0.228 NA
ATOM     25  C   UNL A   1      36.680  30.364  30.203  1.00  0.00    -0.019 A 
ATOM     26  C   UNL A   1      36.977  30.623  32.646  1.00  0.00     0.142 A 
ATOM     27  C   UNL A   1      37.250  29.922  31.470  1.00  0.00     0.098 A 
ATOM     28  C   UNL A   1      37.253  30.100  28.850  1.00  0.00     0.046 C 
BRANCH  20  29
ATOM     29  C   UNL A   1      35.577  34.313  32.127  1.00  0.00     0.102 C 
ATOM     30  N   UNL A   1      35.888  35.224  32.943  1.00  0.00    -0.192 NA
ENDBRANCH  20  29
BRANCH  26  31
ATOM     31  N   UNL A   1      37.601  30.413  33.856  1.00  0.00    -0.383 N 
ATOM     32  H   UNL A   1      38.553  30.167  33.883  1.00  0.00     0.158 HD
ATOM     33  H   UNL A   1      37.094  30.510  34.695  1.00  0.00     0.158 HD
ENDBRANCH  26  31
BRANCH  27  34
ATOM     34  C   UNL A   1      37.973  28.718  31.704  1.00  0.00     0.103 C 
ATOM     35  N   UNL A   1      38.409  27.626  31.766  1.00  0.00    -0.192 NA
ENDBRANCH  27  34
ENDBRANCH  11  17
ENDBRANCH   9  10
ENDBRANCH   8   9
ENDBRANCH   6   8
ENDBRANCH   5   6
ENDBRANCH   4   5
ENDBRANCH   3   4
ENDBRANCH   2   3
ENDBRANCH   1   2
BRANCH   1  36
ATOM     36  C   UNL A   1      36.320  21.833  24.877  1.00  0.00     0.188 C 
BRANCH  36  37
ATOM     37  O   UNL A   1      36.756  22.885  25.696  1.00  0.00    -0.376 OA
BRANCH  37  38
ATOM     38  C   UNL A   1      38.133  22.916  25.925  1.00  0.00     0.202 C 
BRANCH  38  39
ATOM     39  C   UNL A   1      38.706  23.855  27.011  1.00  0.00     0.261 C 
BRANCH  39  40
ATOM     40  O   UNL A   1      40.089  24.380  27.073  1.00  0.00    -0.460 OA
BRANCH  40  41
ATOM     41  C   UNL A   1      40.382  25.326  27.990  1.00  0.00     0.338 C 
ATOM     42  O   UNL A   1      39.489  25.846  28.633  1.00  0.00    -0.246 OA
BRANCH  41  43
ATOM     43  C   UNL A   1      41.781  25.537  28.475  1.00  0.00     0.060 A 
ATOM     44  C   UNL A   1      42.561  24.391  28.661  1.00  0.00     0.016 A 
ATOM     45  C   UNL A   1      42.202  26.701  29.124  1.00  0.00     0.016 A 
ATOM     46  C   UNL A   1      43.687  24.376  29.484  1.00  0.00     0.010 A 
ATOM     47  C   UNL A   1      43.408  26.712  29.886  1.00  0.00     0.010 A 
ATOM     48  C   UNL A   1      44.171  25.545  30.072  1.00  0.00    -0.014 A 
BRANCH  48  49
ATOM     49  C   UNL A   1      45.523  25.486  30.721  1.00  0.00     0.031 A 
ATOM     50  C   UNL A   1      45.734  25.188  32.187  1.00  0.00     0.074 A 
ATOM     51  C   UNL A   1      46.610  25.632  29.926  1.00  0.00     0.049 A 
ATOM     52  N   UNL A   1      46.858  25.155  32.864  1.00  0.00    -0.248 NA
ATOM     53  C   UNL A   1      44.549  24.871  32.997  1.00  0.00     0.031 C 
ATOM     54  C   UNL A   1      46.558  25.870  28.479  1.00  0.00     0.029 A 
ATOM     55  N   UNL A   1      47.958  25.595  30.197  1.00  0.00    -0.354 N 
ATOM     56  C   UNL A   1      46.518  24.872  34.184  1.00  0.00     0.074 A 
ATOM     57  C   UNL A   1      45.078  24.708  34.208  1.00  0.00     0.031 C 
ATOM     58  C   UNL A   1      47.800  25.922  27.988  1.00  0.00     0.029 A 
ATOM     59  C   UNL A   1      48.745  25.848  29.093  1.00  0.00     0.049 A 
ATOM     60  H   UNL A   1      48.325  25.405  31.090  1.00  0.00     0.167 HD
ATOM     61  C   UNL A   1      47.330  24.770  35.267  1.00  0.00     0.034 A 
ATOM     62  C   UNL A   1      50.068  26.070  28.968  1.00  0.00     0.034 A 
ATOM     63  C   UNL A   1      48.770  24.898  35.223  1.00  0.00     0.049 A 
ATOM     64  C   UNL A   1      50.931  26.001  30.192  1.00  0.00     0.074 A 
ATOM     65  C   UNL A   1      49.672  24.785  36.271  1.00  0.00     0.029 A 
ATOM     66  N   UNL A   1      49.518  25.175  34.090  1.00  0.00    -0.354 N 
ATOM     67  N   UNL A   1      50.590  25.694  31.419  1.00  0.00    -0.248 NA
ATOM     68  C   UNL A   1      52.361  26.294  30.019  1.00  0.00     0.031 C 
ATOM     69  C   UNL A   1      50.953  25.048  35.782  1.00  0.00     0.029 A 
ATOM     70  C   UNL A   1      50.863  25.266  34.418  1.00  0.00     0.049 A 
ATOM     71  H   UNL A   1      49.149  25.289  33.184  1.00  0.00     0.167 HD
ATOM     72  C   UNL A   1      51.761  25.744  32.162  1.00  0.00     0.074 A 
ATOM     73  C   UNL A   1      52.829  26.072  31.240  1.00  0.00     0.031 C 
ATOM     74  C   UNL A   1      51.929  25.553  33.492  1.00  0.00     0.034 A 
BRANCH  61  75
ATOM     75  C   UNL A   1      46.721  24.515  36.628  1.00  0.00     0.023 A 
ATOM     76  C   UNL A   1      45.828  25.447  37.192  1.00  0.00     0.012 A 
ATOM     77  C   UNL A   1      46.899  23.265  37.263  1.00  0.00     0.148 A 
ATOM     78  C   UNL A   1      45.136  25.147  38.368  1.00  0.00     0.002 A 
ATOM     79  C   UNL A   1      46.170  22.955  38.406  1.00  0.00     0.091 A 
ATOM     80  F   UNL A   1      47.751  22.387  36.712  1.00  0.00    -0.205 F 
ATOM     81  C   UNL A   1      45.295  23.898  38.966  1.00  0.00     0.022 A 
BRANCH  79  82
ATOM     82  S   UNL A   1      46.228  21.340  39.196  1.00  0.00     0.127 S 
ATOM     83  O   UNL A   1      45.846  20.460  38.092  1.00  0.00    -0.237 OA
ATOM     84  O   UNL A   1      47.633  21.243  39.592  1.00  0.00    -0.237 OA
ATOM     85  O   UNL A   1      45.281  21.392  40.299  1.00  0.00    -0.744 OA
ENDBRANCH  79  82
ENDBRANCH  61  75
BRANCH  62  86
ATOM     86  C   UNL A   1      50.637  26.422  27.633  1.00  0.00     0.023 A 
ATOM     87  C   UNL A   1      50.824  25.426  26.657  1.00  0.00     0.012 A 
ATOM     88  C   UNL A   1      50.949  27.761  27.312  1.00  0.00     0.148 A 
ATOM     89  C   UNL A   1      51.325  25.753  25.395  1.00  0.00     0.002 A 
ATOM     90  C   UNL A   1      51.372  28.090  26.031  1.00  0.00     0.091 A 
ATOM     91  F   UNL A   1      50.790  28.696  28.260  1.00  0.00    -0.205 F 
ATOM     92  C   UNL A   1      51.580  27.086  25.076  1.00  0.00     0.022 A 
BRANCH  90  93
ATOM     93  S   UNL A   1      51.563  29.793  25.492  1.00  0.00     0.127 S 
ATOM     94  O   UNL A   1      51.652  29.640  24.043  1.00  0.00    -0.237 OA
ATOM     95  O   UNL A   1      50.323  30.402  25.974  1.00  0.00    -0.237 OA
ATOM     96  O   UNL A   1      52.766  30.282  26.153  1.00  0.00    -0.744 OA
ENDBRANCH  90  93
ENDBRANCH  62  86
BRANCH  74  97
ATOM     97  C   UNL A   1      53.325  25.671  34.047  1.00  0.00     0.023 A 
ATOM     98  C   UNL A   1      53.783  26.909  34.539  1.00  0.00     0.012 A 
ATOM     99  C   UNL A   1      54.147  24.533  34.167  1.00  0.00     0.148 A 
ATOM    100  C   UNL A   1      55.046  27.019  35.119  1.00  0.00     0.002 A 
ATOM    101  C   UNL A   1      55.380  24.637  34.799  1.00  0.00     0.091 A 
ATOM    102  F   UNL A   1      53.701  23.368  33.675  1.00  0.00    -0.205 F 
ATOM    103  C   UNL A   1      55.837  25.881  35.263  1.00  0.00     0.022 A 
BRANCH 101 104
ATOM    104  S   UNL A   1      56.421  23.211  35.129  1.00  0.00     0.127 S 
ATOM    105  O   UNL A   1      57.067  23.596  36.382  1.00  0.00    -0.237 OA
ATOM    106  O   UNL A   1      55.437  22.135  35.255  1.00  0.00    -0.237 OA
ATOM    107  O   UNL A   1      57.314  23.088  33.984  1.00  0.00    -0.744 OA
ENDBRANCH 101 104
ENDBRANCH  74  97
ENDBRANCH  48  49
ENDBRANCH  41  43
ENDBRANCH  40  41
ENDBRANCH  39  40
ENDBRANCH  38  39
ENDBRANCH  37  38
ENDBRANCH  36  37
ENDBRANCH   1  36
TORSDOF 26
ENDMDL
MODEL 2
REMARK VINA RESULT:      -9.3      4.552      7.657
REMARK SMILES CC1=C(C#N)c2nc(N)c(C#N)c(C)c2/C1=C\c1ccc(OCC(=O)OCCOCCOCCOC(=O)c2ccc(-c3c4nc(c(-c5cccc(S(=O)(=O)[O-])c5F)c5ccc([nH]5)c(-c5cccc(S(=O)(=O)[O-])c5F)c5nc(c(-c6cccc(S(=O)(=O)[O-])c6F)c6ccc3[nH]6)C=C5)C=C4)cc2)c(Cl)c1
REMARK SMILES IDX 30 1 29 2 28 3 27 4 26 5 24 6 25 7 23 8 22 9 21 10 18 11
REMARK SMILES IDX 19 12 103 13 20 14 101 15 102 16 17 17 1 18 2 19 3 20 16 21
REMARK SMILES IDX 6 22 15 23 7 24 13 25 8 26 10 27 14 28 4 29 5 30 9 31 11 34
REMARK SMILES IDX 12 35 31 36 32 37 33 38 34 39 35 40 36 41 37 42 38 43 39 44
REMARK SMILES IDX 100 45 40 46 99 47 41 48 42 49 43 50 93 51 44 52 98 53 92 54
REMARK SMILES IDX 94 55 45 56 97 57 91 58 90 59 46 61 78 62 58 63 77 64 59 65
REMARK SMILES IDX 62 66 76 67 95 68 60 69 61 70 75 72 96 73 63 74 47 75 48 76
REMARK SMILES IDX 56 77 49 78 51 79 57 80 50 81 52 82 53 83 54 84 55 85 79 86
REMARK SMILES IDX 80 87 88 88 81 89 83 90 89 91 82 92 84 93 85 94 86 95 87 96
REMARK SMILES IDX 64 97 65 98 73 99 66 100 68 101 74 102 67 103 69 104 70 105
REMARK SMILES IDX 71 106 72 107
REMARK H PARENT 9 32 9 33 94 60 62 71
REMARK Flexibility Score: inf
ROOT
ATOM      1  C   UNL A   1      37.064  23.135  25.190  1.00  0.00     0.188 C 
ENDROOT
BRANCH   1   2
ATOM      2  O   UNL A   1      36.307  22.555  24.163  1.00  0.00    -0.376 OA
BRANCH   2   3
ATOM      3  C   UNL A   1      34.911  22.471  24.346  1.00  0.00     0.202 C 
BRANCH   3   4
ATOM      4  C   UNL A   1      33.781  22.949  23.354  1.00  0.00     0.261 C 
BRANCH   4   5
ATOM      5  O   UNL A   1      32.764  23.960  23.648  1.00  0.00    -0.461 OA
BRANCH   5   6
ATOM      6  C   UNL A   1      31.936  23.861  24.722  1.00  0.00     0.344 C 
ATOM      7  O   UNL A   1      31.369  22.811  25.017  1.00  0.00    -0.248 OA
BRANCH   6   8
ATOM      8  C   UNL A   1      31.802  25.211  25.641  1.00  0.00     0.352 C 
BRANCH   8   9
ATOM      9  O   UNL A   1      31.386  26.551  25.292  1.00  0.00    -0.480 OA
BRANCH   9  10
ATOM     10  C   UNL A   1      31.969  27.781  25.564  1.00  0.00     0.138 A 
ATOM     11  C   UNL A   1      33.211  30.108  26.911  1.00  0.00    -0.023 A 
ATOM     12  C   UNL A   1      33.684  28.810  27.079  1.00  0.00     0.012 A 
ATOM     13  C   UNL A   1      32.288  30.236  25.839  1.00  0.00     0.032 A 
ATOM     14  C   UNL A   1      33.076  27.687  26.430  1.00  0.00     0.048 A 
ATOM     15  C   UNL A   1      31.675  29.093  25.175  1.00  0.00     0.083 A 
ATOM     16  Cl  UNL A   1      30.589  29.437  23.872  1.00  0.00    -0.080 Cl
BRANCH  11  17
ATOM     17  C   UNL A   1      33.697  31.269  27.797  1.00  0.00     0.017 C 
ATOM     18  C   UNL A   1      34.071  34.066  29.114  1.00  0.00     0.046 C 
ATOM     19  C   UNL A   1      34.778  32.803  29.478  1.00  0.00    -0.023 C 
ATOM     20  C   UNL A   1      35.664  32.648  30.487  1.00  0.00     0.082 C 
ATOM     21  C   UNL A   1      34.705  31.510  28.718  1.00  0.00    -0.011 C 
ATOM     22  C   UNL A   1      36.114  31.322  30.597  1.00  0.00     0.092 A 
ATOM     23  C   UNL A   1      35.853  30.729  29.384  1.00  0.00     0.014 A 
ATOM     24  N   UNL A   1      36.996  31.054  31.582  1.00  0.00    -0.228 NA
ATOM     25  C   UNL A   1      36.890  29.880  29.060  1.00  0.00    -0.019 A 
ATOM     26  C   UNL A   1      37.779  30.026  31.364  1.00  0.00     0.142 A 
ATOM     27  C   UNL A   1      37.759  29.388  30.123  1.00  0.00     0.098 A 
ATOM     28  C   UNL A   1      37.113  29.695  27.596  1.00  0.00     0.046 C 
BRANCH  20  29
ATOM     29  C   UNL A   1      36.260  33.704  31.403  1.00  0.00     0.102 C 
ATOM     30  N   UNL A   1      36.754  34.581  32.163  1.00  0.00    -0.192 NA
ENDBRANCH  20  29
BRANCH  26  31
ATOM     31  N   UNL A   1      38.685  29.771  32.370  1.00  0.00    -0.383 N 
ATOM     32  H   UNL A   1      39.197  28.931  32.370  1.00  0.00     0.158 HD
ATOM     33  H   UNL A   1      38.820  30.430  33.090  1.00  0.00     0.158 HD
ENDBRANCH  26  31
BRANCH  27  34
ATOM     34  C   UNL A   1      38.529  28.191  30.107  1.00  0.00     0.103 C 
ATOM     35  N   UNL A   1      38.970  27.102  30.027  1.00  0.00    -0.192 NA
ENDBRANCH  27  34
ENDBRANCH  11  17
ENDBRANCH   9  10
ENDBRANCH   8   9
ENDBRANCH   6   8
ENDBRANCH   5   6
ENDBRANCH   4   5
ENDBRANCH   3   4
ENDBRANCH   2   3
ENDBRANCH   1   2
BRANCH   1  36
ATOM     36  C   UNL A   1      38.133  22.178  25.677  1.00  0.00     0.188 C 
BRANCH  36  37
ATOM     37  O   UNL A   1      39.095  22.750  26.523  1.00  0.00    -0.376 OA
BRANCH  37  38
ATOM     38  C   UNL A   1      40.216  21.953  26.757  1.00  0.00     0.202 C 
BRANCH  38  39
ATOM     39  C   UNL A   1      41.265  22.398  27.801  1.00  0.00     0.261 C 
BRANCH  39  40
ATOM     40  O   UNL A   1      42.672  21.941  27.879  1.00  0.00    -0.460 OA
BRANCH  40  41
ATOM     41  C   UNL A   1      43.654  22.868  27.897  1.00  0.00     0.338 C 
ATOM     42  O   UNL A   1      43.920  23.490  26.886  1.00  0.00    -0.246 OA
BRANCH  41  43
ATOM     43  C   UNL A   1      44.214  23.386  29.183  1.00  0.00     0.060 A 
ATOM     44  C   UNL A   1      43.592  22.954  30.359  1.00  0.00     0.016 A 
ATOM     45  C   UNL A   1      44.998  24.540  29.270  1.00  0.00     0.016 A 
ATOM     46  C   UNL A   1      43.702  23.648  31.564  1.00  0.00     0.010 A 
ATOM     47  C   UNL A   1      45.191  25.195  30.522  1.00  0.00     0.010 A 
ATOM     48  C   UNL A   1      44.546  24.751  31.691  1.00  0.00    -0.014 A 
BRANCH  48  49
ATOM     49  C   UNL A   1      44.802  25.272  33.075  1.00  0.00     0.031 A 
ATOM     50  C   UNL A   1      44.353  26.633  33.552  1.00  0.00     0.074 A 
ATOM     51  C   UNL A   1      45.400  24.440  33.960  1.00  0.00     0.049 A 
ATOM     52  N   UNL A   1      44.558  27.204  34.716  1.00  0.00    -0.248 NA
ATOM     53  C   UNL A   1      43.562  27.456  32.624  1.00  0.00     0.031 C 
ATOM     54  C   UNL A   1      45.838  23.074  33.654  1.00  0.00     0.029 A 
ATOM     55  N   UNL A   1      45.735  24.595  35.285  1.00  0.00    -0.354 N 
ATOM     56  C   UNL A   1      43.977  28.467  34.647  1.00  0.00     0.074 A 
ATOM     57  C   UNL A   1      43.377  28.569  33.331  1.00  0.00     0.031 C 
ATOM     58  C   UNL A   1      46.347  22.508  34.754  1.00  0.00     0.029 A 
ATOM     59  C   UNL A   1      46.391  23.504  35.815  1.00  0.00     0.049 A 
ATOM     60  H   UNL A   1      45.528  25.405  35.804  1.00  0.00     0.167 HD
ATOM     61  C   UNL A   1      43.957  29.445  35.588  1.00  0.00     0.034 A 
ATOM     62  C   UNL A   1      47.026  23.323  36.990  1.00  0.00     0.034 A 
ATOM     63  C   UNL A   1      44.527  29.318  36.911  1.00  0.00     0.049 A 
ATOM     64  C   UNL A   1      47.030  24.442  37.988  1.00  0.00     0.074 A 
ATOM     65  C   UNL A   1      44.530  30.253  37.935  1.00  0.00     0.029 A 
ATOM     66  N   UNL A   1      45.198  28.205  37.393  1.00  0.00    -0.354 N 
ATOM     67  N   UNL A   1      46.441  25.610  37.912  1.00  0.00    -0.248 NA
ATOM     68  C   UNL A   1      47.772  24.221  39.237  1.00  0.00     0.031 C 
ATOM     69  C   UNL A   1      45.248  29.728  39.011  1.00  0.00     0.029 A 
ATOM     70  C   UNL A   1      45.643  28.441  38.685  1.00  0.00     0.049 A 
ATOM     71  H   UNL A   1      45.336  27.369  36.892  1.00  0.00     0.167 HD
ATOM     72  C   UNL A   1      46.728  26.258  39.105  1.00  0.00     0.074 A 
ATOM     73  C   UNL A   1      47.512  25.337  39.904  1.00  0.00     0.031 C 
ATOM     74  C   UNL A   1      46.388  27.510  39.493  1.00  0.00     0.034 A 
BRANCH  61  75
ATOM     75  C   UNL A   1      43.313  30.775  35.260  1.00  0.00     0.023 A 
ATOM     76  C   UNL A   1      44.020  31.742  34.519  1.00  0.00     0.012 A 
ATOM     77  C   UNL A   1      41.943  30.988  35.536  1.00  0.00     0.148 A 
ATOM     78  C   UNL A   1      43.380  32.902  34.072  1.00  0.00     0.002 A 
ATOM     79  C   UNL A   1      41.303  32.121  35.047  1.00  0.00     0.091 A 
ATOM     80  F   UNL A   1      41.285  30.056  36.241  1.00  0.00    -0.205 F 
ATOM     81  C   UNL A   1      42.022  33.084  34.323  1.00  0.00     0.022 A 
BRANCH  79  82
ATOM     82  S   UNL A   1      39.535  32.401  35.229  1.00  0.00     0.127 S 
ATOM     83  O   UNL A   1      39.310  33.489  34.278  1.00  0.00    -0.237 OA
ATOM     84  O   UNL A   1      38.978  31.112  34.820  1.00  0.00    -0.237 OA
ATOM     85  O   UNL A   1      39.321  32.748  36.626  1.00  0.00    -0.744 OA
ENDBRANCH  79  82
ENDBRANCH  61  75
BRANCH  62  86
ATOM     86  C   UNL A   1      47.744  22.041  37.255  1.00  0.00     0.023 A 
ATOM     87  C   UNL A   1      47.134  21.032  38.021  1.00  0.00     0.012 A 
ATOM     88  C   UNL A   1      49.020  21.802  36.701  1.00  0.00     0.148 A 
ATOM     89  C   UNL A   1      47.786  19.818  38.245  1.00  0.00     0.002 A 
ATOM     90  C   UNL A   1      49.629  20.564  36.862  1.00  0.00     0.091 A 
ATOM     91  F   UNL A   1      49.601  22.783  35.994  1.00  0.00    -0.205 F 
ATOM     92  C   UNL A   1      49.024  19.577  37.651  1.00  0.00     0.022 A 
BRANCH  90  93
ATOM     93  S   UNL A   1      51.139  20.119  35.997  1.00  0.00     0.127 S 
ATOM     94  O   UNL A   1      52.116  21.002  36.627  1.00  0.00    -0.237 OA
ATOM     95  O   UNL A   1      51.275  18.702  36.341  1.00  0.00    -0.237 OA
ATOM     96  O   UNL A   1      50.874  20.369  34.587  1.00  0.00    -0.744 OA
ENDBRANCH  90  93
ENDBRANCH  62  86
BRANCH  74  97
ATOM     97  C   UNL A   1      46.838  27.970  40.856  1.00  0.00     0.023 A 
ATOM     98  C   UNL A   1      45.988  27.807  41.967  1.00  0.00     0.012 A 
ATOM     99  C   UNL A   1      48.139  28.476  41.049  1.00  0.00     0.148 A 
ATOM    100  C   UNL A   1      46.415  28.164  43.246  1.00  0.00     0.002 A 
ATOM    101  C   UNL A   1      48.578  28.774  42.333  1.00  0.00     0.091 A 
ATOM    102  F   UNL A   1      48.926  28.641  39.975  1.00  0.00    -0.205 F 
ATOM    103  C   UNL A   1      47.714  28.632  43.430  1.00  0.00     0.022 A 
BRANCH 101 104
ATOM    104  S   UNL A   1      50.267  29.277  42.684  1.00  0.00     0.127 S 
ATOM    105  O   UNL A   1      50.226  29.472  44.132  1.00  0.00    -0.237 OA
ATOM    106  O   UNL A   1      51.032  28.109  42.247  1.00  0.00    -0.237 OA
ATOM    107  O   UNL A   1      50.500  30.485  41.902  1.00  0.00    -0.744 OA
ENDBRANCH 101 104
ENDBRANCH  74  97
ENDBRANCH  48  49
ENDBRANCH  41  43
ENDBRANCH  40  41
ENDBRANCH  39  40
ENDBRANCH  38  39
ENDBRANCH  37  38
ENDBRANCH  36  37
ENDBRANCH   1  36
TORSDOF 26
ENDMDL
MODEL 3
REMARK VINA RESULT:      -9.2      7.543     12.630
REMARK SMILES CC1=C(C#N)c2nc(N)c(C#N)c(C)c2/C1=C\c1ccc(OCC(=O)OCCOCCOCCOC(=O)c2ccc(-c3c4nc(c(-c5cccc(S(=O)(=O)[O-])c5F)c5ccc([nH]5)c(-c5cccc(S(=O)(=O)[O-])c5F)c5nc(c(-c6cccc(S(=O)(=O)[O-])c6F)c6ccc3[nH]6)C=C5)C=C4)cc2)c(Cl)c1
REMARK SMILES IDX 30 1 29 2 28 3 27 4 26 5 24 6 25 7 23 8 22 9 21 10 18 11
REMARK SMILES IDX 19 12 103 13 20 14 101 15 102 16 17 17 1 18 2 19 3 20 16 21
REMARK SMILES IDX 6 22 15 23 7 24 13 25 8 26 10 27 14 28 4 29 5 30 9 31 11 34
REMARK SMILES IDX 12 35 31 36 32 37 33 38 34 39 35 40 36 41 37 42 38 43 39 44
REMARK SMILES IDX 100 45 40 46 99 47 41 48 42 49 43 50 93 51 44 52 98 53 92 54
REMARK SMILES IDX 94 55 45 56 97 57 91 58 90 59 46 61 78 62 58 63 77 64 59 65
REMARK SMILES IDX 62 66 76 67 95 68 60 69 61 70 75 72 96 73 63 74 47 75 48 76
REMARK SMILES IDX 56 77 49 78 51 79 57 80 50 81 52 82 53 83 54 84 55 85 79 86
REMARK SMILES IDX 80 87 88 88 81 89 83 90 89 91 82 92 84 93 85 94 86 95 87 96
REMARK SMILES IDX 64 97 65 98 73 99 66 100 68 101 74 102 67 103 69 104 70 105
REMARK SMILES IDX 71 106 72 107
REMARK H PARENT 9 32 9 33 94 60 62 71
REMARK Flexibility Score: inf
ROOT
ATOM      1  C   UNL A   1      39.403  30.151  30.317  1.00  0.00     0.188 C 
ENDROOT
BRANCH   1   2
ATOM      2  O   UNL A   1      40.330  29.634  29.402  1.00  0.00    -0.376 OA
BRANCH   2   3
ATOM      3  C   UNL A   1      41.434  28.925  29.920  1.00  0.00     0.202 C 
BRANCH   3   4
ATOM      4  C   UNL A   1      42.568  28.186  29.109  1.00  0.00     0.261 C 
BRANCH   4   5
ATOM      5  O   UNL A   1      43.279  26.984  29.545  1.00  0.00    -0.461 OA
BRANCH   5   6
ATOM      6  C   UNL A   1      43.114  25.782  28.929  1.00  0.00     0.344 C 
ATOM      7  O   UNL A   1      44.067  25.107  28.547  1.00  0.00    -0.248 OA
BRANCH   6   8
ATOM      8  C   UNL A   1      41.567  25.259  28.796  1.00  0.00     0.352 C 
BRANCH   8   9
ATOM      9  O   UNL A   1      40.670  25.249  27.662  1.00  0.00    -0.480 OA
BRANCH   9  10
ATOM     10  C   UNL A   1      40.134  24.192  26.939  1.00  0.00     0.138 A 
ATOM     11  C   UNL A   1      38.315  22.142  25.818  1.00  0.00    -0.023 A 
ATOM     12  C   UNL A   1      37.986  23.494  25.847  1.00  0.00     0.012 A 
ATOM     13  C   UNL A   1      39.682  21.889  26.103  1.00  0.00     0.032 A 
ATOM     14  C   UNL A   1      38.867  24.481  26.396  1.00  0.00     0.048 A 
ATOM     15  C   UNL A   1      40.579  22.896  26.656  1.00  0.00     0.083 A 
ATOM     16  Cl  UNL A   1      42.222  22.418  26.921  1.00  0.00    -0.080 Cl
BRANCH  11  17
ATOM     17  C   UNL A   1      37.276  21.063  25.466  1.00  0.00     0.017 C 
ATOM     18  C   UNL A   1      35.904  18.365  24.732  1.00  0.00     0.046 C 
ATOM     19  C   UNL A   1      35.231  19.675  24.971  1.00  0.00    -0.023 C 
ATOM     20  C   UNL A   1      33.898  19.899  24.966  1.00  0.00     0.082 C 
ATOM     21  C   UNL A   1      35.926  20.994  25.155  1.00  0.00    -0.011 C 
ATOM     22  C   UNL A   1      33.585  21.234  25.274  1.00  0.00     0.092 A 
ATOM     23  C   UNL A   1      34.731  21.958  25.041  1.00  0.00     0.014 A 
ATOM     24  N   UNL A   1      32.277  21.564  25.308  1.00  0.00    -0.228 NA
ATOM     25  C   UNL A   1      34.395  23.175  24.486  1.00  0.00    -0.019 A 
ATOM     26  C   UNL A   1      32.015  22.826  25.069  1.00  0.00     0.142 A 
ATOM     27  C   UNL A   1      33.040  23.684  24.667  1.00  0.00     0.098 A 
ATOM     28  C   UNL A   1      35.436  23.763  23.593  1.00  0.00     0.046 C 
BRANCH  20  29
ATOM     29  C   UNL A   1      32.773  18.947  24.597  1.00  0.00     0.102 C 
ATOM     30  N   UNL A   1      31.839  18.157  24.292  1.00  0.00    -0.192 NA
ENDBRANCH  20  29
BRANCH  26  31
ATOM     31  N   UNL A   1      30.676  23.148  25.091  1.00  0.00    -0.383 N 
ATOM     32  H   UNL A   1      30.132  22.939  25.883  1.00  0.00     0.158 HD
ATOM     33  H   UNL A   1      30.263  23.590  24.313  1.00  0.00     0.158 HD
ENDBRANCH  26  31
BRANCH  27  34
ATOM     34  C   UNL A   1      32.630  25.046  24.622  1.00  0.00     0.103 C 
ATOM     35  N   UNL A   1      32.181  26.111  24.392  1.00  0.00    -0.192 NA
ENDBRANCH  27  34
ENDBRANCH  11  17
ENDBRANCH   9  10
ENDBRANCH   8   9
ENDBRANCH   6   8
ENDBRANCH   5   6
ENDBRANCH   4   5
ENDBRANCH   3   4
ENDBRANCH   2   3
ENDBRANCH   1   2
BRANCH   1  36
ATOM     36  C   UNL A   1      38.480  29.060  30.822  1.00  0.00     0.188 C 
BRANCH  36  37
ATOM     37  O   UNL A   1      37.477  29.497  31.700  1.00  0.00    -0.376 OA
BRANCH  37  38
ATOM     38  C   UNL A   1      37.811  30.621  32.457  1.00  0.00     0.202 C 
BRANCH  38  39
ATOM     39  C   UNL A   1      36.969  31.910  32.323  1.00  0.00     0.261 C 
BRANCH  39  40
ATOM     40  O   UNL A   1      37.067  32.910  31.235  1.00  0.00    -0.460 OA
BRANCH  40  41
ATOM     41  C   UNL A   1      37.595  34.121  31.514  1.00  0.00     0.338 C 
ATOM     42  O   UNL A   1      37.062  34.841  32.338  1.00  0.00    -0.246 OA
BRANCH  41  43
ATOM     43  C   UNL A   1      38.982  34.484  31.089  1.00  0.00     0.060 A 
ATOM     44  C   UNL A   1      39.199  34.633  29.716  1.00  0.00     0.016 A 
ATOM     45  C   UNL A   1      40.110  34.279  31.889  1.00  0.00     0.016 A 
ATOM     46  C   UNL A   1      40.468  34.545  29.143  1.00  0.00     0.010 A 
ATOM     47  C   UNL A   1      41.416  34.286  31.318  1.00  0.00     0.010 A 
ATOM     48  C   UNL A   1      41.613  34.425  29.932  1.00  0.00    -0.014 A 
BRANCH  48  49
ATOM     49  C   UNL A   1      42.941  34.598  29.256  1.00  0.00     0.031 A 
ATOM     50  C   UNL A   1      43.839  33.447  28.868  1.00  0.00     0.074 A 
ATOM     51  C   UNL A   1      43.312  35.854  28.910  1.00  0.00     0.049 A 
ATOM     52  N   UNL A   1      45.029  33.484  28.318  1.00  0.00    -0.248 NA
ATOM     53  C   UNL A   1      43.342  32.083  29.106  1.00  0.00     0.031 C 
ATOM     54  C   UNL A   1      42.518  37.060  29.172  1.00  0.00     0.029 A 
ATOM     55  N   UNL A   1      44.425  36.338  28.262  1.00  0.00    -0.354 N 
ATOM     56  C   UNL A   1      45.451  32.163  28.194  1.00  0.00     0.074 A 
ATOM     57  C   UNL A   1      44.369  31.341  28.699  1.00  0.00     0.031 C 
ATOM     58  C   UNL A   1      43.143  38.128  28.666  1.00  0.00     0.029 A 
ATOM     59  C   UNL A   1      44.440  37.712  28.153  1.00  0.00     0.049 A 
ATOM     60  H   UNL A   1      45.140  35.761  27.911  1.00  0.00     0.167 HD
ATOM     61  C   UNL A   1      46.630  31.688  27.716  1.00  0.00     0.034 A 
ATOM     62  C   UNL A   1      45.401  38.570  27.755  1.00  0.00     0.034 A 
ATOM     63  C   UNL A   1      47.687  32.517  27.181  1.00  0.00     0.049 A 
ATOM     64  C   UNL A   1      46.711  38.016  27.281  1.00  0.00     0.074 A 
ATOM     65  C   UNL A   1      48.905  32.116  26.653  1.00  0.00     0.029 A 
ATOM     66  N   UNL A   1      47.666  33.901  27.110  1.00  0.00    -0.354 N 
ATOM     67  N   UNL A   1      47.068  36.764  27.139  1.00  0.00    -0.248 NA
ATOM     68  C   UNL A   1      47.747  38.986  26.899  1.00  0.00     0.031 C 
ATOM     69  C   UNL A   1      49.638  33.256  26.318  1.00  0.00     0.029 A 
ATOM     70  C   UNL A   1      48.858  34.369  26.577  1.00  0.00     0.049 A 
ATOM     71  H   UNL A   1      46.913  34.469  27.396  1.00  0.00     0.167 HD
ATOM     72  C   UNL A   1      48.363  36.792  26.640  1.00  0.00     0.074 A 
ATOM     73  C   UNL A   1      48.714  38.188  26.467  1.00  0.00     0.031 C 
ATOM     74  C   UNL A   1      49.190  35.755  26.369  1.00  0.00     0.034 A 
BRANCH  61  75
ATOM     75  C   UNL A   1      46.892  30.198  27.739  1.00  0.00     0.023 A 
ATOM     76  C   UNL A   1      47.293  29.567  28.932  1.00  0.00     0.012 A 
ATOM     77  C   UNL A   1      46.567  29.402  26.618  1.00  0.00     0.148 A 
ATOM     78  C   UNL A   1      47.379  28.174  29.005  1.00  0.00     0.002 A 
ATOM     79  C   UNL A   1      46.608  28.015  26.713  1.00  0.00     0.091 A 
ATOM     80  F   UNL A   1      46.184  30.019  25.490  1.00  0.00    -0.205 F 
ATOM     81  C   UNL A   1      47.023  27.399  27.903  1.00  0.00     0.022 A 
BRANCH  79  82
ATOM     82  S   UNL A   1      46.075  26.927  25.383  1.00  0.00     0.127 S 
ATOM     83  O   UNL A   1      46.868  25.728  25.650  1.00  0.00    -0.237 OA
ATOM     84  O   UNL A   1      44.645  26.784  25.660  1.00  0.00    -0.237 OA
ATOM     85  O   UNL A   1      46.395  27.616  24.142  1.00  0.00    -0.744 OA
ENDBRANCH  79  82
ENDBRANCH  61  75
BRANCH  62  86
ATOM     86  C   UNL A   1      45.161  40.041  27.836  1.00  0.00     0.023 A 
ATOM     87  C   UNL A   1      45.228  40.703  29.075  1.00  0.00     0.012 A 
ATOM     88  C   UNL A   1      44.916  40.797  26.669  1.00  0.00     0.148 A 
ATOM     89  C   UNL A   1      45.037  42.084  29.154  1.00  0.00     0.002 A 
ATOM     90  C   UNL A   1      44.805  42.180  26.745  1.00  0.00     0.091 A 
ATOM     91  F   UNL A   1      44.829  40.150  25.498  1.00  0.00    -0.205 F 
ATOM     92  C   UNL A   1      44.845  42.824  27.989  1.00  0.00     0.022 A 
BRANCH  90  93
ATOM     93  S   UNL A   1      44.722  43.217  25.281  1.00  0.00     0.127 S 
ATOM     94  O   UNL A   1      43.370  42.947  24.800  1.00  0.00    -0.237 OA
ATOM     95  O   UNL A   1      44.922  44.552  25.847  1.00  0.00    -0.237 OA
ATOM     96  O   UNL A   1      45.804  42.765  24.416  1.00  0.00    -0.744 OA
ENDBRANCH  90  93
ENDBRANCH  62  86
BRANCH  74  97
ATOM     97  C   UNL A   1      50.562  36.073  25.833  1.00  0.00     0.023 A 
ATOM     98  C   UNL A   1      50.815  35.975  24.450  1.00  0.00     0.012 A 
ATOM     99  C   UNL A   1      51.572  36.557  26.687  1.00  0.00     0.148 A 
ATOM    100  C   UNL A   1      52.058  36.330  23.929  1.00  0.00     0.002 A 
ATOM    101  C   UNL A   1      52.788  36.966  26.154  1.00  0.00     0.091 A 
ATOM    102  F   UNL A   1      51.318  36.625  28.002  1.00  0.00    -0.205 F 
ATOM    103  C   UNL A   1      53.038  36.840  24.778  1.00  0.00     0.022 A 
BRANCH 101 104
ATOM    104  S   UNL A   1      54.070  37.736  27.149  1.00  0.00     0.127 S 
ATOM    105  O   UNL A   1      54.802  36.572  27.645  1.00  0.00    -0.237 OA
ATOM    106  O   UNL A   1      54.792  38.532  26.156  1.00  0.00    -0.237 OA
ATOM    107  O   UNL A   1      53.379  38.514  28.168  1.00  0.00    -0.744 OA
ENDBRANCH 101 104
ENDBRANCH  74  97
ENDBRANCH  48  49
ENDBRANCH  41  43
ENDBRANCH  40  41
ENDBRANCH  39  40
ENDBRANCH  38  39
ENDBRANCH  37  38
ENDBRANCH  36  37
ENDBRANCH   1  36
TORSDOF 26
ENDMDL
