MODEL 1
REMARK VINA RESULT:      -8.3      0.000      0.000
REMARK SMILES C[C@H](c1ccc(Br)s1)[NH+]1CCC(CC(=O)OCCOCCOCCOC(=O)c2ccc(-c3c4nc(c(-c5cccc(S(=O)(=O)[O-])c5F)c5ccc([nH]5)c(-c5cccc(S(=O)(=O)[O-])c5F)c5nc(c(-c6cccc(S(=O)(=O)[O-])c6F)c6ccc3[nH]6)C=C5)C=C4)cc2)CC1
REMARK SMILES IDX 20 1 19 2 18 3 17 4 16 5 14 6 15 7 13 8 12 9 9 10 10 11
REMARK SMILES IDX 92 12 11 14 91 15 2 16 1 17 3 18 4 19 8 20 5 21 6 22 7 23
REMARK SMILES IDX 21 24 22 25 23 26 24 27 25 28 26 29 27 30 28 31 29 32 90 33
REMARK SMILES IDX 30 34 89 35 31 36 32 37 33 38 83 39 34 40 88 41 82 42 84 43
REMARK SMILES IDX 35 44 87 45 81 46 80 47 36 49 68 50 48 51 67 52 49 53 52 54
REMARK SMILES IDX 66 55 85 56 50 57 51 58 65 60 86 61 53 62 37 63 38 64 46 65
REMARK SMILES IDX 39 66 41 67 47 68 40 69 42 70 43 71 44 72 45 73 69 74 70 75
REMARK SMILES IDX 78 76 71 77 73 78 79 79 72 80 74 81 75 82 76 83 77 84 54 85
REMARK SMILES IDX 55 86 63 87 56 88 58 89 64 90 57 91 59 92 60 93 61 94 62 95
REMARK H PARENT 9 13 84 48 52 59
REMARK Flexibility Score: inf
ROOT
ATOM      1  C   UNL A   1      46.871  16.949  42.031  1.00  0.00     0.188 C 
ENDROOT
BRANCH   1   2
ATOM      2  O   UNL A   1      46.363  17.548  43.218  1.00  0.00    -0.376 OA
BRANCH   2   3
ATOM      3  C   UNL A   1      46.943  17.121  44.449  1.00  0.00     0.202 C 
BRANCH   3   4
ATOM      4  C   UNL A   1      46.416  15.792  45.006  1.00  0.00     0.261 C 
BRANCH   4   5
ATOM      5  O   UNL A   1      47.466  14.874  45.372  1.00  0.00    -0.463 OA
BRANCH   5   6
ATOM      6  C   UNL A   1      47.412  14.385  46.636  1.00  0.00     0.306 C 
ATOM      7  O   UNL A   1      47.368  15.074  47.650  1.00  0.00    -0.252 OA
BRANCH   6   8
ATOM      8  C   UNL A   1      47.316  12.872  46.712  1.00  0.00     0.126 C 
BRANCH   8   9
ATOM      9  C   UNL A   1      46.012  12.153  46.325  1.00  0.00     0.011 C 
ATOM     10  N   UNL A   1      43.652  12.190  44.564  1.00  0.00    -0.328 N 
ATOM     11  C   UNL A   1      43.500  12.338  46.016  1.00  0.00     0.263 C 
ATOM     12  C   UNL A   1      44.755  11.270  44.267  1.00  0.00     0.263 C 
ATOM     13  H   UNL A   1      43.916  13.089  44.161  1.00  0.00     0.348 HD
ATOM     14  C   UNL A   1      44.754  12.980  46.617  1.00  0.00     0.066 C 
ATOM     15  C   UNL A   1      46.071  11.824  44.819  1.00  0.00     0.066 C 
BRANCH  10  16
ATOM     16  C   UNL A   1      42.372  11.876  43.891  1.00  0.00     0.222 C 
ATOM     17  C   UNL A   1      42.146  10.396  43.554  1.00  0.00     0.082 C 
BRANCH  16  18
ATOM     18  C   UNL A   1      42.167  12.773  42.677  1.00  0.00     0.063 A 
ATOM     19  C   UNL A   1      41.475  12.526  41.502  1.00  0.00     0.023 A 
ATOM     20  S   UNL A   1      42.882  14.342  42.646  1.00  0.00    -0.127 S 
ATOM     21  C   UNL A   1      41.579  13.597  40.564  1.00  0.00     0.028 A 
ATOM     22  C   UNL A   1      42.320  14.630  41.075  1.00  0.00     0.070 A 
ATOM     23  Br  UNL A   1      42.686  16.206  40.131  1.00  0.00    -0.039 Br
ENDBRANCH  16  18
ENDBRANCH  10  16
ENDBRANCH   8   9
ENDBRANCH   6   8
ENDBRANCH   5   6
ENDBRANCH   4   5
ENDBRANCH   3   4
ENDBRANCH   2   3
ENDBRANCH   1   2
BRANCH   1  24
ATOM     24  C   UNL A   1      47.282  17.921  40.924  1.00  0.00     0.188 C 
BRANCH  24  25
ATOM     25  O   UNL A   1      46.218  18.589  40.255  1.00  0.00    -0.376 OA
BRANCH  25  26
ATOM     26  C   UNL A   1      46.018  18.239  38.882  1.00  0.00     0.202 C 
BRANCH  26  27
ATOM     27  C   UNL A   1      46.572  19.203  37.811  1.00  0.00     0.261 C 
BRANCH  27  28
ATOM     28  O   UNL A   1      45.596  19.942  37.048  1.00  0.00    -0.460 OA
BRANCH  28  29
ATOM     29  C   UNL A   1      45.652  19.894  35.697  1.00  0.00     0.338 C 
ATOM     30  O   UNL A   1      45.539  18.898  35.002  1.00  0.00    -0.246 OA
BRANCH  29  31
ATOM     31  C   UNL A   1      45.588  21.292  35.183  1.00  0.00     0.060 A 
ATOM     32  C   UNL A   1      44.338  21.933  35.140  1.00  0.00     0.016 A 
ATOM     33  C   UNL A   1      46.741  21.999  34.831  1.00  0.00     0.016 A 
ATOM     34  C   UNL A   1      44.235  23.258  34.703  1.00  0.00     0.010 A 
ATOM     35  C   UNL A   1      46.636  23.319  34.380  1.00  0.00     0.010 A 
ATOM     36  C   UNL A   1      45.378  23.943  34.275  1.00  0.00    -0.014 A 
BRANCH  36  37
ATOM     37  C   UNL A   1      45.261  25.188  33.475  1.00  0.00     0.031 A 
ATOM     38  C   UNL A   1      44.842  25.045  32.035  1.00  0.00     0.074 A 
ATOM     39  C   UNL A   1      45.555  26.404  33.971  1.00  0.00     0.049 A 
ATOM     40  N   UNL A   1      44.806  25.940  31.085  1.00  0.00    -0.248 NA
ATOM     41  C   UNL A   1      44.417  23.699  31.611  1.00  0.00     0.031 C 
ATOM     42  C   UNL A   1      45.942  26.691  35.350  1.00  0.00     0.029 A 
ATOM     43  N   UNL A   1      45.606  27.628  33.344  1.00  0.00    -0.354 N 
ATOM     44  C   UNL A   1      44.400  25.259  29.944  1.00  0.00     0.074 A 
ATOM     45  C   UNL A   1      44.202  23.877  30.318  1.00  0.00     0.031 C 
ATOM     46  C   UNL A   1      46.231  28.002  35.456  1.00  0.00     0.029 A 
ATOM     47  C   UNL A   1      46.086  28.638  34.146  1.00  0.00     0.049 A 
ATOM     48  H   UNL A   1      45.327  27.768  32.411  1.00  0.00     0.167 HD
ATOM     49  C   UNL A   1      44.205  25.737  28.693  1.00  0.00     0.034 A 
ATOM     50  C   UNL A   1      46.407  29.915  33.846  1.00  0.00     0.034 A 
ATOM     51  C   UNL A   1      44.384  27.111  28.321  1.00  0.00     0.049 A 
ATOM     52  C   UNL A   1      46.218  30.419  32.434  1.00  0.00     0.074 A 
ATOM     53  C   UNL A   1      44.179  27.697  27.086  1.00  0.00     0.029 A 
ATOM     54  N   UNL A   1      44.821  28.110  29.175  1.00  0.00    -0.354 N 
ATOM     55  N   UNL A   1      45.752  29.786  31.385  1.00  0.00    -0.248 NA
ATOM     56  C   UNL A   1      46.578  31.823  32.168  1.00  0.00     0.031 C 
ATOM     57  C   UNL A   1      44.521  29.049  27.185  1.00  0.00     0.029 A 
ATOM     58  C   UNL A   1      44.898  29.309  28.493  1.00  0.00     0.049 A 
ATOM     59  H   UNL A   1      45.043  27.985  30.126  1.00  0.00     0.167 HD
ATOM     60  C   UNL A   1      45.712  30.722  30.355  1.00  0.00     0.074 A 
ATOM     61  C   UNL A   1      46.202  31.968  30.904  1.00  0.00     0.031 C 
ATOM     62  C   UNL A   1      45.311  30.562  29.070  1.00  0.00     0.034 A 
BRANCH  49  63
ATOM     63  C   UNL A   1      43.768  24.762  27.635  1.00  0.00     0.023 A 
ATOM     64  C   UNL A   1      42.397  24.496  27.449  1.00  0.00     0.012 A 
ATOM     65  C   UNL A   1      44.715  24.145  26.794  1.00  0.00     0.148 A 
ATOM     66  C   UNL A   1      41.976  23.605  26.463  1.00  0.00     0.002 A 
ATOM     67  C   UNL A   1      44.285  23.296  25.783  1.00  0.00     0.091 A 
ATOM     68  F   UNL A   1      46.016  24.393  27.007  1.00  0.00    -0.205 F 
ATOM     69  C   UNL A   1      42.918  23.016  25.624  1.00  0.00     0.022 A 
BRANCH  67  70
ATOM     70  S   UNL A   1      45.414  22.551  24.602  1.00  0.00     0.127 S 
ATOM     71  O   UNL A   1      46.030  23.732  23.999  1.00  0.00    -0.237 OA
ATOM     72  O   UNL A   1      46.299  21.777  25.472  1.00  0.00    -0.237 OA
ATOM     73  O   UNL A   1      44.590  21.752  23.707  1.00  0.00    -0.744 OA
ENDBRANCH  67  70
ENDBRANCH  49  63
BRANCH  50  74
ATOM     74  C   UNL A   1      46.933  30.828  34.903  1.00  0.00     0.023 A 
ATOM     75  C   UNL A   1      48.309  30.822  35.207  1.00  0.00     0.012 A 
ATOM     76  C   UNL A   1      46.079  31.690  35.619  1.00  0.00     0.148 A 
ATOM     77  C   UNL A   1      48.819  31.632  36.222  1.00  0.00     0.002 A 
ATOM     78  C   UNL A   1      46.601  32.533  36.592  1.00  0.00     0.091 A 
ATOM     79  F   UNL A   1      44.770  31.666  35.332  1.00  0.00    -0.205 F 
ATOM     80  C   UNL A   1      47.968  32.493  36.909  1.00  0.00     0.022 A 
BRANCH  78  81
ATOM     81  S   UNL A   1      45.603  33.754  37.451  1.00  0.00     0.127 S 
ATOM     82  O   UNL A   1      46.561  34.310  38.403  1.00  0.00    -0.237 OA
ATOM     83  O   UNL A   1      45.226  34.654  36.359  1.00  0.00    -0.237 OA
ATOM     84  O   UNL A   1      44.491  33.015  38.034  1.00  0.00    -0.744 OA
ENDBRANCH  78  81
ENDBRANCH  50  74
BRANCH  62  85
ATOM     85  C   UNL A   1      45.292  31.766  28.165  1.00  0.00     0.023 A 
ATOM     86  C   UNL A   1      44.085  32.445  27.910  1.00  0.00     0.012 A 
ATOM     87  C   UNL A   1      46.504  32.304  27.685  1.00  0.00     0.148 A 
ATOM     88  C   UNL A   1      44.085  33.632  27.176  1.00  0.00     0.002 A 
ATOM     89  C   UNL A   1      46.502  33.512  27.000  1.00  0.00     0.091 A 
ATOM     90  F   UNL A   1      47.639  31.633  27.930  1.00  0.00    -0.205 F 
ATOM     91  C   UNL A   1      45.291  34.173  26.736  1.00  0.00     0.022 A 
BRANCH  89  92
ATOM     92  S   UNL A   1      48.013  34.336  26.489  1.00  0.00     0.127 S 
ATOM     93  O   UNL A   1      48.747  34.424  27.750  1.00  0.00    -0.237 OA
ATOM     94  O   UNL A   1      48.571  33.387  25.524  1.00  0.00    -0.237 OA
ATOM     95  O   UNL A   1      47.606  35.613  25.918  1.00  0.00    -0.744 OA
ENDBRANCH  89  92
ENDBRANCH  62  85
ENDBRANCH  36  37
ENDBRANCH  29  31
ENDBRANCH  28  29
ENDBRANCH  27  28
ENDBRANCH  26  27
ENDBRANCH  25  26
ENDBRANCH  24  25
ENDBRANCH   1  24
TORSDOF 23
ENDMDL
MODEL 2
REMARK VINA RESULT:      -8.2     11.723     15.172
REMARK SMILES C[C@H](c1ccc(Br)s1)[NH+]1CCC(CC(=O)OCCOCCOCCOC(=O)c2ccc(-c3c4nc(c(-c5cccc(S(=O)(=O)[O-])c5F)c5ccc([nH]5)c(-c5cccc(S(=O)(=O)[O-])c5F)c5nc(c(-c6cccc(S(=O)(=O)[O-])c6F)c6ccc3[nH]6)C=C5)C=C4)cc2)CC1
REMARK SMILES IDX 20 1 19 2 18 3 17 4 16 5 14 6 15 7 13 8 12 9 9 10 10 11
REMARK SMILES IDX 92 12 11 14 91 15 2 16 1 17 3 18 4 19 8 20 5 21 6 22 7 23
REMARK SMILES IDX 21 24 22 25 23 26 24 27 25 28 26 29 27 30 28 31 29 32 90 33
REMARK SMILES IDX 30 34 89 35 31 36 32 37 33 38 83 39 34 40 88 41 82 42 84 43
REMARK SMILES IDX 35 44 87 45 81 46 80 47 36 49 68 50 48 51 67 52 49 53 52 54
REMARK SMILES IDX 66 55 85 56 50 57 51 58 65 60 86 61 53 62 37 63 38 64 46 65
REMARK SMILES IDX 39 66 41 67 47 68 40 69 42 70 43 71 44 72 45 73 69 74 70 75
REMARK SMILES IDX 78 76 71 77 73 78 79 79 72 80 74 81 75 82 76 83 77 84 54 85
REMARK SMILES IDX 55 86 63 87 56 88 58 89 64 90 57 91 59 92 60 93 61 94 62 95
REMARK H PARENT 9 13 84 48 52 59
REMARK Flexibility Score: inf
ROOT
ATOM      1  C   UNL A   1      37.890  34.205  31.825  1.00  0.00     0.188 C 
ENDROOT
BRANCH   1   2
ATOM      2  O   UNL A   1      38.210  34.157  30.439  1.00  0.00    -0.376 OA
BRANCH   2   3
ATOM      3  C   UNL A   1      37.118  34.234  29.526  1.00  0.00     0.202 C 
BRANCH   3   4
ATOM      4  C   UNL A   1      36.943  33.027  28.595  1.00  0.00     0.261 C 
BRANCH   4   5
ATOM      5  O   UNL A   1      35.690  32.340  28.785  1.00  0.00    -0.463 OA
BRANCH   5   6
ATOM      6  C   UNL A   1      35.464  31.281  27.969  1.00  0.00     0.306 C 
ATOM      7  O   UNL A   1      36.338  30.537  27.533  1.00  0.00    -0.252 OA
BRANCH   6   8
ATOM      8  C   UNL A   1      33.997  31.010  27.694  1.00  0.00     0.126 C 
BRANCH   8   9
ATOM      9  C   UNL A   1      33.579  29.970  26.640  1.00  0.00     0.011 C 
ATOM     10  N   UNL A   1      31.559  27.970  25.874  1.00  0.00    -0.328 N 
ATOM     11  C   UNL A   1      32.934  27.559  26.181  1.00  0.00     0.263 C 
ATOM     12  C   UNL A   1      31.562  29.277  25.209  1.00  0.00     0.263 C 
ATOM     13  H   UNL A   1      31.044  28.095  26.745  1.00  0.00     0.348 HD
ATOM     14  C   UNL A   1      33.568  28.533  27.177  1.00  0.00     0.066 C 
ATOM     15  C   UNL A   1      32.170  30.339  26.130  1.00  0.00     0.066 C 
BRANCH  10  16
ATOM     16  C   UNL A   1      30.795  26.911  25.177  1.00  0.00     0.222 C 
ATOM     17  C   UNL A   1      30.147  25.855  26.083  1.00  0.00     0.082 C 
BRANCH  16  18
ATOM     18  C   UNL A   1      31.636  26.277  24.076  1.00  0.00     0.063 A 
ATOM     19  C   UNL A   1      32.331  26.876  23.037  1.00  0.00     0.023 A 
ATOM     20  S   UNL A   1      31.791  24.561  24.004  1.00  0.00    -0.127 S 
ATOM     21  C   UNL A   1      32.939  25.928  22.161  1.00  0.00     0.028 A 
ATOM     22  C   UNL A   1      32.709  24.645  22.585  1.00  0.00     0.070 A 
ATOM     23  Br  UNL A   1      33.339  23.129  21.683  1.00  0.00    -0.039 Br
ENDBRANCH  16  18
ENDBRANCH  10  16
ENDBRANCH   8   9
ENDBRANCH   6   8
ENDBRANCH   5   6
ENDBRANCH   4   5
ENDBRANCH   3   4
ENDBRANCH   2   3
ENDBRANCH   1   2
BRANCH   1  24
ATOM     24  C   UNL A   1      36.419  34.469  32.155  1.00  0.00     0.188 C 
BRANCH  24  25
ATOM     25  O   UNL A   1      35.719  33.398  32.776  1.00  0.00    -0.376 OA
BRANCH  25  26
ATOM     26  C   UNL A   1      35.577  32.203  32.001  1.00  0.00     0.202 C 
BRANCH  26  27
ATOM     27  C   UNL A   1      35.997  30.871  32.658  1.00  0.00     0.261 C 
BRANCH  27  28
ATOM     28  O   UNL A   1      37.233  30.290  32.194  1.00  0.00    -0.460 OA
BRANCH  28  29
ATOM     29  C   UNL A   1      38.317  30.329  33.003  1.00  0.00     0.338 C 
ATOM     30  O   UNL A   1      38.382  29.910  34.147  1.00  0.00    -0.246 OA
BRANCH  29  31
ATOM     31  C   UNL A   1      39.497  30.708  32.175  1.00  0.00     0.060 A 
ATOM     32  C   UNL A   1      40.683  31.080  32.829  1.00  0.00     0.016 A 
ATOM     33  C   UNL A   1      39.475  30.618  30.780  1.00  0.00     0.016 A 
ATOM     34  C   UNL A   1      41.828  31.406  32.094  1.00  0.00     0.010 A 
ATOM     35  C   UNL A   1      40.615  30.957  30.045  1.00  0.00     0.010 A 
ATOM     36  C   UNL A   1      41.786  31.392  30.695  1.00  0.00    -0.014 A 
BRANCH  36  37
ATOM     37  C   UNL A   1      42.838  32.072  29.898  1.00  0.00     0.031 A 
ATOM     38  C   UNL A   1      44.069  31.273  29.558  1.00  0.00     0.074 A 
ATOM     39  C   UNL A   1      42.749  33.361  29.521  1.00  0.00     0.049 A 
ATOM     40  N   UNL A   1      45.189  31.661  29.009  1.00  0.00    -0.248 NA
ATOM     41  C   UNL A   1      44.028  29.839  29.896  1.00  0.00     0.031 C 
ATOM     42  C   UNL A   1      41.606  34.240  29.755  1.00  0.00     0.029 A 
ATOM     43  N   UNL A   1      43.668  34.164  28.885  1.00  0.00    -0.354 N 
ATOM     44  C   UNL A   1      46.001  30.534  28.979  1.00  0.00     0.074 A 
ATOM     45  C   UNL A   1      45.248  29.447  29.564  1.00  0.00     0.031 C 
ATOM     46  C   UNL A   1      41.908  35.473  29.306  1.00  0.00     0.029 A 
ATOM     47  C   UNL A   1      43.275  35.479  28.788  1.00  0.00     0.049 A 
ATOM     48  H   UNL A   1      44.524  33.829  28.534  1.00  0.00     0.167 HD
ATOM     49  C   UNL A   1      47.262  30.408  28.505  1.00  0.00     0.034 A 
ATOM     50  C   UNL A   1      43.958  36.566  28.366  1.00  0.00     0.034 A 
ATOM     51  C   UNL A   1      48.007  31.479  27.909  1.00  0.00     0.049 A 
ATOM     52  C   UNL A   1      45.379  36.410  27.877  1.00  0.00     0.074 A 
ATOM     53  C   UNL A   1      49.280  31.440  27.370  1.00  0.00     0.029 A 
ATOM     54  N   UNL A   1      47.555  32.782  27.784  1.00  0.00    -0.354 N 
ATOM     55  N   UNL A   1      46.104  35.323  27.774  1.00  0.00    -0.248 NA
ATOM     56  C   UNL A   1      46.070  37.629  27.422  1.00  0.00     0.031 C 
ATOM     57  C   UNL A   1      49.609  32.730  26.944  1.00  0.00     0.029 A 
ATOM     58  C   UNL A   1      48.525  33.559  27.181  1.00  0.00     0.049 A 
ATOM     59  H   UNL A   1      46.673  33.106  28.079  1.00  0.00     0.167 HD
ATOM     60  C   UNL A   1      47.309  35.716  27.197  1.00  0.00     0.074 A 
ATOM     61  C   UNL A   1      47.219  37.142  26.972  1.00  0.00     0.031 C 
ATOM     62  C   UNL A   1      48.393  34.963  26.887  1.00  0.00     0.034 A 
BRANCH  49  63
ATOM     63  C   UNL A   1      47.913  29.056  28.609  1.00  0.00     0.023 A 
ATOM     64  C   UNL A   1      48.584  28.690  29.793  1.00  0.00     0.012 A 
ATOM     65  C   UNL A   1      47.819  28.132  27.551  1.00  0.00     0.148 A 
ATOM     66  C   UNL A   1      49.181  27.436  29.909  1.00  0.00     0.002 A 
ATOM     67  C   UNL A   1      48.374  26.867  27.692  1.00  0.00     0.091 A 
ATOM     68  F   UNL A   1      47.197  28.512  26.425  1.00  0.00    -0.205 F 
ATOM     69  C   UNL A   1      49.066  26.522  28.865  1.00  0.00     0.022 A 
BRANCH  67  70
ATOM     70  S   UNL A   1      48.210  25.594  26.437  1.00  0.00     0.127 S 
ATOM     71  O   UNL A   1      49.357  25.880  25.577  1.00  0.00    -0.237 OA
ATOM     72  O   UNL A   1      48.328  24.368  27.227  1.00  0.00    -0.237 OA
ATOM     73  O   UNL A   1      46.904  25.798  25.824  1.00  0.00    -0.744 OA
ENDBRANCH  67  70
ENDBRANCH  49  63
BRANCH  50  74
ATOM     74  C   UNL A   1      43.310  37.910  28.371  1.00  0.00     0.023 A 
ATOM     75  C   UNL A   1      42.577  38.334  27.244  1.00  0.00     0.012 A 
ATOM     76  C   UNL A   1      43.426  38.776  29.476  1.00  0.00     0.148 A 
ATOM     77  C   UNL A   1      42.002  39.605  27.204  1.00  0.00     0.002 A 
ATOM     78  C   UNL A   1      42.805  40.019  29.451  1.00  0.00     0.091 A 
ATOM     79  F   UNL A   1      44.144  38.365  30.530  1.00  0.00    -0.205 F 
ATOM     80  C   UNL A   1      42.107  40.443  28.310  1.00  0.00     0.022 A 
BRANCH  78  81
ATOM     81  S   UNL A   1      42.791  41.122  30.870  1.00  0.00     0.127 S 
ATOM     82  O   UNL A   1      41.636  41.968  30.581  1.00  0.00    -0.237 OA
ATOM     83  O   UNL A   1      42.607  40.182  31.977  1.00  0.00    -0.237 OA
ATOM     84  O   UNL A   1      44.084  41.793  30.858  1.00  0.00    -0.744 OA
ENDBRANCH  78  81
ENDBRANCH  50  74
BRANCH  62  85
ATOM     85  C   UNL A   1      49.555  35.623  26.191  1.00  0.00     0.023 A 
ATOM     86  C   UNL A   1      49.692  35.530  24.793  1.00  0.00     0.012 A 
ATOM     87  C   UNL A   1      50.429  36.457  26.919  1.00  0.00     0.148 A 
ATOM     88  C   UNL A   1      50.692  36.244  24.133  1.00  0.00     0.002 A 
ATOM     89  C   UNL A   1      51.389  37.204  26.249  1.00  0.00     0.091 A 
ATOM     90  F   UNL A   1      50.287  36.521  28.251  1.00  0.00    -0.205 F 
ATOM     91  C   UNL A   1      51.528  37.091  24.857  1.00  0.00     0.022 A 
BRANCH  89  92
ATOM     92  S   UNL A   1      52.438  38.400  27.083  1.00  0.00     0.127 S 
ATOM     93  O   UNL A   1      53.147  39.011  25.960  1.00  0.00    -0.237 OA
ATOM     94  O   UNL A   1      51.457  39.271  27.732  1.00  0.00    -0.237 OA
ATOM     95  O   UNL A   1      53.273  37.636  28.002  1.00  0.00    -0.744 OA
ENDBRANCH  89  92
ENDBRANCH  62  85
ENDBRANCH  36  37
ENDBRANCH  29  31
ENDBRANCH  28  29
ENDBRANCH  27  28
ENDBRANCH  26  27
ENDBRANCH  25  26
ENDBRANCH  24  25
ENDBRANCH   1  24
TORSDOF 23
ENDMDL
MODEL 3
REMARK VINA RESULT:      -7.8      8.184     15.592
REMARK SMILES C[C@H](c1ccc(Br)s1)[NH+]1CCC(CC(=O)OCCOCCOCCOC(=O)c2ccc(-c3c4nc(c(-c5cccc(S(=O)(=O)[O-])c5F)c5ccc([nH]5)c(-c5cccc(S(=O)(=O)[O-])c5F)c5nc(c(-c6cccc(S(=O)(=O)[O-])c6F)c6ccc3[nH]6)C=C5)C=C4)cc2)CC1
REMARK SMILES IDX 20 1 19 2 18 3 17 4 16 5 14 6 15 7 13 8 12 9 9 10 10 11
REMARK SMILES IDX 92 12 11 14 91 15 2 16 1 17 3 18 4 19 8 20 5 21 6 22 7 23
REMARK SMILES IDX 21 24 22 25 23 26 24 27 25 28 26 29 27 30 28 31 29 32 90 33
REMARK SMILES IDX 30 34 89 35 31 36 32 37 33 38 83 39 34 40 88 41 82 42 84 43
REMARK SMILES IDX 35 44 87 45 81 46 80 47 36 49 68 50 48 51 67 52 49 53 52 54
REMARK SMILES IDX 66 55 85 56 50 57 51 58 65 60 86 61 53 62 37 63 38 64 46 65
REMARK SMILES IDX 39 66 41 67 47 68 40 69 42 70 43 71 44 72 45 73 69 74 70 75
REMARK SMILES IDX 78 76 71 77 73 78 79 79 72 80 74 81 75 82 76 83 77 84 54 85
REMARK SMILES IDX 55 86 63 87 56 88 58 89 64 90 57 91 59 92 60 93 61 94 62 95
REMARK H PARENT 9 13 84 48 52 59
REMARK Flexibility Score: inf
ROOT
ATOM      1  C   UNL A   1      48.468  33.286  26.357  1.00  0.00     0.188 C 
ENDROOT
BRANCH   1   2
ATOM      2  O   UNL A   1      47.436  32.632  27.088  1.00  0.00    -0.376 OA
BRANCH   2   3
ATOM      3  C   UNL A   1      46.136  32.638  26.504  1.00  0.00     0.202 C 
BRANCH   3   4
ATOM      4  C   UNL A   1      45.068  31.829  27.252  1.00  0.00     0.261 C 
BRANCH   4   5
ATOM      5  O   UNL A   1      44.380  30.881  26.409  1.00  0.00    -0.463 OA
BRANCH   5   6
ATOM      6  C   UNL A   1      44.082  29.688  26.979  1.00  0.00     0.306 C 
ATOM      7  O   UNL A   1      44.811  29.085  27.762  1.00  0.00    -0.252 OA
BRANCH   6   8
ATOM      8  C   UNL A   1      42.695  29.170  26.646  1.00  0.00     0.126 C 
BRANCH   8   9
ATOM      9  C   UNL A   1      41.680  28.881  27.765  1.00  0.00     0.011 C 
ATOM     10  N   UNL A   1      39.239  29.809  29.125  1.00  0.00    -0.328 N 
ATOM     11  C   UNL A   1      40.515  29.747  29.847  1.00  0.00     0.263 C 
ATOM     12  C   UNL A   1      39.150  28.702  28.168  1.00  0.00     0.263 C 
ATOM     13  H   UNL A   1      39.207  30.666  28.573  1.00  0.00     0.348 HD
ATOM     14  C   UNL A   1      41.682  29.940  28.875  1.00  0.00     0.066 C 
ATOM     15  C   UNL A   1      40.274  28.803  27.133  1.00  0.00     0.066 C 
BRANCH  10  16
ATOM     16  C   UNL A   1      38.081  29.948  30.036  1.00  0.00     0.222 C 
ATOM     17  C   UNL A   1      36.731  29.489  29.467  1.00  0.00     0.082 C 
BRANCH  16  18
ATOM     18  C   UNL A   1      38.007  31.359  30.604  1.00  0.00     0.063 A 
ATOM     19  C   UNL A   1      38.096  32.580  29.953  1.00  0.00     0.023 A 
ATOM     20  S   UNL A   1      37.810  31.586  32.302  1.00  0.00    -0.127 S 
ATOM     21  C   UNL A   1      38.057  33.689  30.851  1.00  0.00     0.028 A 
ATOM     22  C   UNL A   1      37.908  33.269  32.147  1.00  0.00     0.070 A 
ATOM     23  Br  UNL A   1      37.830  34.436  33.610  1.00  0.00    -0.039 Br
ENDBRANCH  16  18
ENDBRANCH  10  16
ENDBRANCH   8   9
ENDBRANCH   6   8
ENDBRANCH   5   6
ENDBRANCH   4   5
ENDBRANCH   3   4
ENDBRANCH   2   3
ENDBRANCH   1   2
BRANCH   1  24
ATOM     24  C   UNL A   1      48.652  34.774  26.661  1.00  0.00     0.188 C 
BRANCH  24  25
ATOM     25  O   UNL A   1      49.802  35.116  27.426  1.00  0.00    -0.376 OA
BRANCH  25  26
ATOM     26  C   UNL A   1      49.594  35.301  28.830  1.00  0.00     0.202 C 
BRANCH  26  27
ATOM     27  C   UNL A   1      50.800  35.076  29.767  1.00  0.00     0.261 C 
BRANCH  27  28
ATOM     28  O   UNL A   1      50.493  34.791  31.147  1.00  0.00    -0.460 OA
BRANCH  28  29
ATOM     29  C   UNL A   1      51.035  33.692  31.723  1.00  0.00     0.338 C 
ATOM     30  O   UNL A   1      51.877  33.677  32.606  1.00  0.00    -0.246 OA
BRANCH  29  31
ATOM     31  C   UNL A   1      50.230  32.508  31.305  1.00  0.00     0.060 A 
ATOM     32  C   UNL A   1      50.882  31.273  31.159  1.00  0.00     0.016 A 
ATOM     33  C   UNL A   1      48.844  32.583  31.142  1.00  0.00     0.016 A 
ATOM     34  C   UNL A   1      50.162  30.127  30.807  1.00  0.00     0.010 A 
ATOM     35  C   UNL A   1      48.126  31.440  30.776  1.00  0.00     0.010 A 
ATOM     36  C   UNL A   1      48.786  30.215  30.567  1.00  0.00    -0.014 A 
BRANCH  36  37
ATOM     37  C   UNL A   1      48.071  29.129  29.848  1.00  0.00     0.031 A 
ATOM     38  C   UNL A   1      47.212  28.206  30.672  1.00  0.00     0.074 A 
ATOM     39  C   UNL A   1      48.200  28.922  28.524  1.00  0.00     0.049 A 
ATOM     40  N   UNL A   1      46.606  27.102  30.327  1.00  0.00    -0.248 NA
ATOM     41  C   UNL A   1      47.025  28.580  32.086  1.00  0.00     0.031 C 
ATOM     42  C   UNL A   1      48.971  29.754  27.603  1.00  0.00     0.029 A 
ATOM     43  N   UNL A   1      47.704  27.912  27.732  1.00  0.00    -0.354 N 
ATOM     44  C   UNL A   1      46.006  26.626  31.486  1.00  0.00     0.074 A 
ATOM     45  C   UNL A   1      46.320  27.559  32.545  1.00  0.00     0.031 C 
ATOM     46  C   UNL A   1      48.930  29.197  26.378  1.00  0.00     0.029 A 
ATOM     47  C   UNL A   1      48.164  27.953  26.436  1.00  0.00     0.049 A 
ATOM     48  H   UNL A   1      47.081  27.226  28.062  1.00  0.00     0.167 HD
ATOM     49  C   UNL A   1      45.257  25.513  31.660  1.00  0.00     0.034 A 
ATOM     50  C   UNL A   1      48.014  27.067  25.427  1.00  0.00     0.034 A 
ATOM     51  C   UNL A   1      44.929  24.593  30.608  1.00  0.00     0.049 A 
ATOM     52  C   UNL A   1      47.205  25.810  25.653  1.00  0.00     0.074 A 
ATOM     53  C   UNL A   1      44.148  23.454  30.680  1.00  0.00     0.029 A 
ATOM     54  N   UNL A   1      45.371  24.698  29.301  1.00  0.00    -0.354 N 
ATOM     55  N   UNL A   1      46.572  25.417  26.731  1.00  0.00    -0.248 NA
ATOM     56  C   UNL A   1      47.070  24.886  24.514  1.00  0.00     0.031 C 
ATOM     57  C   UNL A   1      44.142  22.853  29.418  1.00  0.00     0.029 A 
ATOM     58  C   UNL A   1      44.885  23.642  28.555  1.00  0.00     0.049 A 
ATOM     59  H   UNL A   1      45.946  25.419  28.954  1.00  0.00     0.167 HD
ATOM     60  C   UNL A   1      45.923  24.234  26.386  1.00  0.00     0.074 A 
ATOM     61  C   UNL A   1      46.239  23.972  24.999  1.00  0.00     0.031 C 
ATOM     62  C   UNL A   1      45.141  23.434  27.153  1.00  0.00     0.034 A 
BRANCH  49  63
ATOM     63  C   UNL A   1      44.734  25.233  33.042  1.00  0.00     0.023 A 
ATOM     64  C   UNL A   1      45.349  24.246  33.837  1.00  0.00     0.012 A 
ATOM     65  C   UNL A   1      43.664  25.982  33.569  1.00  0.00     0.148 A 
ATOM     66  C   UNL A   1      44.885  23.984  35.126  1.00  0.00     0.002 A 
ATOM     67  C   UNL A   1      43.239  25.750  34.870  1.00  0.00     0.091 A 
ATOM     68  F   UNL A   1      43.079  26.899  32.785  1.00  0.00    -0.205 F 
ATOM     69  C   UNL A   1      43.839  24.744  35.645  1.00  0.00     0.022 A 
BRANCH  67  70
ATOM     70  S   UNL A   1      41.954  26.728  35.655  1.00  0.00     0.127 S 
ATOM     71  O   UNL A   1      40.868  26.622  34.682  1.00  0.00    -0.237 OA
ATOM     72  O   UNL A   1      41.731  25.995  36.902  1.00  0.00    -0.237 OA
ATOM     73  O   UNL A   1      42.512  28.062  35.827  1.00  0.00    -0.744 OA
ENDBRANCH  67  70
ENDBRANCH  49  63
BRANCH  50  74
ATOM     74  C   UNL A   1      48.632  27.332  24.095  1.00  0.00     0.023 A 
ATOM     75  C   UNL A   1      47.832  27.813  23.039  1.00  0.00     0.012 A 
ATOM     76  C   UNL A   1      50.001  27.097  23.862  1.00  0.00     0.148 A 
ATOM     77  C   UNL A   1      48.375  28.024  21.772  1.00  0.00     0.002 A 
ATOM     78  C   UNL A   1      50.547  27.360  22.612  1.00  0.00     0.091 A 
ATOM     79  F   UNL A   1      50.742  26.619  24.871  1.00  0.00    -0.205 F 
ATOM     80  C   UNL A   1      49.733  27.806  21.559  1.00  0.00     0.022 A 
BRANCH  78  81
ATOM     81  S   UNL A   1      52.306  27.216  22.275  1.00  0.00     0.127 S 
ATOM     82  O   UNL A   1      52.313  26.889  20.851  1.00  0.00    -0.237 OA
ATOM     83  O   UNL A   1      52.784  28.561  22.601  1.00  0.00    -0.237 OA
ATOM     84  O   UNL A   1      52.793  26.171  23.165  1.00  0.00    -0.744 OA
ENDBRANCH  78  81
ENDBRANCH  50  74
BRANCH  62  85
ATOM     85  C   UNL A   1      44.487  22.238  26.513  1.00  0.00     0.023 A 
ATOM     86  C   UNL A   1      45.272  21.228  25.924  1.00  0.00     0.012 A 
ATOM     87  C   UNL A   1      43.093  22.053  26.628  1.00  0.00     0.148 A 
ATOM     88  C   UNL A   1      44.677  20.061  25.445  1.00  0.00     0.002 A 
ATOM     89  C   UNL A   1      42.515  20.867  26.194  1.00  0.00     0.091 A 
ATOM     90  F   UNL A   1      42.364  23.033  27.180  1.00  0.00    -0.205 F 
ATOM     91  C   UNL A   1      43.304  19.873  25.594  1.00  0.00     0.022 A 
BRANCH  89  92
ATOM     92  S   UNL A   1      40.775  20.493  26.441  1.00  0.00     0.127 S 
ATOM     93  O   UNL A   1      40.132  21.678  25.877  1.00  0.00    -0.237 OA
ATOM     94  O   UNL A   1      40.607  19.273  25.651  1.00  0.00    -0.237 OA
ATOM     95  O   UNL A   1      40.598  20.315  27.877  1.00  0.00    -0.744 OA
ENDBRANCH  89  92
ENDBRANCH  62  85
ENDBRANCH  36  37
ENDBRANCH  29  31
ENDBRANCH  28  29
ENDBRANCH  27  28
ENDBRANCH  26  27
ENDBRANCH  25  26
ENDBRANCH  24  25
ENDBRANCH   1  24
TORSDOF 23
ENDMDL
