MODEL 1
REMARK VINA RESULT:      -8.1      0.000      0.000
REMARK SMILES CN(C)C(=O)C[NH+]1CCN(c2cc(C(=O)OCCOCCOCCOC(=O)c3ccc(-c4c5nc(c(-c6cccc(S(=O)(=O)[O-])c6F)c6ccc([nH]6)c(-c6cccc(S(=O)(=O)[O-])c6F)c6nc(c(-c7cccc(S(=O)(=O)[O-])c7F)c7ccc4[nH]7)C=C6)C=C5)cc3)c3cc(NC(=O)c4cccc(Cl)c4)ccc3n2)CC1
REMARK SMILES IDX 20 1 19 2 18 3 17 4 16 5 14 6 15 7 13 8 11 9 12 10 107 11
REMARK SMILES IDX 106 12 91 13 105 14 92 15 104 16 93 17 10 18 7 19 8 20
REMARK SMILES IDX 109 21 9 23 108 24 6 25 4 26 1 27 2 28 3 29 5 30 94 31 95 32
REMARK SMILES IDX 96 34 97 35 98 36 103 37 99 38 101 39 100 40 102 41 21 42
REMARK SMILES IDX 22 43 23 44 24 45 25 46 26 47 27 48 28 49 29 50 90 51 30 52
REMARK SMILES IDX 89 53 31 54 32 55 33 56 83 57 34 58 88 59 82 60 84 61 35 62
REMARK SMILES IDX 87 63 81 64 80 65 36 67 68 68 48 69 67 70 49 71 52 72 66 73
REMARK SMILES IDX 85 74 50 75 51 76 65 78 86 79 53 80 37 81 38 82 46 83 39 84
REMARK SMILES IDX 41 85 47 86 40 87 42 88 43 89 44 90 45 91 69 92 70 93 78 94
REMARK SMILES IDX 71 95 73 96 79 97 72 98 74 99 75 100 76 101 77 102 54 103
REMARK SMILES IDX 55 104 63 105 56 106 58 107 64 108 57 109 59 110 60 111
REMARK SMILES IDX 61 112 62 113
REMARK H PARENT 7 22 94 33 84 66 52 77
REMARK Flexibility Score: inf
ROOT
ATOM      1  C   UNL A   1      51.301  25.419  41.090  1.00  0.00     0.188 C 
ENDROOT
BRANCH   1   2
ATOM      2  O   UNL A   1      51.218  24.000  41.136  1.00  0.00    -0.376 OA
BRANCH   2   3
ATOM      3  C   UNL A   1      50.396  23.362  40.158  1.00  0.00     0.202 C 
BRANCH   3   4
ATOM      4  C   UNL A   1      49.869  21.965  40.507  1.00  0.00     0.261 C 
BRANCH   4   5
ATOM      5  O   UNL A   1      48.599  21.688  39.877  1.00  0.00    -0.460 OA
BRANCH   5   6
ATOM      6  C   UNL A   1      48.667  20.846  38.817  1.00  0.00     0.339 C 
ATOM      7  O   UNL A   1      49.668  20.603  38.162  1.00  0.00    -0.246 OA
BRANCH   6   8
ATOM      8  C   UNL A   1      47.422  20.057  38.642  1.00  0.00     0.073 A 
ATOM      9  C   UNL A   1      46.140  18.228  39.506  1.00  0.00     0.130 A 
ATOM     10  C   UNL A   1      47.136  19.167  39.680  1.00  0.00     0.063 A 
ATOM     11  N   UNL A   1      45.483  18.118  38.337  1.00  0.00    -0.231 NA
ATOM     12  C   UNL A   1      45.712  19.004  37.358  1.00  0.00     0.074 A 
ATOM     13  C   UNL A   1      46.632  20.059  37.475  1.00  0.00     0.017 A 
ATOM     14  C   UNL A   1      45.004  18.864  36.177  1.00  0.00     0.031 A 
ATOM     15  C   UNL A   1      46.694  21.027  36.440  1.00  0.00     0.037 A 
ATOM     16  C   UNL A   1      45.141  19.774  35.125  1.00  0.00     0.028 A 
ATOM     17  C   UNL A   1      45.976  20.883  35.254  1.00  0.00     0.042 A 
BRANCH   9  18
ATOM     18  N   UNL A   1      45.838  17.347  40.507  1.00  0.00    -0.345 N 
ATOM     19  N   UNL A   1      45.455  16.544  43.300  1.00  0.00    -0.324 N 
ATOM     20  C   UNL A   1      46.803  16.674  42.693  1.00  0.00     0.284 C 
ATOM     21  C   UNL A   1      44.547  17.493  42.606  1.00  0.00     0.284 C 
ATOM     22  H   UNL A   1      45.478  16.777  44.293  1.00  0.00     0.348 HD
ATOM     23  C   UNL A   1      46.871  16.540  41.148  1.00  0.00     0.179 C 
ATOM     24  C   UNL A   1      44.494  17.354  41.072  1.00  0.00     0.179 C 
BRANCH  19  25
ATOM     25  C   UNL A   1      44.984  15.139  43.207  1.00  0.00     0.363 C 
BRANCH  25  26
ATOM     26  C   UNL A   1      43.620  14.952  43.892  1.00  0.00     0.277 C 
ATOM     27  C   UNL A   1      41.271  14.345  43.790  1.00  0.00     0.146 C 
ATOM     28  N   UNL A   1      42.524  14.607  43.110  1.00  0.00    -0.344 N 
ATOM     29  C   UNL A   1      42.607  14.331  41.684  1.00  0.00     0.146 C 
ATOM     30  O   UNL A   1      43.528  15.072  45.120  1.00  0.00    -0.268 OA
ENDBRANCH  25  26
ENDBRANCH  19  25
ENDBRANCH   9  18
BRANCH  17  31
ATOM     31  N   UNL A   1      45.988  21.790  34.179  1.00  0.00    -0.322 N 
ATOM     32  C   UNL A   1      45.355  22.986  33.940  1.00  0.00     0.255 C 
ATOM     33  H   UNL A   1      46.575  21.508  33.441  1.00  0.00     0.170 HD
ATOM     34  O   UNL A   1      45.386  23.468  32.807  1.00  0.00    -0.269 OA
BRANCH  32  35
ATOM     35  C   UNL A   1      44.669  23.752  34.994  1.00  0.00     0.041 A 
ATOM     36  C   UNL A   1      45.443  24.319  36.015  1.00  0.00     0.014 A 
ATOM     37  C   UNL A   1      43.275  23.871  35.008  1.00  0.00     0.034 A 
ATOM     38  C   UNL A   1      44.824  25.041  37.035  1.00  0.00     0.002 A 
ATOM     39  C   UNL A   1      42.671  24.614  36.019  1.00  0.00     0.041 A 
ATOM     40  C   UNL A   1      43.437  25.187  37.035  1.00  0.00     0.020 A 
ATOM     41  Cl  UNL A   1      40.969  24.856  35.992  1.00  0.00    -0.084 Cl
ENDBRANCH  32  35
ENDBRANCH  17  31
ENDBRANCH   6   8
ENDBRANCH   5   6
ENDBRANCH   4   5
ENDBRANCH   3   4
ENDBRANCH   2   3
ENDBRANCH   1   2
BRANCH   1  42
ATOM     42  C   UNL A   1      50.577  26.217  42.197  1.00  0.00     0.188 C 
BRANCH  42  43
ATOM     43  O   UNL A   1      49.250  26.594  41.861  1.00  0.00    -0.376 OA
BRANCH  43  44
ATOM     44  C   UNL A   1      48.801  27.813  42.440  1.00  0.00     0.202 C 
BRANCH  44  45
ATOM     45  C   UNL A   1      48.234  28.887  41.492  1.00  0.00     0.261 C 
BRANCH  45  46
ATOM     46  O   UNL A   1      46.851  29.235  41.666  1.00  0.00    -0.460 OA
BRANCH  46  47
ATOM     47  C   UNL A   1      46.395  30.359  41.057  1.00  0.00     0.338 C 
ATOM     48  O   UNL A   1      46.523  31.496  41.444  1.00  0.00    -0.246 OA
BRANCH  47  49
ATOM     49  C   UNL A   1      45.931  29.957  39.701  1.00  0.00     0.060 A 
ATOM     50  C   UNL A   1      45.467  28.646  39.510  1.00  0.00     0.016 A 
ATOM     51  C   UNL A   1      45.866  30.884  38.657  1.00  0.00     0.016 A 
ATOM     52  C   UNL A   1      44.937  28.264  38.274  1.00  0.00     0.010 A 
ATOM     53  C   UNL A   1      45.365  30.488  37.411  1.00  0.00     0.010 A 
ATOM     54  C   UNL A   1      44.916  29.172  37.207  1.00  0.00    -0.014 A 
BRANCH  54  55
ATOM     55  C   UNL A   1      44.658  28.684  35.829  1.00  0.00     0.031 A 
ATOM     56  C   UNL A   1      45.805  28.037  35.099  1.00  0.00     0.074 A 
ATOM     57  C   UNL A   1      43.458  28.806  35.232  1.00  0.00     0.049 A 
ATOM     58  N   UNL A   1      45.858  27.572  33.879  1.00  0.00    -0.248 NA
ATOM     59  C   UNL A   1      47.063  27.893  35.854  1.00  0.00     0.031 C 
ATOM     60  C   UNL A   1      42.262  29.395  35.832  1.00  0.00     0.029 A 
ATOM     61  N   UNL A   1      43.059  28.460  33.962  1.00  0.00    -0.354 N 
ATOM     62  C   UNL A   1      47.154  27.097  33.714  1.00  0.00     0.074 A 
ATOM     63  C   UNL A   1      47.859  27.339  34.953  1.00  0.00     0.031 C 
ATOM     64  C   UNL A   1      41.273  29.402  34.919  1.00  0.00     0.029 A 
ATOM     65  C   UNL A   1      41.771  28.844  33.662  1.00  0.00     0.049 A 
ATOM     66  H   UNL A   1      43.640  27.983  33.326  1.00  0.00     0.167 HD
ATOM     67  C   UNL A   1      47.709  26.500  32.635  1.00  0.00     0.034 A 
ATOM     68  C   UNL A   1      41.091  28.778  32.497  1.00  0.00     0.034 A 
ATOM     69  C   UNL A   1      47.018  26.269  31.399  1.00  0.00     0.049 A 
ATOM     70  C   UNL A   1      41.759  28.169  31.285  1.00  0.00     0.074 A 
ATOM     71  C   UNL A   1      47.492  25.663  30.249  1.00  0.00     0.029 A 
ATOM     72  N   UNL A   1      45.709  26.647  31.144  1.00  0.00    -0.354 N 
ATOM     73  N   UNL A   1      42.949  27.628  31.179  1.00  0.00    -0.248 NA
ATOM     74  C   UNL A   1      40.975  28.132  30.040  1.00  0.00     0.031 C 
ATOM     75  C   UNL A   1      46.477  25.699  29.289  1.00  0.00     0.029 A 
ATOM     76  C   UNL A   1      45.359  26.292  29.854  1.00  0.00     0.049 A 
ATOM     77  H   UNL A   1      45.118  27.102  31.785  1.00  0.00     0.167 HD
ATOM     78  C   UNL A   1      43.037  27.148  29.874  1.00  0.00     0.074 A 
ATOM     79  C   UNL A   1      41.773  27.445  29.234  1.00  0.00     0.031 C 
ATOM     80  C   UNL A   1      44.072  26.530  29.255  1.00  0.00     0.034 A 
BRANCH  67  81
ATOM     81  C   UNL A   1      49.134  26.033  32.755  1.00  0.00     0.023 A 
ATOM     82  C   UNL A   1      50.183  26.913  32.417  1.00  0.00     0.012 A 
ATOM     83  C   UNL A   1      49.436  24.752  33.253  1.00  0.00     0.148 A 
ATOM     84  C   UNL A   1      51.512  26.515  32.549  1.00  0.00     0.002 A 
ATOM     85  C   UNL A   1      50.763  24.379  33.424  1.00  0.00     0.091 A 
ATOM     86  F   UNL A   1      48.422  23.925  33.545  1.00  0.00    -0.205 F 
ATOM     87  C   UNL A   1      51.801  25.254  33.063  1.00  0.00     0.022 A 
BRANCH  85  88
ATOM     88  S   UNL A   1      51.245  22.808  34.148  1.00  0.00     0.127 S 
ATOM     89  O   UNL A   1      51.087  21.900  33.012  1.00  0.00    -0.237 OA
ATOM     90  O   UNL A   1      52.631  23.063  34.537  1.00  0.00    -0.237 OA
ATOM     91  O   UNL A   1      50.330  22.577  35.257  1.00  0.00    -0.744 OA
ENDBRANCH  85  88
ENDBRANCH  67  81
BRANCH  68  92
ATOM     92  C   UNL A   1      39.690  29.287  32.397  1.00  0.00     0.023 A 
ATOM     93  C   UNL A   1      38.611  28.406  32.617  1.00  0.00     0.012 A 
ATOM     94  C   UNL A   1      39.419  30.621  32.035  1.00  0.00     0.148 A 
ATOM     95  C   UNL A   1      37.294  28.832  32.432  1.00  0.00     0.002 A 
ATOM     96  C   UNL A   1      38.103  31.052  31.906  1.00  0.00     0.091 A 
ATOM     97  F   UNL A   1      40.456  31.439  31.806  1.00  0.00    -0.205 F 
ATOM     98  C   UNL A   1      37.039  30.155  32.084  1.00  0.00     0.022 A 
BRANCH  96  99
ATOM     99  S   UNL A   1      37.681  32.765  31.566  1.00  0.00     0.127 S 
ATOM    100  O   UNL A   1      38.352  32.990  30.288  1.00  0.00    -0.237 OA
ATOM    101  O   UNL A   1      36.221  32.708  31.494  1.00  0.00    -0.237 OA
ATOM    102  O   UNL A   1      38.197  33.526  32.695  1.00  0.00    -0.744 OA
ENDBRANCH  96  99
ENDBRANCH  68  92
BRANCH  80 103
ATOM    103  C   UNL A   1      43.874  26.064  27.834  1.00  0.00     0.023 A 
ATOM    104  C   UNL A   1      44.303  26.865  26.759  1.00  0.00     0.012 A 
ATOM    105  C   UNL A   1      43.335  24.788  27.573  1.00  0.00     0.148 A 
ATOM    106  C   UNL A   1      44.167  26.418  25.444  1.00  0.00     0.002 A 
ATOM    107  C   UNL A   1      43.252  24.327  26.266  1.00  0.00     0.091 A 
ATOM    108  F   UNL A   1      42.920  24.045  28.610  1.00  0.00    -0.205 F 
ATOM    109  C   UNL A   1      43.655  25.146  25.199  1.00  0.00     0.022 A 
BRANCH 107 110
ATOM    110  S   UNL A   1      42.703  22.665  25.861  1.00  0.00     0.127 S 
ATOM    111  O   UNL A   1      41.264  22.761  26.099  1.00  0.00    -0.237 OA
ATOM    112  O   UNL A   1      43.082  22.547  24.453  1.00  0.00    -0.237 OA
ATOM    113  O   UNL A   1      43.425  21.773  26.759  1.00  0.00    -0.744 OA
ENDBRANCH 107 110
ENDBRANCH  80 103
ENDBRANCH  54  55
ENDBRANCH  47  49
ENDBRANCH  46  47
ENDBRANCH  45  46
ENDBRANCH  44  45
ENDBRANCH  43  44
ENDBRANCH  42  43
ENDBRANCH   1  42
TORSDOF 25
ENDMDL
MODEL 2
REMARK VINA RESULT:      -7.5      4.354      7.305
REMARK SMILES CN(C)C(=O)C[NH+]1CCN(c2cc(C(=O)OCCOCCOCCOC(=O)c3ccc(-c4c5nc(c(-c6cccc(S(=O)(=O)[O-])c6F)c6ccc([nH]6)c(-c6cccc(S(=O)(=O)[O-])c6F)c6nc(c(-c7cccc(S(=O)(=O)[O-])c7F)c7ccc4[nH]7)C=C6)C=C5)cc3)c3cc(NC(=O)c4cccc(Cl)c4)ccc3n2)CC1
REMARK SMILES IDX 20 1 19 2 18 3 17 4 16 5 14 6 15 7 13 8 11 9 12 10 107 11
REMARK SMILES IDX 106 12 91 13 105 14 92 15 104 16 93 17 10 18 7 19 8 20
REMARK SMILES IDX 109 21 9 23 108 24 6 25 4 26 1 27 2 28 3 29 5 30 94 31 95 32
REMARK SMILES IDX 96 34 97 35 98 36 103 37 99 38 101 39 100 40 102 41 21 42
REMARK SMILES IDX 22 43 23 44 24 45 25 46 26 47 27 48 28 49 29 50 90 51 30 52
REMARK SMILES IDX 89 53 31 54 32 55 33 56 83 57 34 58 88 59 82 60 84 61 35 62
REMARK SMILES IDX 87 63 81 64 80 65 36 67 68 68 48 69 67 70 49 71 52 72 66 73
REMARK SMILES IDX 85 74 50 75 51 76 65 78 86 79 53 80 37 81 38 82 46 83 39 84
REMARK SMILES IDX 41 85 47 86 40 87 42 88 43 89 44 90 45 91 69 92 70 93 78 94
REMARK SMILES IDX 71 95 73 96 79 97 72 98 74 99 75 100 76 101 77 102 54 103
REMARK SMILES IDX 55 104 63 105 56 106 58 107 64 108 57 109 59 110 60 111
REMARK SMILES IDX 61 112 62 113
REMARK H PARENT 7 22 94 33 84 66 52 77
REMARK Flexibility Score: inf
ROOT
ATOM      1  C   UNL A   1      49.488  25.400  39.525  1.00  0.00     0.188 C 
ENDROOT
BRANCH   1   2
ATOM      2  O   UNL A   1      48.824  24.377  40.256  1.00  0.00    -0.376 OA
BRANCH   2   3
ATOM      3  C   UNL A   1      48.491  23.181  39.550  1.00  0.00     0.202 C 
BRANCH   3   4
ATOM      4  C   UNL A   1      46.998  22.907  39.327  1.00  0.00     0.261 C 
BRANCH   4   5
ATOM      5  O   UNL A   1      46.569  21.679  39.956  1.00  0.00    -0.460 OA
BRANCH   5   6
ATOM      6  C   UNL A   1      46.413  20.635  39.107  1.00  0.00     0.339 C 
ATOM      7  O   UNL A   1      45.988  20.702  37.964  1.00  0.00    -0.246 OA
BRANCH   6   8
ATOM      8  C   UNL A   1      47.018  19.386  39.632  1.00  0.00     0.073 A 
ATOM      9  C   UNL A   1      46.696  17.549  41.134  1.00  0.00     0.130 A 
ATOM     10  C   UNL A   1      46.168  18.600  40.413  1.00  0.00     0.063 A 
ATOM     11  N   UNL A   1      48.019  17.307  41.145  1.00  0.00    -0.231 NA
ATOM     12  C   UNL A   1      48.833  18.020  40.355  1.00  0.00     0.074 A 
ATOM     13  C   UNL A   1      48.380  19.043  39.506  1.00  0.00     0.017 A 
ATOM     14  C   UNL A   1      50.186  17.729  40.385  1.00  0.00     0.031 A 
ATOM     15  C   UNL A   1      49.299  19.637  38.604  1.00  0.00     0.037 A 
ATOM     16  C   UNL A   1      51.099  18.386  39.556  1.00  0.00     0.028 A 
ATOM     17  C   UNL A   1      50.660  19.338  38.636  1.00  0.00     0.042 A 
BRANCH   9  18
ATOM     18  N   UNL A   1      45.884  16.762  41.904  1.00  0.00    -0.345 N 
ATOM     19  N   UNL A   1      43.571  16.229  43.622  1.00  0.00    -0.324 N 
ATOM     20  C   UNL A   1      44.795  16.898  44.130  1.00  0.00     0.284 C 
ATOM     21  C   UNL A   1      43.441  16.546  42.178  1.00  0.00     0.284 C 
ATOM     22  H   UNL A   1      42.741  16.567  44.110  1.00  0.00     0.348 HD
ATOM     23  C   UNL A   1      46.101  16.620  43.339  1.00  0.00     0.179 C 
ATOM     24  C   UNL A   1      44.672  16.208  41.314  1.00  0.00     0.179 C 
BRANCH  19  25
ATOM     25  C   UNL A   1      43.643  14.767  43.877  1.00  0.00     0.363 C 
BRANCH  25  26
ATOM     26  C   UNL A   1      42.293  14.080  43.618  1.00  0.00     0.277 C 
ATOM     27  C   UNL A   1      40.965  12.063  43.359  1.00  0.00     0.146 C 
ATOM     28  N   UNL A   1      42.261  12.694  43.509  1.00  0.00    -0.344 N 
ATOM     29  C   UNL A   1      43.425  11.844  43.709  1.00  0.00     0.146 C 
ATOM     30  O   UNL A   1      41.261  14.758  43.549  1.00  0.00    -0.268 OA
ENDBRANCH  25  26
ENDBRANCH  19  25
ENDBRANCH   9  18
BRANCH  17  31
ATOM     31  N   UNL A   1      51.635  19.886  37.784  1.00  0.00    -0.322 N 
ATOM     32  C   UNL A   1      51.592  20.460  36.537  1.00  0.00     0.255 C 
ATOM     33  H   UNL A   1      52.544  19.852  38.163  1.00  0.00     0.170 HD
ATOM     34  O   UNL A   1      52.644  20.664  35.930  1.00  0.00    -0.269 OA
BRANCH  32  35
ATOM     35  C   UNL A   1      50.336  20.887  35.897  1.00  0.00     0.041 A 
ATOM     36  C   UNL A   1      49.701  19.998  35.020  1.00  0.00     0.014 A 
ATOM     37  C   UNL A   1      49.813  22.166  36.115  1.00  0.00     0.034 A 
ATOM     38  C   UNL A   1      48.517  20.374  34.388  1.00  0.00     0.002 A 
ATOM     39  C   UNL A   1      48.618  22.522  35.496  1.00  0.00     0.041 A 
ATOM     40  C   UNL A   1      47.977  21.637  34.626  1.00  0.00     0.020 A 
ATOM     41  Cl  UNL A   1      47.908  24.050  35.835  1.00  0.00    -0.084 Cl
ENDBRANCH  32  35
ENDBRANCH  17  31
ENDBRANCH   6   8
ENDBRANCH   5   6
ENDBRANCH   4   5
ENDBRANCH   3   4
ENDBRANCH   2   3
ENDBRANCH   1   2
BRANCH   1  42
ATOM     42  C   UNL A   1      48.619  26.362  38.686  1.00  0.00     0.188 C 
BRANCH  42  43
ATOM     43  O   UNL A   1      47.272  26.454  39.126  1.00  0.00    -0.376 OA
BRANCH  43  44
ATOM     44  C   UNL A   1      46.303  25.935  38.224  1.00  0.00     0.202 C 
BRANCH  44  45
ATOM     45  C   UNL A   1      44.819  26.210  38.535  1.00  0.00     0.261 C 
BRANCH  45  46
ATOM     46  O   UNL A   1      43.866  25.269  38.015  1.00  0.00    -0.460 OA
BRANCH  46  47
ATOM     47  C   UNL A   1      42.910  25.731  37.171  1.00  0.00     0.338 C 
ATOM     48  O   UNL A   1      41.856  26.237  37.476  1.00  0.00    -0.246 OA
BRANCH  47  49
ATOM     49  C   UNL A   1      43.503  25.733  35.805  1.00  0.00     0.060 A 
ATOM     50  C   UNL A   1      44.326  24.660  35.429  1.00  0.00     0.016 A 
ATOM     51  C   UNL A   1      43.178  26.726  34.878  1.00  0.00     0.016 A 
ATOM     52  C   UNL A   1      44.823  24.581  34.124  1.00  0.00     0.010 A 
ATOM     53  C   UNL A   1      43.704  26.663  33.582  1.00  0.00     0.010 A 
ATOM     54  C   UNL A   1      44.544  25.602  33.204  1.00  0.00    -0.014 A 
BRANCH  54  55
ATOM     55  C   UNL A   1      45.319  25.686  31.941  1.00  0.00     0.031 A 
ATOM     56  C   UNL A   1      46.422  26.708  31.873  1.00  0.00     0.074 A 
ATOM     57  C   UNL A   1      45.062  24.895  30.881  1.00  0.00     0.049 A 
ATOM     58  N   UNL A   1      47.212  27.015  30.880  1.00  0.00    -0.248 NA
ATOM     59  C   UNL A   1      46.668  27.486  33.101  1.00  0.00     0.031 C 
ATOM     60  C   UNL A   1      44.037  23.855  30.821  1.00  0.00     0.029 A 
ATOM     61  N   UNL A   1      45.639  24.869  29.633  1.00  0.00    -0.354 N 
ATOM     62  C   UNL A   1      48.034  28.030  31.353  1.00  0.00     0.074 A 
ATOM     63  C   UNL A   1      47.643  28.296  32.720  1.00  0.00     0.031 C 
ATOM     64  C   UNL A   1      44.033  23.318  29.587  1.00  0.00     0.029 A 
ATOM     65  C   UNL A   1      45.034  23.991  28.762  1.00  0.00     0.049 A 
ATOM     66  H   UNL A   1      46.411  25.427  29.385  1.00  0.00     0.167 HD
ATOM     67  C   UNL A   1      49.037  28.678  30.716  1.00  0.00     0.034 A 
ATOM     68  C   UNL A   1      45.249  23.784  27.445  1.00  0.00     0.034 A 
ATOM     69  C   UNL A   1      49.421  28.427  29.357  1.00  0.00     0.049 A 
ATOM     70  C   UNL A   1      46.329  24.571  26.739  1.00  0.00     0.074 A 
ATOM     71  C   UNL A   1      50.430  29.026  28.624  1.00  0.00     0.029 A 
ATOM     72  N   UNL A   1      48.803  27.514  28.517  1.00  0.00    -0.354 N 
ATOM     73  N   UNL A   1      47.169  25.451  27.231  1.00  0.00    -0.248 NA
ATOM     74  C   UNL A   1      46.512  24.312  25.302  1.00  0.00     0.031 C 
ATOM     75  C   UNL A   1      50.406  28.493  27.333  1.00  0.00     0.029 A 
ATOM     76  C   UNL A   1      49.407  27.534  27.274  1.00  0.00     0.049 A 
ATOM     77  H   UNL A   1      48.047  26.937  28.770  1.00  0.00     0.167 HD
ATOM     78  C   UNL A   1      48.005  25.814  26.178  1.00  0.00     0.074 A 
ATOM     79  C   UNL A   1      47.583  25.044  25.026  1.00  0.00     0.031 C 
ATOM     80  C   UNL A   1      49.021  26.710  26.158  1.00  0.00     0.034 A 
BRANCH  67  81
ATOM     81  C   UNL A   1      49.805  29.709  31.498  1.00  0.00     0.023 A 
ATOM     82  C   UNL A   1      50.923  29.311  32.259  1.00  0.00     0.012 A 
ATOM     83  C   UNL A   1      49.457  31.071  31.435  1.00  0.00     0.148 A 
ATOM     84  C   UNL A   1      51.669  30.251  32.967  1.00  0.00     0.002 A 
ATOM     85  C   UNL A   1      50.233  32.007  32.107  1.00  0.00     0.091 A 
ATOM     86  F   UNL A   1      48.376  31.422  30.724  1.00  0.00    -0.205 F 
ATOM     87  C   UNL A   1      51.331  31.599  32.882  1.00  0.00     0.022 A 
BRANCH  85  88
ATOM     88  S   UNL A   1      49.929  33.774  32.003  1.00  0.00     0.127 S 
ATOM     89  O   UNL A   1      49.293  33.886  30.690  1.00  0.00    -0.237 OA
ATOM     90  O   UNL A   1      49.032  33.996  33.137  1.00  0.00    -0.237 OA
ATOM     91  O   UNL A   1      51.231  34.415  32.117  1.00  0.00    -0.744 OA
ENDBRANCH  85  88
ENDBRANCH  67  81
BRANCH  68  92
ATOM     92  C   UNL A   1      44.443  22.782  26.685  1.00  0.00     0.023 A 
ATOM     93  C   UNL A   1      43.043  22.929  26.605  1.00  0.00     0.012 A 
ATOM     94  C   UNL A   1      45.045  21.658  26.086  1.00  0.00     0.148 A 
ATOM     95  C   UNL A   1      42.257  21.955  25.986  1.00  0.00     0.002 A 
ATOM     96  C   UNL A   1      44.261  20.720  25.424  1.00  0.00     0.091 A 
ATOM     97  F   UNL A   1      46.375  21.520  26.191  1.00  0.00    -0.205 F 
ATOM     98  C   UNL A   1      42.865  20.855  25.389  1.00  0.00     0.022 A 
BRANCH  96  99
ATOM     99  S   UNL A   1      44.971  19.329  24.535  1.00  0.00     0.127 S 
ATOM    100  O   UNL A   1      44.277  19.408  23.252  1.00  0.00    -0.237 OA
ATOM    101  O   UNL A   1      46.388  19.689  24.492  1.00  0.00    -0.237 OA
ATOM    102  O   UNL A   1      44.674  18.155  25.345  1.00  0.00    -0.744 OA
ENDBRANCH  96  99
ENDBRANCH  68  92
BRANCH  80 103
ATOM    103  C   UNL A   1      49.804  26.868  24.878  1.00  0.00     0.023 A 
ATOM    104  C   UNL A   1      51.120  26.376  24.788  1.00  0.00     0.012 A 
ATOM    105  C   UNL A   1      49.197  27.433  23.739  1.00  0.00     0.148 A 
ATOM    106  C   UNL A   1      51.832  26.475  23.592  1.00  0.00     0.002 A 
ATOM    107  C   UNL A   1      49.893  27.480  22.537  1.00  0.00     0.091 A 
ATOM    108  F   UNL A   1      47.948  27.908  23.849  1.00  0.00    -0.205 F 
ATOM    109  C   UNL A   1      51.215  27.014  22.465  1.00  0.00     0.022 A 
BRANCH 107 110
ATOM    110  S   UNL A   1      49.144  28.061  21.011  1.00  0.00     0.127 S 
ATOM    111  O   UNL A   1      49.682  29.418  20.913  1.00  0.00    -0.237 OA
ATOM    112  O   UNL A   1      49.678  27.121  20.026  1.00  0.00    -0.237 OA
ATOM    113  O   UNL A   1      47.704  27.975  21.211  1.00  0.00    -0.744 OA
ENDBRANCH 107 110
ENDBRANCH  80 103
ENDBRANCH  54  55
ENDBRANCH  47  49
ENDBRANCH  46  47
ENDBRANCH  45  46
ENDBRANCH  44  45
ENDBRANCH  43  44
ENDBRANCH  42  43
ENDBRANCH   1  42
TORSDOF 25
ENDMDL
MODEL 3
REMARK VINA RESULT:      -7.1      7.092     14.269
REMARK SMILES CN(C)C(=O)C[NH+]1CCN(c2cc(C(=O)OCCOCCOCCOC(=O)c3ccc(-c4c5nc(c(-c6cccc(S(=O)(=O)[O-])c6F)c6ccc([nH]6)c(-c6cccc(S(=O)(=O)[O-])c6F)c6nc(c(-c7cccc(S(=O)(=O)[O-])c7F)c7ccc4[nH]7)C=C6)C=C5)cc3)c3cc(NC(=O)c4cccc(Cl)c4)ccc3n2)CC1
REMARK SMILES IDX 20 1 19 2 18 3 17 4 16 5 14 6 15 7 13 8 11 9 12 10 107 11
REMARK SMILES IDX 106 12 91 13 105 14 92 15 104 16 93 17 10 18 7 19 8 20
REMARK SMILES IDX 109 21 9 23 108 24 6 25 4 26 1 27 2 28 3 29 5 30 94 31 95 32
REMARK SMILES IDX 96 34 97 35 98 36 103 37 99 38 101 39 100 40 102 41 21 42
REMARK SMILES IDX 22 43 23 44 24 45 25 46 26 47 27 48 28 49 29 50 90 51 30 52
REMARK SMILES IDX 89 53 31 54 32 55 33 56 83 57 34 58 88 59 82 60 84 61 35 62
REMARK SMILES IDX 87 63 81 64 80 65 36 67 68 68 48 69 67 70 49 71 52 72 66 73
REMARK SMILES IDX 85 74 50 75 51 76 65 78 86 79 53 80 37 81 38 82 46 83 39 84
REMARK SMILES IDX 41 85 47 86 40 87 42 88 43 89 44 90 45 91 69 92 70 93 78 94
REMARK SMILES IDX 71 95 73 96 79 97 72 98 74 99 75 100 76 101 77 102 54 103
REMARK SMILES IDX 55 104 63 105 56 106 58 107 64 108 57 109 59 110 60 111
REMARK SMILES IDX 61 112 62 113
REMARK H PARENT 7 22 94 33 84 66 52 77
REMARK Flexibility Score: inf
ROOT
ATOM      1  C   UNL A   1      38.199  33.749  35.809  1.00  0.00     0.188 C 
ENDROOT
BRANCH   1   2
ATOM      2  O   UNL A   1      39.291  34.500  35.293  1.00  0.00    -0.376 OA
BRANCH   2   3
ATOM      3  C   UNL A   1      39.707  35.644  36.038  1.00  0.00     0.202 C 
BRANCH   3   4
ATOM      4  C   UNL A   1      41.198  35.999  35.980  1.00  0.00     0.261 C 
BRANCH   4   5
ATOM      5  O   UNL A   1      41.509  36.868  34.868  1.00  0.00    -0.460 OA
BRANCH   5   6
ATOM      6  C   UNL A   1      42.807  37.249  34.795  1.00  0.00     0.339 C 
ATOM      7  O   UNL A   1      43.591  37.294  35.731  1.00  0.00    -0.246 OA
BRANCH   6   8
ATOM      8  C   UNL A   1      43.268  37.417  33.395  1.00  0.00     0.073 A 
ATOM      9  C   UNL A   1      44.012  36.252  31.440  1.00  0.00     0.130 A 
ATOM     10  C   UNL A   1      43.374  36.232  32.662  1.00  0.00     0.063 A 
ATOM     11  N   UNL A   1      44.584  37.376  30.970  1.00  0.00    -0.231 NA
ATOM     12  C   UNL A   1      44.437  38.527  31.640  1.00  0.00     0.074 A 
ATOM     13  C   UNL A   1      43.719  38.633  32.841  1.00  0.00     0.017 A 
ATOM     14  C   UNL A   1      45.028  39.663  31.114  1.00  0.00     0.031 A 
ATOM     15  C   UNL A   1      43.499  39.920  33.393  1.00  0.00     0.037 A 
ATOM     16  C   UNL A   1      44.882  40.915  31.718  1.00  0.00     0.028 A 
ATOM     17  C   UNL A   1      44.094  41.062  32.859  1.00  0.00     0.042 A 
BRANCH   9  18
ATOM     18  N   UNL A   1      44.127  35.107  30.700  1.00  0.00    -0.345 N 
ATOM     19  N   UNL A   1      43.802  32.238  30.198  1.00  0.00    -0.324 N 
ATOM     20  C   UNL A   1      44.880  32.771  31.068  1.00  0.00     0.284 C 
ATOM     21  C   UNL A   1      42.652  33.175  30.268  1.00  0.00     0.284 C 
ATOM     22  H   UNL A   1      43.496  31.319  30.518  1.00  0.00     0.348 HD
ATOM     23  C   UNL A   1      45.297  34.244  30.811  1.00  0.00     0.179 C 
ATOM     24  C   UNL A   1      42.977  34.644  29.933  1.00  0.00     0.179 C 
BRANCH  19  25
ATOM     25  C   UNL A   1      44.303  32.058  28.812  1.00  0.00     0.363 C 
BRANCH  25  26
ATOM     26  C   UNL A   1      44.156  30.602  28.341  1.00  0.00     0.277 C 
ATOM     27  C   UNL A   1      44.947  28.716  27.031  1.00  0.00     0.146 C 
ATOM     28  N   UNL A   1      45.045  30.117  27.389  1.00  0.00    -0.344 N 
ATOM     29  C   UNL A   1      46.165  30.887  26.868  1.00  0.00     0.146 C 
ATOM     30  O   UNL A   1      43.284  29.879  28.839  1.00  0.00    -0.268 OA
ENDBRANCH  25  26
ENDBRANCH  19  25
ENDBRANCH   9  18
BRANCH  17  31
ATOM     31  N   UNL A   1      43.934  42.370  33.349  1.00  0.00    -0.322 N 
ATOM     32  C   UNL A   1      44.459  43.054  34.419  1.00  0.00     0.255 C 
ATOM     33  H   UNL A   1      43.313  42.912  32.810  1.00  0.00     0.170 HD
ATOM     34  O   UNL A   1      43.974  44.140  34.736  1.00  0.00    -0.269 OA
BRANCH  32  35
ATOM     35  C   UNL A   1      45.615  42.566  35.190  1.00  0.00     0.041 A 
ATOM     36  C   UNL A   1      46.472  41.636  34.586  1.00  0.00     0.014 A 
ATOM     37  C   UNL A   1      45.828  42.978  36.509  1.00  0.00     0.034 A 
ATOM     38  C   UNL A   1      47.569  41.145  35.291  1.00  0.00     0.002 A 
ATOM     39  C   UNL A   1      46.941  42.499  37.195  1.00  0.00     0.041 A 
ATOM     40  C   UNL A   1      47.802  41.577  36.597  1.00  0.00     0.020 A 
ATOM     41  Cl  UNL A   1      47.275  43.075  38.780  1.00  0.00    -0.084 Cl
ENDBRANCH  32  35
ENDBRANCH  17  31
ENDBRANCH   6   8
ENDBRANCH   5   6
ENDBRANCH   4   5
ENDBRANCH   3   4
ENDBRANCH   2   3
ENDBRANCH   1   2
BRANCH   1  42
ATOM     42  C   UNL A   1      37.679  32.565  34.964  1.00  0.00     0.188 C 
BRANCH  42  43
ATOM     43  O   UNL A   1      36.328  32.705  34.547  1.00  0.00    -0.376 OA
BRANCH  43  44
ATOM     44  C   UNL A   1      36.027  33.914  33.861  1.00  0.00     0.202 C 
BRANCH  44  45
ATOM     45  C   UNL A   1      34.986  33.851  32.727  1.00  0.00     0.261 C 
BRANCH  45  46
ATOM     46  O   UNL A   1      34.709  32.553  32.179  1.00  0.00    -0.460 OA
BRANCH  46  47
ATOM     47  C   UNL A   1      35.010  32.334  30.874  1.00  0.00     0.338 C 
ATOM     48  O   UNL A   1      34.451  32.805  29.912  1.00  0.00    -0.246 OA
BRANCH  47  49
ATOM     49  C   UNL A   1      36.312  31.613  30.846  1.00  0.00     0.060 A 
ATOM     50  C   UNL A   1      36.444  30.436  31.599  1.00  0.00     0.016 A 
ATOM     51  C   UNL A   1      37.355  32.037  30.018  1.00  0.00     0.016 A 
ATOM     52  C   UNL A   1      37.620  29.682  31.521  1.00  0.00     0.010 A 
ATOM     53  C   UNL A   1      38.543  31.299  29.968  1.00  0.00     0.010 A 
ATOM     54  C   UNL A   1      38.690  30.129  30.733  1.00  0.00    -0.014 A 
BRANCH  54  55
ATOM     55  C   UNL A   1      40.032  29.516  30.898  1.00  0.00     0.031 A 
ATOM     56  C   UNL A   1      40.948  30.123  31.927  1.00  0.00     0.074 A 
ATOM     57  C   UNL A   1      40.439  28.463  30.165  1.00  0.00     0.049 A 
ATOM     58  N   UNL A   1      42.178  29.810  32.233  1.00  0.00    -0.248 NA
ATOM     59  C   UNL A   1      40.393  31.234  32.721  1.00  0.00     0.031 C 
ATOM     60  C   UNL A   1      39.646  27.771  29.151  1.00  0.00     0.029 A 
ATOM     61  N   UNL A   1      41.648  27.807  30.150  1.00  0.00    -0.354 N 
ATOM     62  C   UNL A   1      42.551  30.692  33.240  1.00  0.00     0.074 A 
ATOM     63  C   UNL A   1      41.422  31.561  33.488  1.00  0.00     0.031 C 
ATOM     64  C   UNL A   1      40.402  26.811  28.586  1.00  0.00     0.029 A 
ATOM     65  C   UNL A   1      41.739  26.836  29.178  1.00  0.00     0.049 A 
ATOM     66  H   UNL A   1      42.380  28.013  30.775  1.00  0.00     0.167 HD
ATOM     67  C   UNL A   1      43.723  30.768  33.912  1.00  0.00     0.034 A 
ATOM     68  C   UNL A   1      42.792  26.081  28.796  1.00  0.00     0.034 A 
ATOM     69  C   UNL A   1      44.850  29.917  33.662  1.00  0.00     0.049 A 
ATOM     70  C   UNL A   1      44.112  26.235  29.517  1.00  0.00     0.074 A 
ATOM     71  C   UNL A   1      46.079  29.910  34.296  1.00  0.00     0.029 A 
ATOM     72  N   UNL A   1      44.894  28.930  32.690  1.00  0.00    -0.354 N 
ATOM     73  N   UNL A   1      44.414  27.001  30.539  1.00  0.00    -0.248 NA
ATOM     74  C   UNL A   1      45.227  25.395  29.052  1.00  0.00     0.031 C 
ATOM     75  C   UNL A   1      46.877  28.936  33.689  1.00  0.00     0.029 A 
ATOM     76  C   UNL A   1      46.130  28.310  32.704  1.00  0.00     0.049 A 
ATOM     77  H   UNL A   1      44.156  28.705  32.080  1.00  0.00     0.167 HD
ATOM     78  C   UNL A   1      45.734  26.701  30.865  1.00  0.00     0.074 A 
ATOM     79  C   UNL A   1      46.168  25.671  29.945  1.00  0.00     0.031 C 
ATOM     80  C   UNL A   1      46.523  27.237  31.828  1.00  0.00     0.034 A 
BRANCH  67  81
ATOM     81  C   UNL A   1      43.833  31.799  35.002  1.00  0.00     0.023 A 
ATOM     82  C   UNL A   1      44.450  33.036  34.727  1.00  0.00     0.012 A 
ATOM     83  C   UNL A   1      43.279  31.567  36.275  1.00  0.00     0.148 A 
ATOM     84  C   UNL A   1      44.537  34.019  35.711  1.00  0.00     0.002 A 
ATOM     85  C   UNL A   1      43.329  32.569  37.236  1.00  0.00     0.091 A 
ATOM     86  F   UNL A   1      42.718  30.374  36.520  1.00  0.00    -0.205 F 
ATOM     87  C   UNL A   1      43.967  33.790  36.960  1.00  0.00     0.022 A 
BRANCH  85  88
ATOM     88  S   UNL A   1      42.561  32.404  38.851  1.00  0.00     0.127 S 
ATOM     89  O   UNL A   1      41.172  32.123  38.489  1.00  0.00    -0.237 OA
ATOM     90  O   UNL A   1      43.285  31.267  39.419  1.00  0.00    -0.237 OA
ATOM     91  O   UNL A   1      42.779  33.671  39.533  1.00  0.00    -0.744 OA
ENDBRANCH  85  88
ENDBRANCH  67  81
BRANCH  68  92
ATOM     92  C   UNL A   1      42.664  25.094  27.682  1.00  0.00     0.023 A 
ATOM     93  C   UNL A   1      42.930  25.498  26.358  1.00  0.00     0.012 A 
ATOM     94  C   UNL A   1      42.231  23.775  27.919  1.00  0.00     0.148 A 
ATOM     95  C   UNL A   1      42.722  24.624  25.289  1.00  0.00     0.002 A 
ATOM     96  C   UNL A   1      42.079  22.892  26.854  1.00  0.00     0.091 A 
ATOM     97  F   UNL A   1      41.959  23.412  29.180  1.00  0.00    -0.205 F 
ATOM     98  C   UNL A   1      42.304  23.320  25.537  1.00  0.00     0.022 A 
BRANCH  96  99
ATOM     99  S   UNL A   1      41.648  21.164  27.092  1.00  0.00     0.127 S 
ATOM    100  O   UNL A   1      40.372  21.268  27.794  1.00  0.00    -0.237 OA
ATOM    101  O   UNL A   1      41.556  20.683  25.713  1.00  0.00    -0.237 OA
ATOM    102  O   UNL A   1      42.747  20.589  27.855  1.00  0.00    -0.744 OA
ENDBRANCH  96  99
ENDBRANCH  68  92
BRANCH  80 103
ATOM    103  C   UNL A   1      47.915  26.681  31.997  1.00  0.00     0.023 A 
ATOM    104  C   UNL A   1      48.165  25.674  32.950  1.00  0.00     0.012 A 
ATOM    105  C   UNL A   1      48.957  27.102  31.147  1.00  0.00     0.148 A 
ATOM    106  C   UNL A   1      49.439  25.121  33.078  1.00  0.00     0.002 A 
ATOM    107  C   UNL A   1      50.209  26.509  31.243  1.00  0.00     0.091 A 
ATOM    108  F   UNL A   1      48.702  28.071  30.255  1.00  0.00    -0.205 F 
ATOM    109  C   UNL A   1      50.457  25.528  32.217  1.00  0.00     0.022 A 
BRANCH 107 110
ATOM    110  S   UNL A   1      51.549  26.895  30.111  1.00  0.00     0.127 S 
ATOM    111  O   UNL A   1      51.103  26.236  28.885  1.00  0.00    -0.237 OA
ATOM    112  O   UNL A   1      51.507  28.357  30.067  1.00  0.00    -0.237 OA
ATOM    113  O   UNL A   1      52.756  26.343  30.712  1.00  0.00    -0.744 OA
ENDBRANCH 107 110
ENDBRANCH  80 103
ENDBRANCH  54  55
ENDBRANCH  47  49
ENDBRANCH  46  47
ENDBRANCH  45  46
ENDBRANCH  44  45
ENDBRANCH  43  44
ENDBRANCH  42  43
ENDBRANCH   1  42
TORSDOF 25
ENDMDL
