MODEL 1
REMARK VINA RESULT:     -11.3      0.000      0.000
REMARK SMILES O=C(OCCOCCOCCOC(=O)c1ccccc1/C=N\NC(=S)NCc1ccccc1)c1ccc(-c2c3nc(c(-c4cccc(S(=O)(=O)[O-])c4F)c4ccc([nH]4)c(-c4cccc(S(=O)(=O)[O-])c4F)c4nc(c(-c5cccc(S(=O)(=O)[O-])c5F)c5ccc2[nH]5)C=C4)C=C3)cc1
REMARK SMILES IDX 9 1 8 2 7 3 6 4 5 5 4 6 3 7 2 8 1 9 34 10 35 11 96 12 36 13
REMARK SMILES IDX 95 14 37 15 38 16 39 17 89 18 40 19 94 20 88 21 90 22 41 23
REMARK SMILES IDX 93 24 87 25 86 26 42 28 74 29 54 30 73 31 55 32 58 33 72 34
REMARK SMILES IDX 91 35 56 36 57 37 71 39 92 40 59 41 43 42 44 43 52 44 45 45
REMARK SMILES IDX 47 46 53 47 46 48 48 49 49 50 50 51 51 52 75 53 76 54 84 55
REMARK SMILES IDX 77 56 79 57 85 58 78 59 80 60 81 61 82 62 83 63 60 64 61 65
REMARK SMILES IDX 69 66 62 67 64 68 70 69 63 70 65 71 66 72 67 73 68 74 10 75
REMARK SMILES IDX 11 76 12 77 13 78 14 79 15 80 16 81 20 82 17 83 19 84 18 85
REMARK SMILES IDX 21 86 22 87 23 88 24 90 25 91 26 92 27 94 28 95 29 96 33 97
REMARK SMILES IDX 30 98 32 99 31 100
REMARK H PARENT 90 27 58 38 23 89 26 93
REMARK Flexibility Score: inf
ROOT
ATOM      1  O   UNL A   1      35.072  22.063  24.886  1.00  0.00    -0.376 OA
ENDROOT
BRANCH   1   2
ATOM      2  C   UNL A   1      36.171  21.760  25.750  1.00  0.00     0.188 C 
BRANCH   2   3
ATOM      3  C   UNL A   1      37.489  21.421  25.033  1.00  0.00     0.188 C 
BRANCH   3   4
ATOM      4  O   UNL A   1      37.529  20.020  24.790  1.00  0.00    -0.376 OA
BRANCH   4   5
ATOM      5  C   UNL A   1      38.621  19.235  25.241  1.00  0.00     0.202 C 
BRANCH   5   6
ATOM      6  C   UNL A   1      39.823  19.857  25.962  1.00  0.00     0.261 C 
BRANCH   6   7
ATOM      7  O   UNL A   1      40.932  18.966  26.207  1.00  0.00    -0.460 OA
BRANCH   7   8
ATOM      8  C   UNL A   1      42.240  19.068  25.858  1.00  0.00     0.338 C 
ATOM      9  O   UNL A   1      42.908  18.042  25.750  1.00  0.00    -0.246 OA
BRANCH   8  10
ATOM     10  C   UNL A   1      42.949  20.379  25.999  1.00  0.00     0.060 A 
ATOM     11  C   UNL A   1      43.480  21.111  24.939  1.00  0.00     0.016 A 
ATOM     12  C   UNL A   1      42.896  20.990  27.271  1.00  0.00     0.016 A 
ATOM     13  C   UNL A   1      43.786  22.475  25.100  1.00  0.00     0.010 A 
ATOM     14  C   UNL A   1      43.190  22.357  27.430  1.00  0.00     0.010 A 
ATOM     15  C   UNL A   1      43.600  23.128  26.331  1.00  0.00    -0.014 A 
BRANCH  15  16
ATOM     16  C   UNL A   1      44.124  24.519  26.503  1.00  0.00     0.031 A 
ATOM     17  C   UNL A   1      43.137  25.508  26.993  1.00  0.00     0.074 A 
ATOM     18  C   UNL A   1      45.399  24.920  26.306  1.00  0.00     0.049 A 
ATOM     19  N   UNL A   1      43.351  26.716  27.423  1.00  0.00    -0.248 NA
ATOM     20  C   UNL A   1      41.726  25.085  26.989  1.00  0.00     0.031 C 
ATOM     21  C   UNL A   1      46.397  24.107  25.664  1.00  0.00     0.029 A 
ATOM     22  N   UNL A   1      46.095  26.079  26.571  1.00  0.00    -0.354 N 
ATOM     23  C   UNL A   1      42.105  27.180  27.784  1.00  0.00     0.074 A 
ATOM     24  C   UNL A   1      41.132  26.170  27.443  1.00  0.00     0.031 C 
ATOM     25  C   UNL A   1      47.594  24.707  25.647  1.00  0.00     0.029 A 
ATOM     26  C   UNL A   1      47.437  26.029  26.215  1.00  0.00     0.049 A 
ATOM     27  H   UNL A   1      45.678  26.872  26.976  1.00  0.00     0.167 HD
ATOM     28  C   UNL A   1      41.804  28.340  28.397  1.00  0.00     0.034 A 
ATOM     29  C   UNL A   1      48.419  26.952  26.299  1.00  0.00     0.034 A 
ATOM     30  C   UNL A   1      42.748  29.388  28.605  1.00  0.00     0.049 A 
ATOM     31  C   UNL A   1      48.027  28.288  26.864  1.00  0.00     0.074 A 
ATOM     32  C   UNL A   1      42.531  30.647  29.121  1.00  0.00     0.029 A 
ATOM     33  N   UNL A   1      44.088  29.317  28.240  1.00  0.00    -0.354 N 
ATOM     34  N   UNL A   1      46.858  28.662  27.326  1.00  0.00    -0.248 NA
ATOM     35  C   UNL A   1      49.064  29.325  26.932  1.00  0.00     0.031 C 
ATOM     36  C   UNL A   1      43.733  31.356  29.031  1.00  0.00     0.029 A 
ATOM     37  C   UNL A   1      44.712  30.517  28.517  1.00  0.00     0.049 A 
ATOM     38  H   UNL A   1      44.526  28.529  27.845  1.00  0.00     0.167 HD
ATOM     39  C   UNL A   1      47.024  29.963  27.769  1.00  0.00     0.074 A 
ATOM     40  C   UNL A   1      48.415  30.306  27.542  1.00  0.00     0.031 C 
ATOM     41  C   UNL A   1      46.109  30.802  28.307  1.00  0.00     0.034 A 
BRANCH  28  42
ATOM     42  C   UNL A   1      40.377  28.464  28.816  1.00  0.00     0.023 A 
ATOM     43  C   UNL A   1      39.411  28.845  27.856  1.00  0.00     0.012 A 
ATOM     44  C   UNL A   1      40.031  28.391  30.172  1.00  0.00     0.148 A 
ATOM     45  C   UNL A   1      38.130  29.210  28.256  1.00  0.00     0.002 A 
ATOM     46  C   UNL A   1      38.740  28.714  30.557  1.00  0.00     0.091 A 
ATOM     47  F   UNL A   1      40.988  28.080  31.058  1.00  0.00    -0.205 F 
ATOM     48  C   UNL A   1      37.795  29.143  29.606  1.00  0.00     0.022 A 
BRANCH  46  49
ATOM     49  S   UNL A   1      38.204  28.645  32.264  1.00  0.00     0.127 S 
ATOM     50  O   UNL A   1      38.413  27.233  32.585  1.00  0.00    -0.237 OA
ATOM     51  O   UNL A   1      39.142  29.565  32.905  1.00  0.00    -0.237 OA
ATOM     52  O   UNL A   1      36.813  29.075  32.271  1.00  0.00    -0.744 OA
ENDBRANCH  46  49
ENDBRANCH  28  42
BRANCH  29  53
ATOM     53  C   UNL A   1      49.834  26.707  25.849  1.00  0.00     0.023 A 
ATOM     54  C   UNL A   1      50.807  26.301  26.790  1.00  0.00     0.012 A 
ATOM     55  C   UNL A   1      50.252  26.965  24.527  1.00  0.00     0.148 A 
ATOM     56  C   UNL A   1      52.161  26.222  26.443  1.00  0.00     0.002 A 
ATOM     57  C   UNL A   1      51.597  26.838  24.174  1.00  0.00     0.091 A 
ATOM     58  F   UNL A   1      49.328  27.349  23.636  1.00  0.00    -0.205 F 
ATOM     59  C   UNL A   1      52.557  26.492  25.136  1.00  0.00     0.022 A 
BRANCH  57  60
ATOM     60  S   UNL A   1      52.200  27.103  22.499  1.00  0.00     0.127 S 
ATOM     61  O   UNL A   1      50.989  26.890  21.711  1.00  0.00    -0.237 OA
ATOM     62  O   UNL A   1      52.660  28.493  22.555  1.00  0.00    -0.237 OA
ATOM     63  O   UNL A   1      53.257  26.121  22.307  1.00  0.00    -0.744 OA
ENDBRANCH  57  60
ENDBRANCH  29  53
BRANCH  41  64
ATOM     64  C   UNL A   1      46.604  32.140  28.762  1.00  0.00     0.023 A 
ATOM     65  C   UNL A   1      47.100  32.318  30.066  1.00  0.00     0.012 A 
ATOM     66  C   UNL A   1      46.641  33.203  27.842  1.00  0.00     0.148 A 
ATOM     67  C   UNL A   1      47.604  33.555  30.457  1.00  0.00     0.002 A 
ATOM     68  C   UNL A   1      47.205  34.410  28.218  1.00  0.00     0.091 A 
ATOM     69  F   UNL A   1      46.129  33.008  26.618  1.00  0.00    -0.205 F 
ATOM     70  C   UNL A   1      47.672  34.594  29.529  1.00  0.00     0.022 A 
BRANCH  68  71
ATOM     71  S   UNL A   1      47.447  35.746  27.048  1.00  0.00     0.127 S 
ATOM     72  O   UNL A   1      46.093  36.283  26.926  1.00  0.00    -0.237 OA
ATOM     73  O   UNL A   1      48.388  36.611  27.760  1.00  0.00    -0.237 OA
ATOM     74  O   UNL A   1      47.985  35.133  25.841  1.00  0.00    -0.744 OA
ENDBRANCH  68  71
ENDBRANCH  41  64
ENDBRANCH  15  16
ENDBRANCH   8  10
ENDBRANCH   7   8
ENDBRANCH   6   7
ENDBRANCH   5   6
ENDBRANCH   4   5
ENDBRANCH   3   4
ENDBRANCH   2   3
ENDBRANCH   1   2
BRANCH   1  75
ATOM     75  C   UNL A   1      35.182  23.251  24.117  1.00  0.00     0.202 C 
BRANCH  75  76
ATOM     76  C   UNL A   1      34.037  23.629  23.157  1.00  0.00     0.261 C 
BRANCH  76  77
ATOM     77  O   UNL A   1      34.246  24.695  22.221  1.00  0.00    -0.460 OA
BRANCH  77  78
ATOM     78  C   UNL A   1      33.549  25.857  22.356  1.00  0.00     0.338 C 
ATOM     79  O   UNL A   1      33.317  26.678  21.492  1.00  0.00    -0.246 OA
BRANCH  78  80
ATOM     80  C   UNL A   1      32.980  25.850  23.738  1.00  0.00     0.068 A 
ATOM     81  C   UNL A   1      33.919  26.698  25.033  1.00  0.00     0.016 A 
ATOM     82  C   UNL A   1      31.168  25.772  23.868  1.00  0.00     0.009 A 
ATOM     83  C   UNL A   1      33.061  27.404  26.491  1.00  0.00     0.001 A 
ATOM     84  C   UNL A   1      30.303  26.448  25.328  1.00  0.00     0.010 A 
ATOM     85  C   UNL A   1      31.267  27.246  26.640  1.00  0.00     0.001 A 
BRANCH  82  86
ATOM     86  C   UNL A   1      30.567  24.578  23.335  1.00  0.00     0.142 C 
ATOM     87  N   UNL A   1      30.566  23.509  24.054  1.00  0.00    -0.181 NA
BRANCH  87  88
ATOM     88  N   UNL A   1      31.278  23.552  25.242  1.00  0.00    -0.254 N 
ATOM     89  H   UNL A   1      31.318  24.436  25.674  1.00  0.00     0.193 HD
BRANCH  88  90
ATOM     90  C   UNL A   1      31.931  22.552  25.901  1.00  0.00     0.187 C 
ATOM     91  S   UNL A   1      32.650  22.919  27.387  1.00  0.00    -0.039 S 
BRANCH  90  92
ATOM     92  N   UNL A   1      32.135  21.228  25.445  1.00  0.00    -0.357 N 
ATOM     93  H   UNL A   1      32.261  20.717  26.277  1.00  0.00     0.163 HD
BRANCH  92  94
ATOM     94  C   UNL A   1      32.309  19.790  23.963  1.00  0.00     0.151 C 
BRANCH  94  95
ATOM     95  C   UNL A   1      32.371  18.151  23.901  1.00  0.00    -0.029 A 
ATOM     96  C   UNL A   1      33.155  17.626  22.851  1.00  0.00     0.005 A 
ATOM     97  C   UNL A   1      32.395  17.568  25.187  1.00  0.00     0.005 A 
ATOM     98  C   UNL A   1      34.214  16.816  23.181  1.00  0.00     0.000 A 
ATOM     99  C   UNL A   1      33.444  16.741  25.494  1.00  0.00     0.000 A 
ATOM    100  C   UNL A   1      34.400  16.491  24.516  1.00  0.00     0.000 A 
ENDBRANCH  94  95
ENDBRANCH  92  94
ENDBRANCH  90  92
ENDBRANCH  88  90
ENDBRANCH  87  88
ENDBRANCH  82  86
ENDBRANCH  78  80
ENDBRANCH  77  78
ENDBRANCH  76  77
ENDBRANCH  75  76
ENDBRANCH   1  75
TORSDOF 26
ENDMDL
MODEL 2
REMARK VINA RESULT:     -10.4      3.520      8.892
REMARK SMILES O=C(OCCOCCOCCOC(=O)c1ccccc1/C=N\NC(=S)NCc1ccccc1)c1ccc(-c2c3nc(c(-c4cccc(S(=O)(=O)[O-])c4F)c4ccc([nH]4)c(-c4cccc(S(=O)(=O)[O-])c4F)c4nc(c(-c5cccc(S(=O)(=O)[O-])c5F)c5ccc2[nH]5)C=C4)C=C3)cc1
REMARK SMILES IDX 9 1 8 2 7 3 6 4 5 5 4 6 3 7 2 8 1 9 34 10 35 11 96 12 36 13
REMARK SMILES IDX 95 14 37 15 38 16 39 17 89 18 40 19 94 20 88 21 90 22 41 23
REMARK SMILES IDX 93 24 87 25 86 26 42 28 74 29 54 30 73 31 55 32 58 33 72 34
REMARK SMILES IDX 91 35 56 36 57 37 71 39 92 40 59 41 43 42 44 43 52 44 45 45
REMARK SMILES IDX 47 46 53 47 46 48 48 49 49 50 50 51 51 52 75 53 76 54 84 55
REMARK SMILES IDX 77 56 79 57 85 58 78 59 80 60 81 61 82 62 83 63 60 64 61 65
REMARK SMILES IDX 69 66 62 67 64 68 70 69 63 70 65 71 66 72 67 73 68 74 10 75
REMARK SMILES IDX 11 76 12 77 13 78 14 79 15 80 16 81 20 82 17 83 19 84 18 85
REMARK SMILES IDX 21 86 22 87 23 88 24 90 25 91 26 92 27 94 28 95 29 96 33 97
REMARK SMILES IDX 30 98 32 99 31 100
REMARK H PARENT 90 27 58 38 23 89 26 93
REMARK Flexibility Score: inf
ROOT
ATOM      1  O   UNL A   1      32.303  26.863  26.043  1.00  0.00    -0.376 OA
ENDROOT
BRANCH   1   2
ATOM      2  C   UNL A   1      33.729  26.804  26.144  1.00  0.00     0.188 C 
BRANCH   2   3
ATOM      3  C   UNL A   1      34.418  25.889  25.117  1.00  0.00     0.188 C 
BRANCH   3   4
ATOM      4  O   UNL A   1      34.797  24.681  25.765  1.00  0.00    -0.376 OA
BRANCH   4   5
ATOM      5  C   UNL A   1      36.150  24.257  25.776  1.00  0.00     0.202 C 
BRANCH   5   6
ATOM      6  C   UNL A   1      36.562  22.873  26.292  1.00  0.00     0.261 C 
BRANCH   6   7
ATOM      7  O   UNL A   1      37.906  22.459  25.965  1.00  0.00    -0.460 OA
BRANCH   7   8
ATOM      8  C   UNL A   1      39.103  22.893  26.435  1.00  0.00     0.338 C 
ATOM      9  O   UNL A   1      39.969  22.065  26.708  1.00  0.00    -0.246 OA
BRANCH   8  10
ATOM     10  C   UNL A   1      39.229  24.279  26.987  1.00  0.00     0.060 A 
ATOM     11  C   UNL A   1      38.905  24.645  28.292  1.00  0.00     0.016 A 
ATOM     12  C   UNL A   1      39.904  25.219  26.178  1.00  0.00     0.016 A 
ATOM     13  C   UNL A   1      39.395  25.847  28.835  1.00  0.00     0.010 A 
ATOM     14  C   UNL A   1      40.405  26.416  26.725  1.00  0.00     0.010 A 
ATOM     15  C   UNL A   1      40.191  26.724  28.077  1.00  0.00    -0.014 A 
BRANCH  15  16
ATOM     16  C   UNL A   1      40.518  28.073  28.634  1.00  0.00     0.031 A 
ATOM     17  C   UNL A   1      41.953  28.309  28.914  1.00  0.00     0.074 A 
ATOM     18  C   UNL A   1      39.644  29.083  28.843  1.00  0.00     0.049 A 
ATOM     19  N   UNL A   1      42.546  29.430  29.199  1.00  0.00    -0.248 NA
ATOM     20  C   UNL A   1      42.831  27.127  28.876  1.00  0.00     0.031 C 
ATOM     21  C   UNL A   1      38.216  28.921  28.785  1.00  0.00     0.029 A 
ATOM     22  N   UNL A   1      39.772  30.414  29.172  1.00  0.00    -0.354 N 
ATOM     23  C   UNL A   1      43.876  29.095  29.329  1.00  0.00     0.074 A 
ATOM     24  C   UNL A   1      43.995  27.663  29.183  1.00  0.00     0.031 C 
ATOM     25  C   UNL A   1      37.574  30.082  28.967  1.00  0.00     0.029 A 
ATOM     26  C   UNL A   1      38.565  31.098  29.253  1.00  0.00     0.049 A 
ATOM     27  H   UNL A   1      40.642  30.844  29.335  1.00  0.00     0.167 HD
ATOM     28  C   UNL A   1      44.921  29.923  29.508  1.00  0.00     0.034 A 
ATOM     29  C   UNL A   1      38.284  32.382  29.561  1.00  0.00     0.034 A 
ATOM     30  C   UNL A   1      44.782  31.315  29.788  1.00  0.00     0.049 A 
ATOM     31  C   UNL A   1      39.460  33.257  29.888  1.00  0.00     0.074 A 
ATOM     32  C   UNL A   1      45.766  32.231  30.090  1.00  0.00     0.029 A 
ATOM     33  N   UNL A   1      43.563  31.979  29.865  1.00  0.00    -0.354 N 
ATOM     34  N   UNL A   1      40.734  32.945  29.876  1.00  0.00    -0.248 NA
ATOM     35  C   UNL A   1      39.183  34.650  30.265  1.00  0.00     0.031 C 
ATOM     36  C   UNL A   1      45.140  33.444  30.392  1.00  0.00     0.029 A 
ATOM     37  C   UNL A   1      43.771  33.298  30.217  1.00  0.00     0.049 A 
ATOM     38  H   UNL A   1      42.684  31.570  29.694  1.00  0.00     0.167 HD
ATOM     39  C   UNL A   1      41.412  34.104  30.208  1.00  0.00     0.074 A 
ATOM     40  C   UNL A   1      40.409  35.136  30.395  1.00  0.00     0.031 C 
ATOM     41  C   UNL A   1      42.743  34.299  30.355  1.00  0.00     0.034 A 
BRANCH  28  42
ATOM     42  C   UNL A   1      46.255  29.261  29.427  1.00  0.00     0.023 A 
ATOM     43  C   UNL A   1      46.840  28.751  30.609  1.00  0.00     0.012 A 
ATOM     44  C   UNL A   1      46.997  29.312  28.240  1.00  0.00     0.148 A 
ATOM     45  C   UNL A   1      48.174  28.356  30.619  1.00  0.00     0.002 A 
ATOM     46  C   UNL A   1      48.312  28.874  28.247  1.00  0.00     0.091 A 
ATOM     47  F   UNL A   1      46.427  29.852  27.154  1.00  0.00    -0.205 F 
ATOM     48  C   UNL A   1      48.908  28.417  29.437  1.00  0.00     0.022 A 
BRANCH  46  49
ATOM     49  S   UNL A   1      49.337  28.896  26.779  1.00  0.00     0.127 S 
ATOM     50  O   UNL A   1      50.412  27.978  27.153  1.00  0.00    -0.237 OA
ATOM     51  O   UNL A   1      48.415  28.382  25.768  1.00  0.00    -0.237 OA
ATOM     52  O   UNL A   1      49.751  30.280  26.593  1.00  0.00    -0.744 OA
ENDBRANCH  46  49
ENDBRANCH  28  42
BRANCH  29  53
ATOM     53  C   UNL A   1      36.889  32.943  29.601  1.00  0.00     0.023 A 
ATOM     54  C   UNL A   1      36.220  33.245  28.393  1.00  0.00     0.012 A 
ATOM     55  C   UNL A   1      36.252  33.274  30.816  1.00  0.00     0.148 A 
ATOM     56  C   UNL A   1      34.992  33.917  28.394  1.00  0.00     0.002 A 
ATOM     57  C   UNL A   1      35.005  33.902  30.811  1.00  0.00     0.091 A 
ATOM     58  F   UNL A   1      36.887  32.987  31.960  1.00  0.00    -0.205 F 
ATOM     59  C   UNL A   1      34.385  34.247  29.602  1.00  0.00     0.022 A 
BRANCH  57  60
ATOM     60  S   UNL A   1      34.110  34.313  32.318  1.00  0.00     0.127 S 
ATOM     61  O   UNL A   1      35.063  35.182  33.002  1.00  0.00    -0.237 OA
ATOM     62  O   UNL A   1      32.922  34.992  31.794  1.00  0.00    -0.237 OA
ATOM     63  O   UNL A   1      33.841  33.038  32.969  1.00  0.00    -0.744 OA
ENDBRANCH  57  60
ENDBRANCH  29  53
BRANCH  41  64
ATOM     64  C   UNL A   1      43.193  35.695  30.654  1.00  0.00     0.023 A 
ATOM     65  C   UNL A   1      43.504  36.086  31.969  1.00  0.00     0.012 A 
ATOM     66  C   UNL A   1      43.378  36.596  29.590  1.00  0.00     0.148 A 
ATOM     67  C   UNL A   1      43.970  37.372  32.223  1.00  0.00     0.002 A 
ATOM     68  C   UNL A   1      43.905  37.851  29.842  1.00  0.00     0.091 A 
ATOM     69  F   UNL A   1      43.040  36.202  28.352  1.00  0.00    -0.205 F 
ATOM     70  C   UNL A   1      44.186  38.248  31.159  1.00  0.00     0.022 A 
BRANCH  68  71
ATOM     71  S   UNL A   1      44.333  38.980  28.518  1.00  0.00     0.127 S 
ATOM     72  O   UNL A   1      45.174  39.952  29.216  1.00  0.00    -0.237 OA
ATOM     73  O   UNL A   1      45.049  38.106  27.588  1.00  0.00    -0.237 OA
ATOM     74  O   UNL A   1      43.072  39.500  28.008  1.00  0.00    -0.744 OA
ENDBRANCH  68  71
ENDBRANCH  41  64
ENDBRANCH  15  16
ENDBRANCH   8  10
ENDBRANCH   7   8
ENDBRANCH   6   7
ENDBRANCH   5   6
ENDBRANCH   4   5
ENDBRANCH   3   4
ENDBRANCH   2   3
ENDBRANCH   1   2
BRANCH   1  75
ATOM     75  C   UNL A   1      31.581  25.825  26.690  1.00  0.00     0.202 C 
BRANCH  75  76
ATOM     76  C   UNL A   1      30.708  24.881  25.841  1.00  0.00     0.261 C 
BRANCH  76  77
ATOM     77  O   UNL A   1      31.232  24.387  24.601  1.00  0.00    -0.460 OA
BRANCH  77  78
ATOM     78  C   UNL A   1      30.490  24.496  23.464  1.00  0.00     0.338 C 
ATOM     79  O   UNL A   1      29.700  23.687  23.024  1.00  0.00    -0.246 OA
BRANCH  78  80
ATOM     80  C   UNL A   1      30.712  25.880  22.947  1.00  0.00     0.068 A 
ATOM     81  C   UNL A   1      29.723  27.213  23.673  1.00  0.00     0.016 A 
ATOM     82  C   UNL A   1      32.379  26.256  22.325  1.00  0.00     0.009 A 
ATOM     83  C   UNL A   1      30.364  28.929  23.713  1.00  0.00     0.001 A 
ATOM     84  C   UNL A   1      33.019  27.968  22.335  1.00  0.00     0.010 A 
ATOM     85  C   UNL A   1      31.991  29.296  23.016  1.00  0.00     0.001 A 
BRANCH  82  86
ATOM     86  C   UNL A   1      32.795  25.485  21.184  1.00  0.00     0.142 C 
ATOM     87  N   UNL A   1      33.353  24.341  21.377  1.00  0.00    -0.181 NA
BRANCH  87  88
ATOM     88  N   UNL A   1      33.642  23.998  22.689  1.00  0.00    -0.254 N 
ATOM     89  H   UNL A   1      33.538  24.726  23.343  1.00  0.00     0.193 HD
BRANCH  88  90
ATOM     90  C   UNL A   1      34.048  22.803  23.206  1.00  0.00     0.187 C 
ATOM     91  S   UNL A   1      35.685  22.398  23.076  1.00  0.00    -0.039 S 
BRANCH  90  92
ATOM     92  N   UNL A   1      33.229  21.813  23.797  1.00  0.00    -0.357 N 
ATOM     93  H   UNL A   1      32.318  22.164  23.671  1.00  0.00     0.163 HD
BRANCH  92  94
ATOM     94  C   UNL A   1      32.921  20.018  24.788  1.00  0.00     0.151 C 
BRANCH  94  95
ATOM     95  C   UNL A   1      32.557  18.475  24.364  1.00  0.00    -0.029 A 
ATOM     96  C   UNL A   1      33.025  18.083  23.091  1.00  0.00     0.005 A 
ATOM     97  C   UNL A   1      32.617  17.590  25.463  1.00  0.00     0.005 A 
ATOM     98  C   UNL A   1      33.880  17.012  23.020  1.00  0.00     0.000 A 
ATOM     99  C   UNL A   1      33.455  16.511  25.370  1.00  0.00     0.000 A 
ATOM    100  C   UNL A   1      34.167  16.324  24.190  1.00  0.00     0.000 A 
ENDBRANCH  94  95
ENDBRANCH  92  94
ENDBRANCH  90  92
ENDBRANCH  88  90
ENDBRANCH  87  88
ENDBRANCH  82  86
ENDBRANCH  78  80
ENDBRANCH  77  78
ENDBRANCH  76  77
ENDBRANCH  75  76
ENDBRANCH   1  75
TORSDOF 26
ENDMDL
MODEL 3
REMARK VINA RESULT:     -10.2      3.491      6.183
REMARK SMILES O=C(OCCOCCOCCOC(=O)c1ccccc1/C=N\NC(=S)NCc1ccccc1)c1ccc(-c2c3nc(c(-c4cccc(S(=O)(=O)[O-])c4F)c4ccc([nH]4)c(-c4cccc(S(=O)(=O)[O-])c4F)c4nc(c(-c5cccc(S(=O)(=O)[O-])c5F)c5ccc2[nH]5)C=C4)C=C3)cc1
REMARK SMILES IDX 9 1 8 2 7 3 6 4 5 5 4 6 3 7 2 8 1 9 34 10 35 11 96 12 36 13
REMARK SMILES IDX 95 14 37 15 38 16 39 17 89 18 40 19 94 20 88 21 90 22 41 23
REMARK SMILES IDX 93 24 87 25 86 26 42 28 74 29 54 30 73 31 55 32 58 33 72 34
REMARK SMILES IDX 91 35 56 36 57 37 71 39 92 40 59 41 43 42 44 43 52 44 45 45
REMARK SMILES IDX 47 46 53 47 46 48 48 49 49 50 50 51 51 52 75 53 76 54 84 55
REMARK SMILES IDX 77 56 79 57 85 58 78 59 80 60 81 61 82 62 83 63 60 64 61 65
REMARK SMILES IDX 69 66 62 67 64 68 70 69 63 70 65 71 66 72 67 73 68 74 10 75
REMARK SMILES IDX 11 76 12 77 13 78 14 79 15 80 16 81 20 82 17 83 19 84 18 85
REMARK SMILES IDX 21 86 22 87 23 88 24 90 25 91 26 92 27 94 28 95 29 96 33 97
REMARK SMILES IDX 30 98 32 99 31 100
REMARK H PARENT 90 27 58 38 23 89 26 93
REMARK Flexibility Score: inf
ROOT
ATOM      1  O   UNL A   1      38.270  24.227  27.497  1.00  0.00    -0.376 OA
ENDROOT
BRANCH   1   2
ATOM      2  C   UNL A   1      39.433  24.981  27.851  1.00  0.00     0.188 C 
BRANCH   2   3
ATOM      3  C   UNL A   1      40.748  24.484  27.226  1.00  0.00     0.188 C 
BRANCH   3   4
ATOM      4  O   UNL A   1      41.123  23.266  27.858  1.00  0.00    -0.376 OA
BRANCH   4   5
ATOM      5  C   UNL A   1      40.864  22.017  27.240  1.00  0.00     0.202 C 
BRANCH   5   6
ATOM      6  C   UNL A   1      41.792  21.434  26.169  1.00  0.00     0.261 C 
BRANCH   6   7
ATOM      7  O   UNL A   1      42.432  22.398  25.306  1.00  0.00    -0.460 OA
BRANCH   7   8
ATOM      8  C   UNL A   1      43.700  22.882  25.310  1.00  0.00     0.338 C 
ATOM      9  O   UNL A   1      44.639  22.090  25.336  1.00  0.00    -0.246 OA
BRANCH   8  10
ATOM     10  C   UNL A   1      43.952  24.311  25.681  1.00  0.00     0.060 A 
ATOM     11  C   UNL A   1      43.575  25.408  24.909  1.00  0.00     0.016 A 
ATOM     12  C   UNL A   1      44.428  24.547  26.989  1.00  0.00     0.016 A 
ATOM     13  C   UNL A   1      43.505  26.691  25.484  1.00  0.00     0.010 A 
ATOM     14  C   UNL A   1      44.346  25.827  27.568  1.00  0.00     0.010 A 
ATOM     15  C   UNL A   1      43.842  26.910  26.831  1.00  0.00    -0.014 A 
BRANCH  15  16
ATOM     16  C   UNL A   1      43.942  28.315  27.336  1.00  0.00     0.031 A 
ATOM     17  C   UNL A   1      42.700  28.860  27.931  1.00  0.00     0.074 A 
ATOM     18  C   UNL A   1      45.054  29.083  27.343  1.00  0.00     0.049 A 
ATOM     19  N   UNL A   1      42.548  29.951  28.621  1.00  0.00    -0.248 NA
ATOM     20  C   UNL A   1      41.470  28.080  27.712  1.00  0.00     0.031 C 
ATOM     21  C   UNL A   1      46.259  28.739  26.637  1.00  0.00     0.029 A 
ATOM     22  N   UNL A   1      45.382  30.296  27.905  1.00  0.00    -0.354 N 
ATOM     23  C   UNL A   1      41.212  29.964  28.959  1.00  0.00     0.074 A 
ATOM     24  C   UNL A   1      40.579  28.830  28.328  1.00  0.00     0.031 C 
ATOM     25  C   UNL A   1      47.235  29.631  26.853  1.00  0.00     0.029 A 
ATOM     26  C   UNL A   1      46.692  30.696  27.669  1.00  0.00     0.049 A 
ATOM     27  H   UNL A   1      44.745  30.833  28.428  1.00  0.00     0.167 HD
ATOM     28  C   UNL A   1      40.576  30.827  29.771  1.00  0.00     0.034 A 
ATOM     29  C   UNL A   1      47.366  31.809  28.031  1.00  0.00     0.034 A 
ATOM     30  C   UNL A   1      41.175  32.019  30.277  1.00  0.00     0.049 A 
ATOM     31  C   UNL A   1      46.593  32.823  28.825  1.00  0.00     0.074 A 
ATOM     32  C   UNL A   1      40.594  33.020  31.023  1.00  0.00     0.029 A 
ATOM     33  N   UNL A   1      42.488  32.400  30.027  1.00  0.00    -0.354 N 
ATOM     34  N   UNL A   1      45.354  32.750  29.249  1.00  0.00    -0.248 NA
ATOM     35  C   UNL A   1      47.288  34.061  29.201  1.00  0.00     0.031 C 
ATOM     36  C   UNL A   1      41.544  34.031  31.192  1.00  0.00     0.029 A 
ATOM     37  C   UNL A   1      42.736  33.630  30.603  1.00  0.00     0.049 A 
ATOM     38  H   UNL A   1      43.144  31.872  29.517  1.00  0.00     0.167 HD
ATOM     39  C   UNL A   1      45.129  33.911  29.967  1.00  0.00     0.074 A 
ATOM     40  C   UNL A   1      46.369  34.663  29.942  1.00  0.00     0.031 C 
ATOM     41  C   UNL A   1      43.998  34.325  30.584  1.00  0.00     0.034 A 
BRANCH  28  42
ATOM     42  C   UNL A   1      39.162  30.460  30.077  1.00  0.00     0.023 A 
ATOM     43  C   UNL A   1      38.908  29.322  30.876  1.00  0.00     0.012 A 
ATOM     44  C   UNL A   1      38.107  31.116  29.430  1.00  0.00     0.148 A 
ATOM     45  C   UNL A   1      37.619  28.808  30.977  1.00  0.00     0.002 A 
ATOM     46  C   UNL A   1      36.820  30.624  29.571  1.00  0.00     0.091 A 
ATOM     47  F   UNL A   1      38.394  32.157  28.636  1.00  0.00    -0.205 F 
ATOM     48  C   UNL A   1      36.576  29.460  30.325  1.00  0.00     0.022 A 
BRANCH  46  49
ATOM     49  S   UNL A   1      35.407  31.396  28.787  1.00  0.00     0.127 S 
ATOM     50  O   UNL A   1      36.052  32.257  27.795  1.00  0.00    -0.237 OA
ATOM     51  O   UNL A   1      34.708  30.239  28.232  1.00  0.00    -0.237 OA
ATOM     52  O   UNL A   1      34.694  32.104  29.841  1.00  0.00    -0.744 OA
ENDBRANCH  46  49
ENDBRANCH  28  42
BRANCH  29  53
ATOM     53  C   UNL A   1      48.803  32.067  27.669  1.00  0.00     0.023 A 
ATOM     54  C   UNL A   1      49.835  31.489  28.443  1.00  0.00     0.012 A 
ATOM     55  C   UNL A   1      49.164  32.953  26.633  1.00  0.00     0.148 A 
ATOM     56  C   UNL A   1      51.175  31.837  28.238  1.00  0.00     0.002 A 
ATOM     57  C   UNL A   1      50.507  33.260  26.401  1.00  0.00     0.091 A 
ATOM     58  F   UNL A   1      48.185  33.500  25.900  1.00  0.00    -0.205 F 
ATOM     59  C   UNL A   1      51.511  32.723  27.218  1.00  0.00     0.022 A 
BRANCH  57  60
ATOM     60  S   UNL A   1      51.048  34.343  25.069  1.00  0.00     0.127 S 
ATOM     61  O   UNL A   1      51.643  33.392  24.135  1.00  0.00    -0.237 OA
ATOM     62  O   UNL A   1      49.784  34.936  24.624  1.00  0.00    -0.237 OA
ATOM     63  O   UNL A   1      51.974  35.283  25.686  1.00  0.00    -0.744 OA
ENDBRANCH  57  60
ENDBRANCH  29  53
BRANCH  41  64
ATOM     64  C   UNL A   1      44.077  35.608  31.351  1.00  0.00     0.023 A 
ATOM     65  C   UNL A   1      44.416  35.611  32.715  1.00  0.00     0.012 A 
ATOM     66  C   UNL A   1      43.885  36.824  30.670  1.00  0.00     0.148 A 
ATOM     67  C   UNL A   1      44.536  36.816  33.402  1.00  0.00     0.002 A 
ATOM     68  C   UNL A   1      44.072  38.019  31.343  1.00  0.00     0.091 A 
ATOM     69  F   UNL A   1      43.530  36.783  29.377  1.00  0.00    -0.205 F 
ATOM     70  C   UNL A   1      44.381  38.019  32.712  1.00  0.00     0.022 A 
BRANCH  68  71
ATOM     71  S   UNL A   1      44.019  39.598  30.497  1.00  0.00     0.127 S 
ATOM     72  O   UNL A   1      42.839  39.441  29.647  1.00  0.00    -0.237 OA
ATOM     73  O   UNL A   1      43.852  40.536  31.608  1.00  0.00    -0.237 OA
ATOM     74  O   UNL A   1      45.286  39.720  29.789  1.00  0.00    -0.744 OA
ENDBRANCH  68  71
ENDBRANCH  41  64
ENDBRANCH  15  16
ENDBRANCH   8  10
ENDBRANCH   7   8
ENDBRANCH   6   7
ENDBRANCH   5   6
ENDBRANCH   4   5
ENDBRANCH   3   4
ENDBRANCH   2   3
ENDBRANCH   1   2
BRANCH   1  75
ATOM     75  C   UNL A   1      38.070  23.989  26.111  1.00  0.00     0.202 C 
BRANCH  75  76
ATOM     76  C   UNL A   1      36.750  23.344  25.646  1.00  0.00     0.261 C 
BRANCH  76  77
ATOM     77  O   UNL A   1      36.003  23.979  24.600  1.00  0.00    -0.460 OA
BRANCH  77  78
ATOM     78  C   UNL A   1      35.762  23.308  23.441  1.00  0.00     0.338 C 
ATOM     79  O   UNL A   1      36.569  23.016  22.581  1.00  0.00    -0.246 OA
BRANCH  78  80
ATOM     80  C   UNL A   1      34.341  22.850  23.505  1.00  0.00     0.068 A 
ATOM     81  C   UNL A   1      33.985  21.359  24.468  1.00  0.00     0.016 A 
ATOM     82  C   UNL A   1      33.068  24.142  23.374  1.00  0.00     0.009 A 
ATOM     83  C   UNL A   1      32.340  21.121  25.238  1.00  0.00     0.001 A 
ATOM     84  C   UNL A   1      31.414  23.905  24.115  1.00  0.00     0.010 A 
ATOM     85  C   UNL A   1      31.060  22.381  25.029  1.00  0.00     0.001 A 
BRANCH  82  86
ATOM     86  C   UNL A   1      33.051  24.862  22.128  1.00  0.00     0.142 C 
ATOM     87  N   UNL A   1      33.413  26.098  22.120  1.00  0.00    -0.181 NA
BRANCH  87  88
ATOM     88  N   UNL A   1      33.659  26.687  23.350  1.00  0.00    -0.254 N 
ATOM     89  H   UNL A   1      34.506  26.424  23.777  1.00  0.00     0.193 HD
BRANCH  88  90
ATOM     90  C   UNL A   1      32.902  27.576  24.055  1.00  0.00     0.187 C 
ATOM     91  S   UNL A   1      33.448  28.042  25.586  1.00  0.00    -0.039 S 
BRANCH  90  92
ATOM     92  N   UNL A   1      31.653  28.118  23.671  1.00  0.00    -0.357 N 
ATOM     93  H   UNL A   1      31.039  27.793  24.367  1.00  0.00     0.163 HD
BRANCH  92  94
ATOM     94  C   UNL A   1      30.426  29.231  22.425  1.00  0.00     0.151 C 
BRANCH  94  95
ATOM     95  C   UNL A   1      28.995  30.024  22.567  1.00  0.00    -0.029 A 
ATOM     96  C   UNL A   1      28.966  31.023  23.563  1.00  0.00     0.005 A 
ATOM     97  C   UNL A   1      28.371  30.228  21.315  1.00  0.00     0.005 A 
ATOM     98  C   UNL A   1      28.682  32.310  23.178  1.00  0.00     0.000 A 
ATOM     99  C   UNL A   1      28.069  31.515  20.955  1.00  0.00     0.000 A 
ATOM    100  C   UNL A   1      28.355  32.539  21.850  1.00  0.00     0.000 A 
ENDBRANCH  94  95
ENDBRANCH  92  94
ENDBRANCH  90  92
ENDBRANCH  88  90
ENDBRANCH  87  88
ENDBRANCH  82  86
ENDBRANCH  78  80
ENDBRANCH  77  78
ENDBRANCH  76  77
ENDBRANCH  75  76
ENDBRANCH   1  75
TORSDOF 26
ENDMDL
