MODEL 1
REMARK VINA RESULT:     -10.8      0.000      0.000
REMARK SMILES Cc1cc(Br)cc2c1O[C@H](C(F)(F)F)C(C(=O)OCCOCCOCCOC(=O)c1ccc(-c3c4nc(c(-c5cccc(S(=O)(=O)[O-])c5F)c5ccc([nH]5)c(-c5cccc(S(=O)(=O)[O-])c5F)c5nc(c(-c6cccc(S(=O)(=O)[O-])c6F)c6ccc3[nH]6)C=C5)C=C4)cc1)=C2
REMARK SMILES IDX 23 1 22 2 21 3 20 4 19 5 18 6 16 7 17 8 15 9 1 10 2 11 3 12
REMARK SMILES IDX 8 13 4 14 7 15 9 16 5 17 6 18 93 19 10 20 11 21 12 22 13 23
REMARK SMILES IDX 14 24 24 25 25 26 26 27 27 28 28 29 29 30 30 31 31 32 92 33
REMARK SMILES IDX 32 34 91 35 33 36 34 37 35 38 85 39 36 40 90 41 84 42 86 43
REMARK SMILES IDX 37 44 89 45 83 46 82 47 38 49 70 50 50 51 69 52 51 53 54 54
REMARK SMILES IDX 68 55 87 56 52 57 53 58 67 60 88 61 55 62 39 63 40 64 48 65
REMARK SMILES IDX 41 66 43 67 49 68 42 69 44 70 45 71 46 72 47 73 71 74 72 75
REMARK SMILES IDX 80 76 73 77 75 78 81 79 74 80 76 81 77 82 78 83 79 84 56 85
REMARK SMILES IDX 57 86 65 87 58 88 60 89 66 90 59 91 61 92 62 93 63 94 64 95
REMARK H PARENT 86 48 54 59
REMARK Flexibility Score: inf
ROOT
ATOM      1  C   UNL A   1      30.997  28.355  22.746  1.00  0.00     0.188 C 
ENDROOT
BRANCH   1   2
ATOM      2  C   UNL A   1      32.299  27.530  22.667  1.00  0.00     0.188 C 
BRANCH   2   3
ATOM      3  O   UNL A   1      32.163  26.372  21.859  1.00  0.00    -0.376 OA
BRANCH   3   4
ATOM      4  C   UNL A   1      32.141  25.126  22.535  1.00  0.00     0.202 C 
BRANCH   4   5
ATOM      5  C   UNL A   1      31.285  25.073  23.808  1.00  0.00     0.261 C 
BRANCH   5   6
ATOM      6  O   UNL A   1      30.878  23.756  24.215  1.00  0.00    -0.460 OA
BRANCH   6   7
ATOM      7  C   UNL A   1      31.321  23.313  25.410  1.00  0.00     0.338 C 
ATOM      8  O   UNL A   1      30.882  23.622  26.505  1.00  0.00    -0.246 OA
BRANCH   7   9
ATOM      9  C   UNL A   1      32.382  22.308  25.177  1.00  0.00     0.087 C 
ATOM     10  C   UNL A   1      36.863  19.852  24.634  1.00  0.00     0.048 C 
ATOM     11  C   UNL A   1      35.414  19.457  24.700  1.00  0.00    -0.007 A 
ATOM     12  C   UNL A   1      35.067  18.099  24.641  1.00  0.00     0.023 A 
ATOM     13  C   UNL A   1      34.393  20.419  24.795  1.00  0.00     0.130 A 
ATOM     14  C   UNL A   1      33.729  17.714  24.697  1.00  0.00     0.019 A 
ATOM     15  C   UNL A   1      33.051  20.026  24.889  1.00  0.00     0.019 A 
ATOM     16  O   UNL A   1      34.785  21.728  24.788  1.00  0.00    -0.475 OA
ATOM     17  Br  UNL A   1      33.283  15.879  24.625  1.00  0.00    -0.051 Br
ATOM     18  C   UNL A   1      32.721  18.668  24.823  1.00  0.00     0.027 A 
ATOM     19  C   UNL A   1      32.011  21.024  25.097  1.00  0.00     0.027 C 
ATOM     20  C   UNL A   1      33.805  22.776  25.008  1.00  0.00     0.316 C 
BRANCH  20  21
ATOM     21  C   UNL A   1      34.287  23.628  26.190  1.00  0.00     0.430 C 
ATOM     22  F   UNL A   1      33.835  23.131  27.368  1.00  0.00    -0.167 F 
ATOM     23  F   UNL A   1      35.637  23.658  26.282  1.00  0.00    -0.167 F 
ATOM     24  F   UNL A   1      33.859  24.908  26.104  1.00  0.00    -0.167 F 
ENDBRANCH  20  21
ENDBRANCH   7   9
ENDBRANCH   6   7
ENDBRANCH   5   6
ENDBRANCH   4   5
ENDBRANCH   3   4
ENDBRANCH   2   3
ENDBRANCH   1   2
BRANCH   1  25
ATOM     25  O   UNL A   1      30.881  29.406  23.701  1.00  0.00    -0.376 OA
BRANCH  25  26
ATOM     26  C   UNL A   1      31.417  29.209  25.004  1.00  0.00     0.202 C 
BRANCH  26  27
ATOM     27  C   UNL A   1      32.495  30.178  25.511  1.00  0.00     0.261 C 
BRANCH  27  28
ATOM     28  O   UNL A   1      32.301  30.638  26.859  1.00  0.00    -0.460 OA
BRANCH  28  29
ATOM     29  C   UNL A   1      32.985  31.761  27.197  1.00  0.00     0.338 C 
ATOM     30  O   UNL A   1      32.576  32.909  27.177  1.00  0.00    -0.246 OA
BRANCH  29  31
ATOM     31  C   UNL A   1      34.279  31.381  27.802  1.00  0.00     0.060 A 
ATOM     32  C   UNL A   1      34.479  30.039  28.154  1.00  0.00     0.016 A 
ATOM     33  C   UNL A   1      35.270  32.333  28.048  1.00  0.00     0.016 A 
ATOM     34  C   UNL A   1      35.672  29.643  28.754  1.00  0.00     0.010 A 
ATOM     35  C   UNL A   1      36.456  31.938  28.678  1.00  0.00     0.010 A 
ATOM     36  C   UNL A   1      36.654  30.597  29.049  1.00  0.00    -0.014 A 
BRANCH  36  37
ATOM     37  C   UNL A   1      37.824  30.208  29.873  1.00  0.00     0.031 A 
ATOM     38  C   UNL A   1      38.835  29.259  29.293  1.00  0.00     0.074 A 
ATOM     39  C   UNL A   1      37.993  30.705  31.112  1.00  0.00     0.049 A 
ATOM     40  N   UNL A   1      39.946  28.816  29.817  1.00  0.00    -0.248 NA
ATOM     41  C   UNL A   1      38.558  28.744  27.940  1.00  0.00     0.031 C 
ATOM     42  C   UNL A   1      37.084  31.636  31.779  1.00  0.00     0.029 A 
ATOM     43  N   UNL A   1      38.986  30.484  32.034  1.00  0.00    -0.354 N 
ATOM     44  C   UNL A   1      40.503  27.972  28.864  1.00  0.00     0.074 A 
ATOM     45  C   UNL A   1      39.594  27.943  27.739  1.00  0.00     0.031 C 
ATOM     46  C   UNL A   1      37.555  31.897  33.010  1.00  0.00     0.029 A 
ATOM     47  C   UNL A   1      38.790  31.142  33.226  1.00  0.00     0.049 A 
ATOM     48  H   UNL A   1      39.765  29.909  31.858  1.00  0.00     0.167 HD
ATOM     49  C   UNL A   1      41.678  27.304  28.910  1.00  0.00     0.034 A 
ATOM     50  C   UNL A   1      39.522  31.132  34.359  1.00  0.00     0.034 A 
ATOM     51  C   UNL A   1      42.581  27.337  30.026  1.00  0.00     0.049 A 
ATOM     52  C   UNL A   1      40.802  30.332  34.405  1.00  0.00     0.074 A 
ATOM     53  C   UNL A   1      43.808  26.711  30.154  1.00  0.00     0.029 A 
ATOM     54  N   UNL A   1      42.354  28.023  31.209  1.00  0.00    -0.354 N 
ATOM     55  N   UNL A   1      41.375  29.639  33.451  1.00  0.00    -0.248 NA
ATOM     56  C   UNL A   1      41.552  30.338  35.671  1.00  0.00     0.031 C 
ATOM     57  C   UNL A   1      44.312  27.000  31.425  1.00  0.00     0.029 A 
ATOM     58  C   UNL A   1      43.412  27.826  32.078  1.00  0.00     0.049 A 
ATOM     59  H   UNL A   1      41.558  28.570  31.402  1.00  0.00     0.167 HD
ATOM     60  C   UNL A   1      42.566  29.159  33.987  1.00  0.00     0.074 A 
ATOM     61  C   UNL A   1      42.640  29.650  35.347  1.00  0.00     0.031 C 
ATOM     62  C   UNL A   1      43.507  28.374  33.407  1.00  0.00     0.034 A 
BRANCH  49  63
ATOM     63  C   UNL A   1      42.088  26.517  27.695  1.00  0.00     0.023 A 
ATOM     64  C   UNL A   1      42.818  27.162  26.676  1.00  0.00     0.012 A 
ATOM     65  C   UNL A   1      41.835  25.135  27.600  1.00  0.00     0.148 A 
ATOM     66  C   UNL A   1      43.274  26.446  25.570  1.00  0.00     0.002 A 
ATOM     67  C   UNL A   1      42.328  24.421  26.514  1.00  0.00     0.091 A 
ATOM     68  F   UNL A   1      41.120  24.548  28.570  1.00  0.00    -0.205 F 
ATOM     69  C   UNL A   1      43.041  25.076  25.496  1.00  0.00     0.022 A 
BRANCH  67  70
ATOM     70  S   UNL A   1      42.149  22.640  26.362  1.00  0.00     0.127 S 
ATOM     71  O   UNL A   1      40.709  22.471  26.549  1.00  0.00    -0.237 OA
ATOM     72  O   UNL A   1      42.619  22.399  24.998  1.00  0.00    -0.237 OA
ATOM     73  O   UNL A   1      42.985  22.061  27.405  1.00  0.00    -0.744 OA
ENDBRANCH  67  70
ENDBRANCH  49  63
BRANCH  50  74
ATOM     74  C   UNL A   1      39.100  31.964  35.523  1.00  0.00     0.023 A 
ATOM     75  C   UNL A   1      38.199  31.427  36.461  1.00  0.00     0.012 A 
ATOM     76  C   UNL A   1      39.612  33.261  35.727  1.00  0.00     0.148 A 
ATOM     77  C   UNL A   1      37.797  32.173  37.571  1.00  0.00     0.002 A 
ATOM     78  C   UNL A   1      39.249  33.978  36.861  1.00  0.00     0.091 A 
ATOM     79  F   UNL A   1      40.455  33.761  34.813  1.00  0.00    -0.205 F 
ATOM     80  C   UNL A   1      38.331  33.443  37.778  1.00  0.00     0.022 A 
BRANCH  78  81
ATOM     81  S   UNL A   1      39.978  35.568  37.275  1.00  0.00     0.127 S 
ATOM     82  O   UNL A   1      39.326  35.875  38.545  1.00  0.00    -0.237 OA
ATOM     83  O   UNL A   1      41.398  35.230  37.377  1.00  0.00    -0.237 OA
ATOM     84  O   UNL A   1      39.649  36.452  36.165  1.00  0.00    -0.744 OA
ENDBRANCH  78  81
ENDBRANCH  50  74
BRANCH  62  85
ATOM     85  C   UNL A   1      44.727  27.996  34.206  1.00  0.00     0.023 A 
ATOM     86  C   UNL A   1      45.828  28.873  34.249  1.00  0.00     0.012 A 
ATOM     87  C   UNL A   1      44.712  26.861  35.044  1.00  0.00     0.148 A 
ATOM     88  C   UNL A   1      46.897  28.625  35.109  1.00  0.00     0.002 A 
ATOM     89  C   UNL A   1      45.758  26.647  35.933  1.00  0.00     0.091 A 
ATOM     90  F   UNL A   1      43.658  26.034  34.978  1.00  0.00    -0.205 F 
ATOM     91  C   UNL A   1      46.854  27.523  35.961  1.00  0.00     0.022 A 
BRANCH  89  92
ATOM     92  S   UNL A   1      45.744  25.321  37.147  1.00  0.00     0.127 S 
ATOM     93  O   UNL A   1      46.192  24.181  36.347  1.00  0.00    -0.237 OA
ATOM     94  O   UNL A   1      46.717  25.795  38.131  1.00  0.00    -0.237 OA
ATOM     95  O   UNL A   1      44.376  25.234  37.636  1.00  0.00    -0.744 OA
ENDBRANCH  89  92
ENDBRANCH  62  85
ENDBRANCH  36  37
ENDBRANCH  29  31
ENDBRANCH  28  29
ENDBRANCH  27  28
ENDBRANCH  26  27
ENDBRANCH  25  26
ENDBRANCH   1  25
TORSDOF 21
ENDMDL
MODEL 2
REMARK VINA RESULT:     -10.1      1.790      2.133
REMARK SMILES Cc1cc(Br)cc2c1O[C@H](C(F)(F)F)C(C(=O)OCCOCCOCCOC(=O)c1ccc(-c3c4nc(c(-c5cccc(S(=O)(=O)[O-])c5F)c5ccc([nH]5)c(-c5cccc(S(=O)(=O)[O-])c5F)c5nc(c(-c6cccc(S(=O)(=O)[O-])c6F)c6ccc3[nH]6)C=C5)C=C4)cc1)=C2
REMARK SMILES IDX 23 1 22 2 21 3 20 4 19 5 18 6 16 7 17 8 15 9 1 10 2 11 3 12
REMARK SMILES IDX 8 13 4 14 7 15 9 16 5 17 6 18 93 19 10 20 11 21 12 22 13 23
REMARK SMILES IDX 14 24 24 25 25 26 26 27 27 28 28 29 29 30 30 31 31 32 92 33
REMARK SMILES IDX 32 34 91 35 33 36 34 37 35 38 85 39 36 40 90 41 84 42 86 43
REMARK SMILES IDX 37 44 89 45 83 46 82 47 38 49 70 50 50 51 69 52 51 53 54 54
REMARK SMILES IDX 68 55 87 56 52 57 53 58 67 60 88 61 55 62 39 63 40 64 48 65
REMARK SMILES IDX 41 66 43 67 49 68 42 69 44 70 45 71 46 72 47 73 71 74 72 75
REMARK SMILES IDX 80 76 73 77 75 78 81 79 74 80 76 81 77 82 78 83 79 84 56 85
REMARK SMILES IDX 57 86 65 87 58 88 60 89 66 90 59 91 61 92 62 93 63 94 64 95
REMARK H PARENT 86 48 54 59
REMARK Flexibility Score: inf
ROOT
ATOM      1  C   UNL A   1      30.850  27.989  23.407  1.00  0.00     0.188 C 
ENDROOT
BRANCH   1   2
ATOM      2  C   UNL A   1      32.238  27.496  22.947  1.00  0.00     0.188 C 
BRANCH   2   3
ATOM      3  O   UNL A   1      32.162  26.570  21.876  1.00  0.00    -0.376 OA
BRANCH   3   4
ATOM      4  C   UNL A   1      31.784  25.245  22.209  1.00  0.00     0.202 C 
BRANCH   4   5
ATOM      5  C   UNL A   1      31.260  25.040  23.636  1.00  0.00     0.261 C 
BRANCH   5   6
ATOM      6  O   UNL A   1      30.814  23.706  23.937  1.00  0.00    -0.460 OA
BRANCH   6   7
ATOM      7  C   UNL A   1      31.125  23.209  25.152  1.00  0.00     0.338 C 
ATOM      8  O   UNL A   1      30.508  23.387  26.187  1.00  0.00    -0.246 OA
BRANCH   7   9
ATOM      9  C   UNL A   1      32.304  22.324  25.011  1.00  0.00     0.087 C 
ATOM     10  C   UNL A   1      37.043  20.340  24.934  1.00  0.00     0.048 C 
ATOM     11  C   UNL A   1      35.645  19.806  24.798  1.00  0.00    -0.007 A 
ATOM     12  C   UNL A   1      35.448  18.427  24.635  1.00  0.00     0.023 A 
ATOM     13  C   UNL A   1      34.528  20.660  24.804  1.00  0.00     0.130 A 
ATOM     14  C   UNL A   1      34.159  17.913  24.503  1.00  0.00     0.019 A 
ATOM     15  C   UNL A   1      33.232  20.136  24.709  1.00  0.00     0.019 A 
ATOM     16  O   UNL A   1      34.783  21.998  24.905  1.00  0.00    -0.475 OA
ATOM     17  Br  UNL A   1      33.913  16.051  24.294  1.00  0.00    -0.051 Br
ATOM     18  C   UNL A   1      33.051  18.759  24.542  1.00  0.00     0.027 A 
ATOM     19  C   UNL A   1      32.078  21.017  24.828  1.00  0.00     0.027 C 
ATOM     20  C   UNL A   1      33.681  22.934  25.045  1.00  0.00     0.316 C 
BRANCH  20  21
ATOM     21  C   UNL A   1      33.927  23.760  26.315  1.00  0.00     0.430 C 
ATOM     22  F   UNL A   1      33.487  25.035  26.161  1.00  0.00    -0.167 F 
ATOM     23  F   UNL A   1      33.272  23.258  27.387  1.00  0.00    -0.167 F 
ATOM     24  F   UNL A   1      35.239  23.826  26.635  1.00  0.00    -0.167 F 
ENDBRANCH  20  21
ENDBRANCH   7   9
ENDBRANCH   6   7
ENDBRANCH   5   6
ENDBRANCH   4   5
ENDBRANCH   3   4
ENDBRANCH   2   3
ENDBRANCH   1   2
BRANCH   1  25
ATOM     25  O   UNL A   1      30.751  29.093  24.301  1.00  0.00    -0.376 OA
BRANCH  25  26
ATOM     26  C   UNL A   1      31.541  29.090  25.485  1.00  0.00     0.202 C 
BRANCH  26  27
ATOM     27  C   UNL A   1      32.477  30.277  25.750  1.00  0.00     0.261 C 
BRANCH  27  28
ATOM     28  O   UNL A   1      32.293  30.911  27.027  1.00  0.00    -0.460 OA
BRANCH  28  29
ATOM     29  C   UNL A   1      33.083  31.990  27.263  1.00  0.00     0.338 C 
ATOM     30  O   UNL A   1      32.778  33.165  27.156  1.00  0.00    -0.246 OA
BRANCH  29  31
ATOM     31  C   UNL A   1      34.352  31.542  27.875  1.00  0.00     0.060 A 
ATOM     32  C   UNL A   1      34.382  30.285  28.493  1.00  0.00     0.016 A 
ATOM     33  C   UNL A   1      35.485  32.357  27.869  1.00  0.00     0.016 A 
ATOM     34  C   UNL A   1      35.549  29.837  29.110  1.00  0.00     0.010 A 
ATOM     35  C   UNL A   1      36.647  31.917  28.513  1.00  0.00     0.010 A 
ATOM     36  C   UNL A   1      36.678  30.664  29.151  1.00  0.00    -0.014 A 
BRANCH  36  37
ATOM     37  C   UNL A   1      37.839  30.272  29.985  1.00  0.00     0.031 A 
ATOM     38  C   UNL A   1      38.855  29.324  29.411  1.00  0.00     0.074 A 
ATOM     39  C   UNL A   1      37.996  30.764  31.227  1.00  0.00     0.049 A 
ATOM     40  N   UNL A   1      39.961  28.878  29.944  1.00  0.00    -0.248 NA
ATOM     41  C   UNL A   1      38.592  28.815  28.054  1.00  0.00     0.031 C 
ATOM     42  C   UNL A   1      37.082  31.693  31.889  1.00  0.00     0.029 A 
ATOM     43  N   UNL A   1      38.980  30.539  32.158  1.00  0.00    -0.354 N 
ATOM     44  C   UNL A   1      40.526  28.038  28.993  1.00  0.00     0.074 A 
ATOM     45  C   UNL A   1      39.629  28.013  27.860  1.00  0.00     0.031 C 
ATOM     46  C   UNL A   1      37.541  31.949  33.126  1.00  0.00     0.029 A 
ATOM     47  C   UNL A   1      38.774  31.193  33.350  1.00  0.00     0.049 A 
ATOM     48  H   UNL A   1      39.760  29.964  31.988  1.00  0.00     0.167 HD
ATOM     49  C   UNL A   1      41.700  27.369  29.048  1.00  0.00     0.034 A 
ATOM     50  C   UNL A   1      39.494  31.178  34.490  1.00  0.00     0.034 A 
ATOM     51  C   UNL A   1      42.593  27.397  30.174  1.00  0.00     0.049 A 
ATOM     52  C   UNL A   1      40.773  30.377  34.546  1.00  0.00     0.074 A 
ATOM     53  C   UNL A   1      43.818  26.769  30.311  1.00  0.00     0.029 A 
ATOM     54  N   UNL A   1      42.355  28.079  31.356  1.00  0.00    -0.354 N 
ATOM     55  N   UNL A   1      41.355  29.687  33.595  1.00  0.00    -0.248 NA
ATOM     56  C   UNL A   1      41.510  30.377  35.820  1.00  0.00     0.031 C 
ATOM     57  C   UNL A   1      44.310  27.053  31.588  1.00  0.00     0.029 A 
ATOM     58  C   UNL A   1      43.404  27.878  32.235  1.00  0.00     0.049 A 
ATOM     59  H   UNL A   1      41.557  28.625  31.544  1.00  0.00     0.167 HD
ATOM     60  C   UNL A   1      42.540  29.205  34.141  1.00  0.00     0.074 A 
ATOM     61  C   UNL A   1      42.601  29.690  35.504  1.00  0.00     0.031 C 
ATOM     62  C   UNL A   1      43.486  28.421  33.568  1.00  0.00     0.034 A 
BRANCH  49  63
ATOM     63  C   UNL A   1      42.122  26.586  27.834  1.00  0.00     0.023 A 
ATOM     64  C   UNL A   1      42.973  27.194  26.889  1.00  0.00     0.012 A 
ATOM     65  C   UNL A   1      41.757  25.236  27.673  1.00  0.00     0.148 A 
ATOM     66  C   UNL A   1      43.439  26.475  25.790  1.00  0.00     0.002 A 
ATOM     67  C   UNL A   1      42.259  24.514  26.596  1.00  0.00     0.091 A 
ATOM     68  F   UNL A   1      40.929  24.685  28.572  1.00  0.00    -0.205 F 
ATOM     69  C   UNL A   1      43.093  25.134  25.650  1.00  0.00     0.022 A 
BRANCH  67  70
ATOM     70  S   UNL A   1      41.936  22.762  26.368  1.00  0.00     0.127 S 
ATOM     71  O   UNL A   1      42.567  22.512  25.072  1.00  0.00    -0.237 OA
ATOM     72  O   UNL A   1      42.634  22.170  27.509  1.00  0.00    -0.237 OA
ATOM     73  O   UNL A   1      40.488  22.611  26.395  1.00  0.00    -0.744 OA
ENDBRANCH  67  70
ENDBRANCH  49  63
BRANCH  50  74
ATOM     74  C   UNL A   1      39.062  32.006  35.653  1.00  0.00     0.023 A 
ATOM     75  C   UNL A   1      39.281  33.396  35.628  1.00  0.00     0.012 A 
ATOM     76  C   UNL A   1      38.404  31.435  36.762  1.00  0.00     0.148 A 
ATOM     77  C   UNL A   1      38.874  34.202  36.693  1.00  0.00     0.002 A 
ATOM     78  C   UNL A   1      37.954  32.249  37.795  1.00  0.00     0.091 A 
ATOM     79  F   UNL A   1      38.221  30.107  36.776  1.00  0.00    -0.205 F 
ATOM     80  C   UNL A   1      38.200  33.631  37.770  1.00  0.00     0.022 A 
BRANCH  78  81
ATOM     81  S   UNL A   1      36.971  31.622  39.162  1.00  0.00     0.127 S 
ATOM     82  O   UNL A   1      36.047  32.728  39.398  1.00  0.00    -0.237 OA
ATOM     83  O   UNL A   1      36.364  30.427  38.573  1.00  0.00    -0.237 OA
ATOM     84  O   UNL A   1      37.917  31.349  40.235  1.00  0.00    -0.744 OA
ENDBRANCH  78  81
ENDBRANCH  50  74
BRANCH  62  85
ATOM     85  C   UNL A   1      44.698  28.039  34.377  1.00  0.00     0.023 A 
ATOM     86  C   UNL A   1      44.713  26.813  35.069  1.00  0.00     0.012 A 
ATOM     87  C   UNL A   1      45.877  28.812  34.310  1.00  0.00     0.148 A 
ATOM     88  C   UNL A   1      45.879  26.363  35.688  1.00  0.00     0.002 A 
ATOM     89  C   UNL A   1      47.047  28.333  34.887  1.00  0.00     0.091 A 
ATOM     90  F   UNL A   1      45.837  29.980  33.654  1.00  0.00    -0.205 F 
ATOM     91  C   UNL A   1      47.048  27.113  35.582  1.00  0.00     0.022 A 
BRANCH  89  92
ATOM     92  S   UNL A   1      48.629  29.170  34.712  1.00  0.00     0.127 S 
ATOM     93  O   UNL A   1      48.819  29.146  33.263  1.00  0.00    -0.237 OA
ATOM     94  O   UNL A   1      48.340  30.493  35.268  1.00  0.00    -0.237 OA
ATOM     95  O   UNL A   1      49.589  28.386  35.475  1.00  0.00    -0.744 OA
ENDBRANCH  89  92
ENDBRANCH  62  85
ENDBRANCH  36  37
ENDBRANCH  29  31
ENDBRANCH  28  29
ENDBRANCH  27  28
ENDBRANCH  26  27
ENDBRANCH  25  26
ENDBRANCH   1  25
TORSDOF 21
ENDMDL
MODEL 3
REMARK VINA RESULT:      -9.8      5.893      9.621
REMARK SMILES Cc1cc(Br)cc2c1O[C@H](C(F)(F)F)C(C(=O)OCCOCCOCCOC(=O)c1ccc(-c3c4nc(c(-c5cccc(S(=O)(=O)[O-])c5F)c5ccc([nH]5)c(-c5cccc(S(=O)(=O)[O-])c5F)c5nc(c(-c6cccc(S(=O)(=O)[O-])c6F)c6ccc3[nH]6)C=C5)C=C4)cc1)=C2
REMARK SMILES IDX 23 1 22 2 21 3 20 4 19 5 18 6 16 7 17 8 15 9 1 10 2 11 3 12
REMARK SMILES IDX 8 13 4 14 7 15 9 16 5 17 6 18 93 19 10 20 11 21 12 22 13 23
REMARK SMILES IDX 14 24 24 25 25 26 26 27 27 28 28 29 29 30 30 31 31 32 92 33
REMARK SMILES IDX 32 34 91 35 33 36 34 37 35 38 85 39 36 40 90 41 84 42 86 43
REMARK SMILES IDX 37 44 89 45 83 46 82 47 38 49 70 50 50 51 69 52 51 53 54 54
REMARK SMILES IDX 68 55 87 56 52 57 53 58 67 60 88 61 55 62 39 63 40 64 48 65
REMARK SMILES IDX 41 66 43 67 49 68 42 69 44 70 45 71 46 72 47 73 71 74 72 75
REMARK SMILES IDX 80 76 73 77 75 78 81 79 74 80 76 81 77 82 78 83 79 84 56 85
REMARK SMILES IDX 57 86 65 87 58 88 60 89 66 90 59 91 61 92 62 93 63 94 64 95
REMARK H PARENT 86 48 54 59
REMARK Flexibility Score: inf
ROOT
ATOM      1  C   UNL A   1      40.792  21.834  26.487  1.00  0.00     0.188 C 
ENDROOT
BRANCH   1   2
ATOM      2  C   UNL A   1      39.678  22.782  26.977  1.00  0.00     0.188 C 
BRANCH   2   3
ATOM      3  O   UNL A   1      38.558  22.805  26.109  1.00  0.00    -0.376 OA
BRANCH   3   4
ATOM      4  C   UNL A   1      38.080  21.549  25.656  1.00  0.00     0.202 C 
BRANCH   4   5
ATOM      5  C   UNL A   1      36.946  21.600  24.623  1.00  0.00     0.261 C 
BRANCH   5   6
ATOM      6  O   UNL A   1      35.657  21.958  25.150  1.00  0.00    -0.460 OA
BRANCH   6   7
ATOM      7  C   UNL A   1      34.571  21.511  24.486  1.00  0.00     0.338 C 
ATOM      8  O   UNL A   1      34.332  20.355  24.183  1.00  0.00    -0.246 OA
BRANCH   7   9
ATOM      9  C   UNL A   1      33.656  22.652  24.256  1.00  0.00     0.087 C 
ATOM     10  C   UNL A   1      29.576  25.759  23.943  1.00  0.00     0.048 C 
ATOM     11  C   UNL A   1      31.064  25.909  23.790  1.00  0.00    -0.007 A 
ATOM     12  C   UNL A   1      31.604  27.175  23.523  1.00  0.00     0.023 A 
ATOM     13  C   UNL A   1      31.927  24.803  23.882  1.00  0.00     0.130 A 
ATOM     14  C   UNL A   1      32.981  27.333  23.374  1.00  0.00     0.019 A 
ATOM     15  C   UNL A   1      33.313  24.971  23.769  1.00  0.00     0.019 A 
ATOM     16  O   UNL A   1      31.341  23.585  24.082  1.00  0.00    -0.475 OA
ATOM     17  Br  UNL A   1      33.690  29.049  23.024  1.00  0.00    -0.051 Br
ATOM     18  C   UNL A   1      33.837  26.240  23.498  1.00  0.00     0.027 A 
ATOM     19  C   UNL A   1      34.206  23.840  23.976  1.00  0.00     0.027 C 
ATOM     20  C   UNL A   1      32.169  22.415  24.314  1.00  0.00     0.316 C 
BRANCH  20  21
ATOM     21  C   UNL A   1      31.725  21.782  25.640  1.00  0.00     0.430 C 
ATOM     22  F   UNL A   1      32.515  22.190  26.665  1.00  0.00    -0.167 F 
ATOM     23  F   UNL A   1      30.460  22.127  25.974  1.00  0.00    -0.167 F 
ATOM     24  F   UNL A   1      31.781  20.432  25.604  1.00  0.00    -0.167 F 
ENDBRANCH  20  21
ENDBRANCH   7   9
ENDBRANCH   6   7
ENDBRANCH   5   6
ENDBRANCH   4   5
ENDBRANCH   3   4
ENDBRANCH   2   3
ENDBRANCH   1   2
BRANCH   1  25
ATOM     25  O   UNL A   1      41.449  20.973  27.412  1.00  0.00    -0.376 OA
BRANCH  25  26
ATOM     26  C   UNL A   1      41.642  19.608  27.060  1.00  0.00     0.202 C 
BRANCH  26  27
ATOM     27  C   UNL A   1      42.246  19.279  25.687  1.00  0.00     0.261 C 
BRANCH  27  28
ATOM     28  O   UNL A   1      43.682  19.254  25.655  1.00  0.00    -0.460 OA
BRANCH  28  29
ATOM     29  C   UNL A   1      44.263  20.118  24.784  1.00  0.00     0.338 C 
ATOM     30  O   UNL A   1      44.606  19.890  23.637  1.00  0.00    -0.246 OA
BRANCH  29  31
ATOM     31  C   UNL A   1      44.252  21.477  25.364  1.00  0.00     0.060 A 
ATOM     32  C   UNL A   1      43.842  22.542  24.549  1.00  0.00     0.016 A 
ATOM     33  C   UNL A   1      44.666  21.708  26.677  1.00  0.00     0.016 A 
ATOM     34  C   UNL A   1      43.846  23.844  25.046  1.00  0.00     0.010 A 
ATOM     35  C   UNL A   1      44.696  23.020  27.164  1.00  0.00     0.010 A 
ATOM     36  C   UNL A   1      44.304  24.094  26.345  1.00  0.00    -0.014 A 
BRANCH  36  37
ATOM     37  C   UNL A   1      44.503  25.493  26.792  1.00  0.00     0.031 A 
ATOM     38  C   UNL A   1      45.870  26.105  26.671  1.00  0.00     0.074 A 
ATOM     39  C   UNL A   1      43.478  26.215  27.283  1.00  0.00     0.049 A 
ATOM     40  N   UNL A   1      46.262  27.316  26.963  1.00  0.00    -0.248 NA
ATOM     41  C   UNL A   1      46.939  25.236  26.148  1.00  0.00     0.031 C 
ATOM     42  C   UNL A   1      42.108  25.733  27.443  1.00  0.00     0.029 A 
ATOM     43  N   UNL A   1      43.438  27.506  27.747  1.00  0.00    -0.354 N 
ATOM     44  C   UNL A   1      47.617  27.359  26.661  1.00  0.00     0.074 A 
ATOM     45  C   UNL A   1      47.989  26.044  26.188  1.00  0.00     0.031 C 
ATOM     46  C   UNL A   1      41.362  26.713  27.982  1.00  0.00     0.029 A 
ATOM     47  C   UNL A   1      42.203  27.886  28.218  1.00  0.00     0.049 A 
ATOM     48  H   UNL A   1      44.220  28.104  27.743  1.00  0.00     0.167 HD
ATOM     49  C   UNL A   1      48.468  28.406  26.743  1.00  0.00     0.034 A 
ATOM     50  C   UNL A   1      41.802  29.045  28.778  1.00  0.00     0.034 A 
ATOM     51  C   UNL A   1      48.096  29.714  27.209  1.00  0.00     0.049 A 
ATOM     52  C   UNL A   1      42.787  30.182  28.912  1.00  0.00     0.074 A 
ATOM     53  C   UNL A   1      48.886  30.845  27.305  1.00  0.00     0.029 A 
ATOM     54  N   UNL A   1      46.836  30.062  27.666  1.00  0.00    -0.354 N 
ATOM     55  N   UNL A   1      44.033  30.244  28.507  1.00  0.00    -0.248 NA
ATOM     56  C   UNL A   1      42.304  31.418  29.549  1.00  0.00     0.031 C 
ATOM     57  C   UNL A   1      48.107  31.873  27.843  1.00  0.00     0.029 A 
ATOM     58  C   UNL A   1      46.827  31.389  28.057  1.00  0.00     0.049 A 
ATOM     59  H   UNL A   1      46.061  29.456  27.706  1.00  0.00     0.167 HD
ATOM     60  C   UNL A   1      44.469  31.532  28.805  1.00  0.00     0.074 A 
ATOM     61  C   UNL A   1      43.351  32.222  29.414  1.00  0.00     0.031 C 
ATOM     62  C   UNL A   1      45.689  32.086  28.601  1.00  0.00     0.034 A 
BRANCH  49  63
ATOM     63  C   UNL A   1      49.882  28.203  26.269  1.00  0.00     0.023 A 
ATOM     64  C   UNL A   1      50.171  28.347  24.897  1.00  0.00     0.012 A 
ATOM     65  C   UNL A   1      50.929  27.962  27.178  1.00  0.00     0.148 A 
ATOM     66  C   UNL A   1      51.481  28.235  24.434  1.00  0.00     0.002 A 
ATOM     67  C   UNL A   1      52.238  27.892  26.713  1.00  0.00     0.091 A 
ATOM     68  F   UNL A   1      50.628  27.807  28.475  1.00  0.00    -0.205 F 
ATOM     69  C   UNL A   1      52.514  28.021  25.342  1.00  0.00     0.022 A 
BRANCH  67  70
ATOM     70  S   UNL A   1      53.647  27.697  27.810  1.00  0.00     0.127 S 
ATOM     71  O   UNL A   1      54.762  27.711  26.862  1.00  0.00    -0.237 OA
ATOM     72  O   UNL A   1      53.548  28.888  28.653  1.00  0.00    -0.237 OA
ATOM     73  O   UNL A   1      53.442  26.436  28.510  1.00  0.00    -0.744 OA
ENDBRANCH  67  70
ENDBRANCH  49  63
BRANCH  50  74
ATOM     74  C   UNL A   1      40.379  29.218  29.192  1.00  0.00     0.023 A 
ATOM     75  C   UNL A   1      39.405  29.484  28.211  1.00  0.00     0.012 A 
ATOM     76  C   UNL A   1      39.980  29.083  30.537  1.00  0.00     0.148 A 
ATOM     77  C   UNL A   1      38.062  29.634  28.562  1.00  0.00     0.002 A 
ATOM     78  C   UNL A   1      38.634  29.181  30.873  1.00  0.00     0.091 A 
ATOM     79  F   UNL A   1      40.924  28.847  31.458  1.00  0.00    -0.205 F 
ATOM     80  C   UNL A   1      37.675  29.470  29.890  1.00  0.00     0.022 A 
BRANCH  78  81
ATOM     81  S   UNL A   1      38.027  28.864  32.534  1.00  0.00     0.127 S 
ATOM     82  O   UNL A   1      38.889  29.727  33.338  1.00  0.00    -0.237 OA
ATOM     83  O   UNL A   1      36.634  29.304  32.435  1.00  0.00    -0.237 OA
ATOM     84  O   UNL A   1      38.192  27.433  32.747  1.00  0.00    -0.744 OA
ENDBRANCH  78  81
ENDBRANCH  50  74
BRANCH  62  85
ATOM     85  C   UNL A   1      45.910  33.521  29.008  1.00  0.00     0.023 A 
ATOM     86  C   UNL A   1      46.505  33.806  30.252  1.00  0.00     0.012 A 
ATOM     87  C   UNL A   1      45.685  34.568  28.090  1.00  0.00     0.148 A 
ATOM     88  C   UNL A   1      46.868  35.112  30.579  1.00  0.00     0.002 A 
ATOM     89  C   UNL A   1      46.095  35.858  28.404  1.00  0.00     0.091 A 
ATOM     90  F   UNL A   1      45.108  34.274  26.916  1.00  0.00    -0.205 F 
ATOM     91  C   UNL A   1      46.680  36.133  29.650  1.00  0.00     0.022 A 
BRANCH  89  92
ATOM     92  S   UNL A   1      45.997  37.220  27.233  1.00  0.00     0.127 S 
ATOM     93  O   UNL A   1      44.554  37.334  27.031  1.00  0.00    -0.237 OA
ATOM     94  O   UNL A   1      46.596  38.319  27.990  1.00  0.00    -0.237 OA
ATOM     95  O   UNL A   1      46.756  36.802  26.063  1.00  0.00    -0.744 OA
ENDBRANCH  89  92
ENDBRANCH  62  85
ENDBRANCH  36  37
ENDBRANCH  29  31
ENDBRANCH  28  29
ENDBRANCH  27  28
ENDBRANCH  26  27
ENDBRANCH  25  26
ENDBRANCH   1  25
TORSDOF 21
ENDMDL
