MODEL 1
REMARK VINA RESULT:     -10.2      0.000      0.000
REMARK SMILES CC(=O)c1c(C)nn(CC(=O)N2CCC[C@H](c3cccc(C(=O)OCCOCCOCCOC(=O)c4ccc(-c5c6nc(c(-c7cccc(S(=O)(=O)[O-])c7F)c7ccc([nH]7)c(-c7cccc(S(=O)(=O)[O-])c7F)c7nc(c(-c8cccc(S(=O)(=O)[O-])c8F)c8ccc5[nH]8)C=C7)C=C6)cc4)c3)C2)c1C
REMARK SMILES IDX 28 1 27 2 26 3 25 4 24 5 22 6 23 7 21 8 17 9 18 10 99 11
REMARK SMILES IDX 19 12 20 13 16 14 12 15 13 16 100 17 14 18 15 19 10 20 11 21
REMARK SMILES IDX 9 22 8 23 4 24 5 25 101 26 6 27 7 28 102 29 2 30 1 31 3 32
REMARK SMILES IDX 29 33 30 34 31 35 32 36 33 37 34 38 35 39 36 40 37 41 98 42
REMARK SMILES IDX 38 43 97 44 39 45 40 46 41 47 91 48 42 49 96 50 90 51 92 52
REMARK SMILES IDX 43 53 95 54 89 55 88 56 44 58 76 59 56 60 75 61 57 62 60 63
REMARK SMILES IDX 74 64 93 65 58 66 59 67 73 69 94 70 61 71 45 72 46 73 54 74
REMARK SMILES IDX 47 75 49 76 55 77 48 78 50 79 51 80 52 81 53 82 77 83 78 84
REMARK SMILES IDX 86 85 79 86 81 87 87 88 80 89 82 90 83 91 84 92 85 93 62 94
REMARK SMILES IDX 63 95 71 96 64 97 66 98 72 99 65 100 67 101 68 102 69 103
REMARK SMILES IDX 70 104
REMARK H PARENT 92 57 60 68
REMARK Flexibility Score: inf
ROOT
ATOM      1  C   UNL A   1      33.679  35.174  30.537  1.00  0.00     0.188 C 
ENDROOT
BRANCH   1   2
ATOM      2  O   UNL A   1      34.649  34.670  29.648  1.00  0.00    -0.376 OA
BRANCH   2   3
ATOM      3  C   UNL A   1      34.510  33.406  29.027  1.00  0.00     0.202 C 
BRANCH   3   4
ATOM      4  C   UNL A   1      33.662  33.104  27.773  1.00  0.00     0.261 C 
BRANCH   4   5
ATOM      5  O   UNL A   1      33.469  31.733  27.429  1.00  0.00    -0.460 OA
BRANCH   5   6
ATOM      6  C   UNL A   1      32.272  31.425  26.873  1.00  0.00     0.338 C 
ATOM      7  O   UNL A   1      31.326  32.166  26.699  1.00  0.00    -0.246 OA
BRANCH   6   8
ATOM      8  C   UNL A   1      32.372  30.071  26.286  1.00  0.00     0.060 A 
ATOM      9  C   UNL A   1      31.484  28.250  24.934  1.00  0.00    -0.042 A 
ATOM     10  C   UNL A   1      32.538  27.462  25.420  1.00  0.00     0.004 A 
ATOM     11  C   UNL A   1      31.376  29.554  25.446  1.00  0.00     0.019 A 
ATOM     12  C   UNL A   1      33.518  27.963  26.275  1.00  0.00     0.001 A 
ATOM     13  C   UNL A   1      33.459  29.285  26.679  1.00  0.00     0.016 A 
BRANCH   9  14
ATOM     14  C   UNL A   1      30.503  27.733  23.874  1.00  0.00     0.039 C 
ATOM     15  N   UNL A   1      30.874  25.251  24.118  1.00  0.00    -0.340 N 
ATOM     16  C   UNL A   1      31.657  25.204  22.874  1.00  0.00     0.119 C 
ATOM     17  C   UNL A   1      29.874  26.334  24.156  1.00  0.00     0.127 C 
ATOM     18  C   UNL A   1      32.249  26.555  22.484  1.00  0.00     0.022 C 
ATOM     19  C   UNL A   1      31.173  27.643  22.485  1.00  0.00     0.012 C 
BRANCH  15  20
ATOM     20  C   UNL A   1      31.249  24.403  25.153  1.00  0.00     0.244 C 
ATOM     21  O   UNL A   1      30.562  24.384  26.190  1.00  0.00    -0.273 OA
BRANCH  20  22
ATOM     22  C   UNL A   1      32.568  23.641  25.234  1.00  0.00     0.244 C 
BRANCH  22  23
ATOM     23  N   UNL A   1      32.652  22.247  24.843  1.00  0.00    -0.259 N 
ATOM     24  C   UNL A   1      33.143  20.107  24.675  1.00  0.00     0.061 A 
ATOM     25  C   UNL A   1      32.410  20.584  23.552  1.00  0.00     0.070 A 
ATOM     26  C   UNL A   1      33.235  21.203  25.529  1.00  0.00     0.047 A 
ATOM     27  C   UNL A   1      32.054  19.882  22.289  1.00  0.00     0.069 C 
ATOM     28  N   UNL A   1      32.020  21.850  23.728  1.00  0.00    -0.177 NA
ATOM     29  C   UNL A   1      33.890  21.407  26.845  1.00  0.00     0.067 C 
BRANCH  24  30
ATOM     30  C   UNL A   1      33.713  18.775  24.831  1.00  0.00     0.163 C 
ATOM     31  C   UNL A   1      32.822  17.643  25.266  1.00  0.00     0.093 C 
ATOM     32  O   UNL A   1      34.907  18.573  24.614  1.00  0.00    -0.294 OA
ENDBRANCH  24  30
ENDBRANCH  22  23
ENDBRANCH  20  22
ENDBRANCH  15  20
ENDBRANCH   9  14
ENDBRANCH   6   8
ENDBRANCH   5   6
ENDBRANCH   4   5
ENDBRANCH   3   4
ENDBRANCH   2   3
ENDBRANCH   1   2
BRANCH   1  33
ATOM     33  C   UNL A   1      33.891  35.056  32.061  1.00  0.00     0.188 C 
BRANCH  33  34
ATOM     34  O   UNL A   1      33.646  33.834  32.722  1.00  0.00    -0.376 OA
BRANCH  34  35
ATOM     35  C   UNL A   1      34.513  32.714  32.639  1.00  0.00     0.202 C 
BRANCH  35  36
ATOM     36  C   UNL A   1      36.012  32.749  32.348  1.00  0.00     0.261 C 
BRANCH  36  37
ATOM     37  O   UNL A   1      36.728  31.577  32.649  1.00  0.00    -0.460 OA
BRANCH  37  38
ATOM     38  C   UNL A   1      37.446  31.677  33.785  1.00  0.00     0.338 C 
ATOM     39  O   UNL A   1      37.530  32.645  34.520  1.00  0.00    -0.246 OA
BRANCH  38  40
ATOM     40  C   UNL A   1      38.230  30.454  33.950  1.00  0.00     0.060 A 
ATOM     41  C   UNL A   1      39.439  30.618  34.622  1.00  0.00     0.016 A 
ATOM     42  C   UNL A   1      37.984  29.397  33.063  1.00  0.00     0.016 A 
ATOM     43  C   UNL A   1      40.513  29.909  34.152  1.00  0.00     0.010 A 
ATOM     44  C   UNL A   1      39.063  28.707  32.580  1.00  0.00     0.010 A 
ATOM     45  C   UNL A   1      40.322  29.052  33.060  1.00  0.00    -0.014 A 
BRANCH  45  46
ATOM     46  C   UNL A   1      41.488  28.383  32.539  1.00  0.00     0.031 A 
ATOM     47  C   UNL A   1      42.220  27.715  33.635  1.00  0.00     0.074 A 
ATOM     48  C   UNL A   1      41.788  28.355  31.227  1.00  0.00     0.049 A 
ATOM     49  N   UNL A   1      43.335  28.092  34.165  1.00  0.00    -0.248 NA
ATOM     50  C   UNL A   1      41.499  26.694  34.413  1.00  0.00     0.031 C 
ATOM     51  C   UNL A   1      40.951  28.772  30.099  1.00  0.00     0.029 A 
ATOM     52  N   UNL A   1      42.872  27.812  30.611  1.00  0.00    -0.354 N 
ATOM     53  C   UNL A   1      43.584  27.153  35.160  1.00  0.00     0.074 A 
ATOM     54  C   UNL A   1      42.324  26.528  35.446  1.00  0.00     0.031 C 
ATOM     55  C   UNL A   1      41.437  28.221  28.960  1.00  0.00     0.029 A 
ATOM     56  C   UNL A   1      42.674  27.523  29.263  1.00  0.00     0.049 A 
ATOM     57  H   UNL A   1      43.721  27.640  31.078  1.00  0.00     0.167 HD
ATOM     58  C   UNL A   1      44.854  26.724  35.383  1.00  0.00     0.034 A 
ATOM     59  C   UNL A   1      43.430  26.687  28.503  1.00  0.00     0.034 A 
ATOM     60  C   UNL A   1      45.809  27.668  34.847  1.00  0.00     0.049 A 
ATOM     61  C   UNL A   1      44.717  26.495  29.214  1.00  0.00     0.074 A 
ATOM     62  C   UNL A   1      46.067  29.011  35.036  1.00  0.00     0.029 A 
ATOM     63  N   UNL A   1      46.399  27.327  33.655  1.00  0.00    -0.354 N 
ATOM     64  N   UNL A   1      45.603  27.438  29.366  1.00  0.00    -0.248 NA
ATOM     65  C   UNL A   1      44.813  25.383  30.146  1.00  0.00     0.031 C 
ATOM     66  C   UNL A   1      46.413  29.506  33.745  1.00  0.00     0.029 A 
ATOM     67  C   UNL A   1      46.432  28.432  32.854  1.00  0.00     0.049 A 
ATOM     68  H   UNL A   1      46.741  26.435  33.418  1.00  0.00     0.167 HD
ATOM     69  C   UNL A   1      46.034  27.285  30.677  1.00  0.00     0.074 A 
ATOM     70  C   UNL A   1      45.595  25.946  31.072  1.00  0.00     0.031 C 
ATOM     71  C   UNL A   1      46.426  28.366  31.411  1.00  0.00     0.034 A 
BRANCH  58  72
ATOM     72  C   UNL A   1      45.224  25.271  35.626  1.00  0.00     0.023 A 
ATOM     73  C   UNL A   1      44.902  24.364  34.593  1.00  0.00     0.012 A 
ATOM     74  C   UNL A   1      45.578  24.707  36.877  1.00  0.00     0.148 A 
ATOM     75  C   UNL A   1      44.836  22.985  34.818  1.00  0.00     0.002 A 
ATOM     76  C   UNL A   1      45.580  23.333  37.077  1.00  0.00     0.091 A 
ATOM     77  F   UNL A   1      45.810  25.479  37.936  1.00  0.00    -0.205 F 
ATOM     78  C   UNL A   1      45.172  22.469  36.062  1.00  0.00     0.022 A 
BRANCH  76  79
ATOM     79  S   UNL A   1      46.043  22.608  38.659  1.00  0.00     0.127 S 
ATOM     80  O   UNL A   1      45.807  21.189  38.409  1.00  0.00    -0.237 OA
ATOM     81  O   UNL A   1      47.449  22.998  38.758  1.00  0.00    -0.237 OA
ATOM     82  O   UNL A   1      45.178  23.229  39.655  1.00  0.00    -0.744 OA
ENDBRANCH  76  79
ENDBRANCH  58  72
BRANCH  59  83
ATOM     83  C   UNL A   1      43.055  25.789  27.379  1.00  0.00     0.023 A 
ATOM     84  C   UNL A   1      43.792  25.849  26.175  1.00  0.00     0.012 A 
ATOM     85  C   UNL A   1      42.211  24.677  27.582  1.00  0.00     0.148 A 
ATOM     86  C   UNL A   1      43.730  24.814  25.233  1.00  0.00     0.002 A 
ATOM     87  C   UNL A   1      42.149  23.652  26.641  1.00  0.00     0.091 A 
ATOM     88  F   UNL A   1      41.545  24.574  28.738  1.00  0.00    -0.205 F 
ATOM     89  C   UNL A   1      42.919  23.710  25.472  1.00  0.00     0.022 A 
BRANCH  87  90
ATOM     90  S   UNL A   1      41.156  22.175  26.898  1.00  0.00     0.127 S 
ATOM     91  O   UNL A   1      41.283  21.496  25.608  1.00  0.00    -0.237 OA
ATOM     92  O   UNL A   1      41.859  21.527  28.003  1.00  0.00    -0.237 OA
ATOM     93  O   UNL A   1      39.810  22.649  27.195  1.00  0.00    -0.744 OA
ENDBRANCH  87  90
ENDBRANCH  59  83
BRANCH  71  94
ATOM     94  C   UNL A   1      46.691  29.657  30.683  1.00  0.00     0.023 A 
ATOM     95  C   UNL A   1      47.937  29.987  30.109  1.00  0.00     0.012 A 
ATOM     96  C   UNL A   1      45.588  30.490  30.443  1.00  0.00     0.148 A 
ATOM     97  C   UNL A   1      48.077  31.140  29.329  1.00  0.00     0.002 A 
ATOM     98  C   UNL A   1      45.718  31.603  29.626  1.00  0.00     0.091 A 
ATOM     99  F   UNL A   1      44.413  30.162  31.004  1.00  0.00    -0.205 F 
ATOM    100  C   UNL A   1      46.963  31.939  29.075  1.00  0.00     0.022 A 
BRANCH  98 101
ATOM    101  S   UNL A   1      44.288  32.584  29.172  1.00  0.00     0.127 S 
ATOM    102  O   UNL A   1      44.847  33.492  28.173  1.00  0.00    -0.237 OA
ATOM    103  O   UNL A   1      43.370  31.577  28.639  1.00  0.00    -0.237 OA
ATOM    104  O   UNL A   1      43.827  33.212  30.404  1.00  0.00    -0.744 OA
ENDBRANCH  98 101
ENDBRANCH  71  94
ENDBRANCH  45  46
ENDBRANCH  38  40
ENDBRANCH  37  38
ENDBRANCH  36  37
ENDBRANCH  35  36
ENDBRANCH  34  35
ENDBRANCH  33  34
ENDBRANCH   1  33
TORSDOF 25
ENDMDL
MODEL 2
REMARK VINA RESULT:     -10.2      4.087      8.770
REMARK SMILES CC(=O)c1c(C)nn(CC(=O)N2CCC[C@H](c3cccc(C(=O)OCCOCCOCCOC(=O)c4ccc(-c5c6nc(c(-c7cccc(S(=O)(=O)[O-])c7F)c7ccc([nH]7)c(-c7cccc(S(=O)(=O)[O-])c7F)c7nc(c(-c8cccc(S(=O)(=O)[O-])c8F)c8ccc5[nH]8)C=C7)C=C6)cc4)c3)C2)c1C
REMARK SMILES IDX 28 1 27 2 26 3 25 4 24 5 22 6 23 7 21 8 17 9 18 10 99 11
REMARK SMILES IDX 19 12 20 13 16 14 12 15 13 16 100 17 14 18 15 19 10 20 11 21
REMARK SMILES IDX 9 22 8 23 4 24 5 25 101 26 6 27 7 28 102 29 2 30 1 31 3 32
REMARK SMILES IDX 29 33 30 34 31 35 32 36 33 37 34 38 35 39 36 40 37 41 98 42
REMARK SMILES IDX 38 43 97 44 39 45 40 46 41 47 91 48 42 49 96 50 90 51 92 52
REMARK SMILES IDX 43 53 95 54 89 55 88 56 44 58 76 59 56 60 75 61 57 62 60 63
REMARK SMILES IDX 74 64 93 65 58 66 59 67 73 69 94 70 61 71 45 72 46 73 54 74
REMARK SMILES IDX 47 75 49 76 55 77 48 78 50 79 51 80 52 81 53 82 77 83 78 84
REMARK SMILES IDX 86 85 79 86 81 87 87 88 80 89 82 90 83 91 84 92 85 93 62 94
REMARK SMILES IDX 63 95 71 96 64 97 66 98 72 99 65 100 67 101 68 102 69 103
REMARK SMILES IDX 70 104
REMARK H PARENT 92 57 60 68
REMARK Flexibility Score: inf
ROOT
ATOM      1  C   UNL A   1      32.876  28.812  22.521  1.00  0.00     0.188 C 
ENDROOT
BRANCH   1   2
ATOM      2  O   UNL A   1      32.412  27.527  22.177  1.00  0.00    -0.376 OA
BRANCH   2   3
ATOM      3  C   UNL A   1      31.047  27.169  22.293  1.00  0.00     0.202 C 
BRANCH   3   4
ATOM      4  C   UNL A   1      30.292  26.902  23.612  1.00  0.00     0.261 C 
BRANCH   4   5
ATOM      5  O   UNL A   1      31.021  26.284  24.670  1.00  0.00    -0.460 OA
BRANCH   5   6
ATOM      6  C   UNL A   1      30.395  25.263  25.304  1.00  0.00     0.338 C 
ATOM      7  O   UNL A   1      29.360  25.311  25.937  1.00  0.00    -0.246 OA
BRANCH   6   8
ATOM      8  C   UNL A   1      31.057  24.001  24.910  1.00  0.00     0.060 A 
ATOM      9  C   UNL A   1      32.512  22.104  25.384  1.00  0.00    -0.042 A 
ATOM     10  C   UNL A   1      32.426  21.783  24.022  1.00  0.00     0.004 A 
ATOM     11  C   UNL A   1      31.867  23.282  25.801  1.00  0.00     0.019 A 
ATOM     12  C   UNL A   1      31.642  22.508  23.125  1.00  0.00     0.001 A 
ATOM     13  C   UNL A   1      30.922  23.599  23.579  1.00  0.00     0.016 A 
BRANCH   9  14
ATOM     14  C   UNL A   1      33.250  21.210  26.388  1.00  0.00     0.039 C 
ATOM     15  N   UNL A   1      35.625  21.570  25.618  1.00  0.00    -0.340 N 
ATOM     16  C   UNL A   1      35.662  20.245  24.981  1.00  0.00     0.119 C 
ATOM     17  C   UNL A   1      34.697  21.660  26.760  1.00  0.00     0.127 C 
ATOM     18  C   UNL A   1      34.277  19.697  24.650  1.00  0.00     0.022 C 
ATOM     19  C   UNL A   1      33.359  19.758  25.872  1.00  0.00     0.012 C 
BRANCH  15  20
ATOM     20  C   UNL A   1      36.320  22.605  25.004  1.00  0.00     0.244 C 
ATOM     21  O   UNL A   1      36.319  22.673  23.762  1.00  0.00    -0.273 OA
BRANCH  20  22
ATOM     22  C   UNL A   1      37.283  23.558  25.706  1.00  0.00     0.244 C 
BRANCH  22  23
ATOM     23  N   UNL A   1      38.542  23.084  26.248  1.00  0.00    -0.259 N 
ATOM     24  C   UNL A   1      40.528  22.910  27.184  1.00  0.00     0.061 A 
ATOM     25  C   UNL A   1      40.129  21.709  26.532  1.00  0.00     0.070 A 
ATOM     26  C   UNL A   1      39.445  23.772  27.031  1.00  0.00     0.047 A 
ATOM     27  C   UNL A   1      40.895  20.452  26.315  1.00  0.00     0.069 C 
ATOM     28  N   UNL A   1      38.875  21.796  26.076  1.00  0.00    -0.177 NA
ATOM     29  C   UNL A   1      39.208  25.180  27.436  1.00  0.00     0.067 C 
BRANCH  24  30
ATOM     30  C   UNL A   1      41.821  23.166  27.804  1.00  0.00     0.163 C 
ATOM     31  C   UNL A   1      42.610  24.376  27.382  1.00  0.00     0.093 C 
ATOM     32  O   UNL A   1      42.268  22.405  28.661  1.00  0.00    -0.294 OA
ENDBRANCH  24  30
ENDBRANCH  22  23
ENDBRANCH  20  22
ENDBRANCH  15  20
ENDBRANCH   9  14
ENDBRANCH   6   8
ENDBRANCH   5   6
ENDBRANCH   4   5
ENDBRANCH   3   4
ENDBRANCH   2   3
ENDBRANCH   1   2
BRANCH   1  33
ATOM     33  C   UNL A   1      33.150  29.164  23.998  1.00  0.00     0.188 C 
BRANCH  33  34
ATOM     34  O   UNL A   1      32.142  29.752  24.790  1.00  0.00    -0.376 OA
BRANCH  34  35
ATOM     35  C   UNL A   1      31.705  29.212  26.028  1.00  0.00     0.202 C 
BRANCH  35  36
ATOM     36  C   UNL A   1      32.207  29.606  27.415  1.00  0.00     0.261 C 
BRANCH  36  37
ATOM     37  O   UNL A   1      33.332  30.450  27.450  1.00  0.00    -0.460 OA
BRANCH  37  38
ATOM     38  C   UNL A   1      34.491  29.775  27.590  1.00  0.00     0.338 C 
ATOM     39  O   UNL A   1      34.785  28.705  27.088  1.00  0.00    -0.246 OA
BRANCH  38  40
ATOM     40  C   UNL A   1      35.326  30.480  28.561  1.00  0.00     0.060 A 
ATOM     41  C   UNL A   1      35.868  31.679  28.106  1.00  0.00     0.016 A 
ATOM     42  C   UNL A   1      35.888  29.732  29.605  1.00  0.00     0.016 A 
ATOM     43  C   UNL A   1      37.158  31.957  28.475  1.00  0.00     0.010 A 
ATOM     44  C   UNL A   1      37.184  30.001  29.954  1.00  0.00     0.010 A 
ATOM     45  C   UNL A   1      37.828  31.046  29.302  1.00  0.00    -0.014 A 
BRANCH  45  46
ATOM     46  C   UNL A   1      39.209  31.327  29.606  1.00  0.00     0.031 A 
ATOM     47  C   UNL A   1      40.003  30.082  29.552  1.00  0.00     0.074 A 
ATOM     48  C   UNL A   1      39.665  32.571  29.843  1.00  0.00     0.049 A 
ATOM     49  N   UNL A   1      40.475  29.419  30.553  1.00  0.00    -0.248 NA
ATOM     50  C   UNL A   1      40.027  29.344  28.277  1.00  0.00     0.031 C 
ATOM     51  C   UNL A   1      38.967  33.844  29.643  1.00  0.00     0.029 A 
ATOM     52  N   UNL A   1      40.918  32.968  30.191  1.00  0.00    -0.354 N 
ATOM     53  C   UNL A   1      41.115  28.326  29.979  1.00  0.00     0.074 A 
ATOM     54  C   UNL A   1      40.565  28.187  28.661  1.00  0.00     0.031 C 
ATOM     55  C   UNL A   1      39.878  34.847  29.608  1.00  0.00     0.029 A 
ATOM     56  C   UNL A   1      41.193  34.303  29.903  1.00  0.00     0.049 A 
ATOM     57  H   UNL A   1      41.573  32.364  30.610  1.00  0.00     0.167 HD
ATOM     58  C   UNL A   1      42.287  27.878  30.500  1.00  0.00     0.034 A 
ATOM     59  C   UNL A   1      42.426  34.868  29.820  1.00  0.00     0.034 A 
ATOM     60  C   UNL A   1      42.445  28.334  31.862  1.00  0.00     0.049 A 
ATOM     61  C   UNL A   1      43.372  33.956  30.507  1.00  0.00     0.074 A 
ATOM     62  C   UNL A   1      41.708  28.216  33.023  1.00  0.00     0.029 A 
ATOM     63  N   UNL A   1      43.300  29.391  32.055  1.00  0.00    -0.354 N 
ATOM     64  N   UNL A   1      43.364  33.746  31.792  1.00  0.00    -0.248 NA
ATOM     65  C   UNL A   1      44.025  32.934  29.704  1.00  0.00     0.031 C 
ATOM     66  C   UNL A   1      41.847  29.474  33.679  1.00  0.00     0.029 A 
ATOM     67  C   UNL A   1      42.723  30.263  32.933  1.00  0.00     0.049 A 
ATOM     68  H   UNL A   1      44.182  29.501  31.631  1.00  0.00     0.167 HD
ATOM     69  C   UNL A   1      43.560  32.376  31.910  1.00  0.00     0.074 A 
ATOM     70  C   UNL A   1      44.065  31.948  30.605  1.00  0.00     0.031 C 
ATOM     71  C   UNL A   1      43.004  31.680  32.943  1.00  0.00     0.034 A 
BRANCH  58  72
ATOM     72  C   UNL A   1      43.482  27.465  29.657  1.00  0.00     0.023 A 
ATOM     73  C   UNL A   1      44.169  26.304  30.074  1.00  0.00     0.012 A 
ATOM     74  C   UNL A   1      44.137  28.278  28.699  1.00  0.00     0.148 A 
ATOM     75  C   UNL A   1      45.468  26.021  29.642  1.00  0.00     0.002 A 
ATOM     76  C   UNL A   1      45.400  27.957  28.218  1.00  0.00     0.091 A 
ATOM     77  F   UNL A   1      43.613  29.439  28.312  1.00  0.00    -0.205 F 
ATOM     78  C   UNL A   1      46.086  26.850  28.715  1.00  0.00     0.022 A 
BRANCH  76  79
ATOM     79  S   UNL A   1      46.232  28.977  26.990  1.00  0.00     0.127 S 
ATOM     80  O   UNL A   1      45.303  28.896  25.867  1.00  0.00    -0.237 OA
ATOM     81  O   UNL A   1      46.279  30.272  27.669  1.00  0.00    -0.237 OA
ATOM     82  O   UNL A   1      47.539  28.366  26.777  1.00  0.00    -0.744 OA
ENDBRANCH  76  79
ENDBRANCH  58  72
BRANCH  59  83
ATOM     83  C   UNL A   1      42.937  35.961  28.952  1.00  0.00     0.023 A 
ATOM     84  C   UNL A   1      42.708  35.898  27.559  1.00  0.00     0.012 A 
ATOM     85  C   UNL A   1      43.352  37.194  29.497  1.00  0.00     0.148 A 
ATOM     86  C   UNL A   1      42.838  37.033  26.748  1.00  0.00     0.002 A 
ATOM     87  C   UNL A   1      43.484  38.320  28.686  1.00  0.00     0.091 A 
ATOM     88  F   UNL A   1      43.523  37.292  30.820  1.00  0.00    -0.205 F 
ATOM     89  C   UNL A   1      43.213  38.247  27.314  1.00  0.00     0.022 A 
BRANCH  87  90
ATOM     90  S   UNL A   1      43.924  39.932  29.352  1.00  0.00     0.127 S 
ATOM     91  O   UNL A   1      42.661  40.662  29.237  1.00  0.00    -0.237 OA
ATOM     92  O   UNL A   1      44.317  39.598  30.718  1.00  0.00    -0.237 OA
ATOM     93  O   UNL A   1      44.988  40.438  28.493  1.00  0.00    -0.744 OA
ENDBRANCH  87  90
ENDBRANCH  59  83
BRANCH  71  94
ATOM     94  C   UNL A   1      42.461  32.460  34.110  1.00  0.00     0.023 A 
ATOM     95  C   UNL A   1      43.246  32.867  35.210  1.00  0.00     0.012 A 
ATOM     96  C   UNL A   1      41.141  32.925  34.006  1.00  0.00     0.148 A 
ATOM     97  C   UNL A   1      42.711  33.706  36.193  1.00  0.00     0.002 A 
ATOM     98  C   UNL A   1      40.631  33.799  34.954  1.00  0.00     0.091 A 
ATOM     99  F   UNL A   1      40.409  32.521  32.956  1.00  0.00    -0.205 F 
ATOM    100  C   UNL A   1      41.408  34.184  36.057  1.00  0.00     0.022 A 
BRANCH  98 101
ATOM    101  S   UNL A   1      39.010  34.536  34.751  1.00  0.00     0.127 S 
ATOM    102  O   UNL A   1      39.135  35.766  35.529  1.00  0.00    -0.237 OA
ATOM    103  O   UNL A   1      38.932  34.732  33.303  1.00  0.00    -0.237 OA
ATOM    104  O   UNL A   1      38.059  33.558  35.267  1.00  0.00    -0.744 OA
ENDBRANCH  98 101
ENDBRANCH  71  94
ENDBRANCH  45  46
ENDBRANCH  38  40
ENDBRANCH  37  38
ENDBRANCH  36  37
ENDBRANCH  35  36
ENDBRANCH  34  35
ENDBRANCH  33  34
ENDBRANCH   1  33
TORSDOF 25
ENDMDL
MODEL 3
REMARK VINA RESULT:     -10.1      3.318      7.837
REMARK SMILES CC(=O)c1c(C)nn(CC(=O)N2CCC[C@H](c3cccc(C(=O)OCCOCCOCCOC(=O)c4ccc(-c5c6nc(c(-c7cccc(S(=O)(=O)[O-])c7F)c7ccc([nH]7)c(-c7cccc(S(=O)(=O)[O-])c7F)c7nc(c(-c8cccc(S(=O)(=O)[O-])c8F)c8ccc5[nH]8)C=C7)C=C6)cc4)c3)C2)c1C
REMARK SMILES IDX 28 1 27 2 26 3 25 4 24 5 22 6 23 7 21 8 17 9 18 10 99 11
REMARK SMILES IDX 19 12 20 13 16 14 12 15 13 16 100 17 14 18 15 19 10 20 11 21
REMARK SMILES IDX 9 22 8 23 4 24 5 25 101 26 6 27 7 28 102 29 2 30 1 31 3 32
REMARK SMILES IDX 29 33 30 34 31 35 32 36 33 37 34 38 35 39 36 40 37 41 98 42
REMARK SMILES IDX 38 43 97 44 39 45 40 46 41 47 91 48 42 49 96 50 90 51 92 52
REMARK SMILES IDX 43 53 95 54 89 55 88 56 44 58 76 59 56 60 75 61 57 62 60 63
REMARK SMILES IDX 74 64 93 65 58 66 59 67 73 69 94 70 61 71 45 72 46 73 54 74
REMARK SMILES IDX 47 75 49 76 55 77 48 78 50 79 51 80 52 81 53 82 77 83 78 84
REMARK SMILES IDX 86 85 79 86 81 87 87 88 80 89 82 90 83 91 84 92 85 93 62 94
REMARK SMILES IDX 63 95 71 96 64 97 66 98 72 99 65 100 67 101 68 102 69 103
REMARK SMILES IDX 70 104
REMARK H PARENT 92 57 60 68
REMARK Flexibility Score: inf
ROOT
ATOM      1  C   UNL A   1      35.228  31.966  30.320  1.00  0.00     0.188 C 
ENDROOT
BRANCH   1   2
ATOM      2  O   UNL A   1      35.476  32.021  28.934  1.00  0.00    -0.376 OA
BRANCH   2   3
ATOM      3  C   UNL A   1      34.618  31.399  27.996  1.00  0.00     0.202 C 
BRANCH   3   4
ATOM      4  C   UNL A   1      34.717  29.937  27.510  1.00  0.00     0.261 C 
BRANCH   4   5
ATOM      5  O   UNL A   1      33.495  29.260  27.224  1.00  0.00    -0.460 OA
BRANCH   5   6
ATOM      6  C   UNL A   1      33.442  28.611  26.035  1.00  0.00     0.338 C 
ATOM      7  O   UNL A   1      33.999  28.917  25.001  1.00  0.00    -0.246 OA
BRANCH   6   8
ATOM      8  C   UNL A   1      32.768  27.312  26.250  1.00  0.00     0.060 A 
ATOM      9  C   UNL A   1      32.769  24.876  26.286  1.00  0.00    -0.042 A 
ATOM     10  C   UNL A   1      31.378  24.943  26.451  1.00  0.00     0.004 A 
ATOM     11  C   UNL A   1      33.448  26.094  26.110  1.00  0.00     0.019 A 
ATOM     12  C   UNL A   1      30.692  26.151  26.565  1.00  0.00     0.001 A 
ATOM     13  C   UNL A   1      31.394  27.341  26.505  1.00  0.00     0.016 A 
BRANCH   9  14
ATOM     14  C   UNL A   1      33.531  23.545  26.318  1.00  0.00     0.039 C 
ATOM     15  N   UNL A   1      33.578  23.018  23.852  1.00  0.00    -0.340 N 
ATOM     16  C   UNL A   1      32.534  21.994  24.009  1.00  0.00     0.119 C 
ATOM     17  C   UNL A   1      34.397  23.229  25.059  1.00  0.00     0.127 C 
ATOM     18  C   UNL A   1      31.684  22.188  25.261  1.00  0.00     0.022 C 
ATOM     19  C   UNL A   1      32.567  22.351  26.500  1.00  0.00     0.012 C 
BRANCH  15  20
ATOM     20  C   UNL A   1      33.583  23.765  22.680  1.00  0.00     0.244 C 
ATOM     21  O   UNL A   1      33.673  23.171  21.591  1.00  0.00    -0.273 OA
BRANCH  20  22
ATOM     22  C   UNL A   1      33.711  25.283  22.603  1.00  0.00     0.244 C 
BRANCH  22  23
ATOM     23  N   UNL A   1      32.539  26.136  22.650  1.00  0.00    -0.259 N 
ATOM     24  C   UNL A   1      31.143  27.839  22.679  1.00  0.00     0.061 A 
ATOM     25  C   UNL A   1      30.510  26.614  23.030  1.00  0.00     0.070 A 
ATOM     26  C   UNL A   1      32.456  27.486  22.379  1.00  0.00     0.047 A 
ATOM     27  C   UNL A   1      29.120  26.370  23.503  1.00  0.00     0.069 C 
ATOM     28  N   UNL A   1      31.343  25.578  22.890  1.00  0.00    -0.177 NA
ATOM     29  C   UNL A   1      33.649  28.273  21.979  1.00  0.00     0.067 C 
BRANCH  24  30
ATOM     30  C   UNL A   1      30.534  29.163  22.705  1.00  0.00     0.163 C 
ATOM     31  C   UNL A   1      30.370  29.868  24.025  1.00  0.00     0.093 C 
ATOM     32  O   UNL A   1      30.155  29.700  21.666  1.00  0.00    -0.294 OA
ENDBRANCH  24  30
ENDBRANCH  22  23
ENDBRANCH  20  22
ENDBRANCH  15  20
ENDBRANCH   9  14
ENDBRANCH   6   8
ENDBRANCH   5   6
ENDBRANCH   4   5
ENDBRANCH   3   4
ENDBRANCH   2   3
ENDBRANCH   1   2
BRANCH   1  33
ATOM     33  C   UNL A   1      34.960  33.265  31.109  1.00  0.00     0.188 C 
BRANCH  33  34
ATOM     34  O   UNL A   1      35.220  33.324  32.495  1.00  0.00    -0.376 OA
BRANCH  34  35
ATOM     35  C   UNL A   1      35.919  32.313  33.202  1.00  0.00     0.202 C 
BRANCH  35  36
ATOM     36  C   UNL A   1      37.435  32.166  33.309  1.00  0.00     0.261 C 
BRANCH  36  37
ATOM     37  O   UNL A   1      38.072  31.520  32.235  1.00  0.00    -0.460 OA
BRANCH  37  38
ATOM     38  C   UNL A   1      38.690  32.377  31.398  1.00  0.00     0.338 C 
ATOM     39  O   UNL A   1      38.453  33.563  31.252  1.00  0.00    -0.246 OA
BRANCH  38  40
ATOM     40  C   UNL A   1      39.638  31.624  30.578  1.00  0.00     0.060 A 
ATOM     41  C   UNL A   1      39.464  30.242  30.600  1.00  0.00     0.016 A 
ATOM     42  C   UNL A   1      40.857  32.238  30.259  1.00  0.00     0.016 A 
ATOM     43  C   UNL A   1      40.597  29.474  30.626  1.00  0.00     0.010 A 
ATOM     44  C   UNL A   1      41.989  31.469  30.309  1.00  0.00     0.010 A 
ATOM     45  C   UNL A   1      41.842  30.116  30.597  1.00  0.00    -0.014 A 
BRANCH  45  46
ATOM     46  C   UNL A   1      43.014  29.284  30.708  1.00  0.00     0.031 A 
ATOM     47  C   UNL A   1      43.286  28.620  29.416  1.00  0.00     0.074 A 
ATOM     48  C   UNL A   1      43.749  29.204  31.833  1.00  0.00     0.049 A 
ATOM     49  N   UNL A   1      43.089  27.378  29.126  1.00  0.00    -0.248 NA
ATOM     50  C   UNL A   1      43.528  29.480  28.245  1.00  0.00     0.031 C 
ATOM     51  C   UNL A   1      43.664  30.044  33.030  1.00  0.00     0.029 A 
ATOM     52  N   UNL A   1      44.835  28.427  32.088  1.00  0.00    -0.354 N 
ATOM     53  C   UNL A   1      43.476  27.264  27.795  1.00  0.00     0.074 A 
ATOM     54  C   UNL A   1      43.447  28.593  27.254  1.00  0.00     0.031 C 
ATOM     55  C   UNL A   1      44.808  29.913  33.744  1.00  0.00     0.029 A 
ATOM     56  C   UNL A   1      45.641  28.898  33.122  1.00  0.00     0.049 A 
ATOM     57  H   UNL A   1      45.033  27.604  31.586  1.00  0.00     0.167 HD
ATOM     58  C   UNL A   1      44.135  26.153  27.375  1.00  0.00     0.034 A 
ATOM     59  C   UNL A   1      46.929  28.537  33.363  1.00  0.00     0.034 A 
ATOM     60  C   UNL A   1      43.920  25.057  28.293  1.00  0.00     0.049 A 
ATOM     61  C   UNL A   1      47.171  27.269  32.634  1.00  0.00     0.074 A 
ATOM     62  C   UNL A   1      42.811  24.399  28.786  1.00  0.00     0.029 A 
ATOM     63  N   UNL A   1      44.950  24.776  29.156  1.00  0.00    -0.354 N 
ATOM     64  N   UNL A   1      46.611  26.137  32.954  1.00  0.00    -0.248 NA
ATOM     65  C   UNL A   1      47.678  27.359  31.274  1.00  0.00     0.031 C 
ATOM     66  C   UNL A   1      43.122  24.121  30.149  1.00  0.00     0.029 A 
ATOM     67  C   UNL A   1      44.428  24.546  30.397  1.00  0.00     0.049 A 
ATOM     68  H   UNL A   1      45.905  24.744  28.920  1.00  0.00     0.167 HD
ATOM     69  C   UNL A   1      46.262  25.577  31.733  1.00  0.00     0.074 A 
ATOM     70  C   UNL A   1      47.036  26.319  30.736  1.00  0.00     0.031 C 
ATOM     71  C   UNL A   1      45.157  24.785  31.621  1.00  0.00     0.034 A 
BRANCH  58  72
ATOM     72  C   UNL A   1      45.335  26.184  26.444  1.00  0.00     0.023 A 
ATOM     73  C   UNL A   1      45.384  25.179  25.454  1.00  0.00     0.012 A 
ATOM     74  C   UNL A   1      46.527  26.921  26.658  1.00  0.00     0.148 A 
ATOM     75  C   UNL A   1      46.571  24.857  24.789  1.00  0.00     0.002 A 
ATOM     76  C   UNL A   1      47.687  26.645  25.945  1.00  0.00     0.091 A 
ATOM     77  F   UNL A   1      46.608  27.826  27.630  1.00  0.00    -0.205 F 
ATOM     78  C   UNL A   1      47.725  25.588  25.037  1.00  0.00     0.022 A 
BRANCH  76  79
ATOM     79  S   UNL A   1      49.200  27.585  26.200  1.00  0.00     0.127 S 
ATOM     80  O   UNL A   1      49.977  27.213  25.021  1.00  0.00    -0.237 OA
ATOM     81  O   UNL A   1      48.694  28.958  26.206  1.00  0.00    -0.237 OA
ATOM     82  O   UNL A   1      49.740  27.142  27.480  1.00  0.00    -0.744 OA
ENDBRANCH  76  79
ENDBRANCH  58  72
BRANCH  59  83
ATOM     83  C   UNL A   1      48.072  29.319  33.905  1.00  0.00     0.023 A 
ATOM     84  C   UNL A   1      48.724  28.864  35.073  1.00  0.00     0.012 A 
ATOM     85  C   UNL A   1      48.719  30.301  33.128  1.00  0.00     0.148 A 
ATOM     86  C   UNL A   1      49.997  29.333  35.425  1.00  0.00     0.002 A 
ATOM     87  C   UNL A   1      49.983  30.768  33.483  1.00  0.00     0.091 A 
ATOM     88  F   UNL A   1      48.145  30.708  31.989  1.00  0.00    -0.205 F 
ATOM     89  C   UNL A   1      50.631  30.275  34.622  1.00  0.00     0.022 A 
BRANCH  87  90
ATOM     90  S   UNL A   1      50.883  31.954  32.474  1.00  0.00     0.127 S 
ATOM     91  O   UNL A   1      49.996  33.117  32.509  1.00  0.00    -0.237 OA
ATOM     92  O   UNL A   1      52.126  32.109  33.226  1.00  0.00    -0.237 OA
ATOM     93  O   UNL A   1      51.012  31.340  31.159  1.00  0.00    -0.744 OA
ENDBRANCH  87  90
ENDBRANCH  59  83
BRANCH  71  94
ATOM     94  C   UNL A   1      44.523  24.272  32.886  1.00  0.00     0.023 A 
ATOM     95  C   UNL A   1      44.882  23.053  33.499  1.00  0.00     0.012 A 
ATOM     96  C   UNL A   1      43.644  25.138  33.554  1.00  0.00     0.148 A 
ATOM     97  C   UNL A   1      44.352  22.701  34.745  1.00  0.00     0.002 A 
ATOM     98  C   UNL A   1      43.162  24.810  34.812  1.00  0.00     0.091 A 
ATOM     99  F   UNL A   1      43.309  26.289  32.951  1.00  0.00    -0.205 F 
ATOM    100  C   UNL A   1      43.505  23.587  35.409  1.00  0.00     0.022 A 
BRANCH  98 101
ATOM    101  S   UNL A   1      42.175  25.973  35.753  1.00  0.00     0.127 S 
ATOM    102  O   UNL A   1      42.214  25.393  37.093  1.00  0.00    -0.237 OA
ATOM    103  O   UNL A   1      42.926  27.220  35.602  1.00  0.00    -0.237 OA
ATOM    104  O   UNL A   1      40.864  25.992  35.114  1.00  0.00    -0.744 OA
ENDBRANCH  98 101
ENDBRANCH  71  94
ENDBRANCH  45  46
ENDBRANCH  38  40
ENDBRANCH  37  38
ENDBRANCH  36  37
ENDBRANCH  35  36
ENDBRANCH  34  35
ENDBRANCH  33  34
ENDBRANCH   1  33
TORSDOF 25
ENDMDL
