MODEL 1
REMARK VINA RESULT:     -10.1      0.000      0.000
REMARK SMILES Cc1ccc(S(=O)(=O)Nc2ccc(C(=O)CCC(=O)OCCOCCOCCOC(=O)c3ccc(-c4c5nc(c(-c6cccc(S(=O)(=O)[O-])c6F)c6ccc([nH]6)c(-c6cccc(S(=O)(=O)[O-])c6F)c6nc(c(-c7cccc(S(=O)(=O)[O-])c7F)c7ccc4[nH]7)C=C6)C=C5)cc3)cc2)c(C)c1
REMARK SMILES IDX 23 1 22 2 21 3 20 4 18 5 19 6 17 7 16 8 14 9 15 10 13 11
REMARK SMILES IDX 10 12 11 13 96 14 12 15 95 16 9 17 6 19 7 20 8 21 5 22 1 23
REMARK SMILES IDX 2 24 3 25 99 26 4 27 97 28 98 29 24 30 25 31 26 32 27 33
REMARK SMILES IDX 28 34 29 35 30 36 31 37 32 38 33 39 94 40 34 41 93 42 35 43
REMARK SMILES IDX 36 44 37 45 87 46 38 47 92 48 86 49 88 50 39 51 91 52 85 53
REMARK SMILES IDX 84 54 40 56 72 57 52 58 71 59 53 60 56 61 70 62 89 63 54 64
REMARK SMILES IDX 55 65 69 67 90 68 57 69 41 70 42 71 50 72 43 73 45 74 51 75
REMARK SMILES IDX 44 76 46 77 47 78 48 79 49 80 73 81 74 82 82 83 75 84 77 85
REMARK SMILES IDX 83 86 76 87 78 88 79 89 80 90 81 91 58 92 59 93 67 94 60 95
REMARK SMILES IDX 62 96 68 97 61 98 63 99 64 100 65 101 66 102
REMARK H PARENT 9 18 88 55 56 66
REMARK Flexibility Score: inf
ROOT
ATOM      1  O   UNL A   1      38.680  21.543  26.082  1.00  0.00    -0.376 OA
ENDROOT
BRANCH   1   2
ATOM      2  C   UNL A   1      37.794  22.342  25.314  1.00  0.00     0.202 C 
BRANCH   2   3
ATOM      3  C   UNL A   1      36.739  21.507  24.597  1.00  0.00     0.261 C 
BRANCH   3   4
ATOM      4  O   UNL A   1      36.665  20.166  25.090  1.00  0.00    -0.463 OA
BRANCH   4   5
ATOM      5  C   UNL A   1      35.567  19.446  24.777  1.00  0.00     0.306 C 
ATOM      6  O   UNL A   1      35.532  18.232  24.638  1.00  0.00    -0.252 OA
BRANCH   5   7
ATOM      7  C   UNL A   1      34.353  20.334  24.626  1.00  0.00     0.131 C 
BRANCH   7   8
ATOM      8  C   UNL A   1      33.601  20.670  25.920  1.00  0.00     0.093 C 
BRANCH   8   9
ATOM      9  C   UNL A   1      33.330  22.169  26.084  1.00  0.00     0.163 C 
ATOM     10  O   UNL A   1      33.413  22.694  27.196  1.00  0.00    -0.294 OA
BRANCH   9  11
ATOM     11  C   UNL A   1      32.861  23.011  24.931  1.00  0.00     0.018 A 
ATOM     12  C   UNL A   1      31.733  24.953  23.208  1.00  0.00     0.049 A 
ATOM     13  C   UNL A   1      33.060  25.059  23.639  1.00  0.00     0.027 A 
ATOM     14  C   UNL A   1      31.073  23.764  23.450  1.00  0.00     0.027 A 
ATOM     15  C   UNL A   1      33.621  24.102  24.505  1.00  0.00     0.014 A 
ATOM     16  C   UNL A   1      31.643  22.803  24.302  1.00  0.00     0.014 A 
BRANCH  12  17
ATOM     17  N   UNL A   1      31.172  26.058  22.504  1.00  0.00    -0.280 N 
ATOM     18  H   UNL A   1      31.333  26.089  21.533  1.00  0.00     0.180 HD
BRANCH  17  19
ATOM     19  S   UNL A   1      30.260  27.319  23.157  1.00  0.00     0.262 S 
ATOM     20  O   UNL A   1      29.009  26.761  23.628  1.00  0.00    -0.201 OA
ATOM     21  O   UNL A   1      30.269  28.341  22.129  1.00  0.00    -0.201 OA
BRANCH  19  22
ATOM     22  C   UNL A   1      31.097  28.033  24.575  1.00  0.00     0.090 A 
ATOM     23  C   UNL A   1      34.213  28.992  27.389  1.00  0.00     0.044 C 
ATOM     24  C   UNL A   1      33.015  28.757  26.508  1.00  0.00    -0.051 A 
ATOM     25  C   UNL A   1      32.684  29.637  25.471  1.00  0.00     0.005 A 
ATOM     26  C   UNL A   1      32.230  27.618  26.687  1.00  0.00     0.008 A 
ATOM     27  C   UNL A   1      31.748  29.266  24.487  1.00  0.00     0.023 A 
ATOM     28  C   UNL A   1      31.248  27.255  25.746  1.00  0.00    -0.030 A 
ATOM     29  C   UNL A   1      30.342  26.112  26.120  1.00  0.00     0.046 C 
ENDBRANCH  19  22
ENDBRANCH  17  19
ENDBRANCH  12  17
ENDBRANCH   9  11
ENDBRANCH   8   9
ENDBRANCH   7   8
ENDBRANCH   5   7
ENDBRANCH   4   5
ENDBRANCH   3   4
ENDBRANCH   2   3
ENDBRANCH   1   2
BRANCH   1  30
ATOM     30  C   UNL A   1      39.834  22.233  26.536  1.00  0.00     0.188 C 
BRANCH  30  31
ATOM     31  C   UNL A   1      41.061  21.341  26.654  1.00  0.00     0.188 C 
BRANCH  31  32
ATOM     32  O   UNL A   1      40.892  19.942  26.832  1.00  0.00    -0.376 OA
BRANCH  32  33
ATOM     33  C   UNL A   1      41.508  19.125  25.827  1.00  0.00     0.202 C 
BRANCH  33  34
ATOM     34  C   UNL A   1      43.048  19.034  25.782  1.00  0.00     0.261 C 
BRANCH  34  35
ATOM     35  O   UNL A   1      43.599  19.420  24.518  1.00  0.00    -0.460 OA
BRANCH  35  36
ATOM     36  C   UNL A   1      44.807  20.050  24.578  1.00  0.00     0.338 C 
ATOM     37  O   UNL A   1      45.826  19.719  24.011  1.00  0.00    -0.246 OA
BRANCH  36  38
ATOM     38  C   UNL A   1      44.593  21.400  25.178  1.00  0.00     0.060 A 
ATOM     39  C   UNL A   1      44.058  22.399  24.341  1.00  0.00     0.016 A 
ATOM     40  C   UNL A   1      44.727  21.632  26.551  1.00  0.00     0.016 A 
ATOM     41  C   UNL A   1      43.690  23.633  24.864  1.00  0.00     0.010 A 
ATOM     42  C   UNL A   1      44.403  22.885  27.070  1.00  0.00     0.010 A 
ATOM     43  C   UNL A   1      43.940  23.899  26.213  1.00  0.00    -0.014 A 
BRANCH  43  44
ATOM     44  C   UNL A   1      44.125  25.311  26.611  1.00  0.00     0.031 A 
ATOM     45  C   UNL A   1      45.522  25.852  26.481  1.00  0.00     0.074 A 
ATOM     46  C   UNL A   1      43.116  26.079  27.049  1.00  0.00     0.049 A 
ATOM     47  N   UNL A   1      45.993  27.028  26.787  1.00  0.00    -0.248 NA
ATOM     48  C   UNL A   1      46.533  24.923  25.936  1.00  0.00     0.031 C 
ATOM     49  C   UNL A   1      41.726  25.657  27.198  1.00  0.00     0.029 A 
ATOM     50  N   UNL A   1      43.128  27.381  27.478  1.00  0.00    -0.354 N 
ATOM     51  C   UNL A   1      47.351  26.969  26.498  1.00  0.00     0.074 A 
ATOM     52  C   UNL A   1      47.638  25.639  26.019  1.00  0.00     0.031 C 
ATOM     53  C   UNL A   1      41.023  26.674  27.731  1.00  0.00     0.029 A 
ATOM     54  C   UNL A   1      41.921  27.802  27.978  1.00  0.00     0.049 A 
ATOM     55  H   UNL A   1      43.925  27.957  27.431  1.00  0.00     0.167 HD
ATOM     56  C   UNL A   1      48.283  27.942  26.606  1.00  0.00     0.034 A 
ATOM     57  C   UNL A   1      41.599  28.955  28.595  1.00  0.00     0.034 A 
ATOM     58  C   UNL A   1      47.991  29.256  27.099  1.00  0.00     0.049 A 
ATOM     59  C   UNL A   1      42.654  30.022  28.741  1.00  0.00     0.074 A 
ATOM     60  C   UNL A   1      48.845  30.332  27.240  1.00  0.00     0.029 A 
ATOM     61  N   UNL A   1      46.745  29.662  27.555  1.00  0.00    -0.354 N 
ATOM     62  N   UNL A   1      43.916  29.993  28.377  1.00  0.00    -0.248 NA
ATOM     63  C   UNL A   1      42.236  31.293  29.347  1.00  0.00     0.031 C 
ATOM     64  C   UNL A   1      48.121  31.381  27.819  1.00  0.00     0.029 A 
ATOM     65  C   UNL A   1      46.806  30.972  27.988  1.00  0.00     0.049 A 
ATOM     66  H   UNL A   1      45.937  29.099  27.567  1.00  0.00     0.167 HD
ATOM     67  C   UNL A   1      44.432  31.250  28.676  1.00  0.00     0.074 A 
ATOM     68  C   UNL A   1      43.340  32.021  29.237  1.00  0.00     0.031 C 
ATOM     69  C   UNL A   1      45.692  31.726  28.508  1.00  0.00     0.034 A 
BRANCH  56  70
ATOM     70  C   UNL A   1      49.687  27.594  26.193  1.00  0.00     0.023 A 
ATOM     71  C   UNL A   1      50.597  27.082  27.143  1.00  0.00     0.012 A 
ATOM     72  C   UNL A   1      50.117  27.799  24.868  1.00  0.00     0.148 A 
ATOM     73  C   UNL A   1      51.923  26.829  26.795  1.00  0.00     0.002 A 
ATOM     74  C   UNL A   1      51.426  27.491  24.515  1.00  0.00     0.091 A 
ATOM     75  F   UNL A   1      49.252  28.321  23.988  1.00  0.00    -0.205 F 
ATOM     76  C   UNL A   1      52.334  27.024  25.479  1.00  0.00     0.022 A 
BRANCH  74  77
ATOM     77  S   UNL A   1      52.028  27.634  22.830  1.00  0.00     0.127 S 
ATOM     78  O   UNL A   1      51.097  26.768  22.109  1.00  0.00    -0.237 OA
ATOM     79  O   UNL A   1      51.859  29.064  22.568  1.00  0.00    -0.237 OA
ATOM     80  O   UNL A   1      53.412  27.182  22.859  1.00  0.00    -0.744 OA
ENDBRANCH  74  77
ENDBRANCH  56  70
BRANCH  57  81
ATOM     81  C   UNL A   1      40.214  29.158  29.103  1.00  0.00     0.023 A 
ATOM     82  C   UNL A   1      39.180  29.513  28.216  1.00  0.00     0.012 A 
ATOM     83  C   UNL A   1      39.912  28.954  30.464  1.00  0.00     0.148 A 
ATOM     84  C   UNL A   1      37.874  29.682  28.679  1.00  0.00     0.002 A 
ATOM     85  C   UNL A   1      38.600  29.068  30.909  1.00  0.00     0.091 A 
ATOM     86  F   UNL A   1      40.913  28.631  31.294  1.00  0.00    -0.205 F 
ATOM     87  C   UNL A   1      37.581  29.447  30.021  1.00  0.00     0.022 A 
BRANCH  85  88
ATOM     88  S   UNL A   1      38.110  28.663  32.589  1.00  0.00     0.127 S 
ATOM     89  O   UNL A   1      36.738  29.164  32.630  1.00  0.00    -0.237 OA
ATOM     90  O   UNL A   1      38.234  27.206  32.591  1.00  0.00    -0.237 OA
ATOM     91  O   UNL A   1      39.056  29.352  33.456  1.00  0.00    -0.744 OA
ENDBRANCH  85  88
ENDBRANCH  57  81
BRANCH  69  92
ATOM     92  C   UNL A   1      45.953  33.161  28.884  1.00  0.00     0.023 A 
ATOM     93  C   UNL A   1      46.482  33.478  30.151  1.00  0.00     0.012 A 
ATOM     94  C   UNL A   1      45.747  34.189  27.943  1.00  0.00     0.148 A 
ATOM     95  C   UNL A   1      46.763  34.801  30.489  1.00  0.00     0.002 A 
ATOM     96  C   UNL A   1      46.083  35.497  28.266  1.00  0.00     0.091 A 
ATOM     97  F   UNL A   1      45.231  33.868  26.747  1.00  0.00    -0.205 F 
ATOM     98  C   UNL A   1      46.576  35.808  29.543  1.00  0.00     0.022 A 
BRANCH  96  99
ATOM     99  S   UNL A   1      45.974  36.839  27.076  1.00  0.00     0.127 S 
ATOM    100  O   UNL A   1      44.527  36.990  26.931  1.00  0.00    -0.237 OA
ATOM    101  O   UNL A   1      46.634  37.935  27.786  1.00  0.00    -0.237 OA
ATOM    102  O   UNL A   1      46.677  36.380  25.886  1.00  0.00    -0.744 OA
ENDBRANCH  96  99
ENDBRANCH  69  92
ENDBRANCH  43  44
ENDBRANCH  36  38
ENDBRANCH  35  36
ENDBRANCH  34  35
ENDBRANCH  33  34
ENDBRANCH  32  33
ENDBRANCH  31  32
ENDBRANCH  30  31
ENDBRANCH   1  30
TORSDOF 26
ENDMDL
MODEL 2
REMARK VINA RESULT:      -8.8      3.902      5.930
REMARK SMILES Cc1ccc(S(=O)(=O)Nc2ccc(C(=O)CCC(=O)OCCOCCOCCOC(=O)c3ccc(-c4c5nc(c(-c6cccc(S(=O)(=O)[O-])c6F)c6ccc([nH]6)c(-c6cccc(S(=O)(=O)[O-])c6F)c6nc(c(-c7cccc(S(=O)(=O)[O-])c7F)c7ccc4[nH]7)C=C6)C=C5)cc3)cc2)c(C)c1
REMARK SMILES IDX 23 1 22 2 21 3 20 4 18 5 19 6 17 7 16 8 14 9 15 10 13 11
REMARK SMILES IDX 10 12 11 13 96 14 12 15 95 16 9 17 6 19 7 20 8 21 5 22 1 23
REMARK SMILES IDX 2 24 3 25 99 26 4 27 97 28 98 29 24 30 25 31 26 32 27 33
REMARK SMILES IDX 28 34 29 35 30 36 31 37 32 38 33 39 94 40 34 41 93 42 35 43
REMARK SMILES IDX 36 44 37 45 87 46 38 47 92 48 86 49 88 50 39 51 91 52 85 53
REMARK SMILES IDX 84 54 40 56 72 57 52 58 71 59 53 60 56 61 70 62 89 63 54 64
REMARK SMILES IDX 55 65 69 67 90 68 57 69 41 70 42 71 50 72 43 73 45 74 51 75
REMARK SMILES IDX 44 76 46 77 47 78 48 79 49 80 73 81 74 82 82 83 75 84 77 85
REMARK SMILES IDX 83 86 76 87 78 88 79 89 80 90 81 91 58 92 59 93 67 94 60 95
REMARK SMILES IDX 62 96 68 97 61 98 63 99 64 100 65 101 66 102
REMARK H PARENT 9 18 88 55 56 66
REMARK Flexibility Score: inf
ROOT
ATOM      1  O   UNL A   1      35.960  22.246  26.028  1.00  0.00    -0.376 OA
ENDROOT
BRANCH   1   2
ATOM      2  C   UNL A   1      34.817  22.907  25.510  1.00  0.00     0.202 C 
BRANCH   2   3
ATOM      3  C   UNL A   1      33.534  22.483  26.218  1.00  0.00     0.261 C 
BRANCH   3   4
ATOM      4  O   UNL A   1      32.708  23.594  26.578  1.00  0.00    -0.463 OA
BRANCH   4   5
ATOM      5  C   UNL A   1      31.386  23.494  26.327  1.00  0.00     0.306 C 
ATOM      6  O   UNL A   1      30.493  23.878  27.070  1.00  0.00    -0.252 OA
BRANCH   5   7
ATOM      7  C   UNL A   1      31.129  22.849  24.985  1.00  0.00     0.131 C 
BRANCH   7   8
ATOM      8  C   UNL A   1      31.260  23.766  23.763  1.00  0.00     0.093 C 
BRANCH   8   9
ATOM      9  C   UNL A   1      30.679  25.164  23.996  1.00  0.00     0.163 C 
ATOM     10  O   UNL A   1      29.459  25.332  24.017  1.00  0.00    -0.294 OA
BRANCH   9  11
ATOM     11  C   UNL A   1      31.566  26.373  24.100  1.00  0.00     0.018 A 
ATOM     12  C   UNL A   1      33.120  28.599  24.906  1.00  0.00     0.049 A 
ATOM     13  C   UNL A   1      33.700  27.334  24.753  1.00  0.00     0.027 A 
ATOM     14  C   UNL A   1      31.837  28.777  24.426  1.00  0.00     0.027 A 
ATOM     15  C   UNL A   1      32.928  26.223  24.364  1.00  0.00     0.014 A 
ATOM     16  C   UNL A   1      31.075  27.668  24.023  1.00  0.00     0.014 A 
BRANCH  12  17
ATOM     17  N   UNL A   1      33.910  29.626  25.497  1.00  0.00    -0.280 N 
ATOM     18  H   UNL A   1      34.331  30.268  24.879  1.00  0.00     0.180 HD
BRANCH  17  19
ATOM     19  S   UNL A   1      34.202  29.862  27.143  1.00  0.00     0.262 S 
ATOM     20  O   UNL A   1      35.532  29.365  27.429  1.00  0.00    -0.201 OA
ATOM     21  O   UNL A   1      33.045  29.289  27.800  1.00  0.00    -0.201 OA
BRANCH  19  22
ATOM     22  C   UNL A   1      34.185  31.612  27.540  1.00  0.00     0.090 A 
ATOM     23  C   UNL A   1      33.701  35.262  29.774  1.00  0.00     0.044 C 
ATOM     24  C   UNL A   1      33.917  34.091  28.854  1.00  0.00    -0.051 A 
ATOM     25  C   UNL A   1      35.176  33.497  28.707  1.00  0.00     0.005 A 
ATOM     26  C   UNL A   1      32.841  33.543  28.157  1.00  0.00     0.008 A 
ATOM     27  C   UNL A   1      35.309  32.244  28.077  1.00  0.00     0.023 A 
ATOM     28  C   UNL A   1      32.963  32.319  27.471  1.00  0.00    -0.030 A 
ATOM     29  C   UNL A   1      31.799  31.907  26.609  1.00  0.00     0.046 C 
ENDBRANCH  19  22
ENDBRANCH  17  19
ENDBRANCH  12  17
ENDBRANCH   9  11
ENDBRANCH   8   9
ENDBRANCH   7   8
ENDBRANCH   5   7
ENDBRANCH   4   5
ENDBRANCH   3   4
ENDBRANCH   2   3
ENDBRANCH   1   2
BRANCH   1  30
ATOM     30  C   UNL A   1      37.157  22.517  25.316  1.00  0.00     0.188 C 
BRANCH  30  31
ATOM     31  C   UNL A   1      38.215  23.214  26.159  1.00  0.00     0.188 C 
BRANCH  31  32
ATOM     32  O   UNL A   1      39.368  22.492  26.566  1.00  0.00    -0.376 OA
BRANCH  32  33
ATOM     33  C   UNL A   1      40.435  23.298  27.085  1.00  0.00     0.202 C 
BRANCH  33  34
ATOM     34  C   UNL A   1      40.298  24.835  27.035  1.00  0.00     0.261 C 
BRANCH  34  35
ATOM     35  O   UNL A   1      40.788  25.406  25.817  1.00  0.00    -0.460 OA
BRANCH  35  36
ATOM     36  C   UNL A   1      42.141  25.564  25.753  1.00  0.00     0.338 C 
ATOM     37  O   UNL A   1      42.922  24.870  25.138  1.00  0.00    -0.246 OA
BRANCH  36  38
ATOM     38  C   UNL A   1      42.473  26.920  26.280  1.00  0.00     0.060 A 
ATOM     39  C   UNL A   1      43.489  27.001  27.253  1.00  0.00     0.016 A 
ATOM     40  C   UNL A   1      41.952  28.086  25.711  1.00  0.00     0.016 A 
ATOM     41  C   UNL A   1      43.959  28.238  27.679  1.00  0.00     0.010 A 
ATOM     42  C   UNL A   1      42.386  29.328  26.171  1.00  0.00     0.010 A 
ATOM     43  C   UNL A   1      43.348  29.398  27.195  1.00  0.00    -0.014 A 
BRANCH  43  44
ATOM     44  C   UNL A   1      43.401  30.606  28.044  1.00  0.00     0.031 A 
ATOM     45  C   UNL A   1      44.560  31.533  27.798  1.00  0.00     0.074 A 
ATOM     46  C   UNL A   1      42.472  30.882  28.973  1.00  0.00     0.049 A 
ATOM     47  N   UNL A   1      44.890  32.637  28.407  1.00  0.00    -0.248 NA
ATOM     48  C   UNL A   1      45.483  31.145  26.712  1.00  0.00     0.031 C 
ATOM     49  C   UNL A   1      41.305  30.060  29.281  1.00  0.00     0.029 A 
ATOM     50  N   UNL A   1      42.395  31.932  29.851  1.00  0.00    -0.354 N 
ATOM     51  C   UNL A   1      46.066  33.058  27.798  1.00  0.00     0.074 A 
ATOM     52  C   UNL A   1      46.410  32.081  26.793  1.00  0.00     0.031 C 
ATOM     53  C   UNL A   1      40.648  30.616  30.315  1.00  0.00     0.029 A 
ATOM     54  C   UNL A   1      41.363  31.816  30.750  1.00  0.00     0.049 A 
ATOM     55  H   UNL A   1      43.017  32.694  29.837  1.00  0.00     0.167 HD
ATOM     56  C   UNL A   1      46.795  34.169  28.041  1.00  0.00     0.034 A 
ATOM     57  C   UNL A   1      41.063  32.579  31.819  1.00  0.00     0.034 A 
ATOM     58  C   UNL A   1      46.454  35.124  29.054  1.00  0.00     0.049 A 
ATOM     59  C   UNL A   1      41.902  33.798  32.102  1.00  0.00     0.074 A 
ATOM     60  C   UNL A   1      47.102  36.297  29.385  1.00  0.00     0.029 A 
ATOM     61  N   UNL A   1      45.375  34.998  29.917  1.00  0.00    -0.354 N 
ATOM     62  N   UNL A   1      42.959  34.242  31.461  1.00  0.00    -0.248 NA
ATOM     63  C   UNL A   1      41.489  34.644  33.230  1.00  0.00     0.031 C 
ATOM     64  C   UNL A   1      46.435  36.863  30.477  1.00  0.00     0.029 A 
ATOM     65  C   UNL A   1      45.342  36.069  30.790  1.00  0.00     0.049 A 
ATOM     66  H   UNL A   1      44.728  34.256  29.908  1.00  0.00     0.167 HD
ATOM     67  C   UNL A   1      43.315  35.435  32.084  1.00  0.00     0.074 A 
ATOM     68  C   UNL A   1      42.348  35.650  33.143  1.00  0.00     0.031 C 
ATOM     69  C   UNL A   1      44.345  36.275  31.811  1.00  0.00     0.034 A 
BRANCH  56  70
ATOM     70  C   UNL A   1      48.024  34.379  27.199  1.00  0.00     0.023 A 
ATOM     71  C   UNL A   1      47.920  35.017  25.944  1.00  0.00     0.012 A 
ATOM     72  C   UNL A   1      49.281  33.920  27.637  1.00  0.00     0.148 A 
ATOM     73  C   UNL A   1      49.035  35.148  25.118  1.00  0.00     0.002 A 
ATOM     74  C   UNL A   1      50.398  34.105  26.831  1.00  0.00     0.091 A 
ATOM     75  F   UNL A   1      49.356  33.283  28.813  1.00  0.00    -0.205 F 
ATOM     76  C   UNL A   1      50.275  34.701  25.565  1.00  0.00     0.022 A 
BRANCH  74  77
ATOM     77  S   UNL A   1      52.050  33.634  27.352  1.00  0.00     0.127 S 
ATOM     78  O   UNL A   1      52.845  33.997  26.180  1.00  0.00    -0.237 OA
ATOM     79  O   UNL A   1      52.256  34.493  28.519  1.00  0.00    -0.237 OA
ATOM     80  O   UNL A   1      51.987  32.211  27.650  1.00  0.00    -0.744 OA
ENDBRANCH  74  77
ENDBRANCH  56  70
BRANCH  57  81
ATOM     81  C   UNL A   1      39.908  32.212  32.684  1.00  0.00     0.023 A 
ATOM     82  C   UNL A   1      40.099  31.381  33.805  1.00  0.00     0.012 A 
ATOM     83  C   UNL A   1      38.622  32.726  32.421  1.00  0.00     0.148 A 
ATOM     84  C   UNL A   1      39.026  31.052  34.635  1.00  0.00     0.002 A 
ATOM     85  C   UNL A   1      37.570  32.440  33.283  1.00  0.00     0.091 A 
ATOM     86  F   UNL A   1      38.459  33.503  31.341  1.00  0.00    -0.205 F 
ATOM     87  C   UNL A   1      37.766  31.590  34.383  1.00  0.00     0.022 A 
BRANCH  85  88
ATOM     88  S   UNL A   1      35.946  33.188  33.109  1.00  0.00     0.127 S 
ATOM     89  O   UNL A   1      35.294  32.274  32.174  1.00  0.00    -0.237 OA
ATOM     90  O   UNL A   1      35.444  33.129  34.481  1.00  0.00    -0.237 OA
ATOM     91  O   UNL A   1      36.180  34.536  32.608  1.00  0.00    -0.744 OA
ENDBRANCH  85  88
ENDBRANCH  57  81
BRANCH  69  92
ATOM     92  C   UNL A   1      44.458  37.533  32.633  1.00  0.00     0.023 A 
ATOM     93  C   UNL A   1      45.186  37.530  33.838  1.00  0.00     0.012 A 
ATOM     94  C   UNL A   1      43.905  38.739  32.160  1.00  0.00     0.148 A 
ATOM     95  C   UNL A   1      45.327  38.701  34.581  1.00  0.00     0.002 A 
ATOM     96  C   UNL A   1      44.098  39.913  32.876  1.00  0.00     0.091 A 
ATOM     97  F   UNL A   1      43.205  38.717  31.016  1.00  0.00    -0.205 F 
ATOM     98  C   UNL A   1      44.795  39.894  34.095  1.00  0.00     0.022 A 
BRANCH  96  99
ATOM     99  S   UNL A   1      43.539  41.510  32.272  1.00  0.00     0.127 S 
ATOM    100  O   UNL A   1      42.087  41.375  32.377  1.00  0.00    -0.237 OA
ATOM    101  O   UNL A   1      44.138  42.432  33.237  1.00  0.00    -0.237 OA
ATOM    102  O   UNL A   1      44.059  41.633  30.916  1.00  0.00    -0.744 OA
ENDBRANCH  96  99
ENDBRANCH  69  92
ENDBRANCH  43  44
ENDBRANCH  36  38
ENDBRANCH  35  36
ENDBRANCH  34  35
ENDBRANCH  33  34
ENDBRANCH  32  33
ENDBRANCH  31  32
ENDBRANCH  30  31
ENDBRANCH   1  30
TORSDOF 26
ENDMDL
MODEL 3
REMARK VINA RESULT:      -8.6      3.610      6.143
REMARK SMILES Cc1ccc(S(=O)(=O)Nc2ccc(C(=O)CCC(=O)OCCOCCOCCOC(=O)c3ccc(-c4c5nc(c(-c6cccc(S(=O)(=O)[O-])c6F)c6ccc([nH]6)c(-c6cccc(S(=O)(=O)[O-])c6F)c6nc(c(-c7cccc(S(=O)(=O)[O-])c7F)c7ccc4[nH]7)C=C6)C=C5)cc3)cc2)c(C)c1
REMARK SMILES IDX 23 1 22 2 21 3 20 4 18 5 19 6 17 7 16 8 14 9 15 10 13 11
REMARK SMILES IDX 10 12 11 13 96 14 12 15 95 16 9 17 6 19 7 20 8 21 5 22 1 23
REMARK SMILES IDX 2 24 3 25 99 26 4 27 97 28 98 29 24 30 25 31 26 32 27 33
REMARK SMILES IDX 28 34 29 35 30 36 31 37 32 38 33 39 94 40 34 41 93 42 35 43
REMARK SMILES IDX 36 44 37 45 87 46 38 47 92 48 86 49 88 50 39 51 91 52 85 53
REMARK SMILES IDX 84 54 40 56 72 57 52 58 71 59 53 60 56 61 70 62 89 63 54 64
REMARK SMILES IDX 55 65 69 67 90 68 57 69 41 70 42 71 50 72 43 73 45 74 51 75
REMARK SMILES IDX 44 76 46 77 47 78 48 79 49 80 73 81 74 82 82 83 75 84 77 85
REMARK SMILES IDX 83 86 76 87 78 88 79 89 80 90 81 91 58 92 59 93 67 94 60 95
REMARK SMILES IDX 62 96 68 97 61 98 63 99 64 100 65 101 66 102
REMARK H PARENT 9 18 88 55 56 66
REMARK Flexibility Score: inf
ROOT
ATOM      1  O   UNL A   1      35.131  24.730  25.866  1.00  0.00    -0.376 OA
ENDROOT
BRANCH   1   2
ATOM      2  C   UNL A   1      33.929  25.467  25.704  1.00  0.00     0.202 C 
BRANCH   2   3
ATOM      3  C   UNL A   1      34.191  26.935  25.387  1.00  0.00     0.261 C 
BRANCH   3   4
ATOM      4  O   UNL A   1      33.671  27.819  26.385  1.00  0.00    -0.463 OA
BRANCH   4   5
ATOM      5  C   UNL A   1      32.821  28.785  25.979  1.00  0.00     0.306 C 
ATOM      6  O   UNL A   1      33.110  29.963  25.825  1.00  0.00    -0.252 OA
BRANCH   5   7
ATOM      7  C   UNL A   1      31.440  28.228  25.719  1.00  0.00     0.131 C 
BRANCH   7   8
ATOM      8  C   UNL A   1      30.836  28.544  24.345  1.00  0.00     0.093 C 
BRANCH   8   9
ATOM      9  C   UNL A   1      31.747  28.141  23.181  1.00  0.00     0.163 C 
ATOM     10  O   UNL A   1      32.315  29.005  22.512  1.00  0.00    -0.294 OA
BRANCH   9  11
ATOM     11  C   UNL A   1      31.890  26.705  22.761  1.00  0.00     0.018 A 
ATOM     12  C   UNL A   1      32.541  23.966  22.460  1.00  0.00     0.049 A 
ATOM     13  C   UNL A   1      31.404  24.360  23.174  1.00  0.00     0.027 A 
ATOM     14  C   UNL A   1      33.194  24.927  21.713  1.00  0.00     0.027 A 
ATOM     15  C   UNL A   1      31.084  25.722  23.336  1.00  0.00     0.014 A 
ATOM     16  C   UNL A   1      32.861  26.283  21.864  1.00  0.00     0.014 A 
BRANCH  12  17
ATOM     17  N   UNL A   1      32.915  22.592  22.511  1.00  0.00    -0.280 N 
ATOM     18  H   UNL A   1      33.862  22.401  22.703  1.00  0.00     0.180 HD
BRANCH  17  19
ATOM     19  S   UNL A   1      31.910  21.257  22.276  1.00  0.00     0.262 S 
ATOM     20  O   UNL A   1      31.971  20.901  20.873  1.00  0.00    -0.201 OA
ATOM     21  O   UNL A   1      30.652  21.640  22.884  1.00  0.00    -0.201 OA
BRANCH  19  22
ATOM     22  C   UNL A   1      32.506  19.848  23.214  1.00  0.00     0.090 A 
ATOM     23  C   UNL A   1      32.510  16.156  25.433  1.00  0.00     0.044 C 
ATOM     24  C   UNL A   1      32.686  17.451  24.686  1.00  0.00    -0.051 A 
ATOM     25  C   UNL A   1      33.008  17.475  23.324  1.00  0.00     0.005 A 
ATOM     26  C   UNL A   1      32.487  18.667  25.341  1.00  0.00     0.008 A 
ATOM     27  C   UNL A   1      32.890  18.664  22.580  1.00  0.00     0.023 A 
ATOM     28  C   UNL A   1      32.422  19.878  24.625  1.00  0.00    -0.030 A 
ATOM     29  C   UNL A   1      32.380  21.144  25.440  1.00  0.00     0.046 C 
ENDBRANCH  19  22
ENDBRANCH  17  19
ENDBRANCH  12  17
ENDBRANCH   9  11
ENDBRANCH   8   9
ENDBRANCH   7   8
ENDBRANCH   5   7
ENDBRANCH   4   5
ENDBRANCH   3   4
ENDBRANCH   2   3
ENDBRANCH   1   2
BRANCH   1  30
ATOM     30  C   UNL A   1      35.167  23.517  25.131  1.00  0.00     0.188 C 
BRANCH  30  31
ATOM     31  C   UNL A   1      35.508  22.305  25.987  1.00  0.00     0.188 C 
BRANCH  31  32
ATOM     32  O   UNL A   1      36.137  21.182  25.385  1.00  0.00    -0.376 OA
BRANCH  32  33
ATOM     33  C   UNL A   1      37.553  21.094  25.600  1.00  0.00     0.202 C 
BRANCH  33  34
ATOM     34  C   UNL A   1      38.404  22.376  25.483  1.00  0.00     0.261 C 
BRANCH  34  35
ATOM     35  O   UNL A   1      39.785  22.167  25.802  1.00  0.00    -0.460 OA
BRANCH  35  36
ATOM     36  C   UNL A   1      40.111  22.339  27.115  1.00  0.00     0.338 C 
ATOM     37  O   UNL A   1      40.608  21.514  27.851  1.00  0.00    -0.246 OA
BRANCH  36  38
ATOM     38  C   UNL A   1      40.072  23.800  27.413  1.00  0.00     0.060 A 
ATOM     39  C   UNL A   1      40.596  24.670  26.436  1.00  0.00     0.016 A 
ATOM     40  C   UNL A   1      39.381  24.316  28.514  1.00  0.00     0.016 A 
ATOM     41  C   UNL A   1      40.459  26.047  26.572  1.00  0.00     0.010 A 
ATOM     42  C   UNL A   1      39.284  25.697  28.678  1.00  0.00     0.010 A 
ATOM     43  C   UNL A   1      39.874  26.558  27.735  1.00  0.00    -0.014 A 
BRANCH  43  44
ATOM     44  C   UNL A   1      40.259  27.921  28.154  1.00  0.00     0.031 A 
ATOM     45  C   UNL A   1      41.733  28.223  28.132  1.00  0.00     0.074 A 
ATOM     46  C   UNL A   1      39.362  28.848  28.520  1.00  0.00     0.049 A 
ATOM     47  N   UNL A   1      42.368  29.307  28.480  1.00  0.00    -0.248 NA
ATOM     48  C   UNL A   1      42.613  27.136  27.658  1.00  0.00     0.031 C 
ATOM     49  C   UNL A   1      37.914  28.663  28.563  1.00  0.00     0.029 A 
ATOM     50  N   UNL A   1      39.557  30.133  28.958  1.00  0.00    -0.354 N 
ATOM     51  C   UNL A   1      43.715  29.023  28.292  1.00  0.00     0.074 A 
ATOM     52  C   UNL A   1      43.812  27.660  27.828  1.00  0.00     0.031 C 
ATOM     53  C   UNL A   1      37.351  29.785  29.049  1.00  0.00     0.029 A 
ATOM     54  C   UNL A   1      38.402  30.751  29.369  1.00  0.00     0.049 A 
ATOM     55  H   UNL A   1      40.439  30.569  28.974  1.00  0.00     0.167 HD
ATOM     56  C   UNL A   1      44.784  29.828  28.476  1.00  0.00     0.034 A 
ATOM     57  C   UNL A   1      38.231  31.945  29.967  1.00  0.00     0.034 A 
ATOM     58  C   UNL A   1      44.677  31.175  28.954  1.00  0.00     0.049 A 
ATOM     59  C   UNL A   1      39.433  32.824  30.199  1.00  0.00     0.074 A 
ATOM     60  C   UNL A   1      45.684  32.096  29.165  1.00  0.00     0.029 A 
ATOM     61  N   UNL A   1      43.486  31.784  29.318  1.00  0.00    -0.354 N 
ATOM     62  N   UNL A   1      40.696  32.584  29.930  1.00  0.00    -0.248 NA
ATOM     63  C   UNL A   1      39.188  34.150  30.780  1.00  0.00     0.031 C 
ATOM     64  C   UNL A   1      45.103  33.254  29.695  1.00  0.00     0.029 A 
ATOM     65  C   UNL A   1      43.729  33.070  29.763  1.00  0.00     0.049 A 
ATOM     66  H   UNL A   1      42.597  31.363  29.267  1.00  0.00     0.167 HD
ATOM     67  C   UNL A   1      41.390  33.740  30.274  1.00  0.00     0.074 A 
ATOM     68  C   UNL A   1      40.401  34.685  30.757  1.00  0.00     0.031 C 
ATOM     69  C   UNL A   1      42.720  34.000  30.203  1.00  0.00     0.034 A 
BRANCH  56  70
ATOM     70  C   UNL A   1      46.138  29.250  28.166  1.00  0.00     0.023 A 
ATOM     71  C   UNL A   1      46.727  29.470  26.902  1.00  0.00     0.012 A 
ATOM     72  C   UNL A   1      46.818  28.464  29.115  1.00  0.00     0.148 A 
ATOM     73  C   UNL A   1      47.944  28.876  26.570  1.00  0.00     0.002 A 
ATOM     74  C   UNL A   1      48.057  27.921  28.797  1.00  0.00     0.091 A 
ATOM     75  F   UNL A   1      46.227  28.233  30.296  1.00  0.00    -0.205 F 
ATOM     76  C   UNL A   1      48.613  28.110  27.521  1.00  0.00     0.022 A 
BRANCH  74  77
ATOM     77  S   UNL A   1      49.031  26.986  29.980  1.00  0.00     0.127 S 
ATOM     78  O   UNL A   1      50.001  27.988  30.422  1.00  0.00    -0.237 OA
ATOM     79  O   UNL A   1      48.028  26.624  30.981  1.00  0.00    -0.237 OA
ATOM     80  O   UNL A   1      49.586  25.860  29.242  1.00  0.00    -0.744 OA
ENDBRANCH  74  77
ENDBRANCH  56  70
BRANCH  57  81
ATOM     81  C   UNL A   1      36.863  32.377  30.372  1.00  0.00     0.023 A 
ATOM     82  C   UNL A   1      36.426  32.191  31.697  1.00  0.00     0.012 A 
ATOM     83  C   UNL A   1      36.010  33.015  29.450  1.00  0.00     0.148 A 
ATOM     84  C   UNL A   1      35.156  32.614  32.091  1.00  0.00     0.002 A 
ATOM     85  C   UNL A   1      34.769  33.485  29.863  1.00  0.00     0.091 A 
ATOM     86  F   UNL A   1      36.441  33.170  28.190  1.00  0.00    -0.205 F 
ATOM     87  C   UNL A   1      34.333  33.272  31.180  1.00  0.00     0.022 A 
BRANCH  85  88
ATOM     88  S   UNL A   1      33.696  34.452  28.794  1.00  0.00     0.127 S 
ATOM     89  O   UNL A   1      32.706  34.956  29.741  1.00  0.00    -0.237 OA
ATOM     90  O   UNL A   1      34.623  35.459  28.277  1.00  0.00    -0.237 OA
ATOM     91  O   UNL A   1      33.192  33.524  27.792  1.00  0.00    -0.744 OA
ENDBRANCH  85  88
ENDBRANCH  57  81
BRANCH  69  92
ATOM     92  C   UNL A   1      43.186  35.375  30.608  1.00  0.00     0.023 A 
ATOM     93  C   UNL A   1      43.593  35.625  31.933  1.00  0.00     0.012 A 
ATOM     94  C   UNL A   1      43.296  36.397  29.644  1.00  0.00     0.148 A 
ATOM     95  C   UNL A   1      44.063  36.885  32.301  1.00  0.00     0.002 A 
ATOM     96  C   UNL A   1      43.819  37.631  30.005  1.00  0.00     0.091 A 
ATOM     97  F   UNL A   1      42.892  36.141  28.391  1.00  0.00    -0.205 F 
ATOM     98  C   UNL A   1      44.188  37.883  31.337  1.00  0.00     0.022 A 
BRANCH  96  99
ATOM     99  S   UNL A   1      44.113  38.938  28.808  1.00  0.00     0.127 S 
ATOM    100  O   UNL A   1      44.174  40.119  29.667  1.00  0.00    -0.237 OA
ATOM    101  O   UNL A   1      45.396  38.540  28.226  1.00  0.00    -0.237 OA
ATOM    102  O   UNL A   1      42.990  38.896  27.881  1.00  0.00    -0.744 OA
ENDBRANCH  96  99
ENDBRANCH  69  92
ENDBRANCH  43  44
ENDBRANCH  36  38
ENDBRANCH  35  36
ENDBRANCH  34  35
ENDBRANCH  33  34
ENDBRANCH  32  33
ENDBRANCH  31  32
ENDBRANCH  30  31
ENDBRANCH   1  30
TORSDOF 26
ENDMDL
