MODEL 1
REMARK VINA RESULT:     -11.1      0.000      0.000
REMARK SMILES [NH3+]Cc1ccc(C(=O)N2[C@@H](C(=O)OCCOCCOCCOC(=O)c3ccc(-c4c5nc(c(-c6cccc(S(=O)(=O)[O-])c6F)c6ccc([nH]6)c(-c6cccc(S(=O)(=O)[O-])c6F)c6nc(c(-c7cccc(S(=O)(=O)[O-])c7F)c7ccc4[nH]7)C=C6)C=C5)cc3)C[C@H]3CCCC[C@@H]32)o1
REMARK SMILES IDX 17 1 16 2 15 3 14 4 13 5 11 6 12 7 10 8 9 9 94 10 88 11
REMARK SMILES IDX 89 12 93 13 90 14 92 15 91 16 7 17 8 18 6 19 3 20 4 21 95 22
REMARK SMILES IDX 5 23 2 24 1 25 18 29 19 30 20 31 21 32 22 33 23 34 24 35
REMARK SMILES IDX 25 36 26 37 87 38 27 39 86 40 28 41 29 42 30 43 80 44 31 45
REMARK SMILES IDX 85 46 79 47 81 48 32 49 84 50 78 51 77 52 33 54 65 55 45 56
REMARK SMILES IDX 64 57 46 58 49 59 63 60 82 61 47 62 48 63 62 65 83 66 50 67
REMARK SMILES IDX 34 68 35 69 43 70 36 71 38 72 44 73 37 74 39 75 40 76 41 77
REMARK SMILES IDX 42 78 66 79 67 80 75 81 68 82 70 83 76 84 69 85 71 86 72 87
REMARK SMILES IDX 73 88 74 89 51 90 52 91 60 92 53 93 55 94 61 95 54 96 56 97
REMARK SMILES IDX 57 98 58 99 59 100
REMARK H PARENT 1 26 1 27 1 28 81 53 49 64
REMARK Flexibility Score: inf
ROOT
ATOM      1  C   UNL A   1      32.965  29.392  24.916  1.00  0.00     0.188 C 
ENDROOT
BRANCH   1   2
ATOM      2  O   UNL A   1      33.489  28.398  25.778  1.00  0.00    -0.376 OA
BRANCH   2   3
ATOM      3  C   UNL A   1      32.907  27.105  25.797  1.00  0.00     0.202 C 
BRANCH   3   4
ATOM      4  C   UNL A   1      33.702  25.915  25.253  1.00  0.00     0.261 C 
BRANCH   4   5
ATOM      5  O   UNL A   1      33.133  25.396  24.042  1.00  0.00    -0.462 OA
BRANCH   5   6
ATOM      6  C   UNL A   1      32.091  24.517  24.179  1.00  0.00     0.328 C 
ATOM      7  O   UNL A   1      31.034  24.777  24.730  1.00  0.00    -0.250 OA
BRANCH   6   8
ATOM      8  C   UNL A   1      32.457  23.174  23.499  1.00  0.00     0.196 C 
ATOM      9  N   UNL A   1      32.828  22.135  24.454  1.00  0.00    -0.319 N 
ATOM     10  C   UNL A   1      34.207  22.307  24.797  1.00  0.00     0.089 C 
ATOM     11  C   UNL A   1      33.736  23.386  22.669  1.00  0.00     0.043 C 
ATOM     12  C   UNL A   1      34.788  22.543  23.395  1.00  0.00     0.014 C 
ATOM     13  C   UNL A   1      34.980  21.182  25.461  1.00  0.00     0.025 C 
ATOM     14  C   UNL A   1      36.188  23.109  23.506  1.00  0.00     0.006 C 
ATOM     15  C   UNL A   1      36.447  21.616  25.586  1.00  0.00     0.002 C 
ATOM     16  C   UNL A   1      37.063  22.101  24.262  1.00  0.00     0.000 C 
BRANCH   9  17
ATOM     17  C   UNL A   1      32.007  21.157  24.981  1.00  0.00     0.290 C 
ATOM     18  O   UNL A   1      31.299  21.393  25.957  1.00  0.00    -0.265 OA
BRANCH  17  19
ATOM     19  C   UNL A   1      32.227  19.808  24.458  1.00  0.00     0.192 A 
ATOM     20  C   UNL A   1      32.758  17.663  24.660  1.00  0.00     0.159 A 
ATOM     21  C   UNL A   1      32.847  17.960  23.317  1.00  0.00     0.052 A 
ATOM     22  O   UNL A   1      32.355  18.770  25.352  1.00  0.00    -0.450 OA
ATOM     23  C   UNL A   1      32.508  19.328  23.188  1.00  0.00     0.057 A 
BRANCH  20  24
ATOM     24  C   UNL A   1      33.100  16.437  25.436  1.00  0.00     0.335 C 
BRANCH  24  25
ATOM     25  N   UNL A   1      34.524  16.196  25.546  1.00  0.00    -0.351 N 
ATOM     26  H   UNL A   1      34.850  15.701  24.716  1.00  0.00     0.344 HD
ATOM     27  H   UNL A   1      34.710  15.631  26.374  1.00  0.00     0.344 HD
ATOM     28  H   UNL A   1      35.014  17.087  25.625  1.00  0.00     0.344 HD
ENDBRANCH  24  25
ENDBRANCH  20  24
ENDBRANCH  17  19
ENDBRANCH   9  17
ENDBRANCH   6   8
ENDBRANCH   5   6
ENDBRANCH   4   5
ENDBRANCH   3   4
ENDBRANCH   2   3
ENDBRANCH   1   2
BRANCH   1  29
ATOM     29  C   UNL A   1      31.454  29.728  24.953  1.00  0.00     0.188 C 
BRANCH  29  30
ATOM     30  O   UNL A   1      31.012  30.903  25.586  1.00  0.00    -0.376 OA
BRANCH  30  31
ATOM     31  C   UNL A   1      31.801  31.509  26.590  1.00  0.00     0.202 C 
BRANCH  31  32
ATOM     32  C   UNL A   1      31.981  33.028  26.778  1.00  0.00     0.261 C 
BRANCH  32  33
ATOM     33  O   UNL A   1      32.478  33.496  28.036  1.00  0.00    -0.460 OA
BRANCH  33  34
ATOM     34  C   UNL A   1      33.637  34.210  27.976  1.00  0.00     0.338 C 
ATOM     35  O   UNL A   1      33.752  35.402  27.788  1.00  0.00    -0.246 OA
BRANCH  34  36
ATOM     36  C   UNL A   1      34.765  33.344  28.387  1.00  0.00     0.060 A 
ATOM     37  C   UNL A   1      34.478  32.114  28.994  1.00  0.00     0.016 A 
ATOM     38  C   UNL A   1      36.086  33.753  28.210  1.00  0.00     0.016 A 
ATOM     39  C   UNL A   1      35.516  31.299  29.444  1.00  0.00     0.010 A 
ATOM     40  C   UNL A   1      37.123  32.944  28.688  1.00  0.00     0.010 A 
ATOM     41  C   UNL A   1      36.844  31.725  29.334  1.00  0.00    -0.014 A 
BRANCH  41  42
ATOM     42  C   UNL A   1      37.923  30.984  30.035  1.00  0.00     0.031 A 
ATOM     43  C   UNL A   1      38.234  31.335  31.464  1.00  0.00     0.074 A 
ATOM     44  C   UNL A   1      38.623  30.012  29.422  1.00  0.00     0.049 A 
ATOM     45  N   UNL A   1      39.173  30.875  32.247  1.00  0.00    -0.248 NA
ATOM     46  C   UNL A   1      37.364  32.342  32.094  1.00  0.00     0.031 C 
ATOM     47  C   UNL A   1      38.404  29.542  28.057  1.00  0.00     0.029 A 
ATOM     48  N   UNL A   1      39.682  29.261  29.875  1.00  0.00    -0.354 N 
ATOM     49  C   UNL A   1      39.042  31.567  33.445  1.00  0.00     0.074 A 
ATOM     50  C   UNL A   1      37.925  32.474  33.286  1.00  0.00     0.031 C 
ATOM     51  C   UNL A   1      39.332  28.615  27.765  1.00  0.00     0.029 A 
ATOM     52  C   UNL A   1      40.229  28.451  28.909  1.00  0.00     0.049 A 
ATOM     53  H   UNL A   1      40.013  29.299  30.800  1.00  0.00     0.167 HD
ATOM     54  C   UNL A   1      39.779  31.458  34.576  1.00  0.00     0.034 A 
ATOM     55  C   UNL A   1      41.348  27.697  28.927  1.00  0.00     0.034 A 
ATOM     56  C   UNL A   1      40.877  30.545  34.747  1.00  0.00     0.049 A 
ATOM     57  C   UNL A   1      42.173  27.613  30.187  1.00  0.00     0.074 A 
ATOM     58  C   UNL A   1      41.644  30.327  35.879  1.00  0.00     0.029 A 
ATOM     59  N   UNL A   1      41.379  29.713  33.759  1.00  0.00    -0.354 N 
ATOM     60  N   UNL A   1      41.976  28.192  31.346  1.00  0.00    -0.248 NA
ATOM     61  C   UNL A   1      43.362  26.746  30.150  1.00  0.00     0.031 C 
ATOM     62  C   UNL A   1      42.640  29.398  35.560  1.00  0.00     0.029 A 
ATOM     63  C   UNL A   1      42.465  29.003  34.243  1.00  0.00     0.049 A 
ATOM     64  H   UNL A   1      41.016  29.637  32.847  1.00  0.00     0.167 HD
ATOM     65  C   UNL A   1      42.991  27.739  32.183  1.00  0.00     0.074 A 
ATOM     66  C   UNL A   1      43.794  26.820  31.402  1.00  0.00     0.031 C 
ATOM     67  C   UNL A   1      43.241  28.061  33.476  1.00  0.00     0.034 A 
BRANCH  54  68
ATOM     68  C   UNL A   1      39.425  32.367  35.723  1.00  0.00     0.023 A 
ATOM     69  C   UNL A   1      38.624  31.892  36.782  1.00  0.00     0.012 A 
ATOM     70  C   UNL A   1      39.913  33.688  35.765  1.00  0.00     0.148 A 
ATOM     71  C   UNL A   1      38.282  32.728  37.844  1.00  0.00     0.002 A 
ATOM     72  C   UNL A   1      39.609  34.501  36.850  1.00  0.00     0.091 A 
ATOM     73  F   UNL A   1      40.651  34.131  34.738  1.00  0.00    -0.205 F 
ATOM     74  C   UNL A   1      38.781  34.027  37.883  1.00  0.00     0.022 A 
BRANCH  72  75
ATOM     75  S   UNL A   1      40.271  36.159  37.028  1.00  0.00     0.127 S 
ATOM     76  O   UNL A   1      39.920  36.757  35.740  1.00  0.00    -0.237 OA
ATOM     77  O   UNL A   1      39.509  36.676  38.166  1.00  0.00    -0.237 OA
ATOM     78  O   UNL A   1      41.696  35.998  37.276  1.00  0.00    -0.744 OA
ENDBRANCH  72  75
ENDBRANCH  54  68
BRANCH  55  79
ATOM     79  C   UNL A   1      41.760  26.964  27.697  1.00  0.00     0.023 A 
ATOM     80  C   UNL A   1      42.345  27.662  26.624  1.00  0.00     0.012 A 
ATOM     81  C   UNL A   1      41.594  25.567  27.600  1.00  0.00     0.148 A 
ATOM     82  C   UNL A   1      42.738  26.986  25.468  1.00  0.00     0.002 A 
ATOM     83  C   UNL A   1      42.037  24.893  26.469  1.00  0.00     0.091 A 
ATOM     84  F   UNL A   1      41.013  24.926  28.624  1.00  0.00    -0.205 F 
ATOM     85  C   UNL A   1      42.595  25.602  25.395  1.00  0.00     0.022 A 
BRANCH  83  86
ATOM     86  S   UNL A   1      42.000  23.102  26.337  1.00  0.00     0.127 S 
ATOM     87  O   UNL A   1      40.566  22.827  26.409  1.00  0.00    -0.237 OA
ATOM     88  O   UNL A   1      42.601  22.883  25.021  1.00  0.00    -0.237 OA
ATOM     89  O   UNL A   1      42.791  22.604  27.452  1.00  0.00    -0.744 OA
ENDBRANCH  83  86
ENDBRANCH  55  79
BRANCH  67  90
ATOM     90  C   UNL A   1      44.417  27.403  34.158  1.00  0.00     0.023 A 
ATOM     91  C   UNL A   1      45.673  28.044  34.167  1.00  0.00     0.012 A 
ATOM     92  C   UNL A   1      44.259  26.193  34.862  1.00  0.00     0.148 A 
ATOM     93  C   UNL A   1      46.757  27.474  34.836  1.00  0.00     0.002 A 
ATOM     94  C   UNL A   1      45.330  25.655  35.568  1.00  0.00     0.091 A 
ATOM     95  F   UNL A   1      43.061  25.589  34.835  1.00  0.00    -0.205 F 
ATOM     96  C   UNL A   1      46.583  26.288  35.545  1.00  0.00     0.022 A 
BRANCH  94  97
ATOM     97  S   UNL A   1      45.176  24.185  36.591  1.00  0.00     0.127 S 
ATOM     98  O   UNL A   1      46.571  23.909  36.929  1.00  0.00    -0.237 OA
ATOM     99  O   UNL A   1      44.363  24.668  37.708  1.00  0.00    -0.237 OA
ATOM    100  O   UNL A   1      44.525  23.181  35.759  1.00  0.00    -0.744 OA
ENDBRANCH  94  97
ENDBRANCH  67  90
ENDBRANCH  41  42
ENDBRANCH  34  36
ENDBRANCH  33  34
ENDBRANCH  32  33
ENDBRANCH  31  32
ENDBRANCH  30  31
ENDBRANCH  29  30
ENDBRANCH   1  29
TORSDOF 24
ENDMDL
MODEL 2
REMARK VINA RESULT:     -10.8      5.119      9.031
REMARK SMILES [NH3+]Cc1ccc(C(=O)N2[C@@H](C(=O)OCCOCCOCCOC(=O)c3ccc(-c4c5nc(c(-c6cccc(S(=O)(=O)[O-])c6F)c6ccc([nH]6)c(-c6cccc(S(=O)(=O)[O-])c6F)c6nc(c(-c7cccc(S(=O)(=O)[O-])c7F)c7ccc4[nH]7)C=C6)C=C5)cc3)C[C@H]3CCCC[C@@H]32)o1
REMARK SMILES IDX 17 1 16 2 15 3 14 4 13 5 11 6 12 7 10 8 9 9 94 10 88 11
REMARK SMILES IDX 89 12 93 13 90 14 92 15 91 16 7 17 8 18 6 19 3 20 4 21 95 22
REMARK SMILES IDX 5 23 2 24 1 25 18 29 19 30 20 31 21 32 22 33 23 34 24 35
REMARK SMILES IDX 25 36 26 37 87 38 27 39 86 40 28 41 29 42 30 43 80 44 31 45
REMARK SMILES IDX 85 46 79 47 81 48 32 49 84 50 78 51 77 52 33 54 65 55 45 56
REMARK SMILES IDX 64 57 46 58 49 59 63 60 82 61 47 62 48 63 62 65 83 66 50 67
REMARK SMILES IDX 34 68 35 69 43 70 36 71 38 72 44 73 37 74 39 75 40 76 41 77
REMARK SMILES IDX 42 78 66 79 67 80 75 81 68 82 70 83 76 84 69 85 71 86 72 87
REMARK SMILES IDX 73 88 74 89 51 90 52 91 60 92 53 93 55 94 61 95 54 96 56 97
REMARK SMILES IDX 57 98 58 99 59 100
REMARK H PARENT 1 26 1 27 1 28 81 53 49 64
REMARK Flexibility Score: inf
ROOT
ATOM      1  C   UNL A   1      32.630  18.928  25.028  1.00  0.00     0.188 C 
ENDROOT
BRANCH   1   2
ATOM      2  O   UNL A   1      31.801  19.847  24.338  1.00  0.00    -0.376 OA
BRANCH   2   3
ATOM      3  C   UNL A   1      32.286  21.148  24.044  1.00  0.00     0.202 C 
BRANCH   3   4
ATOM      4  C   UNL A   1      31.918  22.312  24.969  1.00  0.00     0.261 C 
BRANCH   4   5
ATOM      5  O   UNL A   1      31.699  23.529  24.242  1.00  0.00    -0.462 OA
BRANCH   5   6
ATOM      6  C   UNL A   1      32.133  24.686  24.833  1.00  0.00     0.328 C 
ATOM      7  O   UNL A   1      33.264  24.867  25.255  1.00  0.00    -0.250 OA
BRANCH   6   8
ATOM      8  C   UNL A   1      30.980  25.721  24.847  1.00  0.00     0.196 C 
ATOM      9  N   UNL A   1      31.302  26.940  24.112  1.00  0.00    -0.319 N 
ATOM     10  C   UNL A   1      32.052  27.803  24.974  1.00  0.00     0.089 C 
ATOM     11  C   UNL A   1      30.782  26.204  26.294  1.00  0.00     0.043 C 
ATOM     12  C   UNL A   1      31.213  27.672  26.253  1.00  0.00     0.014 C 
ATOM     13  C   UNL A   1      32.206  29.276  24.641  1.00  0.00     0.025 C 
ATOM     14  C   UNL A   1      31.990  28.210  27.437  1.00  0.00     0.006 C 
ATOM     15  C   UNL A   1      32.943  29.956  25.804  1.00  0.00     0.002 C 
ATOM     16  C   UNL A   1      32.309  29.689  27.179  1.00  0.00     0.000 C 
BRANCH   9  17
ATOM     17  C   UNL A   1      30.981  27.232  22.800  1.00  0.00     0.290 C 
ATOM     18  O   UNL A   1      31.742  26.925  21.887  1.00  0.00    -0.265 OA
BRANCH  17  19
ATOM     19  C   UNL A   1      29.829  28.116  22.621  1.00  0.00     0.192 A 
ATOM     20  C   UNL A   1      28.862  30.017  22.008  1.00  0.00     0.159 A 
ATOM     21  C   UNL A   1      27.956  29.365  22.816  1.00  0.00     0.052 A 
ATOM     22  O   UNL A   1      29.985  29.252  21.862  1.00  0.00    -0.450 OA
ATOM     23  C   UNL A   1      28.573  28.152  23.208  1.00  0.00     0.057 A 
BRANCH  20  24
ATOM     24  C   UNL A   1      28.850  31.372  21.386  1.00  0.00     0.335 C 
BRANCH  24  25
ATOM     25  N   UNL A   1      27.777  31.565  20.431  1.00  0.00    -0.351 N 
ATOM     26  H   UNL A   1      26.897  31.254  20.843  1.00  0.00     0.344 HD
ATOM     27  H   UNL A   1      27.970  31.022  19.590  1.00  0.00     0.344 HD
ATOM     28  H   UNL A   1      27.711  32.553  20.191  1.00  0.00     0.344 HD
ENDBRANCH  24  25
ENDBRANCH  20  24
ENDBRANCH  17  19
ENDBRANCH   9  17
ENDBRANCH   6   8
ENDBRANCH   5   6
ENDBRANCH   4   5
ENDBRANCH   3   4
ENDBRANCH   2   3
ENDBRANCH   1   2
BRANCH   1  29
ATOM     29  C   UNL A   1      34.109  18.754  24.606  1.00  0.00     0.188 C 
BRANCH  29  30
ATOM     30  O   UNL A   1      35.063  19.716  24.979  1.00  0.00    -0.376 OA
BRANCH  30  31
ATOM     31  C   UNL A   1      36.441  19.407  24.931  1.00  0.00     0.202 C 
BRANCH  31  32
ATOM     32  C   UNL A   1      37.564  20.415  24.620  1.00  0.00     0.261 C 
BRANCH  32  33
ATOM     33  O   UNL A   1      37.999  21.285  25.671  1.00  0.00    -0.460 OA
BRANCH  33  34
ATOM     34  C   UNL A   1      39.259  21.055  26.134  1.00  0.00     0.338 C 
ATOM     35  O   UNL A   1      39.934  20.064  25.954  1.00  0.00    -0.246 OA
BRANCH  34  36
ATOM     36  C   UNL A   1      39.791  22.298  26.738  1.00  0.00     0.060 A 
ATOM     37  C   UNL A   1      39.274  23.526  26.306  1.00  0.00     0.016 A 
ATOM     38  C   UNL A   1      40.809  22.255  27.689  1.00  0.00     0.016 A 
ATOM     39  C   UNL A   1      39.792  24.717  26.812  1.00  0.00     0.010 A 
ATOM     40  C   UNL A   1      41.344  23.454  28.174  1.00  0.00     0.010 A 
ATOM     41  C   UNL A   1      40.858  24.694  27.717  1.00  0.00    -0.014 A 
BRANCH  41  42
ATOM     42  C   UNL A   1      41.573  25.949  28.058  1.00  0.00     0.031 A 
ATOM     43  C   UNL A   1      40.826  27.036  28.781  1.00  0.00     0.074 A 
ATOM     44  C   UNL A   1      42.867  26.133  27.738  1.00  0.00     0.049 A 
ATOM     45  N   UNL A   1      41.221  28.236  29.116  1.00  0.00    -0.248 NA
ATOM     46  C   UNL A   1      39.444  26.725  29.180  1.00  0.00     0.031 C 
ATOM     47  C   UNL A   1      43.722  25.153  27.075  1.00  0.00     0.029 A 
ATOM     48  N   UNL A   1      43.678  27.229  27.913  1.00  0.00    -0.354 N 
ATOM     49  C   UNL A   1      40.127  28.842  29.721  1.00  0.00     0.074 A 
ATOM     50  C   UNL A   1      39.052  27.872  29.713  1.00  0.00     0.031 C 
ATOM     51  C   UNL A   1      44.927  25.709  26.854  1.00  0.00     0.029 A 
ATOM     52  C   UNL A   1      44.916  27.092  27.331  1.00  0.00     0.049 A 
ATOM     53  H   UNL A   1      43.399  28.032  28.409  1.00  0.00     0.167 HD
ATOM     54  C   UNL A   1      40.023  30.088  30.240  1.00  0.00     0.034 A 
ATOM     55  C   UNL A   1      45.909  27.989  27.163  1.00  0.00     0.034 A 
ATOM     56  C   UNL A   1      41.093  31.049  30.268  1.00  0.00     0.049 A 
ATOM     57  C   UNL A   1      45.762  29.383  27.720  1.00  0.00     0.074 A 
ATOM     58  C   UNL A   1      41.094  32.317  30.825  1.00  0.00     0.029 A 
ATOM     59  N   UNL A   1      42.345  30.861  29.703  1.00  0.00    -0.354 N 
ATOM     60  N   UNL A   1      44.761  29.908  28.383  1.00  0.00    -0.248 NA
ATOM     61  C   UNL A   1      46.897  30.300  27.531  1.00  0.00     0.031 C 
ATOM     62  C   UNL A   1      42.330  32.913  30.554  1.00  0.00     0.029 A 
ATOM     63  C   UNL A   1      43.115  32.000  29.868  1.00  0.00     0.049 A 
ATOM     64  H   UNL A   1      42.642  30.038  29.251  1.00  0.00     0.167 HD
ATOM     65  C   UNL A   1      45.154  31.201  28.717  1.00  0.00     0.074 A 
ATOM     66  C   UNL A   1      46.495  31.375  28.197  1.00  0.00     0.031 C 
ATOM     67  C   UNL A   1      44.464  32.159  29.384  1.00  0.00     0.034 A 
BRANCH  54  68
ATOM     68  C   UNL A   1      38.690  30.491  30.812  1.00  0.00     0.023 A 
ATOM     69  C   UNL A   1      38.392  30.229  32.165  1.00  0.00     0.012 A 
ATOM     70  C   UNL A   1      37.742  31.160  30.012  1.00  0.00     0.148 A 
ATOM     71  C   UNL A   1      37.157  30.589  32.702  1.00  0.00     0.002 A 
ATOM     72  C   UNL A   1      36.532  31.559  30.567  1.00  0.00     0.091 A 
ATOM     73  F   UNL A   1      38.032  31.377  28.722  1.00  0.00    -0.205 F 
ATOM     74  C   UNL A   1      36.232  31.261  31.907  1.00  0.00     0.022 A 
BRANCH  72  75
ATOM     75  S   UNL A   1      35.313  32.500  29.645  1.00  0.00     0.127 S 
ATOM     76  O   UNL A   1      34.261  32.680  30.646  1.00  0.00    -0.237 OA
ATOM     77  O   UNL A   1      36.052  33.719  29.313  1.00  0.00    -0.237 OA
ATOM     78  O   UNL A   1      34.953  31.678  28.499  1.00  0.00    -0.744 OA
ENDBRANCH  72  75
ENDBRANCH  54  68
BRANCH  55  79
ATOM     79  C   UNL A   1      47.137  27.593  26.417  1.00  0.00     0.023 A 
ATOM     80  C   UNL A   1      48.193  26.950  27.088  1.00  0.00     0.012 A 
ATOM     81  C   UNL A   1      47.247  27.832  25.031  1.00  0.00     0.148 A 
ATOM     82  C   UNL A   1      49.346  26.571  26.399  1.00  0.00     0.002 A 
ATOM     83  C   UNL A   1      48.374  27.403  24.341  1.00  0.00     0.091 A 
ATOM     84  F   UNL A   1      46.239  28.467  24.416  1.00  0.00    -0.205 F 
ATOM     85  C   UNL A   1      49.432  26.787  25.026  1.00  0.00     0.022 A 
BRANCH  83  86
ATOM     86  S   UNL A   1      48.520  27.535  22.555  1.00  0.00     0.127 S 
ATOM     87  O   UNL A   1      47.315  28.289  22.212  1.00  0.00    -0.237 OA
ATOM     88  O   UNL A   1      49.772  28.278  22.409  1.00  0.00    -0.237 OA
ATOM     89  O   UNL A   1      48.567  26.168  22.058  1.00  0.00    -0.744 OA
ENDBRANCH  83  86
ENDBRANCH  55  79
BRANCH  67  90
ATOM     90  C   UNL A   1      45.142  33.486  29.624  1.00  0.00     0.023 A 
ATOM     91  C   UNL A   1      45.867  33.700  30.814  1.00  0.00     0.012 A 
ATOM     92  C   UNL A   1      45.134  34.490  28.635  1.00  0.00     0.148 A 
ATOM     93  C   UNL A   1      46.540  34.904  31.029  1.00  0.00     0.002 A 
ATOM     94  C   UNL A   1      45.849  35.666  28.834  1.00  0.00     0.091 A 
ATOM     95  F   UNL A   1      44.431  34.276  27.513  1.00  0.00    -0.205 F 
ATOM     96  C   UNL A   1      46.542  35.880  30.036  1.00  0.00     0.022 A 
BRANCH  94  97
ATOM     97  S   UNL A   1      45.991  36.939  27.573  1.00  0.00     0.127 S 
ATOM     98  O   UNL A   1      44.784  37.730  27.809  1.00  0.00    -0.237 OA
ATOM     99  O   UNL A   1      47.239  37.606  27.944  1.00  0.00    -0.237 OA
ATOM    100  O   UNL A   1      46.037  36.238  26.296  1.00  0.00    -0.744 OA
ENDBRANCH  94  97
ENDBRANCH  67  90
ENDBRANCH  41  42
ENDBRANCH  34  36
ENDBRANCH  33  34
ENDBRANCH  32  33
ENDBRANCH  31  32
ENDBRANCH  30  31
ENDBRANCH  29  30
ENDBRANCH   1  29
TORSDOF 24
ENDMDL
MODEL 3
REMARK VINA RESULT:     -10.7      1.533      7.416
REMARK SMILES [NH3+]Cc1ccc(C(=O)N2[C@@H](C(=O)OCCOCCOCCOC(=O)c3ccc(-c4c5nc(c(-c6cccc(S(=O)(=O)[O-])c6F)c6ccc([nH]6)c(-c6cccc(S(=O)(=O)[O-])c6F)c6nc(c(-c7cccc(S(=O)(=O)[O-])c7F)c7ccc4[nH]7)C=C6)C=C5)cc3)C[C@H]3CCCC[C@@H]32)o1
REMARK SMILES IDX 17 1 16 2 15 3 14 4 13 5 11 6 12 7 10 8 9 9 94 10 88 11
REMARK SMILES IDX 89 12 93 13 90 14 92 15 91 16 7 17 8 18 6 19 3 20 4 21 95 22
REMARK SMILES IDX 5 23 2 24 1 25 18 29 19 30 20 31 21 32 22 33 23 34 24 35
REMARK SMILES IDX 25 36 26 37 87 38 27 39 86 40 28 41 29 42 30 43 80 44 31 45
REMARK SMILES IDX 85 46 79 47 81 48 32 49 84 50 78 51 77 52 33 54 65 55 45 56
REMARK SMILES IDX 64 57 46 58 49 59 63 60 82 61 47 62 48 63 62 65 83 66 50 67
REMARK SMILES IDX 34 68 35 69 43 70 36 71 38 72 44 73 37 74 39 75 40 76 41 77
REMARK SMILES IDX 42 78 66 79 67 80 75 81 68 82 70 83 76 84 69 85 71 86 72 87
REMARK SMILES IDX 73 88 74 89 51 90 52 91 60 92 53 93 55 94 61 95 54 96 56 97
REMARK SMILES IDX 57 98 58 99 59 100
REMARK H PARENT 1 26 1 27 1 28 81 53 49 64
REMARK Flexibility Score: inf
ROOT
ATOM      1  C   UNL A   1      31.514  28.337  25.132  1.00  0.00     0.188 C 
ENDROOT
BRANCH   1   2
ATOM      2  O   UNL A   1      30.934  28.474  23.847  1.00  0.00    -0.376 OA
BRANCH   2   3
ATOM      3  C   UNL A   1      30.151  27.418  23.313  1.00  0.00     0.202 C 
BRANCH   3   4
ATOM      4  C   UNL A   1      30.280  26.012  23.908  1.00  0.00     0.261 C 
BRANCH   4   5
ATOM      5  O   UNL A   1      31.322  25.254  23.276  1.00  0.00    -0.462 OA
BRANCH   5   6
ATOM      6  C   UNL A   1      32.151  24.542  24.102  1.00  0.00     0.328 C 
ATOM      7  O   UNL A   1      32.530  24.921  25.198  1.00  0.00    -0.250 OA
BRANCH   6   8
ATOM      8  C   UNL A   1      32.495  23.183  23.439  1.00  0.00     0.196 C 
ATOM      9  N   UNL A   1      32.847  22.151  24.408  1.00  0.00    -0.319 N 
ATOM     10  C   UNL A   1      34.229  22.303  24.750  1.00  0.00     0.089 C 
ATOM     11  C   UNL A   1      33.778  23.363  22.608  1.00  0.00     0.043 C 
ATOM     12  C   UNL A   1      34.815  22.512  23.347  1.00  0.00     0.014 C 
ATOM     13  C   UNL A   1      34.981  21.174  25.430  1.00  0.00     0.025 C 
ATOM     14  C   UNL A   1      36.224  23.055  23.452  1.00  0.00     0.006 C 
ATOM     15  C   UNL A   1      36.455  21.584  25.551  1.00  0.00     0.002 C 
ATOM     16  C   UNL A   1      37.081  22.041  24.222  1.00  0.00     0.000 C 
BRANCH   9  17
ATOM     17  C   UNL A   1      32.008  21.194  24.947  1.00  0.00     0.290 C 
ATOM     18  O   UNL A   1      31.301  21.456  25.916  1.00  0.00    -0.265 OA
BRANCH  17  19
ATOM     19  C   UNL A   1      32.209  19.834  24.445  1.00  0.00     0.192 A 
ATOM     20  C   UNL A   1      32.718  17.687  24.679  1.00  0.00     0.159 A 
ATOM     21  C   UNL A   1      32.798  17.960  23.331  1.00  0.00     0.052 A 
ATOM     22  O   UNL A   1      32.333  18.810  25.355  1.00  0.00    -0.450 OA
ATOM     23  C   UNL A   1      32.473  19.330  23.181  1.00  0.00     0.057 A 
BRANCH  20  24
ATOM     24  C   UNL A   1      33.053  16.470  25.473  1.00  0.00     0.335 C 
BRANCH  24  25
ATOM     25  N   UNL A   1      32.075  15.408  25.351  1.00  0.00    -0.351 N 
ATOM     26  H   UNL A   1      31.885  15.014  26.272  1.00  0.00     0.344 HD
ATOM     27  H   UNL A   1      32.440  14.680  24.737  1.00  0.00     0.344 HD
ATOM     28  H   UNL A   1      31.213  15.785  24.957  1.00  0.00     0.344 HD
ENDBRANCH  24  25
ENDBRANCH  20  24
ENDBRANCH  17  19
ENDBRANCH   9  17
ENDBRANCH   6   8
ENDBRANCH   5   6
ENDBRANCH   4   5
ENDBRANCH   3   4
ENDBRANCH   2   3
ENDBRANCH   1   2
BRANCH   1  29
ATOM     29  C   UNL A   1      31.746  29.590  26.012  1.00  0.00     0.188 C 
BRANCH  29  30
ATOM     30  O   UNL A   1      31.217  30.832  25.618  1.00  0.00    -0.376 OA
BRANCH  30  31
ATOM     31  C   UNL A   1      31.334  31.955  26.467  1.00  0.00     0.202 C 
BRANCH  31  32
ATOM     32  C   UNL A   1      32.613  32.364  27.223  1.00  0.00     0.261 C 
BRANCH  32  33
ATOM     33  O   UNL A   1      32.939  33.756  27.292  1.00  0.00    -0.460 OA
BRANCH  33  34
ATOM     34  C   UNL A   1      33.322  34.206  28.519  1.00  0.00     0.338 C 
ATOM     35  O   UNL A   1      32.705  34.950  29.250  1.00  0.00    -0.246 OA
BRANCH  34  36
ATOM     36  C   UNL A   1      34.541  33.481  28.946  1.00  0.00     0.060 A 
ATOM     37  C   UNL A   1      34.398  32.372  29.790  1.00  0.00     0.016 A 
ATOM     38  C   UNL A   1      35.807  33.909  28.548  1.00  0.00     0.016 A 
ATOM     39  C   UNL A   1      35.529  31.701  30.256  1.00  0.00     0.010 A 
ATOM     40  C   UNL A   1      36.938  33.248  29.040  1.00  0.00     0.010 A 
ATOM     41  C   UNL A   1      36.807  32.158  29.920  1.00  0.00    -0.014 A 
BRANCH  41  42
ATOM     42  C   UNL A   1      38.000  31.608  30.613  1.00  0.00     0.031 A 
ATOM     43  C   UNL A   1      38.823  30.558  29.918  1.00  0.00     0.074 A 
ATOM     44  C   UNL A   1      38.357  32.027  31.841  1.00  0.00     0.049 A 
ATOM     45  N   UNL A   1      39.857  29.889  30.355  1.00  0.00    -0.248 NA
ATOM     46  C   UNL A   1      38.425  30.221  28.542  1.00  0.00     0.031 C 
ATOM     47  C   UNL A   1      37.677  33.062  32.614  1.00  0.00     0.029 A 
ATOM     48  N   UNL A   1      39.378  31.607  32.660  1.00  0.00    -0.354 N 
ATOM     49  C   UNL A   1      40.205  29.017  29.331  1.00  0.00     0.074 A 
ATOM     50  C   UNL A   1      39.274  29.249  28.247  1.00  0.00     0.031 C 
ATOM     51  C   UNL A   1      38.269  33.164  33.816  1.00  0.00     0.029 A 
ATOM     52  C   UNL A   1      39.348  32.180  33.909  1.00  0.00     0.049 A 
ATOM     53  H   UNL A   1      40.064  30.960  32.379  1.00  0.00     0.167 HD
ATOM     54  C   UNL A   1      41.208  28.107  29.291  1.00  0.00     0.034 A 
ATOM     55  C   UNL A   1      40.075  31.914  35.014  1.00  0.00     0.034 A 
ATOM     56  C   UNL A   1      42.148  27.886  30.358  1.00  0.00     0.049 A 
ATOM     57  C   UNL A   1      41.167  30.875  34.959  1.00  0.00     0.074 A 
ATOM     58  C   UNL A   1      43.231  27.024  30.381  1.00  0.00     0.029 A 
ATOM     59  N   UNL A   1      42.109  28.513  31.593  1.00  0.00    -0.354 N 
ATOM     60  N   UNL A   1      41.553  30.133  33.950  1.00  0.00    -0.248 NA
ATOM     61  C   UNL A   1      41.944  30.658  36.190  1.00  0.00     0.031 C 
ATOM     62  C   UNL A   1      43.818  27.095  31.649  1.00  0.00     0.029 A 
ATOM     63  C   UNL A   1      43.129  28.034  32.399  1.00  0.00     0.049 A 
ATOM     64  H   UNL A   1      41.453  29.198  31.858  1.00  0.00     0.167 HD
ATOM     65  C   UNL A   1      42.634  29.386  34.412  1.00  0.00     0.074 A 
ATOM     66  C   UNL A   1      42.853  29.779  35.788  1.00  0.00     0.031 C 
ATOM     67  C   UNL A   1      43.370  28.454  33.757  1.00  0.00     0.034 A 
BRANCH  54  68
ATOM     68  C   UNL A   1      41.332  27.267  28.048  1.00  0.00     0.023 A 
ATOM     69  C   UNL A   1      41.945  27.797  26.894  1.00  0.00     0.012 A 
ATOM     70  C   UNL A   1      40.867  25.937  28.034  1.00  0.00     0.148 A 
ATOM     71  C   UNL A   1      42.056  27.032  25.734  1.00  0.00     0.002 A 
ATOM     72  C   UNL A   1      41.025  25.164  26.891  1.00  0.00     0.091 A 
ATOM     73  F   UNL A   1      40.264  25.459  29.132  1.00  0.00    -0.205 F 
ATOM     74  C   UNL A   1      41.605  25.714  25.736  1.00  0.00     0.022 A 
BRANCH  72  75
ATOM     75  S   UNL A   1      40.549  23.435  26.824  1.00  0.00     0.127 S 
ATOM     76  O   UNL A   1      39.098  23.534  26.671  1.00  0.00    -0.237 OA
ATOM     77  O   UNL A   1      41.256  22.966  25.631  1.00  0.00    -0.237 OA
ATOM     78  O   UNL A   1      41.009  22.843  28.072  1.00  0.00    -0.744 OA
ENDBRANCH  72  75
ENDBRANCH  54  68
BRANCH  55  79
ATOM     79  C   UNL A   1      39.781  32.644  36.279  1.00  0.00     0.023 A 
ATOM     80  C   UNL A   1      40.479  33.826  36.590  1.00  0.00     0.012 A 
ATOM     81  C   UNL A   1      38.789  32.178  37.166  1.00  0.00     0.148 A 
ATOM     82  C   UNL A   1      40.210  34.520  37.770  1.00  0.00     0.002 A 
ATOM     83  C   UNL A   1      38.488  32.903  38.313  1.00  0.00     0.091 A 
ATOM     84  F   UNL A   1      38.153  31.038  36.863  1.00  0.00    -0.205 F 
ATOM     85  C   UNL A   1      39.208  34.065  38.625  1.00  0.00     0.022 A 
BRANCH  83  86
ATOM     86  S   UNL A   1      37.136  32.456  39.409  1.00  0.00     0.127 S 
ATOM     87  O   UNL A   1      37.201  33.519  40.411  1.00  0.00    -0.237 OA
ATOM     88  O   UNL A   1      35.983  32.528  38.511  1.00  0.00    -0.237 OA
ATOM     89  O   UNL A   1      37.442  31.118  39.893  1.00  0.00    -0.744 OA
ENDBRANCH  83  86
ENDBRANCH  55  79
BRANCH  67  90
ATOM     90  C   UNL A   1      44.509  27.798  34.501  1.00  0.00     0.023 A 
ATOM     91  C   UNL A   1      45.776  28.415  34.533  1.00  0.00     0.012 A 
ATOM     92  C   UNL A   1      44.302  26.614  35.238  1.00  0.00     0.148 A 
ATOM     93  C   UNL A   1      46.825  27.847  35.257  1.00  0.00     0.002 A 
ATOM     94  C   UNL A   1      45.338  26.081  35.997  1.00  0.00     0.091 A 
ATOM     95  F   UNL A   1      43.095  26.032  35.188  1.00  0.00    -0.205 F 
ATOM     96  C   UNL A   1      46.604  26.689  35.998  1.00  0.00     0.022 A 
BRANCH  94  97
ATOM     97  S   UNL A   1      45.120  24.649  37.062  1.00  0.00     0.127 S 
ATOM     98  O   UNL A   1      44.131  25.137  38.021  1.00  0.00    -0.237 OA
ATOM     99  O   UNL A   1      44.617  23.641  36.127  1.00  0.00    -0.237 OA
ATOM    100  O   UNL A   1      46.435  24.355  37.616  1.00  0.00    -0.744 OA
ENDBRANCH  94  97
ENDBRANCH  67  90
ENDBRANCH  41  42
ENDBRANCH  34  36
ENDBRANCH  33  34
ENDBRANCH  32  33
ENDBRANCH  31  32
ENDBRANCH  30  31
ENDBRANCH  29  30
ENDBRANCH   1  29
TORSDOF 24
ENDMDL
