MODEL 1
REMARK VINA RESULT:     -11.1      0.000      0.000
REMARK SMILES O=C(CC1(NC(=O)c2cc(Cl)ccc2Cl)CCC1)OCCOCCOCCOC(=O)c1ccc(-c2c3nc(c(-c4cccc(S(=O)(=O)[O-])c4F)c4ccc([nH]4)c(-c4cccc(S(=O)(=O)[O-])c4F)c4nc(c(-c5cccc(S(=O)(=O)[O-])c5F)c5ccc2[nH]5)C=C4)C=C3)cc1
REMARK SMILES IDX 23 1 22 2 21 3 20 4 19 5 2 6 1 7 3 8 4 9 16 10 18 11 17 12
REMARK SMILES IDX 5 13 6 14 7 16 8 17 9 18 14 19 10 20 13 21 15 22 11 23 12 24
REMARK SMILES IDX 24 25 25 26 26 27 27 28 28 29 29 30 30 31 31 32 32 33 93 34
REMARK SMILES IDX 33 35 92 36 34 37 35 38 36 39 86 40 37 41 91 42 85 43 87 44
REMARK SMILES IDX 38 45 90 46 84 47 83 48 39 50 71 51 51 52 70 53 52 54 55 55
REMARK SMILES IDX 69 56 88 57 53 58 54 59 68 61 89 62 56 63 40 64 41 65 49 66
REMARK SMILES IDX 42 67 44 68 50 69 43 70 45 71 46 72 47 73 48 74 72 75 73 76
REMARK SMILES IDX 81 77 74 78 76 79 82 80 75 81 77 82 78 83 79 84 80 85 57 86
REMARK SMILES IDX 58 87 66 88 59 89 61 90 67 91 60 92 62 93 63 94 64 95 65 96
REMARK H PARENT 5 15 87 49 55 60
REMARK Flexibility Score: inf
ROOT
ATOM      1  C   UNL A   1      32.317  21.446  25.046  1.00  0.00     0.188 C 
ENDROOT
BRANCH   1   2
ATOM      2  O   UNL A   1      32.369  21.635  23.629  1.00  0.00    -0.376 OA
BRANCH   2   3
ATOM      3  C   UNL A   1      31.745  22.834  23.179  1.00  0.00     0.202 C 
BRANCH   3   4
ATOM      4  C   UNL A   1      32.725  23.918  22.725  1.00  0.00     0.261 C 
BRANCH   4   5
ATOM      5  O   UNL A   1      32.142  25.226  22.626  1.00  0.00    -0.463 OA
BRANCH   5   6
ATOM      6  C   UNL A   1      32.862  26.329  22.306  1.00  0.00     0.308 C 
ATOM      7  O   UNL A   1      33.858  26.223  21.595  1.00  0.00    -0.252 OA
BRANCH   6   8
ATOM      8  C   UNL A   1      32.463  27.655  22.898  1.00  0.00     0.151 C 
BRANCH   8   9
ATOM      9  C   UNL A   1      31.072  27.849  23.511  1.00  0.00     0.051 C 
ATOM     10  C   UNL A   1      30.738  29.276  24.068  1.00  0.00     0.029 C 
ATOM     11  C   UNL A   1      29.932  28.103  22.471  1.00  0.00     0.029 C 
ATOM     12  C   UNL A   1      29.361  29.179  23.399  1.00  0.00     0.005 C 
BRANCH   9  13
ATOM     13  N   UNL A   1      30.679  26.806  24.532  1.00  0.00    -0.346 N 
ATOM     14  C   UNL A   1      30.837  26.758  25.910  1.00  0.00     0.253 C 
ATOM     15  H   UNL A   1      30.230  26.017  24.149  1.00  0.00     0.164 HD
ATOM     16  O   UNL A   1      30.188  25.952  26.569  1.00  0.00    -0.269 OA
BRANCH  14  17
ATOM     17  C   UNL A   1      31.905  27.553  26.537  1.00  0.00     0.059 A 
ATOM     18  C   UNL A   1      31.637  28.848  27.005  1.00  0.00     0.036 A 
ATOM     19  C   UNL A   1      33.216  27.133  26.326  1.00  0.00     0.053 A 
ATOM     20  C   UNL A   1      32.660  29.795  27.002  1.00  0.00     0.041 A 
ATOM     21  C   UNL A   1      34.224  28.085  26.384  1.00  0.00     0.023 A 
ATOM     22  Cl  UNL A   1      33.657  25.530  25.857  1.00  0.00    -0.083 Cl
ATOM     23  Cl  UNL A   1      32.300  31.469  27.183  1.00  0.00    -0.084 Cl
ATOM     24  C   UNL A   1      33.948  29.422  26.660  1.00  0.00     0.022 A 
ENDBRANCH  14  17
ENDBRANCH   9  13
ENDBRANCH   8   9
ENDBRANCH   6   8
ENDBRANCH   5   6
ENDBRANCH   4   5
ENDBRANCH   3   4
ENDBRANCH   2   3
ENDBRANCH   1   2
BRANCH   1  25
ATOM     25  C   UNL A   1      33.388  20.448  25.513  1.00  0.00     0.188 C 
BRANCH  25  26
ATOM     26  O   UNL A   1      34.588  21.087  25.952  1.00  0.00    -0.376 OA
BRANCH  26  27
ATOM     27  C   UNL A   1      35.519  21.414  24.911  1.00  0.00     0.202 C 
BRANCH  27  28
ATOM     28  C   UNL A   1      36.850  20.642  25.007  1.00  0.00     0.261 C 
BRANCH  28  29
ATOM     29  O   UNL A   1      38.004  21.522  25.033  1.00  0.00    -0.460 OA
BRANCH  29  30
ATOM     30  C   UNL A   1      39.062  21.132  25.799  1.00  0.00     0.338 C 
ATOM     31  O   UNL A   1      39.576  20.037  25.784  1.00  0.00    -0.246 OA
BRANCH  30  32
ATOM     32  C   UNL A   1      39.642  22.289  26.559  1.00  0.00     0.060 A 
ATOM     33  C   UNL A   1      39.103  23.553  26.286  1.00  0.00     0.016 A 
ATOM     34  C   UNL A   1      40.640  22.179  27.541  1.00  0.00     0.016 A 
ATOM     35  C   UNL A   1      39.549  24.690  26.976  1.00  0.00     0.010 A 
ATOM     36  C   UNL A   1      41.100  23.329  28.225  1.00  0.00     0.010 A 
ATOM     37  C   UNL A   1      40.573  24.598  27.931  1.00  0.00    -0.014 A 
BRANCH  37  38
ATOM     38  C   UNL A   1      41.209  25.876  28.382  1.00  0.00     0.031 A 
ATOM     39  C   UNL A   1      42.622  26.137  27.940  1.00  0.00     0.074 A 
ATOM     40  C   UNL A   1      40.560  26.848  29.054  1.00  0.00     0.049 A 
ATOM     41  N   UNL A   1      43.309  27.248  27.970  1.00  0.00    -0.248 NA
ATOM     42  C   UNL A   1      43.351  24.985  27.386  1.00  0.00     0.031 C 
ATOM     43  C   UNL A   1      39.226  26.727  29.615  1.00  0.00     0.029 A 
ATOM     44  N   UNL A   1      40.928  28.139  29.364  1.00  0.00    -0.354 N 
ATOM     45  C   UNL A   1      44.543  26.936  27.421  1.00  0.00     0.074 A 
ATOM     46  C   UNL A   1      44.521  25.527  27.093  1.00  0.00     0.031 C 
ATOM     47  C   UNL A   1      38.853  27.902  30.150  1.00  0.00     0.029 A 
ATOM     48  C   UNL A   1      39.949  28.861  30.014  1.00  0.00     0.049 A 
ATOM     49  H   UNL A   1      41.812  28.513  29.143  1.00  0.00     0.167 HD
ATOM     50  C   UNL A   1      45.601  27.748  27.190  1.00  0.00     0.034 A 
ATOM     51  C   UNL A   1      39.934  30.138  30.454  1.00  0.00     0.034 A 
ATOM     52  C   UNL A   1      45.664  29.133  27.561  1.00  0.00     0.049 A 
ATOM     53  C   UNL A   1      41.141  31.016  30.212  1.00  0.00     0.074 A 
ATOM     54  C   UNL A   1      46.711  30.021  27.387  1.00  0.00     0.029 A 
ATOM     55  N   UNL A   1      44.656  29.827  28.210  1.00  0.00    -0.354 N 
ATOM     56  N   UNL A   1      42.244  30.745  29.559  1.00  0.00    -0.248 NA
ATOM     57  C   UNL A   1      41.090  32.387  30.748  1.00  0.00     0.031 C 
ATOM     58  C   UNL A   1      46.345  31.246  27.954  1.00  0.00     0.029 A 
ATOM     59  C   UNL A   1      45.057  31.131  28.450  1.00  0.00     0.049 A 
ATOM     60  H   UNL A   1      43.783  29.449  28.462  1.00  0.00     0.167 HD
ATOM     61  C   UNL A   1      43.005  31.910  29.588  1.00  0.00     0.074 A 
ATOM     62  C   UNL A   1      42.218  32.905  30.285  1.00  0.00     0.031 C 
ATOM     63  C   UNL A   1      44.253  32.130  29.104  1.00  0.00     0.034 A 
BRANCH  50  64
ATOM     64  C   UNL A   1      46.776  27.137  26.482  1.00  0.00     0.023 A 
ATOM     65  C   UNL A   1      46.815  27.152  25.072  1.00  0.00     0.012 A 
ATOM     66  C   UNL A   1      47.837  26.561  27.202  1.00  0.00     0.148 A 
ATOM     67  C   UNL A   1      47.883  26.575  24.388  1.00  0.00     0.002 A 
ATOM     68  C   UNL A   1      48.918  26.025  26.514  1.00  0.00     0.091 A 
ATOM     69  F   UNL A   1      47.761  26.533  28.540  1.00  0.00    -0.205 F 
ATOM     70  C   UNL A   1      48.937  26.021  25.108  1.00  0.00     0.022 A 
BRANCH  68  71
ATOM     71  S   UNL A   1      50.353  25.340  27.346  1.00  0.00     0.127 S 
ATOM     72  O   UNL A   1      50.742  26.446  28.220  1.00  0.00    -0.237 OA
ATOM     73  O   UNL A   1      49.780  24.186  28.039  1.00  0.00    -0.237 OA
ATOM     74  O   UNL A   1      51.308  25.010  26.297  1.00  0.00    -0.744 OA
ENDBRANCH  68  71
ENDBRANCH  50  64
BRANCH  51  75
ATOM     75  C   UNL A   1      38.743  30.694  31.173  1.00  0.00     0.023 A 
ATOM     76  C   UNL A   1      38.642  30.575  32.575  1.00  0.00     0.012 A 
ATOM     77  C   UNL A   1      37.685  31.296  30.467  1.00  0.00     0.148 A 
ATOM     78  C   UNL A   1      37.494  31.000  33.249  1.00  0.00     0.002 A 
ATOM     79  C   UNL A   1      36.573  31.777  31.151  1.00  0.00     0.091 A 
ATOM     80  F   UNL A   1      37.775  31.376  29.132  1.00  0.00    -0.205 F 
ATOM     81  C   UNL A   1      36.464  31.609  32.540  1.00  0.00     0.022 A 
BRANCH  79  82
ATOM     82  S   UNL A   1      35.269  32.699  30.330  1.00  0.00     0.127 S 
ATOM     83  O   UNL A   1      34.338  32.947  31.428  1.00  0.00    -0.237 OA
ATOM     84  O   UNL A   1      35.987  33.881  29.853  1.00  0.00    -0.237 OA
ATOM     85  O   UNL A   1      34.785  31.826  29.269  1.00  0.00    -0.744 OA
ENDBRANCH  79  82
ENDBRANCH  51  75
BRANCH  63  86
ATOM     86  C   UNL A   1      44.846  33.506  29.287  1.00  0.00     0.023 A 
ATOM     87  C   UNL A   1      45.644  33.784  30.415  1.00  0.00     0.012 A 
ATOM     88  C   UNL A   1      44.663  34.506  28.311  1.00  0.00     0.148 A 
ATOM     89  C   UNL A   1      46.213  35.046  30.591  1.00  0.00     0.002 A 
ATOM     90  C   UNL A   1      45.275  35.745  28.468  1.00  0.00     0.091 A 
ATOM     91  F   UNL A   1      43.887  34.233  27.251  1.00  0.00    -0.205 F 
ATOM     92  C   UNL A   1      46.036  36.022  29.614  1.00  0.00     0.022 A 
BRANCH  90  93
ATOM     93  S   UNL A   1      45.183  37.026  27.210  1.00  0.00     0.127 S 
ATOM     94  O   UNL A   1      43.748  37.302  27.170  1.00  0.00    -0.237 OA
ATOM     95  O   UNL A   1      45.993  38.096  27.794  1.00  0.00    -0.237 OA
ATOM     96  O   UNL A   1      45.744  36.438  26.002  1.00  0.00    -0.744 OA
ENDBRANCH  90  93
ENDBRANCH  63  86
ENDBRANCH  37  38
ENDBRANCH  30  32
ENDBRANCH  29  30
ENDBRANCH  28  29
ENDBRANCH  27  28
ENDBRANCH  26  27
ENDBRANCH  25  26
ENDBRANCH   1  25
TORSDOF 23
ENDMDL
MODEL 2
REMARK VINA RESULT:     -10.4      4.533     10.224
REMARK SMILES O=C(CC1(NC(=O)c2cc(Cl)ccc2Cl)CCC1)OCCOCCOCCOC(=O)c1ccc(-c2c3nc(c(-c4cccc(S(=O)(=O)[O-])c4F)c4ccc([nH]4)c(-c4cccc(S(=O)(=O)[O-])c4F)c4nc(c(-c5cccc(S(=O)(=O)[O-])c5F)c5ccc2[nH]5)C=C4)C=C3)cc1
REMARK SMILES IDX 23 1 22 2 21 3 20 4 19 5 2 6 1 7 3 8 4 9 16 10 18 11 17 12
REMARK SMILES IDX 5 13 6 14 7 16 8 17 9 18 14 19 10 20 13 21 15 22 11 23 12 24
REMARK SMILES IDX 24 25 25 26 26 27 27 28 28 29 29 30 30 31 31 32 32 33 93 34
REMARK SMILES IDX 33 35 92 36 34 37 35 38 36 39 86 40 37 41 91 42 85 43 87 44
REMARK SMILES IDX 38 45 90 46 84 47 83 48 39 50 71 51 51 52 70 53 52 54 55 55
REMARK SMILES IDX 69 56 88 57 53 58 54 59 68 61 89 62 56 63 40 64 41 65 49 66
REMARK SMILES IDX 42 67 44 68 50 69 43 70 45 71 46 72 47 73 48 74 72 75 73 76
REMARK SMILES IDX 81 77 74 78 76 79 82 80 75 81 77 82 78 83 79 84 80 85 57 86
REMARK SMILES IDX 58 87 66 88 59 89 61 90 67 91 60 92 62 93 63 94 64 95 65 96
REMARK H PARENT 5 15 87 49 55 60
REMARK Flexibility Score: inf
ROOT
ATOM      1  C   UNL A   1      31.736  27.510  23.595  1.00  0.00     0.188 C 
ENDROOT
BRANCH   1   2
ATOM      2  O   UNL A   1      30.612  26.653  23.377  1.00  0.00    -0.376 OA
BRANCH   2   3
ATOM      3  C   UNL A   1      30.859  25.282  23.672  1.00  0.00     0.202 C 
BRANCH   3   4
ATOM      4  C   UNL A   1      30.882  24.957  25.167  1.00  0.00     0.261 C 
BRANCH   4   5
ATOM      5  O   UNL A   1      31.024  23.559  25.457  1.00  0.00    -0.463 OA
BRANCH   5   6
ATOM      6  C   UNL A   1      31.715  23.096  26.528  1.00  0.00     0.308 C 
ATOM      7  O   UNL A   1      31.373  23.423  27.662  1.00  0.00    -0.252 OA
BRANCH   6   8
ATOM      8  C   UNL A   1      32.937  22.249  26.295  1.00  0.00     0.151 C 
BRANCH   8   9
ATOM      9  C   UNL A   1      33.124  21.496  24.974  1.00  0.00     0.051 C 
ATOM     10  C   UNL A   1      34.274  20.431  24.924  1.00  0.00     0.029 C 
ATOM     11  C   UNL A   1      32.145  20.294  24.766  1.00  0.00     0.029 C 
ATOM     12  C   UNL A   1      33.313  19.474  24.208  1.00  0.00     0.005 C 
BRANCH   9  13
ATOM     13  N   UNL A   1      33.202  22.377  23.749  1.00  0.00    -0.346 N 
ATOM     14  C   UNL A   1      34.280  22.964  23.100  1.00  0.00     0.253 C 
ATOM     15  H   UNL A   1      32.329  22.570  23.335  1.00  0.00     0.164 HD
ATOM     16  O   UNL A   1      34.142  23.399  21.962  1.00  0.00    -0.269 OA
BRANCH  14  17
ATOM     17  C   UNL A   1      35.521  23.209  23.852  1.00  0.00     0.059 A 
ATOM     18  C   UNL A   1      36.564  22.271  23.816  1.00  0.00     0.036 A 
ATOM     19  C   UNL A   1      35.480  24.184  24.846  1.00  0.00     0.053 A 
ATOM     20  C   UNL A   1      37.403  22.149  24.923  1.00  0.00     0.041 A 
ATOM     21  C   UNL A   1      36.364  24.071  25.909  1.00  0.00     0.023 A 
ATOM     22  Cl  UNL A   1      34.303  25.447  24.915  1.00  0.00    -0.083 Cl
ATOM     23  Cl  UNL A   1      38.425  20.774  25.094  1.00  0.00    -0.084 Cl
ATOM     24  C   UNL A   1      37.283  23.028  25.984  1.00  0.00     0.022 A 
ENDBRANCH  14  17
ENDBRANCH   9  13
ENDBRANCH   8   9
ENDBRANCH   6   8
ENDBRANCH   5   6
ENDBRANCH   4   5
ENDBRANCH   3   4
ENDBRANCH   2   3
ENDBRANCH   1   2
BRANCH   1  25
ATOM     25  C   UNL A   1      31.535  28.384  24.841  1.00  0.00     0.188 C 
BRANCH  25  26
ATOM     26  O   UNL A   1      31.030  29.685  24.531  1.00  0.00    -0.376 OA
BRANCH  26  27
ATOM     27  C   UNL A   1      31.255  30.681  25.538  1.00  0.00     0.202 C 
BRANCH  27  28
ATOM     28  C   UNL A   1      31.913  30.129  26.818  1.00  0.00     0.261 C 
BRANCH  28  29
ATOM     29  O   UNL A   1      33.358  30.262  26.804  1.00  0.00    -0.460 OA
BRANCH  29  30
ATOM     30  C   UNL A   1      33.884  31.361  27.415  1.00  0.00     0.338 C 
ATOM     31  O   UNL A   1      33.278  32.374  27.685  1.00  0.00    -0.246 OA
BRANCH  30  32
ATOM     32  C   UNL A   1      35.287  31.108  27.882  1.00  0.00     0.060 A 
ATOM     33  C   UNL A   1      35.662  29.768  28.046  1.00  0.00     0.016 A 
ATOM     34  C   UNL A   1      36.244  32.109  28.116  1.00  0.00     0.016 A 
ATOM     35  C   UNL A   1      36.965  29.428  28.438  1.00  0.00     0.010 A 
ATOM     36  C   UNL A   1      37.553  31.766  28.527  1.00  0.00     0.010 A 
ATOM     37  C   UNL A   1      37.918  30.421  28.712  1.00  0.00    -0.014 A 
BRANCH  37  38
ATOM     38  C   UNL A   1      39.165  30.000  29.425  1.00  0.00     0.031 A 
ATOM     39  C   UNL A   1      39.386  30.542  30.809  1.00  0.00     0.074 A 
ATOM     40  C   UNL A   1      40.032  29.081  28.953  1.00  0.00     0.049 A 
ATOM     41  N   UNL A   1      40.228  30.153  31.729  1.00  0.00    -0.248 NA
ATOM     42  C   UNL A   1      38.534  31.676  31.204  1.00  0.00     0.031 C 
ATOM     43  C   UNL A   1      40.005  28.518  27.615  1.00  0.00     0.029 A 
ATOM     44  N   UNL A   1      41.097  28.446  29.553  1.00  0.00    -0.354 N 
ATOM     45  C   UNL A   1      39.995  30.978  32.819  1.00  0.00     0.074 A 
ATOM     46  C   UNL A   1      38.954  31.908  32.437  1.00  0.00     0.031 C 
ATOM     47  C   UNL A   1      40.960  27.579  27.502  1.00  0.00     0.029 A 
ATOM     48  C   UNL A   1      41.711  27.503  28.753  1.00  0.00     0.049 A 
ATOM     49  H   UNL A   1      41.394  28.646  30.470  1.00  0.00     0.167 HD
ATOM     50  C   UNL A   1      40.579  30.959  34.039  1.00  0.00     0.034 A 
ATOM     51  C   UNL A   1      42.755  26.681  28.996  1.00  0.00     0.034 A 
ATOM     52  C   UNL A   1      41.653  30.085  34.418  1.00  0.00     0.049 A 
ATOM     53  C   UNL A   1      43.412  26.702  30.357  1.00  0.00     0.074 A 
ATOM     54  C   UNL A   1      42.320  30.020  35.629  1.00  0.00     0.029 A 
ATOM     55  N   UNL A   1      42.241  29.146  33.588  1.00  0.00    -0.354 N 
ATOM     56  N   UNL A   1      43.081  27.387  31.425  1.00  0.00    -0.248 NA
ATOM     57  C   UNL A   1      44.572  25.816  30.555  1.00  0.00     0.031 C 
ATOM     58  C   UNL A   1      43.330  29.058  35.521  1.00  0.00     0.029 A 
ATOM     59  C   UNL A   1      43.269  28.500  34.256  1.00  0.00     0.049 A 
ATOM     60  H   UNL A   1      41.969  28.964  32.660  1.00  0.00     0.167 HD
ATOM     61  C   UNL A   1      43.974  27.002  32.420  1.00  0.00     0.074 A 
ATOM     62  C   UNL A   1      44.833  25.991  31.842  1.00  0.00     0.031 C 
ATOM     63  C   UNL A   1      44.091  27.462  33.691  1.00  0.00     0.034 A 
BRANCH  50  64
ATOM     64  C   UNL A   1      40.040  31.922  35.058  1.00  0.00     0.023 A 
ATOM     65  C   UNL A   1      40.391  33.286  34.971  1.00  0.00     0.012 A 
ATOM     66  C   UNL A   1      39.187  31.487  36.087  1.00  0.00     0.148 A 
ATOM     67  C   UNL A   1      39.922  34.198  35.913  1.00  0.00     0.002 A 
ATOM     68  C   UNL A   1      38.690  32.410  36.998  1.00  0.00     0.091 A 
ATOM     69  F   UNL A   1      38.892  30.182  36.165  1.00  0.00    -0.205 F 
ATOM     70  C   UNL A   1      39.066  33.763  36.920  1.00  0.00     0.022 A 
BRANCH  68  71
ATOM     71  S   UNL A   1      37.534  31.964  38.297  1.00  0.00     0.127 S 
ATOM     72  O   UNL A   1      38.333  32.204  39.497  1.00  0.00    -0.237 OA
ATOM     73  O   UNL A   1      36.451  32.923  38.082  1.00  0.00    -0.237 OA
ATOM     74  O   UNL A   1      37.176  30.573  38.056  1.00  0.00    -0.744 OA
ENDBRANCH  68  71
ENDBRANCH  50  64
BRANCH  51  75
ATOM     75  C   UNL A   1      43.267  25.752  27.938  1.00  0.00     0.023 A 
ATOM     76  C   UNL A   1      42.588  24.547  27.663  1.00  0.00     0.012 A 
ATOM     77  C   UNL A   1      44.455  26.035  27.237  1.00  0.00     0.148 A 
ATOM     78  C   UNL A   1      43.107  23.625  26.750  1.00  0.00     0.002 A 
ATOM     79  C   UNL A   1      44.930  25.144  26.280  1.00  0.00     0.091 A 
ATOM     80  F   UNL A   1      45.110  27.168  27.528  1.00  0.00    -0.205 F 
ATOM     81  C   UNL A   1      44.271  23.926  26.051  1.00  0.00     0.022 A 
BRANCH  79  82
ATOM     82  S   UNL A   1      46.345  25.521  25.240  1.00  0.00     0.127 S 
ATOM     83  O   UNL A   1      46.408  24.342  24.379  1.00  0.00    -0.237 OA
ATOM     84  O   UNL A   1      45.911  26.749  24.572  1.00  0.00    -0.237 OA
ATOM     85  O   UNL A   1      47.463  25.703  26.155  1.00  0.00    -0.744 OA
ENDBRANCH  79  82
ENDBRANCH  51  75
BRANCH  63  86
ATOM     86  C   UNL A   1      45.170  26.865  34.560  1.00  0.00     0.023 A 
ATOM     87  C   UNL A   1      46.409  27.524  34.699  1.00  0.00     0.012 A 
ATOM     88  C   UNL A   1      44.938  25.680  35.287  1.00  0.00     0.148 A 
ATOM     89  C   UNL A   1      47.411  26.993  35.510  1.00  0.00     0.002 A 
ATOM     90  C   UNL A   1      45.923  25.184  36.134  1.00  0.00     0.091 A 
ATOM     91  F   UNL A   1      43.762  25.053  35.132  1.00  0.00    -0.205 F 
ATOM     92  C   UNL A   1      47.165  25.830  36.235  1.00  0.00     0.022 A 
BRANCH  90  93
ATOM     93  S   UNL A   1      45.655  23.747  37.179  1.00  0.00     0.127 S 
ATOM     94  O   UNL A   1      44.848  24.311  38.260  1.00  0.00    -0.237 OA
ATOM     95  O   UNL A   1      44.931  22.841  36.286  1.00  0.00    -0.237 OA
ATOM     96  O   UNL A   1      46.981  23.281  37.563  1.00  0.00    -0.744 OA
ENDBRANCH  90  93
ENDBRANCH  63  86
ENDBRANCH  37  38
ENDBRANCH  30  32
ENDBRANCH  29  30
ENDBRANCH  28  29
ENDBRANCH  27  28
ENDBRANCH  26  27
ENDBRANCH  25  26
ENDBRANCH   1  25
TORSDOF 23
ENDMDL
MODEL 3
REMARK VINA RESULT:      -9.9      4.739     10.331
REMARK SMILES O=C(CC1(NC(=O)c2cc(Cl)ccc2Cl)CCC1)OCCOCCOCCOC(=O)c1ccc(-c2c3nc(c(-c4cccc(S(=O)(=O)[O-])c4F)c4ccc([nH]4)c(-c4cccc(S(=O)(=O)[O-])c4F)c4nc(c(-c5cccc(S(=O)(=O)[O-])c5F)c5ccc2[nH]5)C=C4)C=C3)cc1
REMARK SMILES IDX 23 1 22 2 21 3 20 4 19 5 2 6 1 7 3 8 4 9 16 10 18 11 17 12
REMARK SMILES IDX 5 13 6 14 7 16 8 17 9 18 14 19 10 20 13 21 15 22 11 23 12 24
REMARK SMILES IDX 24 25 25 26 26 27 27 28 28 29 29 30 30 31 31 32 32 33 93 34
REMARK SMILES IDX 33 35 92 36 34 37 35 38 36 39 86 40 37 41 91 42 85 43 87 44
REMARK SMILES IDX 38 45 90 46 84 47 83 48 39 50 71 51 51 52 70 53 52 54 55 55
REMARK SMILES IDX 69 56 88 57 53 58 54 59 68 61 89 62 56 63 40 64 41 65 49 66
REMARK SMILES IDX 42 67 44 68 50 69 43 70 45 71 46 72 47 73 48 74 72 75 73 76
REMARK SMILES IDX 81 77 74 78 76 79 82 80 75 81 77 82 78 83 79 84 80 85 57 86
REMARK SMILES IDX 58 87 66 88 59 89 61 90 67 91 60 92 62 93 63 94 64 95 65 96
REMARK H PARENT 5 15 87 49 55 60
REMARK Flexibility Score: inf
ROOT
ATOM      1  C   UNL A   1      31.958  27.637  24.393  1.00  0.00     0.188 C 
ENDROOT
BRANCH   1   2
ATOM      2  O   UNL A   1      30.953  26.620  24.365  1.00  0.00    -0.376 OA
BRANCH   2   3
ATOM      3  C   UNL A   1      31.468  25.296  24.253  1.00  0.00     0.202 C 
BRANCH   3   4
ATOM      4  C   UNL A   1      32.347  24.864  25.429  1.00  0.00     0.261 C 
BRANCH   4   5
ATOM      5  O   UNL A   1      31.854  23.713  26.131  1.00  0.00    -0.463 OA
BRANCH   5   6
ATOM      6  C   UNL A   1      32.632  22.964  26.951  1.00  0.00     0.308 C 
ATOM      7  O   UNL A   1      32.254  22.718  28.094  1.00  0.00    -0.252 OA
BRANCH   6   8
ATOM      8  C   UNL A   1      33.983  22.514  26.463  1.00  0.00     0.151 C 
BRANCH   8   9
ATOM      9  C   UNL A   1      34.116  21.725  25.155  1.00  0.00     0.051 C 
ATOM     10  C   UNL A   1      34.558  20.225  25.278  1.00  0.00     0.029 C 
ATOM     11  C   UNL A   1      32.768  21.172  24.588  1.00  0.00     0.029 C 
ATOM     12  C   UNL A   1      33.479  19.858  24.251  1.00  0.00     0.005 C 
BRANCH   9  13
ATOM     13  N   UNL A   1      34.940  22.406  24.087  1.00  0.00    -0.346 N 
ATOM     14  C   UNL A   1      36.308  22.597  23.957  1.00  0.00     0.253 C 
ATOM     15  H   UNL A   1      34.408  22.783  23.348  1.00  0.00     0.164 HD
ATOM     16  O   UNL A   1      36.777  22.921  22.871  1.00  0.00    -0.269 OA
BRANCH  14  17
ATOM     17  C   UNL A   1      37.152  22.576  25.163  1.00  0.00     0.059 A 
ATOM     18  C   UNL A   1      37.390  23.759  25.878  1.00  0.00     0.036 A 
ATOM     19  C   UNL A   1      37.964  21.460  25.350  1.00  0.00     0.053 A 
ATOM     20  C   UNL A   1      38.592  23.904  26.567  1.00  0.00     0.041 A 
ATOM     21  C   UNL A   1      39.128  21.616  26.089  1.00  0.00     0.023 A 
ATOM     22  Cl  UNL A   1      37.691  19.926  24.603  1.00  0.00    -0.083 Cl
ATOM     23  Cl  UNL A   1      39.102  25.454  27.118  1.00  0.00    -0.084 Cl
ATOM     24  C   UNL A   1      39.477  22.844  26.647  1.00  0.00     0.022 A 
ENDBRANCH  14  17
ENDBRANCH   9  13
ENDBRANCH   8   9
ENDBRANCH   6   8
ENDBRANCH   5   6
ENDBRANCH   4   5
ENDBRANCH   3   4
ENDBRANCH   2   3
ENDBRANCH   1   2
BRANCH   1  25
ATOM     25  C   UNL A   1      31.668  28.675  25.488  1.00  0.00     0.188 C 
BRANCH  25  26
ATOM     26  O   UNL A   1      31.105  29.883  24.972  1.00  0.00    -0.376 OA
BRANCH  26  27
ATOM     27  C   UNL A   1      31.341  31.053  25.768  1.00  0.00     0.202 C 
BRANCH  27  28
ATOM     28  C   UNL A   1      32.153  30.776  27.048  1.00  0.00     0.261 C 
BRANCH  28  29
ATOM     29  O   UNL A   1      33.553  31.129  26.907  1.00  0.00    -0.460 OA
BRANCH  29  30
ATOM     30  C   UNL A   1      34.048  32.054  27.777  1.00  0.00     0.338 C 
ATOM     31  O   UNL A   1      33.427  32.978  28.251  1.00  0.00    -0.246 OA
BRANCH  30  32
ATOM     32  C   UNL A   1      35.434  31.695  28.227  1.00  0.00     0.060 A 
ATOM     33  C   UNL A   1      35.685  30.336  28.464  1.00  0.00     0.016 A 
ATOM     34  C   UNL A   1      36.488  32.611  28.377  1.00  0.00     0.016 A 
ATOM     35  C   UNL A   1      36.961  29.896  28.846  1.00  0.00     0.010 A 
ATOM     36  C   UNL A   1      37.770  32.167  28.778  1.00  0.00     0.010 A 
ATOM     37  C   UNL A   1      38.011  30.807  29.037  1.00  0.00    -0.014 A 
BRANCH  37  38
ATOM     38  C   UNL A   1      39.232  30.310  29.747  1.00  0.00     0.031 A 
ATOM     39  C   UNL A   1      39.358  30.628  31.210  1.00  0.00     0.074 A 
ATOM     40  C   UNL A   1      40.155  29.503  29.186  1.00  0.00     0.049 A 
ATOM     41  N   UNL A   1      40.163  30.119  32.104  1.00  0.00    -0.248 NA
ATOM     42  C   UNL A   1      38.446  31.660  31.729  1.00  0.00     0.031 C 
ATOM     43  C   UNL A   1      40.220  29.162  27.777  1.00  0.00     0.029 A 
ATOM     44  N   UNL A   1      41.209  28.808  29.739  1.00  0.00    -0.354 N 
ATOM     45  C   UNL A   1      39.842  30.752  33.296  1.00  0.00     0.074 A 
ATOM     46  C   UNL A   1      38.791  31.702  33.005  1.00  0.00     0.031 C 
ATOM     47  C   UNL A   1      41.214  28.279  27.572  1.00  0.00     0.029 A 
ATOM     48  C   UNL A   1      41.898  28.023  28.838  1.00  0.00     0.049 A 
ATOM     49  H   UNL A   1      41.449  28.866  30.692  1.00  0.00     0.167 HD
ATOM     50  C   UNL A   1      40.360  30.553  34.530  1.00  0.00     0.034 A 
ATOM     51  C   UNL A   1      42.956  27.201  29.007  1.00  0.00     0.034 A 
ATOM     52  C   UNL A   1      41.443  29.658  34.827  1.00  0.00     0.049 A 
ATOM     53  C   UNL A   1      43.538  27.020  30.390  1.00  0.00     0.074 A 
ATOM     54  C   UNL A   1      42.046  29.417  36.050  1.00  0.00     0.029 A 
ATOM     55  N   UNL A   1      42.109  28.881  33.895  1.00  0.00    -0.354 N 
ATOM     56  N   UNL A   1      43.126  27.515  31.533  1.00  0.00    -0.248 NA
ATOM     57  C   UNL A   1      44.717  26.146  30.513  1.00  0.00     0.031 C 
ATOM     58  C   UNL A   1      43.094  28.513  35.850  1.00  0.00     0.029 A 
ATOM     59  C   UNL A   1      43.121  28.164  34.510  1.00  0.00     0.049 A 
ATOM     60  H   UNL A   1      41.893  28.843  32.935  1.00  0.00     0.167 HD
ATOM     61  C   UNL A   1      43.978  27.000  32.505  1.00  0.00     0.074 A 
ATOM     62  C   UNL A   1      44.902  26.118  31.825  1.00  0.00     0.031 C 
ATOM     63  C   UNL A   1      44.009  27.252  33.837  1.00  0.00     0.034 A 
BRANCH  50  64
ATOM     64  C   UNL A   1      39.733  31.325  35.655  1.00  0.00     0.023 A 
ATOM     65  C   UNL A   1      38.558  30.830  36.259  1.00  0.00     0.012 A 
ATOM     66  C   UNL A   1      40.303  32.523  36.118  1.00  0.00     0.148 A 
ATOM     67  C   UNL A   1      37.944  31.535  37.291  1.00  0.00     0.002 A 
ATOM     68  C   UNL A   1      39.707  33.199  37.175  1.00  0.00     0.091 A 
ATOM     69  F   UNL A   1      41.402  32.987  35.507  1.00  0.00    -0.205 F 
ATOM     70  C   UNL A   1      38.522  32.713  37.754  1.00  0.00     0.022 A 
BRANCH  68  71
ATOM     71  S   UNL A   1      40.403  34.693  37.886  1.00  0.00     0.127 S 
ATOM     72  O   UNL A   1      40.710  35.473  36.688  1.00  0.00    -0.237 OA
ATOM     73  O   UNL A   1      39.284  35.203  38.677  1.00  0.00    -0.237 OA
ATOM     74  O   UNL A   1      41.558  34.268  38.664  1.00  0.00    -0.744 OA
ENDBRANCH  68  71
ENDBRANCH  50  64
BRANCH  51  75
ATOM     75  C   UNL A   1      43.558  26.468  27.847  1.00  0.00     0.023 A 
ATOM     76  C   UNL A   1      44.472  27.121  26.993  1.00  0.00     0.012 A 
ATOM     77  C   UNL A   1      43.190  25.141  27.556  1.00  0.00     0.148 A 
ATOM     78  C   UNL A   1      44.966  26.484  25.852  1.00  0.00     0.002 A 
ATOM     79  C   UNL A   1      43.737  24.490  26.456  1.00  0.00     0.091 A 
ATOM     80  F   UNL A   1      42.297  24.540  28.355  1.00  0.00    -0.205 F 
ATOM     81  C   UNL A   1      44.608  25.166  25.588  1.00  0.00     0.022 A 
BRANCH  79  82
ATOM     82  S   UNL A   1      43.435  22.750  26.126  1.00  0.00     0.127 S 
ATOM     83  O   UNL A   1      42.396  22.814  25.101  1.00  0.00    -0.237 OA
ATOM     84  O   UNL A   1      44.744  22.300  25.650  1.00  0.00    -0.237 OA
ATOM     85  O   UNL A   1      43.036  22.176  27.404  1.00  0.00    -0.744 OA
ENDBRANCH  79  82
ENDBRANCH  51  75
BRANCH  63  86
ATOM     86  C   UNL A   1      45.061  26.553  34.662  1.00  0.00     0.023 A 
ATOM     87  C   UNL A   1      46.211  27.254  35.079  1.00  0.00     0.012 A 
ATOM     88  C   UNL A   1      44.884  25.216  35.075  1.00  0.00     0.148 A 
ATOM     89  C   UNL A   1      47.185  26.625  35.855  1.00  0.00     0.002 A 
ATOM     90  C   UNL A   1      45.834  24.612  35.891  1.00  0.00     0.091 A 
ATOM     91  F   UNL A   1      43.794  24.556  34.656  1.00  0.00    -0.205 F 
ATOM     92  C   UNL A   1      46.992  25.310  36.269  1.00  0.00     0.022 A 
BRANCH  90  93
ATOM     93  S   UNL A   1      45.617  22.955  36.551  1.00  0.00     0.127 S 
ATOM     94  O   UNL A   1      45.208  23.233  37.926  1.00  0.00    -0.237 OA
ATOM     95  O   UNL A   1      44.559  22.414  35.697  1.00  0.00    -0.237 OA
ATOM     96  O   UNL A   1      46.908  22.296  36.401  1.00  0.00    -0.744 OA
ENDBRANCH  90  93
ENDBRANCH  63  86
ENDBRANCH  37  38
ENDBRANCH  30  32
ENDBRANCH  29  30
ENDBRANCH  28  29
ENDBRANCH  27  28
ENDBRANCH  26  27
ENDBRANCH  25  26
ENDBRANCH   1  25
TORSDOF 23
ENDMDL
