MODEL 1
REMARK VINA RESULT:     -11.5      0.000      0.000
REMARK SMILES O=C(OCCOCCOCCOC(=O)[C@H]1C[C@](O)(c2ccc(Cl)cc2)[C@@H](c2ccc(Cl)cc2)O1)c1ccc(-c2c3nc(c(-c4cccc(S(=O)(=O)[O-])c4F)c4ccc([nH]4)c(-c4cccc(S(=O)(=O)[O-])c4F)c4nc(c(-c5cccc(S(=O)(=O)[O-])c5F)c5ccc2[nH]5)C=C4)C=C3)cc1
REMARK SMILES IDX 7 1 6 2 5 3 4 4 3 5 2 6 1 7 35 8 36 9 97 10 37 11 96 12
REMARK SMILES IDX 38 13 39 14 40 15 90 16 41 17 95 18 89 19 91 20 42 21 94 22
REMARK SMILES IDX 88 23 87 24 43 26 75 27 55 28 74 29 56 30 59 31 73 32 92 33
REMARK SMILES IDX 57 34 58 35 72 37 93 38 60 39 44 40 45 41 53 42 46 43 48 44
REMARK SMILES IDX 54 45 47 46 49 47 50 48 51 49 52 50 76 51 77 52 85 53 78 54
REMARK SMILES IDX 80 55 86 56 79 57 81 58 82 59 83 60 84 61 61 62 62 63 70 64
REMARK SMILES IDX 63 65 65 66 71 67 64 68 66 69 67 70 68 71 69 72 8 73 9 74
REMARK SMILES IDX 10 75 11 76 12 77 13 78 14 79 15 80 16 81 34 82 17 83 26 84
REMARK SMILES IDX 19 85 20 86 25 87 21 88 24 89 22 90 23 91 18 92 27 94 28 95
REMARK SMILES IDX 33 96 29 97 32 98 30 99 31 100
REMARK H PARENT 91 25 59 36 18 93
REMARK Flexibility Score: inf
ROOT
ATOM      1  C   UNL A   1      33.155  33.754  28.054  1.00  0.00     0.188 C 
ENDROOT
BRANCH   1   2
ATOM      2  O   UNL A   1      32.814  35.128  28.274  1.00  0.00    -0.376 OA
BRANCH   2   3
ATOM      3  C   UNL A   1      33.275  35.653  29.527  1.00  0.00     0.202 C 
BRANCH   3   4
ATOM      4  C   UNL A   1      33.489  34.647  30.675  1.00  0.00     0.261 C 
BRANCH   4   5
ATOM      5  O   UNL A   1      34.721  33.921  30.604  1.00  0.00    -0.460 OA
BRANCH   5   6
ATOM      6  C   UNL A   1      35.037  32.748  31.205  1.00  0.00     0.338 C 
ATOM      7  O   UNL A   1      34.219  32.267  31.989  1.00  0.00    -0.246 OA
BRANCH   6   8
ATOM      8  C   UNL A   1      36.317  32.008  30.969  1.00  0.00     0.060 A 
ATOM      9  C   UNL A   1      36.966  31.155  31.871  1.00  0.00     0.016 A 
ATOM     10  C   UNL A   1      36.874  32.127  29.699  1.00  0.00     0.016 A 
ATOM     11  C   UNL A   1      38.150  30.470  31.564  1.00  0.00     0.010 A 
ATOM     12  C   UNL A   1      38.025  31.404  29.373  1.00  0.00     0.010 A 
ATOM     13  C   UNL A   1      38.681  30.545  30.296  1.00  0.00    -0.014 A 
BRANCH  13  14
ATOM     14  C   UNL A   1      39.937  29.857  29.861  1.00  0.00     0.031 A 
ATOM     15  C   UNL A   1      41.116  30.764  29.728  1.00  0.00     0.074 A 
ATOM     16  C   UNL A   1      40.060  28.538  29.547  1.00  0.00     0.049 A 
ATOM     17  N   UNL A   1      42.254  30.531  29.157  1.00  0.00    -0.248 NA
ATOM     18  C   UNL A   1      41.035  32.084  30.398  1.00  0.00     0.031 C 
ATOM     19  C   UNL A   1      39.265  27.433  30.064  1.00  0.00     0.029 A 
ATOM     20  N   UNL A   1      40.868  27.882  28.639  1.00  0.00    -0.354 N 
ATOM     21  C   UNL A   1      43.034  31.636  29.443  1.00  0.00     0.074 A 
ATOM     22  C   UNL A   1      42.213  32.611  30.111  1.00  0.00     0.031 C 
ATOM     23  C   UNL A   1      39.394  26.338  29.287  1.00  0.00     0.029 A 
ATOM     24  C   UNL A   1      40.389  26.617  28.270  1.00  0.00     0.049 A 
ATOM     25  H   UNL A   1      41.701  28.268  28.284  1.00  0.00     0.167 HD
ATOM     26  C   UNL A   1      44.360  31.749  29.251  1.00  0.00     0.034 A 
ATOM     27  C   UNL A   1      40.756  25.806  27.243  1.00  0.00     0.034 A 
ATOM     28  C   UNL A   1      45.110  30.709  28.615  1.00  0.00     0.049 A 
ATOM     29  C   UNL A   1      42.109  26.169  26.694  1.00  0.00     0.074 A 
ATOM     30  C   UNL A   1      46.467  30.628  28.403  1.00  0.00     0.029 A 
ATOM     31  N   UNL A   1      44.534  29.567  28.061  1.00  0.00    -0.354 N 
ATOM     32  N   UNL A   1      42.865  27.191  27.025  1.00  0.00    -0.248 NA
ATOM     33  C   UNL A   1      42.747  25.198  25.805  1.00  0.00     0.031 C 
ATOM     34  C   UNL A   1      46.702  29.471  27.655  1.00  0.00     0.029 A 
ATOM     35  C   UNL A   1      45.499  28.806  27.441  1.00  0.00     0.049 A 
ATOM     36  H   UNL A   1      43.578  29.338  28.106  1.00  0.00     0.167 HD
ATOM     37  C   UNL A   1      44.115  26.916  26.515  1.00  0.00     0.074 A 
ATOM     38  C   UNL A   1      43.986  25.671  25.771  1.00  0.00     0.031 C 
ATOM     39  C   UNL A   1      45.280  27.580  26.708  1.00  0.00     0.034 A 
BRANCH  26  40
ATOM     40  C   UNL A   1      45.021  32.996  29.753  1.00  0.00     0.023 A 
ATOM     41  C   UNL A   1      45.603  33.028  31.039  1.00  0.00     0.012 A 
ATOM     42  C   UNL A   1      45.022  34.156  28.962  1.00  0.00     0.148 A 
ATOM     43  C   UNL A   1      46.155  34.208  31.538  1.00  0.00     0.002 A 
ATOM     44  C   UNL A   1      45.608  35.316  29.450  1.00  0.00     0.091 A 
ATOM     45  F   UNL A   1      44.423  34.108  27.764  1.00  0.00    -0.205 F 
ATOM     46  C   UNL A   1      46.164  35.348  30.740  1.00  0.00     0.022 A 
BRANCH  44  47
ATOM     47  S   UNL A   1      45.698  36.824  28.484  1.00  0.00     0.127 S 
ATOM     48  O   UNL A   1      46.396  36.361  27.280  1.00  0.00    -0.237 OA
ATOM     49  O   UNL A   1      44.280  37.133  28.282  1.00  0.00    -0.237 OA
ATOM     50  O   UNL A   1      46.434  37.781  29.286  1.00  0.00    -0.744 OA
ENDBRANCH  44  47
ENDBRANCH  26  40
BRANCH  27  51
ATOM     51  C   UNL A   1      40.069  24.530  26.788  1.00  0.00     0.023 A 
ATOM     52  C   UNL A   1      38.778  24.544  26.237  1.00  0.00     0.012 A 
ATOM     53  C   UNL A   1      40.615  23.247  27.035  1.00  0.00     0.148 A 
ATOM     54  C   UNL A   1      38.104  23.346  25.911  1.00  0.00     0.002 A 
ATOM     55  C   UNL A   1      40.011  22.069  26.586  1.00  0.00     0.091 A 
ATOM     56  F   UNL A   1      41.636  23.138  27.881  1.00  0.00    -0.205 F 
ATOM     57  C   UNL A   1      38.736  22.110  26.038  1.00  0.00     0.022 A 
BRANCH  55  58
ATOM     58  S   UNL A   1      40.910  20.502  26.603  1.00  0.00     0.127 S 
ATOM     59  O   UNL A   1      40.910  20.151  28.018  1.00  0.00    -0.237 OA
ATOM     60  O   UNL A   1      40.077  19.649  25.756  1.00  0.00    -0.237 OA
ATOM     61  O   UNL A   1      42.203  20.836  26.015  1.00  0.00    -0.744 OA
ENDBRANCH  55  58
ENDBRANCH  27  51
BRANCH  39  62
ATOM     62  C   UNL A   1      46.495  26.953  26.108  1.00  0.00     0.023 A 
ATOM     63  C   UNL A   1      46.746  27.109  24.735  1.00  0.00     0.012 A 
ATOM     64  C   UNL A   1      47.431  26.309  26.938  1.00  0.00     0.148 A 
ATOM     65  C   UNL A   1      47.922  26.613  24.186  1.00  0.00     0.002 A 
ATOM     66  C   UNL A   1      48.630  25.883  26.396  1.00  0.00     0.091 A 
ATOM     67  F   UNL A   1      47.141  26.160  28.240  1.00  0.00    -0.205 F 
ATOM     68  C   UNL A   1      48.870  26.019  25.019  1.00  0.00     0.022 A 
BRANCH  66  69
ATOM     69  S   UNL A   1      49.960  25.239  27.413  1.00  0.00     0.127 S 
ATOM     70  O   UNL A   1      49.259  24.242  28.219  1.00  0.00    -0.237 OA
ATOM     71  O   UNL A   1      50.869  24.687  26.409  1.00  0.00    -0.237 OA
ATOM     72  O   UNL A   1      50.491  26.375  28.152  1.00  0.00    -0.744 OA
ENDBRANCH  66  69
ENDBRANCH  39  62
ENDBRANCH  13  14
ENDBRANCH   6   8
ENDBRANCH   5   6
ENDBRANCH   4   5
ENDBRANCH   3   4
ENDBRANCH   2   3
ENDBRANCH   1   2
BRANCH   1  73
ATOM     73  C   UNL A   1      32.130  32.951  27.250  1.00  0.00     0.188 C 
BRANCH  73  74
ATOM     74  O   UNL A   1      32.404  31.566  27.049  1.00  0.00    -0.376 OA
BRANCH  74  75
ATOM     75  C   UNL A   1      33.692  31.106  27.426  1.00  0.00     0.202 C 
BRANCH  75  76
ATOM     76  C   UNL A   1      34.073  29.653  27.112  1.00  0.00     0.261 C 
BRANCH  76  77
ATOM     77  O   UNL A   1      33.560  29.122  25.880  1.00  0.00    -0.461 OA
BRANCH  77  78
ATOM     78  C   UNL A   1      32.796  27.998  25.983  1.00  0.00     0.335 C 
ATOM     79  O   UNL A   1      31.632  28.004  26.373  1.00  0.00    -0.249 OA
BRANCH  78  80
ATOM     80  C   UNL A   1      33.533  26.696  25.599  1.00  0.00     0.232 C 
ATOM     81  C   UNL A   1      33.203  25.423  26.353  1.00  0.00     0.087 C 
ATOM     82  O   UNL A   1      33.379  26.415  24.206  1.00  0.00    -0.355 OA
ATOM     83  C   UNL A   1      32.405  24.569  25.378  1.00  0.00     0.123 C 
ATOM     84  C   UNL A   1      32.340  25.424  24.057  1.00  0.00     0.186 C 
BRANCH  83  85
ATOM     85  C   UNL A   1      32.950  23.128  25.338  1.00  0.00    -0.013 A 
ATOM     86  C   UNL A   1      32.037  22.055  25.358  1.00  0.00     0.008 A 
ATOM     87  C   UNL A   1      34.296  22.766  25.256  1.00  0.00     0.008 A 
ATOM     88  C   UNL A   1      32.414  20.725  25.104  1.00  0.00     0.021 A 
ATOM     89  C   UNL A   1      34.670  21.420  25.043  1.00  0.00     0.021 A 
ATOM     90  C   UNL A   1      33.734  20.422  24.876  1.00  0.00     0.041 A 
ATOM     91  Cl  UNL A   1      34.208  18.838  24.409  1.00  0.00    -0.084 Cl
ENDBRANCH  83  85
BRANCH  83  92
ATOM     92  O   UNL A   1      31.119  24.472  25.993  1.00  0.00    -0.382 OA
ATOM     93  H   UNL A   1      30.444  24.813  25.385  1.00  0.00     0.212 HD
ENDBRANCH  83  92
BRANCH  84  94
ATOM     94  C   UNL A   1      31.086  26.226  23.635  1.00  0.00    -0.016 A 
ATOM     95  C   UNL A   1      29.779  25.967  24.084  1.00  0.00     0.008 A 
ATOM     96  C   UNL A   1      31.262  27.382  22.847  1.00  0.00     0.008 A 
ATOM     97  C   UNL A   1      28.712  26.835  23.813  1.00  0.00     0.021 A 
ATOM     98  C   UNL A   1      30.197  28.253  22.567  1.00  0.00     0.021 A 
ATOM     99  C   UNL A   1      28.929  27.986  23.071  1.00  0.00     0.041 A 
ATOM    100  Cl  UNL A   1      27.634  29.089  22.815  1.00  0.00    -0.084 Cl
ENDBRANCH  84  94
ENDBRANCH  78  80
ENDBRANCH  77  78
ENDBRANCH  76  77
ENDBRANCH  75  76
ENDBRANCH  74  75
ENDBRANCH  73  74
ENDBRANCH   1  73
TORSDOF 23
ENDMDL
MODEL 2
REMARK VINA RESULT:     -10.9      4.695      6.737
REMARK SMILES O=C(OCCOCCOCCOC(=O)[C@H]1C[C@](O)(c2ccc(Cl)cc2)[C@@H](c2ccc(Cl)cc2)O1)c1ccc(-c2c3nc(c(-c4cccc(S(=O)(=O)[O-])c4F)c4ccc([nH]4)c(-c4cccc(S(=O)(=O)[O-])c4F)c4nc(c(-c5cccc(S(=O)(=O)[O-])c5F)c5ccc2[nH]5)C=C4)C=C3)cc1
REMARK SMILES IDX 7 1 6 2 5 3 4 4 3 5 2 6 1 7 35 8 36 9 97 10 37 11 96 12
REMARK SMILES IDX 38 13 39 14 40 15 90 16 41 17 95 18 89 19 91 20 42 21 94 22
REMARK SMILES IDX 88 23 87 24 43 26 75 27 55 28 74 29 56 30 59 31 73 32 92 33
REMARK SMILES IDX 57 34 58 35 72 37 93 38 60 39 44 40 45 41 53 42 46 43 48 44
REMARK SMILES IDX 54 45 47 46 49 47 50 48 51 49 52 50 76 51 77 52 85 53 78 54
REMARK SMILES IDX 80 55 86 56 79 57 81 58 82 59 83 60 84 61 61 62 62 63 70 64
REMARK SMILES IDX 63 65 65 66 71 67 64 68 66 69 67 70 68 71 69 72 8 73 9 74
REMARK SMILES IDX 10 75 11 76 12 77 13 78 14 79 15 80 16 81 34 82 17 83 26 84
REMARK SMILES IDX 19 85 20 86 25 87 21 88 24 89 22 90 23 91 18 92 27 94 28 95
REMARK SMILES IDX 33 96 29 97 32 98 30 99 31 100
REMARK H PARENT 91 25 59 36 18 93
REMARK Flexibility Score: inf
ROOT
ATOM      1  C   UNL A   1      32.726  30.012  26.931  1.00  0.00     0.188 C 
ENDROOT
BRANCH   1   2
ATOM      2  O   UNL A   1      31.838  30.756  26.089  1.00  0.00    -0.376 OA
BRANCH   2   3
ATOM      3  C   UNL A   1      31.250  31.900  26.723  1.00  0.00     0.202 C 
BRANCH   3   4
ATOM      4  C   UNL A   1      32.030  33.227  26.641  1.00  0.00     0.261 C 
BRANCH   4   5
ATOM      5  O   UNL A   1      32.289  33.842  27.909  1.00  0.00    -0.460 OA
BRANCH   5   6
ATOM      6  C   UNL A   1      33.451  34.372  28.360  1.00  0.00     0.338 C 
ATOM      7  O   UNL A   1      33.575  35.597  28.322  1.00  0.00    -0.246 OA
BRANCH   6   8
ATOM      8  C   UNL A   1      34.585  33.559  28.901  1.00  0.00     0.060 A 
ATOM      9  C   UNL A   1      35.937  33.675  28.553  1.00  0.00     0.016 A 
ATOM     10  C   UNL A   1      34.267  32.648  29.905  1.00  0.00     0.016 A 
ATOM     11  C   UNL A   1      36.949  32.896  29.129  1.00  0.00     0.010 A 
ATOM     12  C   UNL A   1      35.281  31.906  30.518  1.00  0.00     0.010 A 
ATOM     13  C   UNL A   1      36.650  32.026  30.154  1.00  0.00    -0.014 A 
BRANCH  13  14
ATOM     14  C   UNL A   1      37.650  31.148  30.839  1.00  0.00     0.031 A 
ATOM     15  C   UNL A   1      38.116  31.667  32.159  1.00  0.00     0.074 A 
ATOM     16  C   UNL A   1      38.172  29.992  30.344  1.00  0.00     0.049 A 
ATOM     17  N   UNL A   1      39.126  31.277  32.870  1.00  0.00    -0.248 NA
ATOM     18  C   UNL A   1      37.288  32.712  32.808  1.00  0.00     0.031 C 
ATOM     19  C   UNL A   1      37.543  29.072  29.407  1.00  0.00     0.029 A 
ATOM     20  N   UNL A   1      39.413  29.406  30.498  1.00  0.00    -0.354 N 
ATOM     21  C   UNL A   1      39.024  31.979  34.056  1.00  0.00     0.074 A 
ATOM     22  C   UNL A   1      37.948  32.927  33.933  1.00  0.00     0.031 C 
ATOM     23  C   UNL A   1      38.454  28.248  28.850  1.00  0.00     0.029 A 
ATOM     24  C   UNL A   1      39.735  28.492  29.485  1.00  0.00     0.049 A 
ATOM     25  H   UNL A   1      40.016  29.612  31.249  1.00  0.00     0.167 HD
ATOM     26  C   UNL A   1      39.716  31.745  35.184  1.00  0.00     0.034 A 
ATOM     27  C   UNL A   1      40.928  27.927  29.159  1.00  0.00     0.034 A 
ATOM     28  C   UNL A   1      40.744  30.750  35.232  1.00  0.00     0.049 A 
ATOM     29  C   UNL A   1      41.918  28.013  30.288  1.00  0.00     0.074 A 
ATOM     30  C   UNL A   1      41.495  30.335  36.308  1.00  0.00     0.029 A 
ATOM     31  N   UNL A   1      41.176  30.028  34.120  1.00  0.00    -0.354 N 
ATOM     32  N   UNL A   1      41.779  28.634  31.437  1.00  0.00    -0.248 NA
ATOM     33  C   UNL A   1      43.120  27.185  30.182  1.00  0.00     0.031 C 
ATOM     34  C   UNL A   1      42.432  29.414  35.829  1.00  0.00     0.029 A 
ATOM     35  C   UNL A   1      42.236  29.220  34.465  1.00  0.00     0.049 A 
ATOM     36  H   UNL A   1      40.781  30.088  33.221  1.00  0.00     0.167 HD
ATOM     37  C   UNL A   1      42.784  28.156  32.249  1.00  0.00     0.074 A 
ATOM     38  C   UNL A   1      43.583  27.262  31.424  1.00  0.00     0.031 C 
ATOM     39  C   UNL A   1      42.985  28.367  33.573  1.00  0.00     0.034 A 
BRANCH  26  40
ATOM     40  C   UNL A   1      39.351  32.551  36.392  1.00  0.00     0.023 A 
ATOM     41  C   UNL A   1      40.012  33.769  36.665  1.00  0.00     0.012 A 
ATOM     42  C   UNL A   1      38.379  32.074  37.286  1.00  0.00     0.148 A 
ATOM     43  C   UNL A   1      39.726  34.487  37.826  1.00  0.00     0.002 A 
ATOM     44  C   UNL A   1      38.071  32.814  38.420  1.00  0.00     0.091 A 
ATOM     45  F   UNL A   1      37.799  30.895  37.024  1.00  0.00    -0.205 F 
ATOM     46  C   UNL A   1      38.750  34.012  38.698  1.00  0.00     0.022 A 
BRANCH  44  47
ATOM     47  S   UNL A   1      36.806  32.303  39.583  1.00  0.00     0.127 S 
ATOM     48  O   UNL A   1      37.250  30.949  39.926  1.00  0.00    -0.237 OA
ATOM     49  O   UNL A   1      36.974  33.287  40.657  1.00  0.00    -0.237 OA
ATOM     50  O   UNL A   1      35.545  32.370  38.872  1.00  0.00    -0.744 OA
ENDBRANCH  44  47
ENDBRANCH  26  40
BRANCH  27  51
ATOM     51  C   UNL A   1      41.245  27.089  27.933  1.00  0.00     0.023 A 
ATOM     52  C   UNL A   1      41.699  27.671  26.739  1.00  0.00     0.012 A 
ATOM     53  C   UNL A   1      40.953  25.705  27.867  1.00  0.00     0.148 A 
ATOM     54  C   UNL A   1      41.894  26.900  25.571  1.00  0.00     0.002 A 
ATOM     55  C   UNL A   1      41.276  24.916  26.758  1.00  0.00     0.091 A 
ATOM     56  F   UNL A   1      40.178  25.169  28.806  1.00  0.00    -0.205 F 
ATOM     57  C   UNL A   1      41.731  25.516  25.592  1.00  0.00     0.022 A 
BRANCH  55  58
ATOM     58  S   UNL A   1      41.220  23.114  26.857  1.00  0.00     0.127 S 
ATOM     59  O   UNL A   1      39.795  22.832  26.726  1.00  0.00    -0.237 OA
ATOM     60  O   UNL A   1      42.036  22.708  25.712  1.00  0.00    -0.237 OA
ATOM     61  O   UNL A   1      41.826  22.816  28.150  1.00  0.00    -0.744 OA
ENDBRANCH  55  58
ENDBRANCH  27  51
BRANCH  39  62
ATOM     62  C   UNL A   1      44.108  27.602  34.191  1.00  0.00     0.023 A 
ATOM     63  C   UNL A   1      45.412  28.122  34.134  1.00  0.00     0.012 A 
ATOM     64  C   UNL A   1      43.837  26.428  34.919  1.00  0.00     0.148 A 
ATOM     65  C   UNL A   1      46.447  27.468  34.790  1.00  0.00     0.002 A 
ATOM     66  C   UNL A   1      44.860  25.825  35.626  1.00  0.00     0.091 A 
ATOM     67  F   UNL A   1      42.583  25.952  34.927  1.00  0.00    -0.205 F 
ATOM     68  C   UNL A   1      46.168  26.333  35.551  1.00  0.00     0.022 A 
BRANCH  66  69
ATOM     69  S   UNL A   1      44.566  24.450  36.740  1.00  0.00     0.127 S 
ATOM     70  O   UNL A   1      45.457  24.773  37.852  1.00  0.00    -0.237 OA
ATOM     71  O   UNL A   1      43.140  24.596  37.033  1.00  0.00    -0.237 OA
ATOM     72  O   UNL A   1      44.910  23.245  35.998  1.00  0.00    -0.744 OA
ENDBRANCH  66  69
ENDBRANCH  39  62
ENDBRANCH  13  14
ENDBRANCH   6   8
ENDBRANCH   5   6
ENDBRANCH   4   5
ENDBRANCH   3   4
ENDBRANCH   2   3
ENDBRANCH   1   2
BRANCH   1  73
ATOM     73  C   UNL A   1      32.677  28.493  26.747  1.00  0.00     0.188 C 
BRANCH  73  74
ATOM     74  O   UNL A   1      33.330  27.957  25.599  1.00  0.00    -0.376 OA
BRANCH  74  75
ATOM     75  C   UNL A   1      33.276  26.550  25.430  1.00  0.00     0.202 C 
BRANCH  75  76
ATOM     76  C   UNL A   1      34.594  25.768  25.355  1.00  0.00     0.261 C 
BRANCH  76  77
ATOM     77  O   UNL A   1      34.477  24.369  25.047  1.00  0.00    -0.461 OA
BRANCH  77  78
ATOM     78  C   UNL A   1      34.695  24.020  23.747  1.00  0.00     0.335 C 
ATOM     79  O   UNL A   1      34.891  24.835  22.851  1.00  0.00    -0.249 OA
BRANCH  78  80
ATOM     80  C   UNL A   1      34.641  22.498  23.485  1.00  0.00     0.232 C 
ATOM     81  C   UNL A   1      34.835  21.551  24.653  1.00  0.00     0.087 C 
ATOM     82  O   UNL A   1      33.416  22.135  22.844  1.00  0.00    -0.355 OA
ATOM     83  C   UNL A   1      33.459  20.963  24.930  1.00  0.00     0.123 C 
ATOM     84  C   UNL A   1      32.518  21.613  23.847  1.00  0.00     0.186 C 
BRANCH  83  85
ATOM     85  C   UNL A   1      33.535  19.429  25.065  1.00  0.00    -0.013 A 
ATOM     86  C   UNL A   1      32.687  18.784  25.986  1.00  0.00     0.008 A 
ATOM     87  C   UNL A   1      34.366  18.585  24.326  1.00  0.00     0.008 A 
ATOM     88  C   UNL A   1      32.522  17.389  26.028  1.00  0.00     0.021 A 
ATOM     89  C   UNL A   1      34.223  17.182  24.404  1.00  0.00     0.021 A 
ATOM     90  C   UNL A   1      33.248  16.591  25.178  1.00  0.00     0.041 A 
ATOM     91  Cl  UNL A   1      32.957  14.900  25.092  1.00  0.00    -0.084 Cl
ENDBRANCH  83  85
BRANCH  83  92
ATOM     92  O   UNL A   1      33.147  21.443  26.239  1.00  0.00    -0.382 OA
ATOM     93  H   UNL A   1      32.234  21.202  26.463  1.00  0.00     0.212 HD
ENDBRANCH  83  92
BRANCH  84  94
ATOM     94  C   UNL A   1      31.554  22.781  24.163  1.00  0.00    -0.016 A 
ATOM     95  C   UNL A   1      31.128  23.144  25.452  1.00  0.00     0.008 A 
ATOM     96  C   UNL A   1      31.165  23.633  23.109  1.00  0.00     0.008 A 
ATOM     97  C   UNL A   1      30.402  24.318  25.693  1.00  0.00     0.021 A 
ATOM     98  C   UNL A   1      30.432  24.808  23.343  1.00  0.00     0.021 A 
ATOM     99  C   UNL A   1      30.073  25.157  24.640  1.00  0.00     0.041 A 
ATOM    100  Cl  UNL A   1      29.256  26.638  24.954  1.00  0.00    -0.084 Cl
ENDBRANCH  84  94
ENDBRANCH  78  80
ENDBRANCH  77  78
ENDBRANCH  76  77
ENDBRANCH  75  76
ENDBRANCH  74  75
ENDBRANCH  73  74
ENDBRANCH   1  73
TORSDOF 23
ENDMDL
MODEL 3
REMARK VINA RESULT:     -10.9      4.897      9.150
REMARK SMILES O=C(OCCOCCOCCOC(=O)[C@H]1C[C@](O)(c2ccc(Cl)cc2)[C@@H](c2ccc(Cl)cc2)O1)c1ccc(-c2c3nc(c(-c4cccc(S(=O)(=O)[O-])c4F)c4ccc([nH]4)c(-c4cccc(S(=O)(=O)[O-])c4F)c4nc(c(-c5cccc(S(=O)(=O)[O-])c5F)c5ccc2[nH]5)C=C4)C=C3)cc1
REMARK SMILES IDX 7 1 6 2 5 3 4 4 3 5 2 6 1 7 35 8 36 9 97 10 37 11 96 12
REMARK SMILES IDX 38 13 39 14 40 15 90 16 41 17 95 18 89 19 91 20 42 21 94 22
REMARK SMILES IDX 88 23 87 24 43 26 75 27 55 28 74 29 56 30 59 31 73 32 92 33
REMARK SMILES IDX 57 34 58 35 72 37 93 38 60 39 44 40 45 41 53 42 46 43 48 44
REMARK SMILES IDX 54 45 47 46 49 47 50 48 51 49 52 50 76 51 77 52 85 53 78 54
REMARK SMILES IDX 80 55 86 56 79 57 81 58 82 59 83 60 84 61 61 62 62 63 70 64
REMARK SMILES IDX 63 65 65 66 71 67 64 68 66 69 67 70 68 71 69 72 8 73 9 74
REMARK SMILES IDX 10 75 11 76 12 77 13 78 14 79 15 80 16 81 34 82 17 83 26 84
REMARK SMILES IDX 19 85 20 86 25 87 21 88 24 89 22 90 23 91 18 92 27 94 28 95
REMARK SMILES IDX 33 96 29 97 32 98 30 99 31 100
REMARK H PARENT 91 25 59 36 18 93
REMARK Flexibility Score: inf
ROOT
ATOM      1  C   UNL A   1      32.168  29.675  26.361  1.00  0.00     0.188 C 
ENDROOT
BRANCH   1   2
ATOM      2  O   UNL A   1      31.593  30.844  25.766  1.00  0.00    -0.376 OA
BRANCH   2   3
ATOM      3  C   UNL A   1      31.391  31.930  26.681  1.00  0.00     0.202 C 
BRANCH   3   4
ATOM      4  C   UNL A   1      32.651  32.591  27.275  1.00  0.00     0.261 C 
BRANCH   4   5
ATOM      5  O   UNL A   1      32.411  33.843  27.927  1.00  0.00    -0.460 OA
BRANCH   5   6
ATOM      6  C   UNL A   1      33.284  34.597  28.638  1.00  0.00     0.338 C 
ATOM      7  O   UNL A   1      33.102  35.815  28.663  1.00  0.00    -0.246 OA
BRANCH   6   8
ATOM      8  C   UNL A   1      34.449  34.036  29.393  1.00  0.00     0.060 A 
ATOM      9  C   UNL A   1      34.393  33.221  30.531  1.00  0.00     0.016 A 
ATOM     10  C   UNL A   1      35.710  34.295  28.862  1.00  0.00     0.016 A 
ATOM     11  C   UNL A   1      35.532  32.707  31.165  1.00  0.00     0.010 A 
ATOM     12  C   UNL A   1      36.844  33.741  29.462  1.00  0.00     0.010 A 
ATOM     13  C   UNL A   1      36.779  32.919  30.621  1.00  0.00    -0.014 A 
BRANCH  13  14
ATOM     14  C   UNL A   1      38.059  32.419  31.213  1.00  0.00     0.031 A 
ATOM     15  C   UNL A   1      38.524  31.116  30.650  1.00  0.00     0.074 A 
ATOM     16  C   UNL A   1      38.765  33.015  32.213  1.00  0.00     0.049 A 
ATOM     17  N   UNL A   1      39.439  30.321  31.105  1.00  0.00    -0.248 NA
ATOM     18  C   UNL A   1      37.939  30.688  29.357  1.00  0.00     0.031 C 
ATOM     19  C   UNL A   1      38.811  34.434  32.533  1.00  0.00     0.029 A 
ATOM     20  N   UNL A   1      39.545  32.489  33.224  1.00  0.00    -0.354 N 
ATOM     21  C   UNL A   1      39.577  29.341  30.139  1.00  0.00     0.074 A 
ATOM     22  C   UNL A   1      38.562  29.544  29.138  1.00  0.00     0.031 C 
ATOM     23  C   UNL A   1      39.293  34.636  33.776  1.00  0.00     0.029 A 
ATOM     24  C   UNL A   1      39.717  33.357  34.312  1.00  0.00     0.049 A 
ATOM     25  H   UNL A   1      39.943  31.590  33.185  1.00  0.00     0.167 HD
ATOM     26  C   UNL A   1      40.560  28.427  30.064  1.00  0.00     0.034 A 
ATOM     27  C   UNL A   1      40.187  33.112  35.564  1.00  0.00     0.034 A 
ATOM     28  C   UNL A   1      41.557  28.323  31.085  1.00  0.00     0.049 A 
ATOM     29  C   UNL A   1      40.975  31.833  35.629  1.00  0.00     0.074 A 
ATOM     30  C   UNL A   1      42.660  27.502  31.134  1.00  0.00     0.029 A 
ATOM     31  N   UNL A   1      41.540  29.068  32.263  1.00  0.00    -0.354 N 
ATOM     32  N   UNL A   1      41.147  30.943  34.679  1.00  0.00    -0.248 NA
ATOM     33  C   UNL A   1      41.783  31.611  36.829  1.00  0.00     0.031 C 
ATOM     34  C   UNL A   1      43.270  27.700  32.377  1.00  0.00     0.029 A 
ATOM     35  C   UNL A   1      42.574  28.676  33.083  1.00  0.00     0.049 A 
ATOM     36  H   UNL A   1      40.885  29.770  32.477  1.00  0.00     0.167 HD
ATOM     37  C   UNL A   1      42.190  30.144  35.093  1.00  0.00     0.074 A 
ATOM     38  C   UNL A   1      42.547  30.602  36.428  1.00  0.00     0.031 C 
ATOM     39  C   UNL A   1      42.850  29.178  34.409  1.00  0.00     0.034 A 
BRANCH  26  40
ATOM     40  C   UNL A   1      40.579  27.541  28.857  1.00  0.00     0.023 A 
ATOM     41  C   UNL A   1      39.672  26.464  28.746  1.00  0.00     0.012 A 
ATOM     42  C   UNL A   1      41.535  27.749  27.849  1.00  0.00     0.148 A 
ATOM     43  C   UNL A   1      39.735  25.593  27.658  1.00  0.00     0.002 A 
ATOM     44  C   UNL A   1      41.565  26.901  26.750  1.00  0.00     0.091 A 
ATOM     45  F   UNL A   1      42.410  28.751  28.002  1.00  0.00    -0.205 F 
ATOM     46  C   UNL A   1      40.676  25.817  26.658  1.00  0.00     0.022 A 
BRANCH  44  47
ATOM     47  S   UNL A   1      42.718  27.129  25.395  1.00  0.00     0.127 S 
ATOM     48  O   UNL A   1      43.984  27.308  26.113  1.00  0.00    -0.237 OA
ATOM     49  O   UNL A   1      42.598  25.853  24.685  1.00  0.00    -0.237 OA
ATOM     50  O   UNL A   1      42.262  28.294  24.662  1.00  0.00    -0.744 OA
ENDBRANCH  44  47
ENDBRANCH  26  40
BRANCH  27  51
ATOM     51  C   UNL A   1      40.172  34.057  36.753  1.00  0.00     0.023 A 
ATOM     52  C   UNL A   1      39.034  34.209  37.560  1.00  0.00     0.012 A 
ATOM     53  C   UNL A   1      41.237  34.950  37.023  1.00  0.00     0.148 A 
ATOM     54  C   UNL A   1      38.991  35.163  38.601  1.00  0.00     0.002 A 
ATOM     55  C   UNL A   1      41.251  35.796  38.137  1.00  0.00     0.091 A 
ATOM     56  F   UNL A   1      42.170  35.133  36.093  1.00  0.00    -0.205 F 
ATOM     57  C   UNL A   1      40.114  35.923  38.923  1.00  0.00     0.022 A 
BRANCH  55  58
ATOM     58  S   UNL A   1      42.766  36.642  38.637  1.00  0.00     0.127 S 
ATOM     59  O   UNL A   1      42.384  37.255  39.904  1.00  0.00    -0.237 OA
ATOM     60  O   UNL A   1      43.724  35.541  38.748  1.00  0.00    -0.237 OA
ATOM     61  O   UNL A   1      43.039  37.553  37.530  1.00  0.00    -0.744 OA
ENDBRANCH  55  58
ENDBRANCH  27  51
BRANCH  39  62
ATOM     62  C   UNL A   1      44.024  28.574  35.105  1.00  0.00     0.023 A 
ATOM     63  C   UNL A   1      43.867  27.365  35.803  1.00  0.00     0.012 A 
ATOM     64  C   UNL A   1      45.297  29.157  34.962  1.00  0.00     0.148 A 
ATOM     65  C   UNL A   1      44.972  26.745  36.371  1.00  0.00     0.002 A 
ATOM     66  C   UNL A   1      46.401  28.495  35.469  1.00  0.00     0.091 A 
ATOM     67  F   UNL A   1      45.400  30.323  34.308  1.00  0.00    -0.205 F 
ATOM     68  C   UNL A   1      46.239  27.298  36.187  1.00  0.00     0.022 A 
BRANCH  66  69
ATOM     69  S   UNL A   1      48.075  29.058  35.158  1.00  0.00     0.127 S 
ATOM     70  O   UNL A   1      48.191  28.859  33.715  1.00  0.00    -0.237 OA
ATOM     71  O   UNL A   1      48.008  30.458  35.581  1.00  0.00    -0.237 OA
ATOM     72  O   UNL A   1      48.943  28.221  35.973  1.00  0.00    -0.744 OA
ENDBRANCH  66  69
ENDBRANCH  39  62
ENDBRANCH  13  14
ENDBRANCH   6   8
ENDBRANCH   5   6
ENDBRANCH   4   5
ENDBRANCH   3   4
ENDBRANCH   2   3
ENDBRANCH   1   2
BRANCH   1  73
ATOM     73  C   UNL A   1      32.367  28.492  25.411  1.00  0.00     0.188 C 
BRANCH  73  74
ATOM     74  O   UNL A   1      33.337  28.646  24.378  1.00  0.00    -0.376 OA
BRANCH  74  75
ATOM     75  C   UNL A   1      33.809  27.458  23.761  1.00  0.00     0.202 C 
BRANCH  75  76
ATOM     76  C   UNL A   1      33.475  26.110  24.412  1.00  0.00     0.261 C 
BRANCH  76  77
ATOM     77  O   UNL A   1      34.524  25.127  24.393  1.00  0.00    -0.461 OA
BRANCH  77  78
ATOM     78  C   UNL A   1      34.545  24.292  23.316  1.00  0.00     0.335 C 
ATOM     79  O   UNL A   1      33.707  24.323  22.419  1.00  0.00    -0.249 OA
BRANCH  78  80
ATOM     80  C   UNL A   1      35.701  23.268  23.334  1.00  0.00     0.232 C 
ATOM     81  C   UNL A   1      36.862  23.497  24.281  1.00  0.00     0.087 C 
ATOM     82  O   UNL A   1      35.208  21.948  23.579  1.00  0.00    -0.355 OA
ATOM     83  C   UNL A   1      36.699  22.458  25.381  1.00  0.00     0.123 C 
ATOM     84  C   UNL A   1      35.416  21.640  24.974  1.00  0.00     0.186 C 
BRANCH  83  85
ATOM     85  C   UNL A   1      38.029  21.724  25.643  1.00  0.00    -0.013 A 
ATOM     86  C   UNL A   1      39.086  22.429  26.253  1.00  0.00     0.008 A 
ATOM     87  C   UNL A   1      38.295  20.384  25.353  1.00  0.00     0.008 A 
ATOM     88  C   UNL A   1      40.249  21.802  26.732  1.00  0.00     0.021 A 
ATOM     89  C   UNL A   1      39.485  19.770  25.801  1.00  0.00     0.021 A 
ATOM     90  C   UNL A   1      40.412  20.448  26.563  1.00  0.00     0.041 A 
ATOM     91  Cl  UNL A   1      41.742  19.625  27.273  1.00  0.00    -0.084 Cl
ENDBRANCH  83  85
BRANCH  83  92
ATOM     92  O   UNL A   1      36.461  23.241  26.551  1.00  0.00    -0.382 OA
ATOM     93  H   UNL A   1      35.603  23.000  26.933  1.00  0.00     0.212 HD
ENDBRANCH  83  92
BRANCH  84  94
ATOM     94  C   UNL A   1      34.035  21.858  25.637  1.00  0.00    -0.016 A 
ATOM     95  C   UNL A   1      33.825  22.534  26.852  1.00  0.00     0.008 A 
ATOM     96  C   UNL A   1      32.881  21.470  24.926  1.00  0.00     0.008 A 
ATOM     97  C   UNL A   1      32.542  22.859  27.311  1.00  0.00     0.021 A 
ATOM     98  C   UNL A   1      31.592  21.788  25.384  1.00  0.00     0.021 A 
ATOM     99  C   UNL A   1      31.429  22.501  26.566  1.00  0.00     0.041 A 
ATOM    100  Cl  UNL A   1      29.863  22.978  27.093  1.00  0.00    -0.084 Cl
ENDBRANCH  84  94
ENDBRANCH  78  80
ENDBRANCH  77  78
ENDBRANCH  76  77
ENDBRANCH  75  76
ENDBRANCH  74  75
ENDBRANCH  73  74
ENDBRANCH   1  73
TORSDOF 23
ENDMDL
