MODEL 1
REMARK VINA RESULT:      -9.5      0.000      0.000
REMARK SMILES CC1(C)CCC[C@@](C)(CCC(=O)OCCOCCOCCOC(=O)c2ccc(-c3c4nc(c(-c5cccc(S(=O)(=O)[O-])c5F)c5ccc([nH]5)c(-c5cccc(S(=O)(=O)[O-])c5F)c5nc(c(-c6cccc(S(=O)(=O)[O-])c6F)c6ccc3[nH]6)C=C5)C=C4)cc2)C1=O
REMARK SMILES IDX 18 1 17 2 16 3 15 4 14 5 13 6 11 7 12 8 10 9 9 10 7 11 1 12
REMARK SMILES IDX 2 13 3 14 4 15 88 16 5 17 89 18 6 19 8 20 19 21 20 22 21 23
REMARK SMILES IDX 22 24 23 25 24 26 25 27 26 28 87 29 27 30 86 31 28 32 29 33
REMARK SMILES IDX 30 34 80 35 31 36 85 37 79 38 81 39 32 40 84 41 78 42 77 43
REMARK SMILES IDX 33 45 65 46 45 47 64 48 46 49 49 50 63 51 82 52 47 53 48 54
REMARK SMILES IDX 62 56 83 57 50 58 34 59 35 60 43 61 36 62 38 63 44 64 37 65
REMARK SMILES IDX 39 66 40 67 41 68 42 69 66 70 67 71 75 72 68 73 70 74 76 75
REMARK SMILES IDX 69 76 71 77 72 78 73 79 74 80 51 81 52 82 60 83 53 84 55 85
REMARK SMILES IDX 61 86 54 87 56 88 57 89 58 90 59 91
REMARK H PARENT 81 44 49 55
REMARK Flexibility Score: inf
ROOT
ATOM      1  C   UNL A   1      34.362  33.076  28.246  1.00  0.00     0.188 C 
ENDROOT
BRANCH   1   2
ATOM      2  C   UNL A   1      34.049  31.601  28.004  1.00  0.00     0.188 C 
BRANCH   2   3
ATOM      3  O   UNL A   1      32.868  31.339  27.256  1.00  0.00    -0.376 OA
BRANCH   3   4
ATOM      4  C   UNL A   1      32.984  30.414  26.179  1.00  0.00     0.202 C 
BRANCH   4   5
ATOM      5  C   UNL A   1      31.892  29.342  26.092  1.00  0.00     0.261 C 
BRANCH   5   6
ATOM      6  O   UNL A   1      32.154  28.356  25.072  1.00  0.00    -0.463 OA
BRANCH   6   7
ATOM      7  C   UNL A   1      33.087  27.425  25.389  1.00  0.00     0.305 C 
ATOM      8  O   UNL A   1      33.253  26.961  26.513  1.00  0.00    -0.252 OA
BRANCH   7   9
ATOM      9  C   UNL A   1      33.892  26.925  24.209  1.00  0.00     0.124 C 
BRANCH   9  10
ATOM     10  C   UNL A   1      33.558  25.592  23.530  1.00  0.00     0.026 C 
BRANCH  10  11
ATOM     11  C   UNL A   1      34.034  24.246  24.160  1.00  0.00     0.027 C 
ATOM     12  C   UNL A   1      30.673  24.076  24.043  1.00  0.00     0.019 C 
ATOM     13  C   UNL A   1      31.681  23.010  24.499  1.00  0.00     0.024 C 
ATOM     14  C   UNL A   1      30.994  22.153  25.585  1.00  0.00     0.019 C 
ATOM     15  C   UNL A   1      32.074  22.069  23.349  1.00  0.00     0.014 C 
ATOM     16  C   UNL A   1      32.930  23.692  25.107  1.00  0.00     0.144 C 
ATOM     17  C   UNL A   1      33.059  22.685  22.369  1.00  0.00     0.002 C 
ATOM     18  O   UNL A   1      33.010  23.863  26.328  1.00  0.00    -0.298 OA
ATOM     19  C   UNL A   1      34.313  23.172  23.087  1.00  0.00     0.014 C 
ATOM     20  C   UNL A   1      35.319  24.417  24.999  1.00  0.00     0.020 C 
ENDBRANCH  10  11
ENDBRANCH   9  10
ENDBRANCH   7   9
ENDBRANCH   6   7
ENDBRANCH   5   6
ENDBRANCH   4   5
ENDBRANCH   3   4
ENDBRANCH   2   3
ENDBRANCH   1   2
BRANCH   1  21
ATOM     21  O   UNL A   1      33.264  33.896  28.660  1.00  0.00    -0.376 OA
BRANCH  21  22
ATOM     22  C   UNL A   1      33.496  35.299  28.474  1.00  0.00     0.202 C 
BRANCH  22  23
ATOM     23  C   UNL A   1      32.793  36.229  29.475  1.00  0.00     0.261 C 
BRANCH  23  24
ATOM     24  O   UNL A   1      32.247  35.500  30.583  1.00  0.00    -0.460 OA
BRANCH  24  25
ATOM     25  C   UNL A   1      32.816  35.762  31.787  1.00  0.00     0.338 C 
ATOM     26  O   UNL A   1      32.370  36.480  32.669  1.00  0.00    -0.246 OA
BRANCH  25  27
ATOM     27  C   UNL A   1      33.979  34.864  31.976  1.00  0.00     0.060 A 
ATOM     28  C   UNL A   1      33.730  33.560  32.437  1.00  0.00     0.016 A 
ATOM     29  C   UNL A   1      35.277  35.254  31.638  1.00  0.00     0.016 A 
ATOM     30  C   UNL A   1      34.781  32.657  32.593  1.00  0.00     0.010 A 
ATOM     31  C   UNL A   1      36.329  34.353  31.807  1.00  0.00     0.010 A 
ATOM     32  C   UNL A   1      36.091  33.066  32.318  1.00  0.00    -0.014 A 
BRANCH  32  33
ATOM     33  C   UNL A   1      37.241  32.253  32.777  1.00  0.00     0.031 A 
ATOM     34  C   UNL A   1      37.893  32.645  34.074  1.00  0.00     0.074 A 
ATOM     35  C   UNL A   1      37.731  31.236  32.048  1.00  0.00     0.049 A 
ATOM     36  N   UNL A   1      38.983  32.188  34.628  1.00  0.00    -0.248 NA
ATOM     37  C   UNL A   1      37.227  33.713  34.842  1.00  0.00     0.031 C 
ATOM     38  C   UNL A   1      37.182  30.755  30.782  1.00  0.00     0.029 A 
ATOM     39  N   UNL A   1      38.836  30.449  32.258  1.00  0.00    -0.354 N 
ATOM     40  C   UNL A   1      39.159  32.937  35.784  1.00  0.00     0.074 A 
ATOM     41  C   UNL A   1      38.067  33.884  35.851  1.00  0.00     0.031 C 
ATOM     42  C   UNL A   1      37.977  29.780  30.307  1.00  0.00     0.029 A 
ATOM     43  C   UNL A   1      39.104  29.589  31.219  1.00  0.00     0.049 A 
ATOM     44  H   UNL A   1      39.385  30.496  33.074  1.00  0.00     0.167 HD
ATOM     45  C   UNL A   1      40.134  32.842  36.715  1.00  0.00     0.034 A 
ATOM     46  C   UNL A   1      40.156  28.768  31.018  1.00  0.00     0.034 A 
ATOM     47  C   UNL A   1      41.207  31.890  36.657  1.00  0.00     0.049 A 
ATOM     48  C   UNL A   1      41.245  28.695  32.060  1.00  0.00     0.074 A 
ATOM     49  C   UNL A   1      42.224  31.684  37.572  1.00  0.00     0.029 A 
ATOM     50  N   UNL A   1      41.409  30.992  35.622  1.00  0.00    -0.354 N 
ATOM     51  N   UNL A   1      41.343  29.333  33.202  1.00  0.00    -0.248 NA
ATOM     52  C   UNL A   1      42.356  27.767  31.798  1.00  0.00     0.031 C 
ATOM     53  C   UNL A   1      43.055  30.676  37.077  1.00  0.00     0.029 A 
ATOM     54  C   UNL A   1      42.538  30.232  35.870  1.00  0.00     0.049 A 
ATOM     55  H   UNL A   1      40.834  30.906  34.827  1.00  0.00     0.167 HD
ATOM     56  C   UNL A   1      42.496  28.851  33.813  1.00  0.00     0.074 A 
ATOM     57  C   UNL A   1      43.059  27.860  32.919  1.00  0.00     0.031 C 
ATOM     58  C   UNL A   1      43.046  29.201  35.002  1.00  0.00     0.034 A 
BRANCH  45  59
ATOM     59  C   UNL A   1      40.072  33.786  37.884  1.00  0.00     0.023 A 
ATOM     60  C   UNL A   1      40.819  34.981  37.858  1.00  0.00     0.012 A 
ATOM     61  C   UNL A   1      39.249  33.507  38.992  1.00  0.00     0.148 A 
ATOM     62  C   UNL A   1      40.775  35.868  38.932  1.00  0.00     0.002 A 
ATOM     63  C   UNL A   1      39.175  34.417  40.038  1.00  0.00     0.091 A 
ATOM     64  F   UNL A   1      38.570  32.351  39.010  1.00  0.00    -0.205 F 
ATOM     65  C   UNL A   1      39.946  35.592  40.015  1.00  0.00     0.022 A 
BRANCH  63  66
ATOM     66  S   UNL A   1      38.078  34.188  41.441  1.00  0.00     0.127 S 
ATOM     67  O   UNL A   1      36.934  33.527  40.816  1.00  0.00    -0.237 OA
ATOM     68  O   UNL A   1      38.876  33.328  42.317  1.00  0.00    -0.237 OA
ATOM     69  O   UNL A   1      37.821  35.519  41.971  1.00  0.00    -0.744 OA
ENDBRANCH  63  66
ENDBRANCH  45  59
BRANCH  46  70
ATOM     70  C   UNL A   1      40.222  27.923  29.791  1.00  0.00     0.023 A 
ATOM     71  C   UNL A   1      39.410  26.776  29.697  1.00  0.00     0.012 A 
ATOM     72  C   UNL A   1      41.082  28.245  28.723  1.00  0.00     0.148 A 
ATOM     73  C   UNL A   1      39.475  25.949  28.575  1.00  0.00     0.002 A 
ATOM     74  C   UNL A   1      41.104  27.446  27.587  1.00  0.00     0.091 A 
ATOM     75  F   UNL A   1      41.860  29.330  28.840  1.00  0.00    -0.205 F 
ATOM     76  C   UNL A   1      40.314  26.288  27.517  1.00  0.00     0.022 A 
BRANCH  74  77
ATOM     77  S   UNL A   1      42.066  27.864  26.128  1.00  0.00     0.127 S 
ATOM     78  O   UNL A   1      41.766  26.743  25.242  1.00  0.00    -0.237 OA
ATOM     79  O   UNL A   1      41.471  29.140  25.732  1.00  0.00    -0.237 OA
ATOM     80  O   UNL A   1      43.446  27.957  26.582  1.00  0.00    -0.744 OA
ENDBRANCH  74  77
ENDBRANCH  46  70
BRANCH  58  81
ATOM     81  C   UNL A   1      44.288  28.476  35.453  1.00  0.00     0.023 A 
ATOM     82  C   UNL A   1      45.559  29.030  35.202  1.00  0.00     0.012 A 
ATOM     83  C   UNL A   1      44.184  27.298  36.219  1.00  0.00     0.148 A 
ATOM     84  C   UNL A   1      46.709  28.407  35.687  1.00  0.00     0.002 A 
ATOM     85  C   UNL A   1      45.331  26.711  36.741  1.00  0.00     0.091 A 
ATOM     86  F   UNL A   1      42.967  26.779  36.434  1.00  0.00    -0.205 F 
ATOM     87  C   UNL A   1      46.595  27.257  36.466  1.00  0.00     0.022 A 
BRANCH  85  88
ATOM     88  S   UNL A   1      45.271  25.290  37.839  1.00  0.00     0.127 S 
ATOM     89  O   UNL A   1      44.503  24.333  37.046  1.00  0.00    -0.237 OA
ATOM     90  O   UNL A   1      46.688  24.956  37.992  1.00  0.00    -0.237 OA
ATOM     91  O   UNL A   1      44.624  25.751  39.060  1.00  0.00    -0.744 OA
ENDBRANCH  85  88
ENDBRANCH  58  81
ENDBRANCH  32  33
ENDBRANCH  25  27
ENDBRANCH  24  25
ENDBRANCH  23  24
ENDBRANCH  22  23
ENDBRANCH  21  22
ENDBRANCH   1  21
TORSDOF 22
ENDMDL
MODEL 2
REMARK VINA RESULT:      -9.2      5.694      7.939
REMARK SMILES CC1(C)CCC[C@@](C)(CCC(=O)OCCOCCOCCOC(=O)c2ccc(-c3c4nc(c(-c5cccc(S(=O)(=O)[O-])c5F)c5ccc([nH]5)c(-c5cccc(S(=O)(=O)[O-])c5F)c5nc(c(-c6cccc(S(=O)(=O)[O-])c6F)c6ccc3[nH]6)C=C5)C=C4)cc2)C1=O
REMARK SMILES IDX 18 1 17 2 16 3 15 4 14 5 13 6 11 7 12 8 10 9 9 10 7 11 1 12
REMARK SMILES IDX 2 13 3 14 4 15 88 16 5 17 89 18 6 19 8 20 19 21 20 22 21 23
REMARK SMILES IDX 22 24 23 25 24 26 25 27 26 28 87 29 27 30 86 31 28 32 29 33
REMARK SMILES IDX 30 34 80 35 31 36 85 37 79 38 81 39 32 40 84 41 78 42 77 43
REMARK SMILES IDX 33 45 65 46 45 47 64 48 46 49 49 50 63 51 82 52 47 53 48 54
REMARK SMILES IDX 62 56 83 57 50 58 34 59 35 60 43 61 36 62 38 63 44 64 37 65
REMARK SMILES IDX 39 66 40 67 41 68 42 69 66 70 67 71 75 72 68 73 70 74 76 75
REMARK SMILES IDX 69 76 71 77 72 78 73 79 74 80 51 81 52 82 60 83 53 84 55 85
REMARK SMILES IDX 61 86 54 87 56 88 57 89 58 90 59 91
REMARK H PARENT 81 44 49 55
REMARK Flexibility Score: inf
ROOT
ATOM      1  C   UNL A   1      33.484  34.308  28.390  1.00  0.00     0.188 C 
ENDROOT
BRANCH   1   2
ATOM      2  C   UNL A   1      32.947  33.022  27.764  1.00  0.00     0.188 C 
BRANCH   2   3
ATOM      3  O   UNL A   1      31.661  33.121  27.165  1.00  0.00    -0.376 OA
BRANCH   3   4
ATOM      4  C   UNL A   1      31.303  32.096  26.243  1.00  0.00     0.202 C 
BRANCH   4   5
ATOM      5  C   UNL A   1      31.912  30.714  26.505  1.00  0.00     0.261 C 
BRANCH   5   6
ATOM      6  O   UNL A   1      31.343  29.683  25.670  1.00  0.00    -0.463 OA
BRANCH   6   7
ATOM      7  C   UNL A   1      32.181  28.668  25.347  1.00  0.00     0.305 C 
ATOM      8  O   UNL A   1      33.352  28.814  25.011  1.00  0.00    -0.252 OA
BRANCH   7   9
ATOM      9  C   UNL A   1      31.576  27.290  25.504  1.00  0.00     0.124 C 
BRANCH   9  10
ATOM     10  C   UNL A   1      32.392  26.128  26.084  1.00  0.00     0.026 C 
BRANCH  10  11
ATOM     11  C   UNL A   1      33.184  25.173  25.138  1.00  0.00     0.027 C 
ATOM     12  C   UNL A   1      30.459  23.455  26.117  1.00  0.00     0.019 C 
ATOM     13  C   UNL A   1      31.559  23.043  25.128  1.00  0.00     0.024 C 
ATOM     14  C   UNL A   1      31.699  21.506  25.200  1.00  0.00     0.019 C 
ATOM     15  C   UNL A   1      31.188  23.404  23.681  1.00  0.00     0.014 C 
ATOM     16  C   UNL A   1      32.903  23.694  25.533  1.00  0.00     0.144 C 
ATOM     17  C   UNL A   1      31.353  24.881  23.361  1.00  0.00     0.002 C 
ATOM     18  O   UNL A   1      33.710  23.068  26.230  1.00  0.00    -0.298 OA
ATOM     19  C   UNL A   1      32.773  25.349  23.661  1.00  0.00     0.014 C 
ATOM     20  C   UNL A   1      34.710  25.393  25.231  1.00  0.00     0.020 C 
ENDBRANCH  10  11
ENDBRANCH   9  10
ENDBRANCH   7   9
ENDBRANCH   6   7
ENDBRANCH   5   6
ENDBRANCH   4   5
ENDBRANCH   3   4
ENDBRANCH   2   3
ENDBRANCH   1   2
BRANCH   1  21
ATOM     21  O   UNL A   1      33.185  34.509  29.775  1.00  0.00    -0.376 OA
BRANCH  21  22
ATOM     22  C   UNL A   1      34.040  35.468  30.412  1.00  0.00     0.202 C 
BRANCH  22  23
ATOM     23  C   UNL A   1      34.380  35.187  31.884  1.00  0.00     0.261 C 
BRANCH  23  24
ATOM     24  O   UNL A   1      35.593  34.434  32.012  1.00  0.00    -0.460 OA
BRANCH  24  25
ATOM     25  C   UNL A   1      35.433  33.124  32.331  1.00  0.00     0.338 C 
ATOM     26  O   UNL A   1      34.495  32.626  32.935  1.00  0.00    -0.246 OA
BRANCH  25  27
ATOM     27  C   UNL A   1      36.474  32.329  31.640  1.00  0.00     0.060 A 
ATOM     28  C   UNL A   1      37.037  31.245  32.333  1.00  0.00     0.016 A 
ATOM     29  C   UNL A   1      36.840  32.583  30.316  1.00  0.00     0.016 A 
ATOM     30  C   UNL A   1      37.991  30.435  31.717  1.00  0.00     0.010 A 
ATOM     31  C   UNL A   1      37.804  31.780  29.705  1.00  0.00     0.010 A 
ATOM     32  C   UNL A   1      38.408  30.727  30.413  1.00  0.00    -0.014 A 
BRANCH  32  33
ATOM     33  C   UNL A   1      39.630  30.100  29.860  1.00  0.00     0.031 A 
ATOM     34  C   UNL A   1      40.881  30.933  29.826  1.00  0.00     0.074 A 
ATOM     35  C   UNL A   1      39.626  28.856  29.353  1.00  0.00     0.049 A 
ATOM     36  N   UNL A   1      42.039  30.674  29.281  1.00  0.00    -0.248 NA
ATOM     37  C   UNL A   1      40.808  32.249  30.488  1.00  0.00     0.031 C 
ATOM     38  C   UNL A   1      38.482  27.948  29.337  1.00  0.00     0.029 A 
ATOM     39  N   UNL A   1      40.620  28.158  28.714  1.00  0.00    -0.354 N 
ATOM     40  C   UNL A   1      42.816  31.804  29.493  1.00  0.00     0.074 A 
ATOM     41  C   UNL A   1      41.999  32.757  30.212  1.00  0.00     0.031 C 
ATOM     42  C   UNL A   1      38.827  26.825  28.682  1.00  0.00     0.029 A 
ATOM     43  C   UNL A   1      40.205  26.948  28.209  1.00  0.00     0.049 A 
ATOM     44  H   UNL A   1      41.543  28.491  28.625  1.00  0.00     0.167 HD
ATOM     45  C   UNL A   1      44.099  32.030  29.133  1.00  0.00     0.034 A 
ATOM     46  C   UNL A   1      40.857  26.061  27.428  1.00  0.00     0.034 A 
ATOM     47  C   UNL A   1      44.915  31.077  28.435  1.00  0.00     0.049 A 
ATOM     48  C   UNL A   1      42.281  26.344  27.019  1.00  0.00     0.074 A 
ATOM     49  C   UNL A   1      46.242  31.193  28.060  1.00  0.00     0.029 A 
ATOM     50  N   UNL A   1      44.480  29.837  27.997  1.00  0.00    -0.354 N 
ATOM     51  N   UNL A   1      43.040  27.371  27.318  1.00  0.00    -0.248 NA
ATOM     52  C   UNL A   1      42.950  25.332  26.186  1.00  0.00     0.031 C 
ATOM     53  C   UNL A   1      46.601  30.031  27.373  1.00  0.00     0.029 A 
ATOM     54  C   UNL A   1      45.508  29.178  27.349  1.00  0.00     0.049 A 
ATOM     55  H   UNL A   1      43.572  29.478  28.128  1.00  0.00     0.167 HD
ATOM     56  C   UNL A   1      44.284  27.108  26.753  1.00  0.00     0.074 A 
ATOM     57  C   UNL A   1      44.181  25.819  26.099  1.00  0.00     0.031 C 
ATOM     58  C   UNL A   1      45.408  27.866  26.764  1.00  0.00     0.034 A 
BRANCH  45  59
ATOM     59  C   UNL A   1      44.701  33.358  29.505  1.00  0.00     0.023 A 
ATOM     60  C   UNL A   1      45.388  33.495  30.728  1.00  0.00     0.012 A 
ATOM     61  C   UNL A   1      44.614  34.457  28.631  1.00  0.00     0.148 A 
ATOM     62  C   UNL A   1      45.951  34.717  31.091  1.00  0.00     0.002 A 
ATOM     63  C   UNL A   1      45.218  35.659  28.978  1.00  0.00     0.091 A 
ATOM     64  F   UNL A   1      43.930  34.314  27.487  1.00  0.00    -0.205 F 
ATOM     65  C   UNL A   1      45.876  35.794  30.212  1.00  0.00     0.022 A 
BRANCH  63  66
ATOM     66  S   UNL A   1      45.240  37.081  27.881  1.00  0.00     0.127 S 
ATOM     67  O   UNL A   1      45.539  36.455  26.594  1.00  0.00    -0.237 OA
ATOM     68  O   UNL A   1      43.874  37.590  28.010  1.00  0.00    -0.237 OA
ATOM     69  O   UNL A   1      46.270  37.970  28.400  1.00  0.00    -0.744 OA
ENDBRANCH  63  66
ENDBRANCH  45  59
BRANCH  46  70
ATOM     70  C   UNL A   1      40.182  24.802  27.001  1.00  0.00     0.023 A 
ATOM     71  C   UNL A   1      38.924  24.871  26.372  1.00  0.00     0.012 A 
ATOM     72  C   UNL A   1      40.775  23.542  27.214  1.00  0.00     0.148 A 
ATOM     73  C   UNL A   1      38.255  23.707  25.991  1.00  0.00     0.002 A 
ATOM     74  C   UNL A   1      40.126  22.391  26.785  1.00  0.00     0.091 A 
ATOM     75  F   UNL A   1      41.964  23.497  27.830  1.00  0.00    -0.205 F 
ATOM     76  C   UNL A   1      38.859  22.469  26.189  1.00  0.00     0.022 A 
BRANCH  74  77
ATOM     77  S   UNL A   1      40.876  20.761  26.893  1.00  0.00     0.127 S 
ATOM     78  O   UNL A   1      42.155  20.976  26.222  1.00  0.00    -0.237 OA
ATOM     79  O   UNL A   1      40.964  20.566  28.340  1.00  0.00    -0.237 OA
ATOM     80  O   UNL A   1      39.953  19.859  26.218  1.00  0.00    -0.744 OA
ENDBRANCH  74  77
ENDBRANCH  46  70
BRANCH  58  81
ATOM     81  C   UNL A   1      46.646  27.311  26.107  1.00  0.00     0.023 A 
ATOM     82  C   UNL A   1      47.385  26.293  26.741  1.00  0.00     0.012 A 
ATOM     83  C   UNL A   1      47.012  27.728  24.811  1.00  0.00     0.148 A 
ATOM     84  C   UNL A   1      48.485  25.717  26.104  1.00  0.00     0.002 A 
ATOM     85  C   UNL A   1      48.078  27.115  24.164  1.00  0.00     0.091 A 
ATOM     86  F   UNL A   1      46.304  28.708  24.232  1.00  0.00    -0.205 F 
ATOM     87  C   UNL A   1      48.822  26.117  24.813  1.00  0.00     0.022 A 
BRANCH  85  88
ATOM     88  S   UNL A   1      48.518  27.493  22.464  1.00  0.00     0.127 S 
ATOM     89  O   UNL A   1      49.762  28.241  22.637  1.00  0.00    -0.237 OA
ATOM     90  O   UNL A   1      48.684  26.161  21.882  1.00  0.00    -0.237 OA
ATOM     91  O   UNL A   1      47.402  28.256  21.919  1.00  0.00    -0.744 OA
ENDBRANCH  85  88
ENDBRANCH  58  81
ENDBRANCH  32  33
ENDBRANCH  25  27
ENDBRANCH  24  25
ENDBRANCH  23  24
ENDBRANCH  22  23
ENDBRANCH  21  22
ENDBRANCH   1  21
TORSDOF 22
ENDMDL
MODEL 3
REMARK VINA RESULT:      -9.1      1.703      2.218
REMARK SMILES CC1(C)CCC[C@@](C)(CCC(=O)OCCOCCOCCOC(=O)c2ccc(-c3c4nc(c(-c5cccc(S(=O)(=O)[O-])c5F)c5ccc([nH]5)c(-c5cccc(S(=O)(=O)[O-])c5F)c5nc(c(-c6cccc(S(=O)(=O)[O-])c6F)c6ccc3[nH]6)C=C5)C=C4)cc2)C1=O
REMARK SMILES IDX 18 1 17 2 16 3 15 4 14 5 13 6 11 7 12 8 10 9 9 10 7 11 1 12
REMARK SMILES IDX 2 13 3 14 4 15 88 16 5 17 89 18 6 19 8 20 19 21 20 22 21 23
REMARK SMILES IDX 22 24 23 25 24 26 25 27 26 28 87 29 27 30 86 31 28 32 29 33
REMARK SMILES IDX 30 34 80 35 31 36 85 37 79 38 81 39 32 40 84 41 78 42 77 43
REMARK SMILES IDX 33 45 65 46 45 47 64 48 46 49 49 50 63 51 82 52 47 53 48 54
REMARK SMILES IDX 62 56 83 57 50 58 34 59 35 60 43 61 36 62 38 63 44 64 37 65
REMARK SMILES IDX 39 66 40 67 41 68 42 69 66 70 67 71 75 72 68 73 70 74 76 75
REMARK SMILES IDX 69 76 71 77 72 78 73 79 74 80 51 81 52 82 60 83 53 84 55 85
REMARK SMILES IDX 61 86 54 87 56 88 57 89 58 90 59 91
REMARK H PARENT 81 44 49 55
REMARK Flexibility Score: inf
ROOT
ATOM      1  C   UNL A   1      34.438  32.584  27.913  1.00  0.00     0.188 C 
ENDROOT
BRANCH   1   2
ATOM      2  C   UNL A   1      34.080  31.103  27.804  1.00  0.00     0.188 C 
BRANCH   2   3
ATOM      3  O   UNL A   1      33.103  30.777  26.824  1.00  0.00    -0.376 OA
BRANCH   3   4
ATOM      4  C   UNL A   1      33.387  29.664  25.982  1.00  0.00     0.202 C 
BRANCH   4   5
ATOM      5  C   UNL A   1      32.445  28.463  26.115  1.00  0.00     0.261 C 
BRANCH   5   6
ATOM      6  O   UNL A   1      32.542  27.547  25.004  1.00  0.00    -0.463 OA
BRANCH   6   7
ATOM      7  C   UNL A   1      33.413  26.522  25.170  1.00  0.00     0.305 C 
ATOM      8  O   UNL A   1      34.139  26.377  26.149  1.00  0.00    -0.252 OA
BRANCH   7   9
ATOM      9  C   UNL A   1      33.378  25.492  24.062  1.00  0.00     0.124 C 
BRANCH   9  10
ATOM     10  C   UNL A   1      33.040  24.025  24.355  1.00  0.00     0.026 C 
BRANCH  10  11
ATOM     11  C   UNL A   1      33.566  22.894  23.418  1.00  0.00     0.027 C 
ATOM     12  C   UNL A   1      35.775  23.099  25.951  1.00  0.00     0.019 C 
ATOM     13  C   UNL A   1      35.742  22.114  24.773  1.00  0.00     0.024 C 
ATOM     14  C   UNL A   1      37.202  21.724  24.451  1.00  0.00     0.019 C 
ATOM     15  C   UNL A   1      34.988  20.824  25.130  1.00  0.00     0.014 C 
ATOM     16  C   UNL A   1      35.115  22.796  23.534  1.00  0.00     0.144 C 
ATOM     17  C   UNL A   1      33.477  20.983  25.132  1.00  0.00     0.002 C 
ATOM     18  O   UNL A   1      35.840  23.326  22.684  1.00  0.00    -0.298 OA
ATOM     19  C   UNL A   1      32.981  21.515  23.791  1.00  0.00     0.014 C 
ATOM     20  C   UNL A   1      33.230  23.161  21.935  1.00  0.00     0.020 C 
ENDBRANCH  10  11
ENDBRANCH   9  10
ENDBRANCH   7   9
ENDBRANCH   6   7
ENDBRANCH   5   6
ENDBRANCH   4   5
ENDBRANCH   3   4
ENDBRANCH   2   3
ENDBRANCH   1   2
BRANCH   1  21
ATOM     21  O   UNL A   1      33.364  33.470  28.244  1.00  0.00    -0.376 OA
BRANCH  21  22
ATOM     22  C   UNL A   1      33.691  34.856  28.068  1.00  0.00     0.202 C 
BRANCH  22  23
ATOM     23  C   UNL A   1      33.066  35.823  29.086  1.00  0.00     0.261 C 
BRANCH  23  24
ATOM     24  O   UNL A   1      32.544  35.128  30.226  1.00  0.00    -0.460 OA
BRANCH  24  25
ATOM     25  C   UNL A   1      33.148  35.416  31.407  1.00  0.00     0.338 C 
ATOM     26  O   UNL A   1      32.727  36.150  32.288  1.00  0.00    -0.246 OA
BRANCH  25  27
ATOM     27  C   UNL A   1      34.319  34.524  31.579  1.00  0.00     0.060 A 
ATOM     28  C   UNL A   1      34.077  33.195  31.966  1.00  0.00     0.016 A 
ATOM     29  C   UNL A   1      35.619  34.947  31.294  1.00  0.00     0.016 A 
ATOM     30  C   UNL A   1      35.136  32.298  32.102  1.00  0.00     0.010 A 
ATOM     31  C   UNL A   1      36.679  34.053  31.443  1.00  0.00     0.010 A 
ATOM     32  C   UNL A   1      36.446  32.737  31.882  1.00  0.00    -0.014 A 
BRANCH  32  33
ATOM     33  C   UNL A   1      37.596  31.917  32.327  1.00  0.00     0.031 A 
ATOM     34  C   UNL A   1      38.231  32.271  33.643  1.00  0.00     0.074 A 
ATOM     35  C   UNL A   1      38.101  30.926  31.572  1.00  0.00     0.049 A 
ATOM     36  N   UNL A   1      39.318  31.803  34.194  1.00  0.00    -0.248 NA
ATOM     37  C   UNL A   1      37.551  33.310  34.438  1.00  0.00     0.031 C 
ATOM     38  C   UNL A   1      37.568  30.483  30.285  1.00  0.00     0.029 A 
ATOM     39  N   UNL A   1      39.208  30.140  31.769  1.00  0.00    -0.354 N 
ATOM     40  C   UNL A   1      39.477  32.515  35.376  1.00  0.00     0.074 A 
ATOM     41  C   UNL A   1      38.379  33.453  35.460  1.00  0.00     0.031 C 
ATOM     42  C   UNL A   1      38.374  29.528  29.788  1.00  0.00     0.029 A 
ATOM     43  C   UNL A   1      39.492  29.315  30.706  1.00  0.00     0.049 A 
ATOM     44  H   UNL A   1      39.747  30.163  32.592  1.00  0.00     0.167 HD
ATOM     45  C   UNL A   1      40.443  32.396  36.313  1.00  0.00     0.034 A 
ATOM     46  C   UNL A   1      40.551  28.507  30.491  1.00  0.00     0.034 A 
ATOM     47  C   UNL A   1      41.522  31.453  36.237  1.00  0.00     0.049 A 
ATOM     48  C   UNL A   1      41.629  28.406  31.541  1.00  0.00     0.074 A 
ATOM     49  C   UNL A   1      42.530  31.223  37.157  1.00  0.00     0.029 A 
ATOM     50  N   UNL A   1      41.741  30.589  35.176  1.00  0.00    -0.354 N 
ATOM     51  N   UNL A   1      41.711  29.008  32.704  1.00  0.00    -0.248 NA
ATOM     52  C   UNL A   1      42.749  27.493  31.263  1.00  0.00     0.031 C 
ATOM     53  C   UNL A   1      43.372  30.236  36.639  1.00  0.00     0.029 A 
ATOM     54  C   UNL A   1      42.871  29.828  35.413  1.00  0.00     0.049 A 
ATOM     55  H   UNL A   1      41.175  30.526  34.373  1.00  0.00     0.167 HD
ATOM     56  C   UNL A   1      42.860  28.513  33.313  1.00  0.00     0.074 A 
ATOM     57  C   UNL A   1      43.439  27.555  32.394  1.00  0.00     0.031 C 
ATOM     58  C   UNL A   1      43.395  28.828  34.518  1.00  0.00     0.034 A 
BRANCH  45  59
ATOM     59  C   UNL A   1      40.362  33.302  37.511  1.00  0.00     0.023 A 
ATOM     60  C   UNL A   1      41.188  34.442  37.582  1.00  0.00     0.012 A 
ATOM     61  C   UNL A   1      39.447  33.044  38.549  1.00  0.00     0.148 A 
ATOM     62  C   UNL A   1      41.129  35.293  38.685  1.00  0.00     0.002 A 
ATOM     63  C   UNL A   1      39.361  33.921  39.623  1.00  0.00     0.091 A 
ATOM     64  F   UNL A   1      38.693  31.938  38.477  1.00  0.00    -0.205 F 
ATOM     65  C   UNL A   1      40.209  35.039  39.697  1.00  0.00     0.022 A 
BRANCH  63  66
ATOM     66  S   UNL A   1      38.156  33.721  40.938  1.00  0.00     0.127 S 
ATOM     67  O   UNL A   1      36.949  33.386  40.185  1.00  0.00    -0.237 OA
ATOM     68  O   UNL A   1      38.722  32.613  41.708  1.00  0.00    -0.237 OA
ATOM     69  O   UNL A   1      38.119  34.993  41.645  1.00  0.00    -0.744 OA
ENDBRANCH  63  66
ENDBRANCH  45  59
BRANCH  46  70
ATOM     70  C   UNL A   1      40.636  27.701  29.238  1.00  0.00     0.023 A 
ATOM     71  C   UNL A   1      39.843  26.544  29.106  1.00  0.00     0.012 A 
ATOM     72  C   UNL A   1      41.492  28.071  28.184  1.00  0.00     0.148 A 
ATOM     73  C   UNL A   1      39.926  25.754  27.959  1.00  0.00     0.002 A 
ATOM     74  C   UNL A   1      41.532  27.308  27.023  1.00  0.00     0.091 A 
ATOM     75  F   UNL A   1      42.251  29.166  28.337  1.00  0.00    -0.205 F 
ATOM     76  C   UNL A   1      40.762  26.140  26.915  1.00  0.00     0.022 A 
BRANCH  74  77
ATOM     77  S   UNL A   1      42.491  27.788  25.582  1.00  0.00     0.127 S 
ATOM     78  O   UNL A   1      43.835  27.899  26.141  1.00  0.00    -0.237 OA
ATOM     79  O   UNL A   1      42.285  26.647  24.691  1.00  0.00    -0.237 OA
ATOM     80  O   UNL A   1      41.898  29.034  25.114  1.00  0.00    -0.744 OA
ENDBRANCH  74  77
ENDBRANCH  46  70
BRANCH  58  81
ATOM     81  C   UNL A   1      44.636  28.096  34.959  1.00  0.00     0.023 A 
ATOM     82  C   UNL A   1      44.526  26.881  35.662  1.00  0.00     0.012 A 
ATOM     83  C   UNL A   1      45.911  28.563  34.578  1.00  0.00     0.148 A 
ATOM     84  C   UNL A   1      45.668  26.155  36.002  1.00  0.00     0.002 A 
ATOM     85  C   UNL A   1      47.040  27.809  34.878  1.00  0.00     0.091 A 
ATOM     86  F   UNL A   1      45.995  29.729  33.922  1.00  0.00    -0.205 F 
ATOM     87  C   UNL A   1      46.921  26.611  35.599  1.00  0.00     0.022 A 
BRANCH  85  88
ATOM     88  S   UNL A   1      48.681  28.267  34.308  1.00  0.00     0.127 S 
ATOM     89  O   UNL A   1      48.491  28.316  32.860  1.00  0.00    -0.237 OA
ATOM     90  O   UNL A   1      48.876  29.572  34.941  1.00  0.00    -0.237 OA
ATOM     91  O   UNL A   1      49.579  27.223  34.785  1.00  0.00    -0.744 OA
ENDBRANCH  85  88
ENDBRANCH  58  81
ENDBRANCH  32  33
ENDBRANCH  25  27
ENDBRANCH  24  25
ENDBRANCH  23  24
ENDBRANCH  22  23
ENDBRANCH  21  22
ENDBRANCH   1  21
TORSDOF 22
ENDMDL
