MODEL 1
REMARK VINA RESULT:     -10.0      0.000      0.000
REMARK SMILES C[C@@H](C(=O)OCCOCCOCCOC(=O)c1ccc(-c2c3nc(c(-c4cccc(S(=O)(=O)[O-])c4F)c4ccc([nH]4)c(-c4cccc(S(=O)(=O)[O-])c4F)c4nc(c(-c5cccc(S(=O)(=O)[O-])c5F)c5ccc2[nH]5)C=C4)C=C3)cc1)c1ccc(C[C@H]2CCC[C@H]2O)cc1
REMARK SMILES IDX 9 1 8 2 7 3 6 4 5 5 3 6 4 7 2 8 1 9 80 10 81 11 92 12 82 13
REMARK SMILES IDX 91 14 83 15 84 16 85 17 86 18 89 19 87 20 88 21 90 22 10 24
REMARK SMILES IDX 11 25 12 26 13 27 14 28 15 29 16 30 17 31 18 32 79 33 19 34
REMARK SMILES IDX 78 35 20 36 21 37 22 38 72 39 23 40 77 41 71 42 73 43 24 44
REMARK SMILES IDX 76 45 70 46 69 47 25 49 57 50 37 51 56 52 38 53 41 54 55 55
REMARK SMILES IDX 74 56 39 57 40 58 54 60 75 61 42 62 26 63 27 64 35 65 28 66
REMARK SMILES IDX 30 67 36 68 29 69 31 70 32 71 33 72 34 73 58 74 59 75 67 76
REMARK SMILES IDX 60 77 62 78 68 79 61 80 63 81 64 82 65 83 66 84 43 85 44 86
REMARK SMILES IDX 52 87 45 88 47 89 53 90 46 91 48 92 49 93 50 94 51 95
REMARK H PARENT 90 23 73 48 41 59
REMARK Flexibility Score: inf
ROOT
ATOM      1  C   UNL A   1      34.478  31.890  28.257  1.00  0.00     0.188 C 
ENDROOT
BRANCH   1   2
ATOM      2  O   UNL A   1      34.612  30.680  27.523  1.00  0.00    -0.376 OA
BRANCH   2   3
ATOM      3  C   UNL A   1      33.446  30.120  26.930  1.00  0.00     0.202 C 
BRANCH   3   4
ATOM      4  C   UNL A   1      33.541  28.822  26.104  1.00  0.00     0.261 C 
BRANCH   4   5
ATOM      5  O   UNL A   1      32.364  27.982  26.128  1.00  0.00    -0.463 OA
BRANCH   5   6
ATOM      6  C   UNL A   1      32.191  27.172  25.046  1.00  0.00     0.313 C 
ATOM      7  O   UNL A   1      31.100  26.996  24.509  1.00  0.00    -0.252 OA
BRANCH   6   8
ATOM      8  C   UNL A   1      33.474  26.466  24.543  1.00  0.00     0.126 C 
ATOM      9  C   UNL A   1      33.578  26.268  23.028  1.00  0.00     0.025 C 
BRANCH   8  10
ATOM     10  C   UNL A   1      33.802  25.242  25.402  1.00  0.00    -0.034 A 
ATOM     11  C   UNL A   1      35.011  24.536  25.338  1.00  0.00     0.005 A 
ATOM     12  C   UNL A   1      32.790  24.728  26.233  1.00  0.00     0.005 A 
ATOM     13  C   UNL A   1      35.134  23.277  25.945  1.00  0.00     0.004 A 
ATOM     14  C   UNL A   1      32.907  23.474  26.830  1.00  0.00     0.004 A 
ATOM     15  C   UNL A   1      34.036  22.691  26.590  1.00  0.00    -0.048 A 
BRANCH  15  16
ATOM     16  C   UNL A   1      33.977  21.191  26.787  1.00  0.00     0.041 C 
BRANCH  16  17
ATOM     17  C   UNL A   1      33.784  20.360  25.487  1.00  0.00     0.022 C 
ATOM     18  C   UNL A   1      35.022  19.593  25.009  1.00  0.00     0.007 C 
ATOM     19  C   UNL A   1      32.671  19.297  25.454  1.00  0.00     0.117 C 
ATOM     20  C   UNL A   1      34.521  18.479  24.095  1.00  0.00     0.003 C 
ATOM     21  C   UNL A   1      33.019  18.365  24.297  1.00  0.00     0.032 C 
BRANCH  19  22
ATOM     22  O   UNL A   1      32.570  18.473  26.601  1.00  0.00    -0.393 OA
ATOM     23  H   UNL A   1      32.740  19.002  27.396  1.00  0.00     0.210 HD
ENDBRANCH  19  22
ENDBRANCH  16  17
ENDBRANCH  15  16
ENDBRANCH   8  10
ENDBRANCH   6   8
ENDBRANCH   5   6
ENDBRANCH   4   5
ENDBRANCH   3   4
ENDBRANCH   2   3
ENDBRANCH   1   2
BRANCH   1  24
ATOM     24  C   UNL A   1      35.660  32.868  28.262  1.00  0.00     0.188 C 
BRANCH  24  25
ATOM     25  O   UNL A   1      35.370  34.169  28.717  1.00  0.00    -0.376 OA
BRANCH  25  26
ATOM     26  C   UNL A   1      34.335  34.918  28.104  1.00  0.00     0.202 C 
BRANCH  26  27
ATOM     27  C   UNL A   1      33.162  35.592  28.849  1.00  0.00     0.261 C 
BRANCH  27  28
ATOM     28  O   UNL A   1      32.686  35.005  30.065  1.00  0.00    -0.460 OA
BRANCH  28  29
ATOM     29  C   UNL A   1      33.008  35.636  31.214  1.00  0.00     0.338 C 
ATOM     30  O   UNL A   1      32.411  36.584  31.719  1.00  0.00    -0.246 OA
BRANCH  29  31
ATOM     31  C   UNL A   1      34.095  34.890  31.884  1.00  0.00     0.060 A 
ATOM     32  C   UNL A   1      35.158  35.603  32.448  1.00  0.00     0.016 A 
ATOM     33  C   UNL A   1      34.088  33.492  31.927  1.00  0.00     0.016 A 
ATOM     34  C   UNL A   1      36.221  34.918  33.040  1.00  0.00     0.010 A 
ATOM     35  C   UNL A   1      35.173  32.807  32.496  1.00  0.00     0.010 A 
ATOM     36  C   UNL A   1      36.255  33.513  33.045  1.00  0.00    -0.014 A 
BRANCH  36  37
ATOM     37  C   UNL A   1      37.492  32.822  33.506  1.00  0.00     0.031 A 
ATOM     38  C   UNL A   1      38.279  32.023  32.525  1.00  0.00     0.074 A 
ATOM     39  C   UNL A   1      37.912  32.858  34.783  1.00  0.00     0.049 A 
ATOM     40  N   UNL A   1      39.387  31.363  32.722  1.00  0.00    -0.248 NA
ATOM     41  C   UNL A   1      37.694  31.859  31.186  1.00  0.00     0.031 C 
ATOM     42  C   UNL A   1      37.116  33.373  35.875  1.00  0.00     0.029 A 
ATOM     43  N   UNL A   1      39.096  32.502  35.387  1.00  0.00    -0.354 N 
ATOM     44  C   UNL A   1      39.558  30.588  31.589  1.00  0.00     0.074 A 
ATOM     45  C   UNL A   1      38.493  30.937  30.669  1.00  0.00     0.031 C 
ATOM     46  C   UNL A   1      37.886  33.495  36.968  1.00  0.00     0.029 A 
ATOM     47  C   UNL A   1      39.208  32.964  36.686  1.00  0.00     0.049 A 
ATOM     48  H   UNL A   1      39.794  31.971  34.939  1.00  0.00     0.167 HD
ATOM     49  C   UNL A   1      40.475  29.617  31.380  1.00  0.00     0.034 A 
ATOM     50  C   UNL A   1      40.251  32.957  37.544  1.00  0.00     0.034 A 
ATOM     51  C   UNL A   1      41.502  29.260  32.324  1.00  0.00     0.049 A 
ATOM     52  C   UNL A   1      41.412  32.078  37.180  1.00  0.00     0.074 A 
ATOM     53  C   UNL A   1      42.483  28.295  32.200  1.00  0.00     0.029 A 
ATOM     54  N   UNL A   1      41.669  29.838  33.576  1.00  0.00    -0.354 N 
ATOM     55  N   UNL A   1      41.603  31.401  36.075  1.00  0.00    -0.248 NA
ATOM     56  C   UNL A   1      42.448  31.874  38.202  1.00  0.00     0.031 C 
ATOM     57  C   UNL A   1      43.233  28.276  33.381  1.00  0.00     0.029 A 
ATOM     58  C   UNL A   1      42.752  29.265  34.224  1.00  0.00     0.049 A 
ATOM     59  H   UNL A   1      41.102  30.551  33.949  1.00  0.00     0.167 HD
ATOM     60  C   UNL A   1      42.736  30.635  36.294  1.00  0.00     0.074 A 
ATOM     61  C   UNL A   1      43.250  31.009  37.597  1.00  0.00     0.031 C 
ATOM     62  C   UNL A   1      43.258  29.659  35.515  1.00  0.00     0.034 A 
BRANCH  49  63
ATOM     63  C   UNL A   1      40.345  28.833  30.106  1.00  0.00     0.023 A 
ATOM     64  C   UNL A   1      39.279  27.926  29.937  1.00  0.00     0.012 A 
ATOM     65  C   UNL A   1      41.300  28.980  29.081  1.00  0.00     0.148 A 
ATOM     66  C   UNL A   1      39.193  27.142  28.789  1.00  0.00     0.002 A 
ATOM     67  C   UNL A   1      41.177  28.235  27.916  1.00  0.00     0.091 A 
ATOM     68  F   UNL A   1      42.322  29.825  29.275  1.00  0.00    -0.205 F 
ATOM     69  C   UNL A   1      40.136  27.303  27.776  1.00  0.00     0.022 A 
BRANCH  67  70
ATOM     70  S   UNL A   1      42.293  28.421  26.523  1.00  0.00     0.127 S 
ATOM     71  O   UNL A   1      43.522  27.824  27.045  1.00  0.00    -0.237 OA
ATOM     72  O   UNL A   1      41.621  27.632  25.490  1.00  0.00    -0.237 OA
ATOM     73  O   UNL A   1      42.365  29.849  26.249  1.00  0.00    -0.744 OA
ENDBRANCH  67  70
ENDBRANCH  49  63
BRANCH  50  74
ATOM     74  C   UNL A   1      40.268  33.764  38.809  1.00  0.00     0.023 A 
ATOM     75  C   UNL A   1      39.837  33.162  40.014  1.00  0.00     0.012 A 
ATOM     76  C   UNL A   1      40.717  35.093  38.861  1.00  0.00     0.148 A 
ATOM     77  C   UNL A   1      39.843  33.868  41.222  1.00  0.00     0.002 A 
ATOM     78  C   UNL A   1      40.828  35.752  40.083  1.00  0.00     0.091 A 
ATOM     79  F   UNL A   1      41.022  35.714  37.712  1.00  0.00    -0.205 F 
ATOM     80  C   UNL A   1      40.367  35.154  41.263  1.00  0.00     0.022 A 
BRANCH  78  81
ATOM     81  S   UNL A   1      41.718  37.306  40.218  1.00  0.00     0.127 S 
ATOM     82  O   UNL A   1      42.989  36.986  39.577  1.00  0.00    -0.237 OA
ATOM     83  O   UNL A   1      40.860  38.223  39.466  1.00  0.00    -0.237 OA
ATOM     84  O   UNL A   1      41.764  37.582  41.650  1.00  0.00    -0.744 OA
ENDBRANCH  78  81
ENDBRANCH  50  74
BRANCH  62  85
ATOM     85  C   UNL A   1      44.458  28.936  36.053  1.00  0.00     0.023 A 
ATOM     86  C   UNL A   1      45.757  29.405  35.770  1.00  0.00     0.012 A 
ATOM     87  C   UNL A   1      44.289  27.807  36.874  1.00  0.00     0.148 A 
ATOM     88  C   UNL A   1      46.873  28.737  36.272  1.00  0.00     0.002 A 
ATOM     89  C   UNL A   1      45.403  27.177  37.411  1.00  0.00     0.091 A 
ATOM     90  F   UNL A   1      43.044  27.368  37.104  1.00  0.00    -0.205 F 
ATOM     91  C   UNL A   1      46.695  27.631  37.101  1.00  0.00     0.022 A 
BRANCH  89  92
ATOM     92  S   UNL A   1      45.264  25.800  38.552  1.00  0.00     0.127 S 
ATOM     93  O   UNL A   1      44.350  26.340  39.558  1.00  0.00    -0.237 OA
ATOM     94  O   UNL A   1      44.691  24.756  37.703  1.00  0.00    -0.237 OA
ATOM     95  O   UNL A   1      46.615  25.527  39.022  1.00  0.00    -0.744 OA
ENDBRANCH  89  92
ENDBRANCH  62  85
ENDBRANCH  36  37
ENDBRANCH  29  31
ENDBRANCH  28  29
ENDBRANCH  27  28
ENDBRANCH  26  27
ENDBRANCH  25  26
ENDBRANCH  24  25
ENDBRANCH   1  24
TORSDOF 24
ENDMDL
MODEL 2
REMARK VINA RESULT:      -9.9      2.012      2.327
REMARK SMILES C[C@@H](C(=O)OCCOCCOCCOC(=O)c1ccc(-c2c3nc(c(-c4cccc(S(=O)(=O)[O-])c4F)c4ccc([nH]4)c(-c4cccc(S(=O)(=O)[O-])c4F)c4nc(c(-c5cccc(S(=O)(=O)[O-])c5F)c5ccc2[nH]5)C=C4)C=C3)cc1)c1ccc(C[C@H]2CCC[C@H]2O)cc1
REMARK SMILES IDX 9 1 8 2 7 3 6 4 5 5 3 6 4 7 2 8 1 9 80 10 81 11 92 12 82 13
REMARK SMILES IDX 91 14 83 15 84 16 85 17 86 18 89 19 87 20 88 21 90 22 10 24
REMARK SMILES IDX 11 25 12 26 13 27 14 28 15 29 16 30 17 31 18 32 79 33 19 34
REMARK SMILES IDX 78 35 20 36 21 37 22 38 72 39 23 40 77 41 71 42 73 43 24 44
REMARK SMILES IDX 76 45 70 46 69 47 25 49 57 50 37 51 56 52 38 53 41 54 55 55
REMARK SMILES IDX 74 56 39 57 40 58 54 60 75 61 42 62 26 63 27 64 35 65 28 66
REMARK SMILES IDX 30 67 36 68 29 69 31 70 32 71 33 72 34 73 58 74 59 75 67 76
REMARK SMILES IDX 60 77 62 78 68 79 61 80 63 81 64 82 65 83 66 84 43 85 44 86
REMARK SMILES IDX 52 87 45 88 47 89 53 90 46 91 48 92 49 93 50 94 51 95
REMARK H PARENT 90 23 73 48 41 59
REMARK Flexibility Score: inf
ROOT
ATOM      1  C   UNL A   1      35.149  30.840  28.575  1.00  0.00     0.188 C 
ENDROOT
BRANCH   1   2
ATOM      2  O   UNL A   1      35.190  29.567  27.946  1.00  0.00    -0.376 OA
BRANCH   2   3
ATOM      3  C   UNL A   1      34.015  29.101  27.291  1.00  0.00     0.202 C 
BRANCH   3   4
ATOM      4  C   UNL A   1      34.120  28.342  25.955  1.00  0.00     0.261 C 
BRANCH   4   5
ATOM      5  O   UNL A   1      32.859  27.965  25.353  1.00  0.00    -0.463 OA
BRANCH   5   6
ATOM      6  C   UNL A   1      32.616  26.628  25.273  1.00  0.00     0.313 C 
ATOM      7  O   UNL A   1      31.689  26.079  25.864  1.00  0.00    -0.252 OA
BRANCH   6   8
ATOM      8  C   UNL A   1      33.607  25.831  24.389  1.00  0.00     0.126 C 
ATOM      9  C   UNL A   1      33.547  26.121  22.886  1.00  0.00     0.025 C 
BRANCH   8  10
ATOM     10  C   UNL A   1      33.632  24.352  24.785  1.00  0.00    -0.034 A 
ATOM     11  C   UNL A   1      34.173  23.866  25.983  1.00  0.00     0.005 A 
ATOM     12  C   UNL A   1      33.176  23.409  23.846  1.00  0.00     0.005 A 
ATOM     13  C   UNL A   1      34.409  22.494  26.154  1.00  0.00     0.004 A 
ATOM     14  C   UNL A   1      33.416  22.046  24.010  1.00  0.00     0.004 A 
ATOM     15  C   UNL A   1      34.141  21.594  25.112  1.00  0.00    -0.048 A 
BRANCH  15  16
ATOM     16  C   UNL A   1      34.836  20.249  25.066  1.00  0.00     0.041 C 
BRANCH  16  17
ATOM     17  C   UNL A   1      33.983  19.083  24.492  1.00  0.00     0.022 C 
ATOM     18  C   UNL A   1      34.742  17.774  24.246  1.00  0.00     0.007 C 
ATOM     19  C   UNL A   1      32.737  18.632  25.275  1.00  0.00     0.117 C 
ATOM     20  C   UNL A   1      33.697  16.663  24.206  1.00  0.00     0.003 C 
ATOM     21  C   UNL A   1      32.401  17.237  24.756  1.00  0.00     0.032 C 
BRANCH  19  22
ATOM     22  O   UNL A   1      32.903  18.497  26.675  1.00  0.00    -0.393 OA
ATOM     23  H   UNL A   1      33.515  17.768  26.859  1.00  0.00     0.210 HD
ENDBRANCH  19  22
ENDBRANCH  16  17
ENDBRANCH  15  16
ENDBRANCH   8  10
ENDBRANCH   6   8
ENDBRANCH   5   6
ENDBRANCH   4   5
ENDBRANCH   3   4
ENDBRANCH   2   3
ENDBRANCH   1   2
BRANCH   1  24
ATOM     24  C   UNL A   1      36.027  31.960  28.001  1.00  0.00     0.188 C 
BRANCH  24  25
ATOM     25  O   UNL A   1      35.447  33.243  27.995  1.00  0.00    -0.376 OA
BRANCH  25  26
ATOM     26  C   UNL A   1      34.038  33.383  27.935  1.00  0.00     0.202 C 
BRANCH  26  27
ATOM     27  C   UNL A   1      33.246  34.626  28.398  1.00  0.00     0.261 C 
BRANCH  27  28
ATOM     28  O   UNL A   1      32.546  34.576  29.646  1.00  0.00    -0.460 OA
BRANCH  28  29
ATOM     29  C   UNL A   1      32.941  35.445  30.601  1.00  0.00     0.338 C 
ATOM     30  O   UNL A   1      32.409  36.517  30.878  1.00  0.00    -0.246 OA
BRANCH  29  31
ATOM     31  C   UNL A   1      34.014  34.820  31.403  1.00  0.00     0.060 A 
ATOM     32  C   UNL A   1      34.905  35.644  32.100  1.00  0.00     0.016 A 
ATOM     33  C   UNL A   1      34.169  33.431  31.443  1.00  0.00     0.016 A 
ATOM     34  C   UNL A   1      35.959  35.079  32.822  1.00  0.00     0.010 A 
ATOM     35  C   UNL A   1      35.246  32.869  32.145  1.00  0.00     0.010 A 
ATOM     36  C   UNL A   1      36.157  33.687  32.829  1.00  0.00    -0.014 A 
BRANCH  36  37
ATOM     37  C   UNL A   1      37.400  33.139  33.444  1.00  0.00     0.031 A 
ATOM     38  C   UNL A   1      38.425  32.512  32.562  1.00  0.00     0.074 A 
ATOM     39  C   UNL A   1      37.621  33.151  34.771  1.00  0.00     0.049 A 
ATOM     40  N   UNL A   1      39.573  31.994  32.898  1.00  0.00    -0.248 NA
ATOM     41  C   UNL A   1      38.068  32.355  31.144  1.00  0.00     0.031 C 
ATOM     42  C   UNL A   1      36.611  33.488  35.749  1.00  0.00     0.029 A 
ATOM     43  N   UNL A   1      38.743  32.918  35.532  1.00  0.00    -0.354 N 
ATOM     44  C   UNL A   1      40.013  31.320  31.772  1.00  0.00     0.074 A 
ATOM     45  C   UNL A   1      39.054  31.581  30.717  1.00  0.00     0.031 C 
ATOM     46  C   UNL A   1      37.191  33.644  36.950  1.00  0.00     0.029 A 
ATOM     47  C   UNL A   1      38.600  33.311  36.851  1.00  0.00     0.049 A 
ATOM     48  H   UNL A   1      39.566  32.513  35.173  1.00  0.00     0.167 HD
ATOM     49  C   UNL A   1      41.078  30.493  31.666  1.00  0.00     0.034 A 
ATOM     50  C   UNL A   1      39.499  33.389  37.857  1.00  0.00     0.034 A 
ATOM     51  C   UNL A   1      41.996  30.217  32.739  1.00  0.00     0.049 A 
ATOM     52  C   UNL A   1      40.812  32.694  37.637  1.00  0.00     0.074 A 
ATOM     53  C   UNL A   1      43.110  29.400  32.725  1.00  0.00     0.029 A 
ATOM     54  N   UNL A   1      41.898  30.734  34.025  1.00  0.00    -0.354 N 
ATOM     55  N   UNL A   1      41.254  32.118  36.547  1.00  0.00    -0.248 NA
ATOM     56  C   UNL A   1      41.707  32.567  38.795  1.00  0.00     0.031 C 
ATOM     57  C   UNL A   1      43.677  29.407  34.005  1.00  0.00     0.029 A 
ATOM     58  C   UNL A   1      42.945  30.271  34.805  1.00  0.00     0.049 A 
ATOM     59  H   UNL A   1      41.189  31.342  34.336  1.00  0.00     0.167 HD
ATOM     60  C   UNL A   1      42.439  31.497  36.903  1.00  0.00     0.074 A 
ATOM     61  C   UNL A   1      42.701  31.855  38.284  1.00  0.00     0.031 C 
ATOM     62  C   UNL A   1      43.199  30.648  36.173  1.00  0.00     0.034 A 
BRANCH  49  63
ATOM     63  C   UNL A   1      41.244  29.778  30.355  1.00  0.00     0.023 A 
ATOM     64  C   UNL A   1      42.028  30.347  29.332  1.00  0.00     0.012 A 
ATOM     65  C   UNL A   1      40.596  28.548  30.130  1.00  0.00     0.148 A 
ATOM     66  C   UNL A   1      42.126  29.726  28.088  1.00  0.00     0.002 A 
ATOM     67  C   UNL A   1      40.743  27.908  28.907  1.00  0.00     0.091 A 
ATOM     68  F   UNL A   1      39.830  28.040  31.106  1.00  0.00    -0.205 F 
ATOM     69  C   UNL A   1      41.492  28.504  27.880  1.00  0.00     0.022 A 
BRANCH  67  70
ATOM     70  S   UNL A   1      40.030  26.297  28.563  1.00  0.00     0.127 S 
ATOM     71  O   UNL A   1      39.534  26.478  27.198  1.00  0.00    -0.237 OA
ATOM     72  O   UNL A   1      41.195  25.420  28.678  1.00  0.00    -0.237 OA
ATOM     73  O   UNL A   1      39.003  26.084  29.573  1.00  0.00    -0.744 OA
ENDBRANCH  67  70
ENDBRANCH  49  63
BRANCH  50  74
ATOM     74  C   UNL A   1      39.219  34.111  39.141  1.00  0.00     0.023 A 
ATOM     75  C   UNL A   1      39.592  35.471  39.260  1.00  0.00     0.012 A 
ATOM     76  C   UNL A   1      38.579  33.506  40.234  1.00  0.00     0.148 A 
ATOM     77  C   UNL A   1      39.344  36.193  40.433  1.00  0.00     0.002 A 
ATOM     78  C   UNL A   1      38.233  34.259  41.353  1.00  0.00     0.091 A 
ATOM     79  F   UNL A   1      38.322  32.191  40.181  1.00  0.00    -0.205 F 
ATOM     80  C   UNL A   1      38.637  35.595  41.470  1.00  0.00     0.022 A 
BRANCH  78  81
ATOM     81  S   UNL A   1      37.117  33.605  42.599  1.00  0.00     0.127 S 
ATOM     82  O   UNL A   1      36.119  32.919  41.785  1.00  0.00    -0.237 OA
ATOM     83  O   UNL A   1      37.994  32.725  43.372  1.00  0.00    -0.237 OA
ATOM     84  O   UNL A   1      36.659  34.777  43.336  1.00  0.00    -0.744 OA
ENDBRANCH  78  81
ENDBRANCH  50  74
BRANCH  62  85
ATOM     85  C   UNL A   1      44.398  30.058  36.857  1.00  0.00     0.023 A 
ATOM     86  C   UNL A   1      45.574  30.820  37.013  1.00  0.00     0.012 A 
ATOM     87  C   UNL A   1      44.339  28.753  37.378  1.00  0.00     0.148 A 
ATOM     88  C   UNL A   1      46.687  30.275  37.652  1.00  0.00     0.002 A 
ATOM     89  C   UNL A   1      45.433  28.236  38.056  1.00  0.00     0.091 A 
ATOM     90  F   UNL A   1      43.218  28.043  37.191  1.00  0.00    -0.205 F 
ATOM     91  C   UNL A   1      46.613  28.988  38.182  1.00  0.00     0.022 A 
BRANCH  89  92
ATOM     92  S   UNL A   1      45.396  26.623  38.841  1.00  0.00     0.127 S 
ATOM     93  O   UNL A   1      44.178  26.714  39.645  1.00  0.00    -0.237 OA
ATOM     94  O   UNL A   1      45.303  25.725  37.690  1.00  0.00    -0.237 OA
ATOM     95  O   UNL A   1      46.635  26.514  39.598  1.00  0.00    -0.744 OA
ENDBRANCH  89  92
ENDBRANCH  62  85
ENDBRANCH  36  37
ENDBRANCH  29  31
ENDBRANCH  28  29
ENDBRANCH  27  28
ENDBRANCH  26  27
ENDBRANCH  25  26
ENDBRANCH  24  25
ENDBRANCH   1  24
TORSDOF 24
ENDMDL
MODEL 3
REMARK VINA RESULT:      -9.7      2.362      8.582
REMARK SMILES C[C@@H](C(=O)OCCOCCOCCOC(=O)c1ccc(-c2c3nc(c(-c4cccc(S(=O)(=O)[O-])c4F)c4ccc([nH]4)c(-c4cccc(S(=O)(=O)[O-])c4F)c4nc(c(-c5cccc(S(=O)(=O)[O-])c5F)c5ccc2[nH]5)C=C4)C=C3)cc1)c1ccc(C[C@H]2CCC[C@H]2O)cc1
REMARK SMILES IDX 9 1 8 2 7 3 6 4 5 5 3 6 4 7 2 8 1 9 80 10 81 11 92 12 82 13
REMARK SMILES IDX 91 14 83 15 84 16 85 17 86 18 89 19 87 20 88 21 90 22 10 24
REMARK SMILES IDX 11 25 12 26 13 27 14 28 15 29 16 30 17 31 18 32 79 33 19 34
REMARK SMILES IDX 78 35 20 36 21 37 22 38 72 39 23 40 77 41 71 42 73 43 24 44
REMARK SMILES IDX 76 45 70 46 69 47 25 49 57 50 37 51 56 52 38 53 41 54 55 55
REMARK SMILES IDX 74 56 39 57 40 58 54 60 75 61 42 62 26 63 27 64 35 65 28 66
REMARK SMILES IDX 30 67 36 68 29 69 31 70 32 71 33 72 34 73 58 74 59 75 67 76
REMARK SMILES IDX 60 77 62 78 68 79 61 80 63 81 64 82 65 83 66 84 43 85 44 86
REMARK SMILES IDX 52 87 45 88 47 89 53 90 46 91 48 92 49 93 50 94 51 95
REMARK H PARENT 90 23 73 48 41 59
REMARK Flexibility Score: inf
ROOT
ATOM      1  C   UNL A   1      33.402  30.477  26.669  1.00  0.00     0.188 C 
ENDROOT
BRANCH   1   2
ATOM      2  O   UNL A   1      32.100  30.262  27.196  1.00  0.00    -0.376 OA
BRANCH   2   3
ATOM      3  C   UNL A   1      31.755  28.949  27.623  1.00  0.00     0.202 C 
BRANCH   3   4
ATOM      4  C   UNL A   1      32.373  27.719  26.931  1.00  0.00     0.261 C 
BRANCH   4   5
ATOM      5  O   UNL A   1      31.476  26.601  26.730  1.00  0.00    -0.463 OA
BRANCH   5   6
ATOM      6  C   UNL A   1      32.031  25.487  26.177  1.00  0.00     0.313 C 
ATOM      7  O   UNL A   1      32.282  24.472  26.822  1.00  0.00    -0.252 OA
BRANCH   6   8
ATOM      8  C   UNL A   1      32.343  25.591  24.664  1.00  0.00     0.126 C 
ATOM      9  C   UNL A   1      33.752  26.070  24.302  1.00  0.00     0.025 C 
BRANCH   8  10
ATOM     10  C   UNL A   1      31.193  26.265  23.909  1.00  0.00    -0.034 A 
ATOM     11  C   UNL A   1      31.366  27.244  22.920  1.00  0.00     0.005 A 
ATOM     12  C   UNL A   1      29.877  25.962  24.302  1.00  0.00     0.005 A 
ATOM     13  C   UNL A   1      30.277  28.007  22.474  1.00  0.00     0.004 A 
ATOM     14  C   UNL A   1      28.795  26.723  23.866  1.00  0.00     0.004 A 
ATOM     15  C   UNL A   1      29.007  27.827  23.041  1.00  0.00    -0.048 A 
BRANCH  15  16
ATOM     16  C   UNL A   1      27.974  28.932  22.967  1.00  0.00     0.041 C 
BRANCH  16  17
ATOM     17  C   UNL A   1      28.522  30.322  22.538  1.00  0.00     0.022 C 
ATOM     18  C   UNL A   1      28.088  30.798  21.147  1.00  0.00     0.007 C 
ATOM     19  C   UNL A   1      28.230  31.536  23.438  1.00  0.00     0.117 C 
ATOM     20  C   UNL A   1      28.262  32.314  21.129  1.00  0.00     0.003 C 
ATOM     21  C   UNL A   1      28.459  32.767  22.567  1.00  0.00     0.032 C 
BRANCH  19  22
ATOM     22  O   UNL A   1      26.902  31.642  23.919  1.00  0.00    -0.393 OA
ATOM     23  H   UNL A   1      26.595  30.771  24.218  1.00  0.00     0.210 HD
ENDBRANCH  19  22
ENDBRANCH  16  17
ENDBRANCH  15  16
ENDBRANCH   8  10
ENDBRANCH   6   8
ENDBRANCH   5   6
ENDBRANCH   4   5
ENDBRANCH   3   4
ENDBRANCH   2   3
ENDBRANCH   1   2
BRANCH   1  24
ATOM     24  C   UNL A   1      34.541  30.778  27.651  1.00  0.00     0.188 C 
BRANCH  24  25
ATOM     25  O   UNL A   1      34.518  32.062  28.232  1.00  0.00    -0.376 OA
BRANCH  25  26
ATOM     26  C   UNL A   1      33.751  33.094  27.637  1.00  0.00     0.202 C 
BRANCH  26  27
ATOM     27  C   UNL A   1      32.755  34.007  28.385  1.00  0.00     0.261 C 
BRANCH  27  28
ATOM     28  O   UNL A   1      33.257  35.145  29.095  1.00  0.00    -0.460 OA
BRANCH  28  29
ATOM     29  C   UNL A   1      33.391  35.019  30.432  1.00  0.00     0.338 C 
ATOM     30  O   UNL A   1      32.583  35.382  31.284  1.00  0.00    -0.246 OA
BRANCH  29  31
ATOM     31  C   UNL A   1      34.587  34.199  30.720  1.00  0.00     0.060 A 
ATOM     32  C   UNL A   1      34.437  33.021  31.460  1.00  0.00     0.016 A 
ATOM     33  C   UNL A   1      35.857  34.603  30.295  1.00  0.00     0.016 A 
ATOM     34  C   UNL A   1      35.560  32.257  31.788  1.00  0.00     0.010 A 
ATOM     35  C   UNL A   1      36.984  33.848  30.654  1.00  0.00     0.010 A 
ATOM     36  C   UNL A   1      36.848  32.677  31.414  1.00  0.00    -0.014 A 
BRANCH  36  37
ATOM     37  C   UNL A   1      38.030  31.945  31.950  1.00  0.00     0.031 A 
ATOM     38  C   UNL A   1      38.382  32.098  33.389  1.00  0.00     0.074 A 
ATOM     39  C   UNL A   1      38.820  31.176  31.178  1.00  0.00     0.049 A 
ATOM     40  N   UNL A   1      39.357  31.537  34.048  1.00  0.00    -0.248 NA
ATOM     41  C   UNL A   1      37.606  33.084  34.156  1.00  0.00     0.031 C 
ATOM     42  C   UNL A   1      38.747  31.147  29.734  1.00  0.00     0.029 A 
ATOM     43  N   UNL A   1      39.800  30.255  31.471  1.00  0.00    -0.354 N 
ATOM     44  C   UNL A   1      39.411  32.203  35.260  1.00  0.00     0.074 A 
ATOM     45  C   UNL A   1      38.306  33.141  35.280  1.00  0.00     0.031 C 
ATOM     46  C   UNL A   1      39.482  30.122  29.273  1.00  0.00     0.029 A 
ATOM     47  C   UNL A   1      40.169  29.486  30.382  1.00  0.00     0.049 A 
ATOM     48  H   UNL A   1      40.198  30.155  32.366  1.00  0.00     0.167 HD
ATOM     49  C   UNL A   1      40.352  32.093  36.225  1.00  0.00     0.034 A 
ATOM     50  C   UNL A   1      40.967  28.399  30.293  1.00  0.00     0.034 A 
ATOM     51  C   UNL A   1      41.464  31.181  36.167  1.00  0.00     0.049 A 
ATOM     52  C   UNL A   1      41.831  28.103  31.485  1.00  0.00     0.074 A 
ATOM     53  C   UNL A   1      42.466  30.990  37.099  1.00  0.00     0.029 A 
ATOM     54  N   UNL A   1      41.736  30.321  35.110  1.00  0.00    -0.354 N 
ATOM     55  N   UNL A   1      41.830  28.691  32.655  1.00  0.00    -0.248 NA
ATOM     56  C   UNL A   1      42.868  27.075  31.324  1.00  0.00     0.031 C 
ATOM     57  C   UNL A   1      43.352  30.029  36.601  1.00  0.00     0.029 A 
ATOM     58  C   UNL A   1      42.876  29.582  35.379  1.00  0.00     0.049 A 
ATOM     59  H   UNL A   1      41.196  30.248  34.290  1.00  0.00     0.167 HD
ATOM     60  C   UNL A   1      42.908  28.160  33.344  1.00  0.00     0.074 A 
ATOM     61  C   UNL A   1      43.477  27.127  32.501  1.00  0.00     0.031 C 
ATOM     62  C   UNL A   1      43.420  28.548  34.535  1.00  0.00     0.034 A 
BRANCH  49  63
ATOM     63  C   UNL A   1      40.241  33.044  37.382  1.00  0.00     0.023 A 
ATOM     64  C   UNL A   1      39.217  32.882  38.336  1.00  0.00     0.012 A 
ATOM     65  C   UNL A   1      41.144  34.117  37.507  1.00  0.00     0.148 A 
ATOM     66  C   UNL A   1      39.063  33.804  39.370  1.00  0.00     0.002 A 
ATOM     67  C   UNL A   1      41.018  35.000  38.572  1.00  0.00     0.091 A 
ATOM     68  F   UNL A   1      42.092  34.270  36.572  1.00  0.00    -0.205 F 
ATOM     69  C   UNL A   1      39.968  34.855  39.493  1.00  0.00     0.022 A 
BRANCH  67  70
ATOM     70  S   UNL A   1      42.174  36.341  38.863  1.00  0.00     0.127 S 
ATOM     71  O   UNL A   1      41.730  36.839  40.164  1.00  0.00    -0.237 OA
ATOM     72  O   UNL A   1      43.456  35.637  38.884  1.00  0.00    -0.237 OA
ATOM     73  O   UNL A   1      42.006  37.269  37.753  1.00  0.00    -0.744 OA
ENDBRANCH  67  70
ENDBRANCH  49  63
BRANCH  50  74
ATOM     74  C   UNL A   1      41.019  27.527  29.073  1.00  0.00     0.023 A 
ATOM     75  C   UNL A   1      40.048  26.511  28.914  1.00  0.00     0.012 A 
ATOM     76  C   UNL A   1      41.978  27.687  28.060  1.00  0.00     0.148 A 
ATOM     77  C   UNL A   1      40.046  25.677  27.790  1.00  0.00     0.002 A 
ATOM     78  C   UNL A   1      41.901  26.932  26.893  1.00  0.00     0.091 A 
ATOM     79  F   UNL A   1      42.970  28.568  28.248  1.00  0.00    -0.205 F 
ATOM     80  C   UNL A   1      40.954  25.907  26.764  1.00  0.00     0.022 A 
BRANCH  78  81
ATOM     81  S   UNL A   1      42.888  27.353  25.453  1.00  0.00     0.127 S 
ATOM     82  O   UNL A   1      42.686  26.191  24.594  1.00  0.00    -0.237 OA
ATOM     83  O   UNL A   1      42.249  28.584  24.986  1.00  0.00    -0.237 OA
ATOM     84  O   UNL A   1      44.236  27.549  25.973  1.00  0.00    -0.744 OA
ENDBRANCH  78  81
ENDBRANCH  50  74
BRANCH  62  85
ATOM     85  C   UNL A   1      44.658  27.836  35.000  1.00  0.00     0.023 A 
ATOM     86  C   UNL A   1      45.932  28.383  34.743  1.00  0.00     0.012 A 
ATOM     87  C   UNL A   1      44.548  26.638  35.729  1.00  0.00     0.148 A 
ATOM     88  C   UNL A   1      47.081  27.725  35.178  1.00  0.00     0.002 A 
ATOM     89  C   UNL A   1      45.695  26.016  36.201  1.00  0.00     0.091 A 
ATOM     90  F   UNL A   1      43.326  26.128  35.935  1.00  0.00    -0.205 F 
ATOM     91  C   UNL A   1      46.963  26.549  35.916  1.00  0.00     0.022 A 
BRANCH  89  92
ATOM     92  S   UNL A   1      45.630  24.546  37.227  1.00  0.00     0.127 S 
ATOM     93  O   UNL A   1      47.050  24.239  37.394  1.00  0.00    -0.237 OA
ATOM     94  O   UNL A   1      44.965  25.042  38.431  1.00  0.00    -0.237 OA
ATOM     95  O   UNL A   1      44.866  23.561  36.474  1.00  0.00    -0.744 OA
ENDBRANCH  89  92
ENDBRANCH  62  85
ENDBRANCH  36  37
ENDBRANCH  29  31
ENDBRANCH  28  29
ENDBRANCH  27  28
ENDBRANCH  26  27
ENDBRANCH  25  26
ENDBRANCH  24  25
ENDBRANCH   1  24
TORSDOF 24
ENDMDL
