MODEL 1
REMARK VINA RESULT:     -10.6      0.000      0.000
REMARK SMILES C[C@@H](C(=O)OCCOCCOCCOC(=O)c1ccc(-c2c3nc(c(-c4cccc(S(=O)(=O)[O-])c4F)c4ccc([nH]4)c(-c4cccc(S(=O)(=O)[O-])c4F)c4nc(c(-c5cccc(S(=O)(=O)[O-])c5F)c5ccc2[nH]5)C=C4)C=C3)cc1)c1ccc(NC2CCCC2)cc1F
REMARK SMILES IDX 9 1 8 2 7 3 6 4 5 5 3 6 4 7 2 8 1 9 80 10 81 11 91 12 82 13
REMARK SMILES IDX 90 14 92 15 83 16 84 17 85 19 86 20 89 21 87 22 88 23 10 24
REMARK SMILES IDX 11 25 12 26 13 27 14 28 15 29 16 30 17 31 18 32 79 33 19 34
REMARK SMILES IDX 78 35 20 36 21 37 22 38 72 39 23 40 77 41 71 42 73 43 24 44
REMARK SMILES IDX 76 45 70 46 69 47 25 49 57 50 37 51 56 52 38 53 41 54 55 55
REMARK SMILES IDX 74 56 39 57 40 58 54 60 75 61 42 62 26 63 27 64 35 65 28 66
REMARK SMILES IDX 30 67 36 68 29 69 31 70 32 71 33 72 34 73 58 74 59 75 67 76
REMARK SMILES IDX 60 77 62 78 68 79 61 80 63 81 64 82 65 83 66 84 43 85 44 86
REMARK SMILES IDX 52 87 45 88 47 89 53 90 46 91 48 92 49 93 50 94 51 95
REMARK H PARENT 84 18 73 48 41 59
REMARK Flexibility Score: inf
ROOT
ATOM      1  C   UNL A   1      32.605  19.434  24.122  1.00  0.00     0.188 C 
ENDROOT
BRANCH   1   2
ATOM      2  O   UNL A   1      31.883  20.093  25.138  1.00  0.00    -0.376 OA
BRANCH   2   3
ATOM      3  C   UNL A   1      32.147  21.465  25.389  1.00  0.00     0.202 C 
BRANCH   3   4
ATOM      4  C   UNL A   1      32.103  22.082  26.800  1.00  0.00     0.261 C 
BRANCH   4   5
ATOM      5  O   UNL A   1      32.762  23.355  26.964  1.00  0.00    -0.463 OA
BRANCH   5   6
ATOM      6  C   UNL A   1      32.105  24.437  26.446  1.00  0.00     0.313 C 
ATOM      7  O   UNL A   1      30.980  24.775  26.804  1.00  0.00    -0.252 OA
BRANCH   6   8
ATOM      8  C   UNL A   1      32.846  25.167  25.309  1.00  0.00     0.129 C 
ATOM      9  C   UNL A   1      34.366  25.338  25.420  1.00  0.00     0.025 C 
BRANCH   8  10
ATOM     10  C   UNL A   1      32.204  26.494  24.927  1.00  0.00     0.002 A 
ATOM     11  C   UNL A   1      31.618  26.676  23.672  1.00  0.00     0.010 A 
ATOM     12  C   UNL A   1      32.203  27.597  25.780  1.00  0.00     0.129 A 
ATOM     13  C   UNL A   1      31.036  27.907  23.321  1.00  0.00     0.026 A 
ATOM     14  C   UNL A   1      31.640  28.816  25.424  1.00  0.00     0.065 A 
ATOM     15  F   UNL A   1      32.766  27.521  26.985  1.00  0.00    -0.207 F 
ATOM     16  C   UNL A   1      31.033  29.004  24.188  1.00  0.00     0.037 A 
BRANCH  16  17
ATOM     17  N   UNL A   1      30.471  30.235  23.926  1.00  0.00    -0.382 N 
ATOM     18  H   UNL A   1      31.003  31.013  24.213  1.00  0.00     0.160 HD
BRANCH  17  19
ATOM     19  C   UNL A   1      29.206  30.544  23.285  1.00  0.00     0.079 C 
ATOM     20  C   UNL A   1      28.701  31.950  23.580  1.00  0.00     0.025 C 
ATOM     21  C   UNL A   1      29.238  30.377  21.768  1.00  0.00     0.025 C 
ATOM     22  C   UNL A   1      27.853  32.307  22.372  1.00  0.00     0.002 C 
ATOM     23  C   UNL A   1      28.435  31.538  21.194  1.00  0.00     0.002 C 
ENDBRANCH  17  19
ENDBRANCH  16  17
ENDBRANCH   8  10
ENDBRANCH   6   8
ENDBRANCH   5   6
ENDBRANCH   4   5
ENDBRANCH   3   4
ENDBRANCH   2   3
ENDBRANCH   1   2
BRANCH   1  24
ATOM     24  C   UNL A   1      34.091  19.130  24.367  1.00  0.00     0.188 C 
BRANCH  24  25
ATOM     25  O   UNL A   1      34.883  19.878  25.267  1.00  0.00    -0.376 OA
BRANCH  25  26
ATOM     26  C   UNL A   1      36.199  20.230  24.896  1.00  0.00     0.202 C 
BRANCH  26  27
ATOM     27  C   UNL A   1      36.953  21.342  25.640  1.00  0.00     0.261 C 
BRANCH  27  28
ATOM     28  O   UNL A   1      38.279  21.634  25.188  1.00  0.00    -0.460 OA
BRANCH  28  29
ATOM     29  C   UNL A   1      39.263  21.413  26.096  1.00  0.00     0.338 C 
ATOM     30  O   UNL A   1      39.822  20.352  26.328  1.00  0.00    -0.246 OA
BRANCH  29  31
ATOM     31  C   UNL A   1      39.695  22.711  26.663  1.00  0.00     0.060 A 
ATOM     32  C   UNL A   1      39.116  23.886  26.164  1.00  0.00     0.016 A 
ATOM     33  C   UNL A   1      40.666  22.778  27.665  1.00  0.00     0.016 A 
ATOM     34  C   UNL A   1      39.523  25.130  26.650  1.00  0.00     0.010 A 
ATOM     35  C   UNL A   1      41.088  24.026  28.136  1.00  0.00     0.010 A 
ATOM     36  C   UNL A   1      40.535  25.210  27.615  1.00  0.00    -0.014 A 
BRANCH  36  37
ATOM     37  C   UNL A   1      41.139  26.526  27.943  1.00  0.00     0.031 A 
ATOM     38  C   UNL A   1      42.570  26.774  27.551  1.00  0.00     0.074 A 
ATOM     39  C   UNL A   1      40.443  27.485  28.580  1.00  0.00     0.049 A 
ATOM     40  N   UNL A   1      43.315  27.826  27.763  1.00  0.00    -0.248 NA
ATOM     41  C   UNL A   1      43.253  25.679  26.843  1.00  0.00     0.031 C 
ATOM     42  C   UNL A   1      39.067  27.360  29.044  1.00  0.00     0.029 A 
ATOM     43  N   UNL A   1      40.813  28.752  28.963  1.00  0.00    -0.354 N 
ATOM     44  C   UNL A   1      44.567  27.509  27.249  1.00  0.00     0.074 A 
ATOM     45  C   UNL A   1      44.478  26.167  26.713  1.00  0.00     0.031 C 
ATOM     46  C   UNL A   1      38.697  28.509  29.636  1.00  0.00     0.029 A 
ATOM     47  C   UNL A   1      39.835  29.427  29.654  1.00  0.00     0.049 A 
ATOM     48  H   UNL A   1      41.696  29.139  28.761  1.00  0.00     0.167 HD
ATOM     49  C   UNL A   1      45.691  28.263  27.224  1.00  0.00     0.034 A 
ATOM     50  C   UNL A   1      39.867  30.629  30.266  1.00  0.00     0.034 A 
ATOM     51  C   UNL A   1      45.788  29.593  27.763  1.00  0.00     0.049 A 
ATOM     52  C   UNL A   1      41.137  31.442  30.241  1.00  0.00     0.074 A 
ATOM     53  C   UNL A   1      46.879  30.442  27.760  1.00  0.00     0.029 A 
ATOM     54  N   UNL A   1      44.765  30.257  28.419  1.00  0.00    -0.354 N 
ATOM     55  N   UNL A   1      42.280  31.175  29.657  1.00  0.00    -0.248 NA
ATOM     56  C   UNL A   1      41.118  32.733  30.948  1.00  0.00     0.031 C 
ATOM     57  C   UNL A   1      46.527  31.610  28.445  1.00  0.00     0.029 A 
ATOM     58  C   UNL A   1      45.202  31.504  28.835  1.00  0.00     0.049 A 
ATOM     59  H   UNL A   1      43.860  29.898  28.567  1.00  0.00     0.167 HD
ATOM     60  C   UNL A   1      43.103  32.270  29.903  1.00  0.00     0.074 A 
ATOM     61  C   UNL A   1      42.319  33.218  30.666  1.00  0.00     0.031 C 
ATOM     62  C   UNL A   1      44.397  32.465  29.547  1.00  0.00     0.034 A 
BRANCH  49  63
ATOM     63  C   UNL A   1      46.916  27.658  26.590  1.00  0.00     0.023 A 
ATOM     64  C   UNL A   1      47.792  26.874  27.368  1.00  0.00     0.012 A 
ATOM     65  C   UNL A   1      47.180  27.835  25.219  1.00  0.00     0.148 A 
ATOM     66  C   UNL A   1      48.932  26.308  26.799  1.00  0.00     0.002 A 
ATOM     67  C   UNL A   1      48.291  27.229  24.648  1.00  0.00     0.091 A 
ATOM     68  F   UNL A   1      46.346  28.602  24.502  1.00  0.00    -0.205 F 
ATOM     69  C   UNL A   1      49.175  26.476  25.439  1.00  0.00     0.022 A 
BRANCH  67  70
ATOM     70  S   UNL A   1      48.648  27.319  22.891  1.00  0.00     0.127 S 
ATOM     71  O   UNL A   1      47.729  28.370  22.457  1.00  0.00    -0.237 OA
ATOM     72  O   UNL A   1      50.061  27.703  22.885  1.00  0.00    -0.237 OA
ATOM     73  O   UNL A   1      48.376  25.992  22.356  1.00  0.00    -0.744 OA
ENDBRANCH  67  70
ENDBRANCH  49  63
BRANCH  50  74
ATOM     74  C   UNL A   1      38.656  31.147  30.969  1.00  0.00     0.023 A 
ATOM     75  C   UNL A   1      38.556  31.027  32.369  1.00  0.00     0.012 A 
ATOM     76  C   UNL A   1      37.602  31.752  30.256  1.00  0.00     0.148 A 
ATOM     77  C   UNL A   1      37.416  31.469  33.042  1.00  0.00     0.002 A 
ATOM     78  C   UNL A   1      36.498  32.246  30.939  1.00  0.00     0.091 A 
ATOM     79  F   UNL A   1      37.705  31.834  28.923  1.00  0.00    -0.205 F 
ATOM     80  C   UNL A   1      36.393  32.089  32.328  1.00  0.00     0.022 A 
BRANCH  78  81
ATOM     81  S   UNL A   1      35.192  33.168  30.118  1.00  0.00     0.127 S 
ATOM     82  O   UNL A   1      34.467  33.731  31.253  1.00  0.00    -0.237 OA
ATOM     83  O   UNL A   1      35.958  34.135  29.332  1.00  0.00    -0.237 OA
ATOM     84  O   UNL A   1      34.461  32.190  29.324  1.00  0.00    -0.744 OA
ENDBRANCH  78  81
ENDBRANCH  50  74
BRANCH  62  85
ATOM     85  C   UNL A   1      45.047  33.774  29.925  1.00  0.00     0.023 A 
ATOM     86  C   UNL A   1      45.779  33.882  31.124  1.00  0.00     0.012 A 
ATOM     87  C   UNL A   1      44.996  34.875  29.047  1.00  0.00     0.148 A 
ATOM     88  C   UNL A   1      46.422  35.074  31.458  1.00  0.00     0.002 A 
ATOM     89  C   UNL A   1      45.681  36.043  29.362  1.00  0.00     0.091 A 
ATOM     90  F   UNL A   1      44.281  34.761  27.919  1.00  0.00    -0.205 F 
ATOM     91  C   UNL A   1      46.384  36.149  30.573  1.00  0.00     0.022 A 
BRANCH  89  92
ATOM     92  S   UNL A   1      45.769  37.443  28.239  1.00  0.00     0.127 S 
ATOM     93  O   UNL A   1      46.311  36.821  27.031  1.00  0.00    -0.237 OA
ATOM     94  O   UNL A   1      44.367  37.848  28.139  1.00  0.00    -0.237 OA
ATOM     95  O   UNL A   1      46.638  38.420  28.879  1.00  0.00    -0.744 OA
ENDBRANCH  89  92
ENDBRANCH  62  85
ENDBRANCH  36  37
ENDBRANCH  29  31
ENDBRANCH  28  29
ENDBRANCH  27  28
ENDBRANCH  26  27
ENDBRANCH  25  26
ENDBRANCH  24  25
ENDBRANCH   1  24
TORSDOF 23
ENDMDL
MODEL 2
REMARK VINA RESULT:     -10.5      1.744      7.635
REMARK SMILES C[C@@H](C(=O)OCCOCCOCCOC(=O)c1ccc(-c2c3nc(c(-c4cccc(S(=O)(=O)[O-])c4F)c4ccc([nH]4)c(-c4cccc(S(=O)(=O)[O-])c4F)c4nc(c(-c5cccc(S(=O)(=O)[O-])c5F)c5ccc2[nH]5)C=C4)C=C3)cc1)c1ccc(NC2CCCC2)cc1F
REMARK SMILES IDX 9 1 8 2 7 3 6 4 5 5 3 6 4 7 2 8 1 9 80 10 81 11 91 12 82 13
REMARK SMILES IDX 90 14 92 15 83 16 84 17 85 19 86 20 89 21 87 22 88 23 10 24
REMARK SMILES IDX 11 25 12 26 13 27 14 28 15 29 16 30 17 31 18 32 79 33 19 34
REMARK SMILES IDX 78 35 20 36 21 37 22 38 72 39 23 40 77 41 71 42 73 43 24 44
REMARK SMILES IDX 76 45 70 46 69 47 25 49 57 50 37 51 56 52 38 53 41 54 55 55
REMARK SMILES IDX 74 56 39 57 40 58 54 60 75 61 42 62 26 63 27 64 35 65 28 66
REMARK SMILES IDX 30 67 36 68 29 69 31 70 32 71 33 72 34 73 58 74 59 75 67 76
REMARK SMILES IDX 60 77 62 78 68 79 61 80 63 81 64 82 65 83 66 84 43 85 44 86
REMARK SMILES IDX 52 87 45 88 47 89 53 90 46 91 48 92 49 93 50 94 51 95
REMARK H PARENT 84 18 73 48 41 59
REMARK Flexibility Score: inf
ROOT
ATOM      1  C   UNL A   1      35.225  21.915  24.324  1.00  0.00     0.188 C 
ENDROOT
BRANCH   1   2
ATOM      2  O   UNL A   1      34.161  20.991  24.315  1.00  0.00    -0.376 OA
BRANCH   2   3
ATOM      3  C   UNL A   1      32.982  21.294  25.045  1.00  0.00     0.202 C 
BRANCH   3   4
ATOM      4  C   UNL A   1      31.876  22.221  24.503  1.00  0.00     0.261 C 
BRANCH   4   5
ATOM      5  O   UNL A   1      31.021  22.841  25.487  1.00  0.00    -0.463 OA
BRANCH   5   6
ATOM      6  C   UNL A   1      31.579  23.863  26.203  1.00  0.00     0.313 C 
ATOM      7  O   UNL A   1      31.230  24.155  27.343  1.00  0.00    -0.252 OA
BRANCH   6   8
ATOM      8  C   UNL A   1      32.637  24.688  25.444  1.00  0.00     0.129 C 
ATOM      9  C   UNL A   1      34.034  24.826  26.059  1.00  0.00     0.025 C 
BRANCH   8  10
ATOM     10  C   UNL A   1      32.130  26.055  25.001  1.00  0.00     0.002 A 
ATOM     11  C   UNL A   1      32.041  27.116  25.904  1.00  0.00     0.010 A 
ATOM     12  C   UNL A   1      31.693  26.304  23.702  1.00  0.00     0.129 A 
ATOM     13  C   UNL A   1      31.561  28.373  25.492  1.00  0.00     0.026 A 
ATOM     14  C   UNL A   1      31.206  27.542  23.302  1.00  0.00     0.065 A 
ATOM     15  F   UNL A   1      31.715  25.339  22.783  1.00  0.00    -0.207 F 
ATOM     16  C   UNL A   1      31.134  28.615  24.183  1.00  0.00     0.037 A 
BRANCH  16  17
ATOM     17  N   UNL A   1      30.668  29.817  23.698  1.00  0.00    -0.382 N 
ATOM     18  H   UNL A   1      31.348  30.522  23.588  1.00  0.00     0.160 HD
BRANCH  17  19
ATOM     19  C   UNL A   1      29.315  30.191  23.329  1.00  0.00     0.079 C 
ATOM     20  C   UNL A   1      28.916  31.581  23.803  1.00  0.00     0.025 C 
ATOM     21  C   UNL A   1      29.058  30.128  21.825  1.00  0.00     0.025 C 
ATOM     22  C   UNL A   1      27.867  32.035  22.803  1.00  0.00     0.002 C 
ATOM     23  C   UNL A   1      28.196  31.339  21.489  1.00  0.00     0.002 C 
ENDBRANCH  17  19
ENDBRANCH  16  17
ENDBRANCH   8  10
ENDBRANCH   6   8
ENDBRANCH   5   6
ENDBRANCH   4   5
ENDBRANCH   3   4
ENDBRANCH   2   3
ENDBRANCH   1   2
BRANCH   1  24
ATOM     24  C   UNL A   1      36.616  21.417  24.745  1.00  0.00     0.188 C 
BRANCH  24  25
ATOM     25  O   UNL A   1      37.379  22.048  25.754  1.00  0.00    -0.376 OA
BRANCH  25  26
ATOM     26  C   UNL A   1      38.755  21.753  25.863  1.00  0.00     0.202 C 
BRANCH  26  27
ATOM     27  C   UNL A   1      39.259  20.306  25.751  1.00  0.00     0.261 C 
BRANCH  27  28
ATOM     28  O   UNL A   1      40.266  19.901  26.683  1.00  0.00    -0.460 OA
BRANCH  28  29
ATOM     29  C   UNL A   1      41.529  19.859  26.191  1.00  0.00     0.338 C 
ATOM     30  O   UNL A   1      42.019  18.979  25.498  1.00  0.00    -0.246 OA
BRANCH  29  31
ATOM     31  C   UNL A   1      42.201  21.148  26.479  1.00  0.00     0.060 A 
ATOM     32  C   UNL A   1      42.435  21.496  27.816  1.00  0.00     0.016 A 
ATOM     33  C   UNL A   1      42.587  22.010  25.450  1.00  0.00     0.016 A 
ATOM     34  C   UNL A   1      43.034  22.719  28.127  1.00  0.00     0.010 A 
ATOM     35  C   UNL A   1      43.169  23.244  25.764  1.00  0.00     0.010 A 
ATOM     36  C   UNL A   1      43.374  23.614  27.105  1.00  0.00    -0.014 A 
BRANCH  36  37
ATOM     37  C   UNL A   1      43.773  25.003  27.445  1.00  0.00     0.031 A 
ATOM     38  C   UNL A   1      42.740  25.918  28.044  1.00  0.00     0.074 A 
ATOM     39  C   UNL A   1      45.021  25.455  27.225  1.00  0.00     0.049 A 
ATOM     40  N   UNL A   1      42.847  27.175  28.387  1.00  0.00    -0.248 NA
ATOM     41  C   UNL A   1      41.406  25.340  28.268  1.00  0.00     0.031 C 
ATOM     42  C   UNL A   1      46.101  24.685  26.620  1.00  0.00     0.029 A 
ATOM     43  N   UNL A   1      45.582  26.685  27.471  1.00  0.00    -0.354 N 
ATOM     44  C   UNL A   1      41.586  27.551  28.832  1.00  0.00     0.074 A 
ATOM     45  C   UNL A   1      40.731  26.388  28.717  1.00  0.00     0.031 C 
ATOM     46  C   UNL A   1      47.204  25.453  26.555  1.00  0.00     0.029 A 
ATOM     47  C   UNL A   1      46.887  26.791  27.051  1.00  0.00     0.049 A 
ATOM     48  H   UNL A   1      45.095  27.422  27.907  1.00  0.00     0.167 HD
ATOM     49  C   UNL A   1      41.171  28.754  29.293  1.00  0.00     0.034 A 
ATOM     50  C   UNL A   1      47.717  27.855  27.030  1.00  0.00     0.034 A 
ATOM     51  C   UNL A   1      42.012  29.915  29.400  1.00  0.00     0.049 A 
ATOM     52  C   UNL A   1      47.226  29.190  27.533  1.00  0.00     0.074 A 
ATOM     53  C   UNL A   1      41.685  31.170  29.880  1.00  0.00     0.029 A 
ATOM     54  N   UNL A   1      43.338  29.971  29.003  1.00  0.00    -0.354 N 
ATOM     55  N   UNL A   1      46.062  29.503  28.051  1.00  0.00    -0.248 NA
ATOM     56  C   UNL A   1      48.168  30.318  27.461  1.00  0.00     0.031 C 
ATOM     57  C   UNL A   1      42.805  31.997  29.742  1.00  0.00     0.029 A 
ATOM     58  C   UNL A   1      43.843  31.244  29.217  1.00  0.00     0.049 A 
ATOM     59  H   UNL A   1      43.848  29.219  28.624  1.00  0.00     0.167 HD
ATOM     60  C   UNL A   1      46.142  30.851  28.389  1.00  0.00     0.074 A 
ATOM     61  C   UNL A   1      47.478  31.289  28.043  1.00  0.00     0.031 C 
ATOM     62  C   UNL A   1      45.191  31.658  28.920  1.00  0.00     0.034 A 
BRANCH  49  63
ATOM     63  C   UNL A   1      39.730  28.874  29.717  1.00  0.00     0.023 A 
ATOM     64  C   UNL A   1      39.347  28.472  31.012  1.00  0.00     0.012 A 
ATOM     65  C   UNL A   1      38.766  29.416  28.846  1.00  0.00     0.148 A 
ATOM     66  C   UNL A   1      38.018  28.574  31.421  1.00  0.00     0.002 A 
ATOM     67  C   UNL A   1      37.454  29.559  29.277  1.00  0.00     0.091 A 
ATOM     68  F   UNL A   1      39.148  29.771  27.611  1.00  0.00    -0.205 F 
ATOM     69  C   UNL A   1      37.075  29.126  30.559  1.00  0.00     0.022 A 
BRANCH  67  70
ATOM     70  S   UNL A   1      36.183  30.332  28.271  1.00  0.00     0.127 S 
ATOM     71  O   UNL A   1      35.175  30.667  29.276  1.00  0.00    -0.237 OA
ATOM     72  O   UNL A   1      36.893  31.483  27.711  1.00  0.00    -0.237 OA
ATOM     73  O   UNL A   1      35.780  29.331  27.293  1.00  0.00    -0.744 OA
ENDBRANCH  67  70
ENDBRANCH  49  63
BRANCH  50  74
ATOM     74  C   UNL A   1      49.108  27.713  26.509  1.00  0.00     0.023 A 
ATOM     75  C   UNL A   1      50.166  27.451  27.403  1.00  0.00     0.012 A 
ATOM     76  C   UNL A   1      49.389  27.844  25.135  1.00  0.00     0.148 A 
ATOM     77  C   UNL A   1      51.479  27.354  26.942  1.00  0.00     0.002 A 
ATOM     78  C   UNL A   1      50.690  27.685  24.675  1.00  0.00     0.091 A 
ATOM     79  F   UNL A   1      48.374  28.119  24.305  1.00  0.00    -0.205 F 
ATOM     80  C   UNL A   1      51.739  27.459  25.578  1.00  0.00     0.022 A 
BRANCH  78  81
ATOM     81  S   UNL A   1      51.099  27.680  22.926  1.00  0.00     0.127 S 
ATOM     82  O   UNL A   1      50.960  29.092  22.583  1.00  0.00    -0.237 OA
ATOM     83  O   UNL A   1      52.474  27.181  22.942  1.00  0.00    -0.237 OA
ATOM     84  O   UNL A   1      50.139  26.781  22.300  1.00  0.00    -0.744 OA
ENDBRANCH  78  81
ENDBRANCH  50  74
BRANCH  62  85
ATOM     85  C   UNL A   1      45.560  33.091  29.216  1.00  0.00     0.023 A 
ATOM     86  C   UNL A   1      46.179  33.425  30.437  1.00  0.00     0.012 A 
ATOM     87  C   UNL A   1      45.365  34.093  28.245  1.00  0.00     0.148 A 
ATOM     88  C   UNL A   1      46.567  34.739  30.700  1.00  0.00     0.002 A 
ATOM     89  C   UNL A   1      45.800  35.390  28.492  1.00  0.00     0.091 A 
ATOM     90  F   UNL A   1      44.760  33.761  27.096  1.00  0.00    -0.205 F 
ATOM     91  C   UNL A   1      46.390  35.718  29.724  1.00  0.00     0.022 A 
BRANCH  89  92
ATOM     92  S   UNL A   1      45.702  36.693  27.259  1.00  0.00     0.127 S 
ATOM     93  O   UNL A   1      44.257  36.849  27.106  1.00  0.00    -0.237 OA
ATOM     94  O   UNL A   1      46.367  37.808  27.932  1.00  0.00    -0.237 OA
ATOM     95  O   UNL A   1      46.402  36.190  26.085  1.00  0.00    -0.744 OA
ENDBRANCH  89  92
ENDBRANCH  62  85
ENDBRANCH  36  37
ENDBRANCH  29  31
ENDBRANCH  28  29
ENDBRANCH  27  28
ENDBRANCH  26  27
ENDBRANCH  25  26
ENDBRANCH  24  25
ENDBRANCH   1  24
TORSDOF 23
ENDMDL
MODEL 3
REMARK VINA RESULT:     -10.1      2.515      8.002
REMARK SMILES C[C@@H](C(=O)OCCOCCOCCOC(=O)c1ccc(-c2c3nc(c(-c4cccc(S(=O)(=O)[O-])c4F)c4ccc([nH]4)c(-c4cccc(S(=O)(=O)[O-])c4F)c4nc(c(-c5cccc(S(=O)(=O)[O-])c5F)c5ccc2[nH]5)C=C4)C=C3)cc1)c1ccc(NC2CCCC2)cc1F
REMARK SMILES IDX 9 1 8 2 7 3 6 4 5 5 3 6 4 7 2 8 1 9 80 10 81 11 91 12 82 13
REMARK SMILES IDX 90 14 92 15 83 16 84 17 85 19 86 20 89 21 87 22 88 23 10 24
REMARK SMILES IDX 11 25 12 26 13 27 14 28 15 29 16 30 17 31 18 32 79 33 19 34
REMARK SMILES IDX 78 35 20 36 21 37 22 38 72 39 23 40 77 41 71 42 73 43 24 44
REMARK SMILES IDX 76 45 70 46 69 47 25 49 57 50 37 51 56 52 38 53 41 54 55 55
REMARK SMILES IDX 74 56 39 57 40 58 54 60 75 61 42 62 26 63 27 64 35 65 28 66
REMARK SMILES IDX 30 67 36 68 29 69 31 70 32 71 33 72 34 73 58 74 59 75 67 76
REMARK SMILES IDX 60 77 62 78 68 79 61 80 63 81 64 82 65 83 66 84 43 85 44 86
REMARK SMILES IDX 52 87 45 88 47 89 53 90 46 91 48 92 49 93 50 94 51 95
REMARK H PARENT 84 18 73 48 41 59
REMARK Flexibility Score: inf
ROOT
ATOM      1  C   UNL A   1      36.217  22.560  23.963  1.00  0.00     0.188 C 
ENDROOT
BRANCH   1   2
ATOM      2  O   UNL A   1      34.937  22.031  23.700  1.00  0.00    -0.376 OA
BRANCH   2   3
ATOM      3  C   UNL A   1      33.967  22.033  24.736  1.00  0.00     0.202 C 
BRANCH   3   4
ATOM      4  C   UNL A   1      32.594  22.718  24.595  1.00  0.00     0.261 C 
BRANCH   4   5
ATOM      5  O   UNL A   1      32.042  23.299  25.796  1.00  0.00    -0.463 OA
BRANCH   5   6
ATOM      6  C   UNL A   1      32.114  24.661  25.886  1.00  0.00     0.313 C 
ATOM      7  O   UNL A   1      31.401  25.325  26.635  1.00  0.00    -0.252 OA
BRANCH   6   8
ATOM      8  C   UNL A   1      33.107  25.327  24.913  1.00  0.00     0.129 C 
ATOM      9  C   UNL A   1      34.489  25.727  25.442  1.00  0.00     0.025 C 
BRANCH   8  10
ATOM     10  C   UNL A   1      32.498  26.483  24.130  1.00  0.00     0.002 A 
ATOM     11  C   UNL A   1      32.828  27.807  24.427  1.00  0.00     0.010 A 
ATOM     12  C   UNL A   1      31.561  26.287  23.117  1.00  0.00     0.129 A 
ATOM     13  C   UNL A   1      32.254  28.871  23.707  1.00  0.00     0.026 A 
ATOM     14  C   UNL A   1      30.986  27.340  22.418  1.00  0.00     0.065 A 
ATOM     15  F   UNL A   1      31.167  25.058  22.787  1.00  0.00    -0.207 F 
ATOM     16  C   UNL A   1      31.322  28.662  22.686  1.00  0.00     0.037 A 
BRANCH  16  17
ATOM     17  N   UNL A   1      30.729  29.646  21.927  1.00  0.00    -0.382 N 
ATOM     18  H   UNL A   1      31.324  30.109  21.293  1.00  0.00     0.160 HD
BRANCH  17  19
ATOM     19  C   UNL A   1      29.349  30.095  21.930  1.00  0.00     0.079 C 
ATOM     20  C   UNL A   1      28.395  29.130  22.621  1.00  0.00     0.025 C 
ATOM     21  C   UNL A   1      29.159  31.467  22.574  1.00  0.00     0.025 C 
ATOM     22  C   UNL A   1      27.265  30.011  23.124  1.00  0.00     0.002 C 
ATOM     23  C   UNL A   1      27.872  31.383  23.384  1.00  0.00     0.002 C 
ENDBRANCH  17  19
ENDBRANCH  16  17
ENDBRANCH   8  10
ENDBRANCH   6   8
ENDBRANCH   5   6
ENDBRANCH   4   5
ENDBRANCH   3   4
ENDBRANCH   2   3
ENDBRANCH   1   2
BRANCH   1  24
ATOM     24  C   UNL A   1      37.268  21.635  24.597  1.00  0.00     0.188 C 
BRANCH  24  25
ATOM     25  O   UNL A   1      37.791  21.852  25.892  1.00  0.00    -0.376 OA
BRANCH  25  26
ATOM     26  C   UNL A   1      39.140  21.525  26.152  1.00  0.00     0.202 C 
BRANCH  26  27
ATOM     27  C   UNL A   1      39.726  20.182  25.693  1.00  0.00     0.261 C 
BRANCH  27  28
ATOM     28  O   UNL A   1      40.820  19.663  26.454  1.00  0.00    -0.460 OA
BRANCH  28  29
ATOM     29  C   UNL A   1      42.054  19.990  25.994  1.00  0.00     0.338 C 
ATOM     30  O   UNL A   1      42.768  19.317  25.266  1.00  0.00    -0.246 OA
BRANCH  29  31
ATOM     31  C   UNL A   1      42.354  21.390  26.373  1.00  0.00     0.060 A 
ATOM     32  C   UNL A   1      42.432  22.355  25.360  1.00  0.00     0.016 A 
ATOM     33  C   UNL A   1      42.566  21.751  27.706  1.00  0.00     0.016 A 
ATOM     34  C   UNL A   1      42.746  23.679  25.676  1.00  0.00     0.010 A 
ATOM     35  C   UNL A   1      42.902  23.073  28.018  1.00  0.00     0.010 A 
ATOM     36  C   UNL A   1      43.016  24.039  27.002  1.00  0.00    -0.014 A 
BRANCH  36  37
ATOM     37  C   UNL A   1      43.593  25.374  27.301  1.00  0.00     0.031 A 
ATOM     38  C   UNL A   1      42.701  26.417  27.917  1.00  0.00     0.074 A 
ATOM     39  C   UNL A   1      44.877  25.668  27.028  1.00  0.00     0.049 A 
ATOM     40  N   UNL A   1      42.972  27.656  28.232  1.00  0.00    -0.248 NA
ATOM     41  C   UNL A   1      41.316  26.008  28.200  1.00  0.00     0.031 C 
ATOM     42  C   UNL A   1      45.833  24.763  26.401  1.00  0.00     0.029 A 
ATOM     43  N   UNL A   1      45.591  26.824  27.230  1.00  0.00    -0.354 N 
ATOM     44  C   UNL A   1      41.782  28.189  28.713  1.00  0.00     0.074 A 
ATOM     45  C   UNL A   1      40.790  27.137  28.651  1.00  0.00     0.031 C 
ATOM     46  C   UNL A   1      47.017  25.390  26.282  1.00  0.00     0.029 A 
ATOM     47  C   UNL A   1      46.883  26.764  26.763  1.00  0.00     0.049 A 
ATOM     48  H   UNL A   1      45.214  27.621  27.669  1.00  0.00     0.167 HD
ATOM     49  C   UNL A   1      41.533  29.440  29.165  1.00  0.00     0.034 A 
ATOM     50  C   UNL A   1      47.834  27.719  26.692  1.00  0.00     0.034 A 
ATOM     51  C   UNL A   1      42.512  30.492  29.221  1.00  0.00     0.049 A 
ATOM     52  C   UNL A   1      47.527  29.111  27.186  1.00  0.00     0.074 A 
ATOM     53  C   UNL A   1      42.358  31.785  29.687  1.00  0.00     0.029 A 
ATOM     54  N   UNL A   1      43.819  30.381  28.775  1.00  0.00    -0.354 N 
ATOM     55  N   UNL A   1      46.430  29.571  27.738  1.00  0.00    -0.248 NA
ATOM     56  C   UNL A   1      48.595  30.116  27.059  1.00  0.00     0.031 C 
ATOM     57  C   UNL A   1      43.563  32.468  29.494  1.00  0.00     0.029 A 
ATOM     58  C   UNL A   1      44.482  31.586  28.947  1.00  0.00     0.049 A 
ATOM     59  H   UNL A   1      44.220  29.567  28.394  1.00  0.00     0.167 HD
ATOM     60  C   UNL A   1      46.685  30.904  28.046  1.00  0.00     0.074 A 
ATOM     61  C   UNL A   1      48.050  31.172  27.646  1.00  0.00     0.031 C 
ATOM     62  C   UNL A   1      45.858  31.829  28.595  1.00  0.00     0.034 A 
BRANCH  49  63
ATOM     63  C   UNL A   1      40.135  29.741  29.637  1.00  0.00     0.023 A 
ATOM     64  C   UNL A   1      39.145  30.105  28.702  1.00  0.00     0.012 A 
ATOM     65  C   UNL A   1      39.794  29.627  30.998  1.00  0.00     0.148 A 
ATOM     66  C   UNL A   1      37.845  30.389  29.121  1.00  0.00     0.002 A 
ATOM     67  C   UNL A   1      38.486  29.865  31.401  1.00  0.00     0.091 A 
ATOM     68  F   UNL A   1      40.756  29.301  31.873  1.00  0.00    -0.205 F 
ATOM     69  C   UNL A   1      37.514  30.258  30.466  1.00  0.00     0.022 A 
BRANCH  67  70
ATOM     70  S   UNL A   1      37.941  29.646  33.098  1.00  0.00     0.127 S 
ATOM     71  O   UNL A   1      36.987  30.744  33.245  1.00  0.00    -0.237 OA
ATOM     72  O   UNL A   1      37.336  28.314  33.057  1.00  0.00    -0.237 OA
ATOM     73  O   UNL A   1      39.138  29.745  33.921  1.00  0.00    -0.744 OA
ENDBRANCH  67  70
ENDBRANCH  49  63
BRANCH  50  74
ATOM     74  C   UNL A   1      49.177  27.402  26.125  1.00  0.00     0.023 A 
ATOM     75  C   UNL A   1      49.339  27.296  24.729  1.00  0.00     0.012 A 
ATOM     76  C   UNL A   1      50.292  27.198  26.961  1.00  0.00     0.148 A 
ATOM     77  C   UNL A   1      50.578  26.962  24.180  1.00  0.00     0.002 A 
ATOM     78  C   UNL A   1      51.536  26.927  26.405  1.00  0.00     0.091 A 
ATOM     79  F   UNL A   1      50.113  27.277  28.287  1.00  0.00    -0.205 F 
ATOM     80  C   UNL A   1      51.678  26.789  25.016  1.00  0.00     0.022 A 
BRANCH  78  81
ATOM     81  S   UNL A   1      53.030  26.811  27.395  1.00  0.00     0.127 S 
ATOM     82  O   UNL A   1      53.154  28.172  27.909  1.00  0.00    -0.237 OA
ATOM     83  O   UNL A   1      52.652  25.807  28.390  1.00  0.00    -0.237 OA
ATOM     84  O   UNL A   1      54.078  26.385  26.478  1.00  0.00    -0.744 OA
ENDBRANCH  78  81
ENDBRANCH  50  74
BRANCH  62  85
ATOM     85  C   UNL A   1      46.409  33.210  28.850  1.00  0.00     0.023 A 
ATOM     86  C   UNL A   1      46.850  33.571  30.139  1.00  0.00     0.012 A 
ATOM     87  C   UNL A   1      46.562  34.124  27.788  1.00  0.00     0.148 A 
ATOM     88  C   UNL A   1      47.405  34.829  30.373  1.00  0.00     0.002 A 
ATOM     89  C   UNL A   1      47.162  35.357  28.018  1.00  0.00     0.091 A 
ATOM     90  F   UNL A   1      46.121  33.772  26.573  1.00  0.00    -0.205 F 
ATOM     91  C   UNL A   1      47.572  35.717  29.312  1.00  0.00     0.022 A 
BRANCH  89  92
ATOM     92  S   UNL A   1      47.507  36.524  26.696  1.00  0.00     0.127 S 
ATOM     93  O   UNL A   1      48.487  37.406  27.326  1.00  0.00    -0.237 OA
ATOM     94  O   UNL A   1      48.050  35.656  25.651  1.00  0.00    -0.237 OA
ATOM     95  O   UNL A   1      46.232  37.146  26.364  1.00  0.00    -0.744 OA
ENDBRANCH  89  92
ENDBRANCH  62  85
ENDBRANCH  36  37
ENDBRANCH  29  31
ENDBRANCH  28  29
ENDBRANCH  27  28
ENDBRANCH  26  27
ENDBRANCH  25  26
ENDBRANCH  24  25
ENDBRANCH   1  24
TORSDOF 23
ENDMDL
