MODEL 1
REMARK VINA RESULT:     -10.1      0.000      0.000
REMARK SMILES O=C(OCCOCCOCCOC(=O)[C@H]1CCCN(S(=O)(=O)c2cccc(Br)c2)C1)c1ccc(-c2c3nc(c(-c4cccc(S(=O)(=O)[O-])c4F)c4ccc([nH]4)c(-c4cccc(S(=O)(=O)[O-])c4F)c4nc(c(-c5cccc(S(=O)(=O)[O-])c5F)c5ccc2[nH]5)C=C4)C=C3)cc1
REMARK SMILES IDX 7 1 6 2 5 3 4 4 3 5 2 6 1 7 31 8 32 9 93 10 33 11 92 12
REMARK SMILES IDX 34 13 35 14 36 15 86 16 37 17 91 18 85 19 87 20 38 21 90 22
REMARK SMILES IDX 84 23 83 24 39 26 71 27 51 28 70 29 52 30 55 31 69 32 88 33
REMARK SMILES IDX 53 34 54 35 68 37 89 38 56 39 40 40 41 41 49 42 42 43 44 44
REMARK SMILES IDX 50 45 43 46 45 47 46 48 47 49 48 50 72 51 73 52 81 53 74 54
REMARK SMILES IDX 76 55 82 56 75 57 77 58 78 59 79 60 80 61 57 62 58 63 66 64
REMARK SMILES IDX 59 65 61 66 67 67 60 68 62 69 63 70 64 71 65 72 8 73 9 74
REMARK SMILES IDX 10 75 11 76 12 77 13 78 14 79 15 80 16 81 30 82 17 83 19 84
REMARK SMILES IDX 18 85 20 86 21 87 22 88 23 89 24 90 29 91 25 92 27 93 26 94
REMARK SMILES IDX 28 95
REMARK H PARENT 87 25 55 36
REMARK Flexibility Score: inf
ROOT
ATOM      1  C   UNL A   1      32.915  28.228  23.870  1.00  0.00     0.188 C 
ENDROOT
BRANCH   1   2
ATOM      2  O   UNL A   1      32.266  28.478  25.121  1.00  0.00    -0.376 OA
BRANCH   2   3
ATOM      3  C   UNL A   1      31.422  29.636  25.122  1.00  0.00     0.202 C 
BRANCH   3   4
ATOM      4  C   UNL A   1      31.826  30.741  26.110  1.00  0.00     0.261 C 
BRANCH   4   5
ATOM      5  O   UNL A   1      33.104  30.489  26.712  1.00  0.00    -0.460 OA
BRANCH   5   6
ATOM      6  C   UNL A   1      33.892  31.376  27.376  1.00  0.00     0.338 C 
ATOM      7  O   UNL A   1      33.555  32.559  27.381  1.00  0.00    -0.246 OA
BRANCH   6   8
ATOM      8  C   UNL A   1      35.123  30.977  28.128  1.00  0.00     0.060 A 
ATOM      9  C   UNL A   1      35.390  29.696  28.623  1.00  0.00     0.016 A 
ATOM     10  C   UNL A   1      36.099  31.963  28.314  1.00  0.00     0.016 A 
ATOM     11  C   UNL A   1      36.504  29.429  29.407  1.00  0.00     0.010 A 
ATOM     12  C   UNL A   1      37.257  31.684  29.045  1.00  0.00     0.010 A 
ATOM     13  C   UNL A   1      37.447  30.422  29.635  1.00  0.00    -0.014 A 
BRANCH  13  14
ATOM     14  C   UNL A   1      38.557  30.159  30.581  1.00  0.00     0.031 A 
ATOM     15  C   UNL A   1      39.661  29.260  30.108  1.00  0.00     0.074 A 
ATOM     16  C   UNL A   1      38.611  30.757  31.789  1.00  0.00     0.049 A 
ATOM     17  N   UNL A   1      40.740  28.874  30.730  1.00  0.00    -0.248 NA
ATOM     18  C   UNL A   1      39.532  28.717  28.742  1.00  0.00     0.031 C 
ATOM     19  C   UNL A   1      37.611  31.683  32.330  1.00  0.00     0.029 A 
ATOM     20  N   UNL A   1      39.551  30.686  32.786  1.00  0.00    -0.354 N 
ATOM     21  C   UNL A   1      41.379  28.003  29.858  1.00  0.00     0.074 A 
ATOM     22  C   UNL A   1      40.558  27.888  28.678  1.00  0.00     0.031 C 
ATOM     23  C   UNL A   1      37.986  32.087  33.554  1.00  0.00     0.029 A 
ATOM     24  C   UNL A   1      39.243  31.440  33.898  1.00  0.00     0.049 A 
ATOM     25  H   UNL A   1      40.372  30.145  32.714  1.00  0.00     0.167 HD
ATOM     26  C   UNL A   1      42.566  27.377  30.010  1.00  0.00     0.034 A 
ATOM     27  C   UNL A   1      39.909  31.587  35.061  1.00  0.00     0.034 A 
ATOM     28  C   UNL A   1      43.395  27.545  31.167  1.00  0.00     0.049 A 
ATOM     29  C   UNL A   1      41.231  30.878  35.205  1.00  0.00     0.074 A 
ATOM     30  C   UNL A   1      44.625  26.982  31.436  1.00  0.00     0.029 A 
ATOM     31  N   UNL A   1      43.064  28.346  32.251  1.00  0.00    -0.354 N 
ATOM     32  N   UNL A   1      41.860  30.125  34.334  1.00  0.00    -0.248 NA
ATOM     33  C   UNL A   1      41.955  31.072  36.467  1.00  0.00     0.031 C 
ATOM     34  C   UNL A   1      45.033  27.429  32.697  1.00  0.00     0.029 A 
ATOM     35  C   UNL A   1      44.068  28.295  33.197  1.00  0.00     0.049 A 
ATOM     36  H   UNL A   1      42.237  28.873  32.334  1.00  0.00     0.167 HD
ATOM     37  C   UNL A   1      43.073  29.791  34.924  1.00  0.00     0.074 A 
ATOM     38  C   UNL A   1      43.094  30.439  36.220  1.00  0.00     0.031 C 
ATOM     39  C   UNL A   1      44.075  29.012  34.446  1.00  0.00     0.034 A 
BRANCH  26  40
ATOM     40  C   UNL A   1      43.001  26.470  28.893  1.00  0.00     0.023 A 
ATOM     41  C   UNL A   1      42.608  25.114  28.890  1.00  0.00     0.012 A 
ATOM     42  C   UNL A   1      43.858  26.944  27.883  1.00  0.00     0.148 A 
ATOM     43  C   UNL A   1      43.108  24.233  27.932  1.00  0.00     0.002 A 
ATOM     44  C   UNL A   1      44.313  26.070  26.903  1.00  0.00     0.091 A 
ATOM     45  F   UNL A   1      44.242  28.228  27.922  1.00  0.00    -0.205 F 
ATOM     46  C   UNL A   1      43.955  24.713  26.937  1.00  0.00     0.022 A 
BRANCH  44  47
ATOM     47  S   UNL A   1      45.360  26.601  25.546  1.00  0.00     0.127 S 
ATOM     48  O   UNL A   1      46.622  26.871  26.233  1.00  0.00    -0.237 OA
ATOM     49  O   UNL A   1      45.374  25.413  24.691  1.00  0.00    -0.237 OA
ATOM     50  O   UNL A   1      44.707  27.763  24.961  1.00  0.00    -0.744 OA
ENDBRANCH  44  47
ENDBRANCH  26  40
BRANCH  27  51
ATOM     51  C   UNL A   1      39.389  32.485  36.137  1.00  0.00     0.023 A 
ATOM     52  C   UNL A   1      39.791  33.837  36.165  1.00  0.00     0.012 A 
ATOM     53  C   UNL A   1      38.506  32.019  37.130  1.00  0.00     0.148 A 
ATOM     54  C   UNL A   1      39.358  34.693  37.180  1.00  0.00     0.002 A 
ATOM     55  C   UNL A   1      38.039  32.889  38.113  1.00  0.00     0.091 A 
ATOM     56  F   UNL A   1      38.138  30.730  37.100  1.00  0.00    -0.205 F 
ATOM     57  C   UNL A   1      38.478  34.221  38.149  1.00  0.00     0.022 A 
BRANCH  55  58
ATOM     58  S   UNL A   1      36.819  32.402  39.340  1.00  0.00     0.127 S 
ATOM     59  O   UNL A   1      37.207  31.022  39.618  1.00  0.00    -0.237 OA
ATOM     60  O   UNL A   1      37.087  33.347  40.425  1.00  0.00    -0.237 OA
ATOM     61  O   UNL A   1      35.523  32.579  38.699  1.00  0.00    -0.744 OA
ENDBRANCH  55  58
ENDBRANCH  27  51
BRANCH  39  62
ATOM     62  C   UNL A   1      45.301  28.864  35.301  1.00  0.00     0.023 A 
ATOM     63  C   UNL A   1      46.380  29.753  35.143  1.00  0.00     0.012 A 
ATOM     64  C   UNL A   1      45.331  27.904  36.331  1.00  0.00     0.148 A 
ATOM     65  C   UNL A   1      47.487  29.671  35.985  1.00  0.00     0.002 A 
ATOM     66  C   UNL A   1      46.411  27.866  37.201  1.00  0.00     0.091 A 
ATOM     67  F   UNL A   1      44.300  27.054  36.445  1.00  0.00    -0.205 F 
ATOM     68  C   UNL A   1      47.496  28.740  37.022  1.00  0.00     0.022 A 
BRANCH  66  69
ATOM     69  S   UNL A   1      46.442  26.779  38.629  1.00  0.00     0.127 S 
ATOM     70  O   UNL A   1      47.706  27.152  39.261  1.00  0.00    -0.237 OA
ATOM     71  O   UNL A   1      45.246  27.194  39.364  1.00  0.00    -0.237 OA
ATOM     72  O   UNL A   1      46.380  25.423  38.099  1.00  0.00    -0.744 OA
ENDBRANCH  66  69
ENDBRANCH  39  62
ENDBRANCH  13  14
ENDBRANCH   6   8
ENDBRANCH   5   6
ENDBRANCH   4   5
ENDBRANCH   3   4
ENDBRANCH   2   3
ENDBRANCH   1   2
BRANCH   1  73
ATOM     73  C   UNL A   1      32.021  28.577  22.678  1.00  0.00     0.188 C 
BRANCH  73  74
ATOM     74  O   UNL A   1      30.926  27.702  22.417  1.00  0.00    -0.376 OA
BRANCH  74  75
ATOM     75  C   UNL A   1      31.133  26.316  22.654  1.00  0.00     0.202 C 
BRANCH  75  76
ATOM     76  C   UNL A   1      30.409  25.638  23.835  1.00  0.00     0.261 C 
BRANCH  76  77
ATOM     77  O   UNL A   1      31.022  24.462  24.402  1.00  0.00    -0.463 OA
BRANCH  77  78
ATOM     78  C   UNL A   1      31.159  24.513  25.754  1.00  0.00     0.310 C 
ATOM     79  O   UNL A   1      30.318  25.020  26.492  1.00  0.00    -0.252 OA
BRANCH  78  80
ATOM     80  C   UNL A   1      32.478  23.954  26.288  1.00  0.00     0.114 C 
ATOM     81  C   UNL A   1      32.111  22.839  27.279  1.00  0.00     0.018 C 
ATOM     82  C   UNL A   1      33.487  23.412  25.262  1.00  0.00     0.117 C 
ATOM     83  C   UNL A   1      33.345  22.265  27.942  1.00  0.00     0.018 C 
ATOM     84  N   UNL A   1      34.698  22.799  25.961  1.00  0.00    -0.197 NA
ATOM     85  C   UNL A   1      34.308  21.726  26.903  1.00  0.00     0.102 C 
BRANCH  84  86
ATOM     86  S   UNL A   1      35.927  22.327  24.856  1.00  0.00     0.243 S 
ATOM     87  O   UNL A   1      35.872  20.885  24.737  1.00  0.00    -0.207 OA
ATOM     88  O   UNL A   1      35.757  23.166  23.697  1.00  0.00    -0.207 OA
BRANCH  86  89
ATOM     89  C   UNL A   1      37.511  22.748  25.556  1.00  0.00     0.083 A 
ATOM     90  C   UNL A   1      37.708  24.019  26.110  1.00  0.00     0.022 A 
ATOM     91  C   UNL A   1      38.476  21.748  25.737  1.00  0.00     0.037 A 
ATOM     92  C   UNL A   1      38.903  24.320  26.764  1.00  0.00     0.003 A 
ATOM     93  C   UNL A   1      39.648  22.047  26.434  1.00  0.00     0.019 A 
ATOM     94  C   UNL A   1      39.874  23.332  26.930  1.00  0.00     0.016 A 
ATOM     95  Br  UNL A   1      40.924  20.691  26.767  1.00  0.00    -0.051 Br
ENDBRANCH  86  89
ENDBRANCH  84  86
ENDBRANCH  78  80
ENDBRANCH  77  78
ENDBRANCH  76  77
ENDBRANCH  75  76
ENDBRANCH  74  75
ENDBRANCH  73  74
ENDBRANCH   1  73
TORSDOF 22
ENDMDL
MODEL 2
REMARK VINA RESULT:      -9.8      4.868      9.088
REMARK SMILES O=C(OCCOCCOCCOC(=O)[C@H]1CCCN(S(=O)(=O)c2cccc(Br)c2)C1)c1ccc(-c2c3nc(c(-c4cccc(S(=O)(=O)[O-])c4F)c4ccc([nH]4)c(-c4cccc(S(=O)(=O)[O-])c4F)c4nc(c(-c5cccc(S(=O)(=O)[O-])c5F)c5ccc2[nH]5)C=C4)C=C3)cc1
REMARK SMILES IDX 7 1 6 2 5 3 4 4 3 5 2 6 1 7 31 8 32 9 93 10 33 11 92 12
REMARK SMILES IDX 34 13 35 14 36 15 86 16 37 17 91 18 85 19 87 20 38 21 90 22
REMARK SMILES IDX 84 23 83 24 39 26 71 27 51 28 70 29 52 30 55 31 69 32 88 33
REMARK SMILES IDX 53 34 54 35 68 37 89 38 56 39 40 40 41 41 49 42 42 43 44 44
REMARK SMILES IDX 50 45 43 46 45 47 46 48 47 49 48 50 72 51 73 52 81 53 74 54
REMARK SMILES IDX 76 55 82 56 75 57 77 58 78 59 79 60 80 61 57 62 58 63 66 64
REMARK SMILES IDX 59 65 61 66 67 67 60 68 62 69 63 70 64 71 65 72 8 73 9 74
REMARK SMILES IDX 10 75 11 76 12 77 13 78 14 79 15 80 16 81 30 82 17 83 19 84
REMARK SMILES IDX 18 85 20 86 21 87 22 88 23 89 24 90 29 91 25 92 27 93 26 94
REMARK SMILES IDX 28 95
REMARK H PARENT 87 25 55 36
REMARK Flexibility Score: inf
ROOT
ATOM      1  C   UNL A   1      34.773  33.668  29.665  1.00  0.00     0.188 C 
ENDROOT
BRANCH   1   2
ATOM      2  O   UNL A   1      33.840  33.417  30.722  1.00  0.00    -0.376 OA
BRANCH   2   3
ATOM      3  C   UNL A   1      34.400  32.728  31.846  1.00  0.00     0.202 C 
BRANCH   3   4
ATOM      4  C   UNL A   1      34.664  33.600  33.084  1.00  0.00     0.261 C 
BRANCH   4   5
ATOM      5  O   UNL A   1      36.064  33.713  33.380  1.00  0.00    -0.460 OA
BRANCH   5   6
ATOM      6  C   UNL A   1      36.902  32.725  33.790  1.00  0.00     0.338 C 
ATOM      7  O   UNL A   1      36.892  32.415  34.981  1.00  0.00    -0.246 OA
BRANCH   6   8
ATOM      8  C   UNL A   1      37.804  31.975  32.861  1.00  0.00     0.060 A 
ATOM      9  C   UNL A   1      38.580  30.864  33.208  1.00  0.00     0.016 A 
ATOM     10  C   UNL A   1      37.839  32.403  31.529  1.00  0.00     0.016 A 
ATOM     11  C   UNL A   1      39.477  30.287  32.318  1.00  0.00     0.010 A 
ATOM     12  C   UNL A   1      38.689  31.785  30.609  1.00  0.00     0.010 A 
ATOM     13  C   UNL A   1      39.549  30.747  31.010  1.00  0.00    -0.014 A 
BRANCH  13  14
ATOM     14  C   UNL A   1      40.602  30.212  30.116  1.00  0.00     0.031 A 
ATOM     15  C   UNL A   1      41.859  31.020  29.977  1.00  0.00     0.074 A 
ATOM     16  C   UNL A   1      40.470  29.015  29.506  1.00  0.00     0.049 A 
ATOM     17  N   UNL A   1      42.926  30.779  29.268  1.00  0.00    -0.248 NA
ATOM     18  C   UNL A   1      41.923  32.279  30.745  1.00  0.00     0.031 C 
ATOM     19  C   UNL A   1      39.307  28.129  29.608  1.00  0.00     0.029 A 
ATOM     20  N   UNL A   1      41.324  28.326  28.683  1.00  0.00    -0.354 N 
ATOM     21  C   UNL A   1      43.753  31.878  29.458  1.00  0.00     0.074 A 
ATOM     22  C   UNL A   1      43.058  32.802  30.320  1.00  0.00     0.031 C 
ATOM     23  C   UNL A   1      39.516  27.023  28.876  1.00  0.00     0.029 A 
ATOM     24  C   UNL A   1      40.821  27.124  28.236  1.00  0.00     0.049 A 
ATOM     25  H   UNL A   1      42.216  28.661  28.433  1.00  0.00     0.167 HD
ATOM     26  C   UNL A   1      45.001  32.087  28.984  1.00  0.00     0.034 A 
ATOM     27  C   UNL A   1      41.359  26.210  27.406  1.00  0.00     0.034 A 
ATOM     28  C   UNL A   1      45.697  31.133  28.173  1.00  0.00     0.049 A 
ATOM     29  C   UNL A   1      42.752  26.466  26.891  1.00  0.00     0.074 A 
ATOM     30  C   UNL A   1      46.969  31.216  27.643  1.00  0.00     0.029 A 
ATOM     31  N   UNL A   1      45.167  29.913  27.777  1.00  0.00    -0.354 N 
ATOM     32  N   UNL A   1      43.552  27.473  27.149  1.00  0.00    -0.248 NA
ATOM     33  C   UNL A   1      43.333  25.447  26.009  1.00  0.00     0.031 C 
ATOM     34  C   UNL A   1      47.202  30.049  26.908  1.00  0.00     0.029 A 
ATOM     35  C   UNL A   1      46.085  29.228  27.007  1.00  0.00     0.049 A 
ATOM     36  H   UNL A   1      44.270  29.584  28.011  1.00  0.00     0.167 HD
ATOM     37  C   UNL A   1      44.747  27.189  26.500  1.00  0.00     0.074 A 
ATOM     38  C   UNL A   1      44.568  25.905  25.850  1.00  0.00     0.031 C 
ATOM     39  C   UNL A   1      45.886  27.921  26.436  1.00  0.00     0.034 A 
BRANCH  26  40
ATOM     40  C   UNL A   1      45.652  33.393  29.344  1.00  0.00     0.023 A 
ATOM     41  C   UNL A   1      46.262  33.554  30.607  1.00  0.00     0.012 A 
ATOM     42  C   UNL A   1      45.599  34.484  28.458  1.00  0.00     0.148 A 
ATOM     43  C   UNL A   1      46.755  34.796  31.003  1.00  0.00     0.002 A 
ATOM     44  C   UNL A   1      46.137  35.706  28.841  1.00  0.00     0.091 A 
ATOM     45  F   UNL A   1      44.989  34.317  27.276  1.00  0.00    -0.205 F 
ATOM     46  C   UNL A   1      46.697  35.869  30.118  1.00  0.00     0.022 A 
BRANCH  44  47
ATOM     47  S   UNL A   1      46.164  37.133  27.753  1.00  0.00     0.127 S 
ATOM     48  O   UNL A   1      47.256  37.921  28.324  1.00  0.00    -0.237 OA
ATOM     49  O   UNL A   1      46.467  36.521  26.458  1.00  0.00    -0.237 OA
ATOM     50  O   UNL A   1      44.843  37.738  27.845  1.00  0.00    -0.744 OA
ENDBRANCH  44  47
ENDBRANCH  26  40
BRANCH  27  51
ATOM     51  C   UNL A   1      40.629  24.949  27.071  1.00  0.00     0.023 A 
ATOM     52  C   UNL A   1      39.347  25.025  26.490  1.00  0.00     0.012 A 
ATOM     53  C   UNL A   1      41.186  23.679  27.323  1.00  0.00     0.148 A 
ATOM     54  C   UNL A   1      38.619  23.867  26.203  1.00  0.00     0.002 A 
ATOM     55  C   UNL A   1      40.476  22.528  26.991  1.00  0.00     0.091 A 
ATOM     56  F   UNL A   1      42.401  23.618  27.885  1.00  0.00    -0.205 F 
ATOM     57  C   UNL A   1      39.185  22.621  26.448  1.00  0.00     0.022 A 
BRANCH  55  58
ATOM     58  S   UNL A   1      41.166  20.878  27.168  1.00  0.00     0.127 S 
ATOM     59  O   UNL A   1      40.832  20.560  28.553  1.00  0.00    -0.237 OA
ATOM     60  O   UNL A   1      40.412  20.125  26.164  1.00  0.00    -0.237 OA
ATOM     61  O   UNL A   1      42.587  21.011  26.874  1.00  0.00    -0.744 OA
ENDBRANCH  55  58
ENDBRANCH  27  51
BRANCH  39  62
ATOM     62  C   UNL A   1      47.045  27.330  25.685  1.00  0.00     0.023 A 
ATOM     63  C   UNL A   1      47.132  27.487  24.289  1.00  0.00     0.012 A 
ATOM     64  C   UNL A   1      48.097  26.710  26.386  1.00  0.00     0.148 A 
ATOM     65  C   UNL A   1      48.243  27.011  23.597  1.00  0.00     0.002 A 
ATOM     66  C   UNL A   1      49.225  26.290  25.697  1.00  0.00     0.091 A 
ATOM     67  F   UNL A   1      47.978  26.552  27.713  1.00  0.00    -0.205 F 
ATOM     68  C   UNL A   1      49.295  26.428  24.301  1.00  0.00     0.022 A 
BRANCH  66  69
ATOM     69  S   UNL A   1      50.669  25.640  26.544  1.00  0.00     0.127 S 
ATOM     70  O   UNL A   1      51.566  25.353  25.428  1.00  0.00    -0.237 OA
ATOM     71  O   UNL A   1      51.076  26.771  27.380  1.00  0.00    -0.237 OA
ATOM     72  O   UNL A   1      50.202  24.480  27.292  1.00  0.00    -0.744 OA
ENDBRANCH  66  69
ENDBRANCH  39  62
ENDBRANCH  13  14
ENDBRANCH   6   8
ENDBRANCH   5   6
ENDBRANCH   4   5
ENDBRANCH   3   4
ENDBRANCH   2   3
ENDBRANCH   1   2
BRANCH   1  73
ATOM     73  C   UNL A   1      34.713  32.592  28.578  1.00  0.00     0.188 C 
BRANCH  73  74
ATOM     74  O   UNL A   1      35.688  31.555  28.645  1.00  0.00    -0.376 OA
BRANCH  74  75
ATOM     75  C   UNL A   1      35.462  30.399  27.848  1.00  0.00     0.202 C 
BRANCH  75  76
ATOM     76  C   UNL A   1      34.027  30.070  27.388  1.00  0.00     0.261 C 
BRANCH  76  77
ATOM     77  O   UNL A   1      33.865  28.999  26.436  1.00  0.00    -0.463 OA
BRANCH  77  78
ATOM     78  C   UNL A   1      32.758  29.122  25.655  1.00  0.00     0.310 C 
ATOM     79  O   UNL A   1      32.276  30.210  25.347  1.00  0.00    -0.252 OA
BRANCH  78  80
ATOM     80  C   UNL A   1      32.109  27.800  25.245  1.00  0.00     0.114 C 
ATOM     81  C   UNL A   1      30.880  28.161  24.398  1.00  0.00     0.018 C 
ATOM     82  C   UNL A   1      32.979  26.791  24.478  1.00  0.00     0.117 C 
ATOM     83  C   UNL A   1      30.102  26.923  24.003  1.00  0.00     0.018 C 
ATOM     84  N   UNL A   1      32.157  25.576  24.053  1.00  0.00    -0.197 NA
ATOM     85  C   UNL A   1      30.984  25.960  23.235  1.00  0.00     0.102 C 
BRANCH  84  86
ATOM     86  S   UNL A   1      33.120  24.347  23.336  1.00  0.00     0.243 S 
ATOM     87  O   UNL A   1      32.219  23.384  22.739  1.00  0.00    -0.207 OA
ATOM     88  O   UNL A   1      34.098  25.034  22.531  1.00  0.00    -0.207 OA
BRANCH  86  89
ATOM     89  C   UNL A   1      34.023  23.509  24.624  1.00  0.00     0.083 A 
ATOM     90  C   UNL A   1      33.653  23.695  25.962  1.00  0.00     0.022 A 
ATOM     91  C   UNL A   1      34.953  22.518  24.285  1.00  0.00     0.037 A 
ATOM     92  C   UNL A   1      34.276  22.956  26.969  1.00  0.00     0.003 A 
ATOM     93  C   UNL A   1      35.536  21.753  25.297  1.00  0.00     0.019 A 
ATOM     94  C   UNL A   1      35.216  21.981  26.636  1.00  0.00     0.016 A 
ATOM     95  Br  UNL A   1      36.727  20.351  24.857  1.00  0.00    -0.051 Br
ENDBRANCH  86  89
ENDBRANCH  84  86
ENDBRANCH  78  80
ENDBRANCH  77  78
ENDBRANCH  76  77
ENDBRANCH  75  76
ENDBRANCH  74  75
ENDBRANCH  73  74
ENDBRANCH   1  73
TORSDOF 22
ENDMDL
MODEL 3
REMARK VINA RESULT:      -9.7      4.792      7.292
REMARK SMILES O=C(OCCOCCOCCOC(=O)[C@H]1CCCN(S(=O)(=O)c2cccc(Br)c2)C1)c1ccc(-c2c3nc(c(-c4cccc(S(=O)(=O)[O-])c4F)c4ccc([nH]4)c(-c4cccc(S(=O)(=O)[O-])c4F)c4nc(c(-c5cccc(S(=O)(=O)[O-])c5F)c5ccc2[nH]5)C=C4)C=C3)cc1
REMARK SMILES IDX 7 1 6 2 5 3 4 4 3 5 2 6 1 7 31 8 32 9 93 10 33 11 92 12
REMARK SMILES IDX 34 13 35 14 36 15 86 16 37 17 91 18 85 19 87 20 38 21 90 22
REMARK SMILES IDX 84 23 83 24 39 26 71 27 51 28 70 29 52 30 55 31 69 32 88 33
REMARK SMILES IDX 53 34 54 35 68 37 89 38 56 39 40 40 41 41 49 42 42 43 44 44
REMARK SMILES IDX 50 45 43 46 45 47 46 48 47 49 48 50 72 51 73 52 81 53 74 54
REMARK SMILES IDX 76 55 82 56 75 57 77 58 78 59 79 60 80 61 57 62 58 63 66 64
REMARK SMILES IDX 59 65 61 66 67 67 60 68 62 69 63 70 64 71 65 72 8 73 9 74
REMARK SMILES IDX 10 75 11 76 12 77 13 78 14 79 15 80 16 81 30 82 17 83 19 84
REMARK SMILES IDX 18 85 20 86 21 87 22 88 23 89 24 90 29 91 25 92 27 93 26 94
REMARK SMILES IDX 28 95
REMARK H PARENT 87 25 55 36
REMARK Flexibility Score: inf
ROOT
ATOM      1  C   UNL A   1      34.977  24.529  24.782  1.00  0.00     0.188 C 
ENDROOT
BRANCH   1   2
ATOM      2  O   UNL A   1      35.998  23.673  25.302  1.00  0.00    -0.376 OA
BRANCH   2   3
ATOM      3  C   UNL A   1      36.843  23.092  24.301  1.00  0.00     0.202 C 
BRANCH   3   4
ATOM      4  C   UNL A   1      37.222  21.621  24.535  1.00  0.00     0.261 C 
BRANCH   4   5
ATOM      5  O   UNL A   1      37.877  21.424  25.797  1.00  0.00    -0.460 OA
BRANCH   5   6
ATOM      6  C   UNL A   1      39.163  21.729  26.115  1.00  0.00     0.338 C 
ATOM      7  O   UNL A   1      40.031  20.890  25.879  1.00  0.00    -0.246 OA
BRANCH   6   8
ATOM      8  C   UNL A   1      39.575  23.044  26.699  1.00  0.00     0.060 A 
ATOM      9  C   UNL A   1      38.987  24.279  26.407  1.00  0.00     0.016 A 
ATOM     10  C   UNL A   1      40.608  23.021  27.644  1.00  0.00     0.016 A 
ATOM     11  C   UNL A   1      39.496  25.471  26.905  1.00  0.00     0.010 A 
ATOM     12  C   UNL A   1      41.081  24.211  28.202  1.00  0.00     0.010 A 
ATOM     13  C   UNL A   1      40.555  25.452  27.802  1.00  0.00    -0.014 A 
BRANCH  13  14
ATOM     14  C   UNL A   1      41.170  26.734  28.219  1.00  0.00     0.031 A 
ATOM     15  C   UNL A   1      42.577  26.998  27.769  1.00  0.00     0.074 A 
ATOM     16  C   UNL A   1      40.473  27.659  28.911  1.00  0.00     0.049 A 
ATOM     17  N   UNL A   1      43.339  28.032  27.991  1.00  0.00    -0.248 NA
ATOM     18  C   UNL A   1      43.219  25.946  26.956  1.00  0.00     0.031 C 
ATOM     19  C   UNL A   1      39.084  27.522  29.361  1.00  0.00     0.029 A 
ATOM     20  N   UNL A   1      40.830  28.907  29.356  1.00  0.00    -0.354 N 
ATOM     21  C   UNL A   1      44.557  27.729  27.399  1.00  0.00     0.074 A 
ATOM     22  C   UNL A   1      44.451  26.404  26.838  1.00  0.00     0.031 C 
ATOM     23  C   UNL A   1      38.710  28.632  30.018  1.00  0.00     0.029 A 
ATOM     24  C   UNL A   1      39.835  29.557  30.054  1.00  0.00     0.049 A 
ATOM     25  H   UNL A   1      41.717  29.303  29.192  1.00  0.00     0.167 HD
ATOM     26  C   UNL A   1      45.663  28.499  27.301  1.00  0.00     0.034 A 
ATOM     27  C   UNL A   1      39.837  30.764  30.651  1.00  0.00     0.034 A 
ATOM     28  C   UNL A   1      45.733  29.833  27.818  1.00  0.00     0.049 A 
ATOM     29  C   UNL A   1      41.082  31.604  30.527  1.00  0.00     0.074 A 
ATOM     30  C   UNL A   1      46.785  30.724  27.769  1.00  0.00     0.029 A 
ATOM     31  N   UNL A   1      44.691  30.466  28.482  1.00  0.00    -0.354 N 
ATOM     32  N   UNL A   1      42.197  31.333  29.891  1.00  0.00    -0.248 NA
ATOM     33  C   UNL A   1      41.058  32.928  31.161  1.00  0.00     0.031 C 
ATOM     34  C   UNL A   1      46.386  31.894  28.423  1.00  0.00     0.029 A 
ATOM     35  C   UNL A   1      45.074  31.740  28.851  1.00  0.00     0.049 A 
ATOM     36  H   UNL A   1      43.810  30.067  28.663  1.00  0.00     0.167 HD
ATOM     37  C   UNL A   1      42.990  32.468  30.008  1.00  0.00     0.074 A 
ATOM     38  C   UNL A   1      42.218  33.434  30.764  1.00  0.00     0.031 C 
ATOM     39  C   UNL A   1      44.244  32.692  29.546  1.00  0.00     0.034 A 
BRANCH  26  40
ATOM     40  C   UNL A   1      46.853  27.891  26.612  1.00  0.00     0.023 A 
ATOM     41  C   UNL A   1      46.944  27.916  25.204  1.00  0.00     0.012 A 
ATOM     42  C   UNL A   1      47.847  27.232  27.358  1.00  0.00     0.148 A 
ATOM     43  C   UNL A   1      47.975  27.246  24.548  1.00  0.00     0.002 A 
ATOM     44  C   UNL A   1      48.898  26.607  26.699  1.00  0.00     0.091 A 
ATOM     45  F   UNL A   1      47.725  27.195  28.693  1.00  0.00    -0.205 F 
ATOM     46  C   UNL A   1      48.954  26.597  25.296  1.00  0.00     0.022 A 
BRANCH  44  47
ATOM     47  S   UNL A   1      50.239  25.794  27.572  1.00  0.00     0.127 S 
ATOM     48  O   UNL A   1      49.754  24.417  27.643  1.00  0.00    -0.237 OA
ATOM     49  O   UNL A   1      51.364  25.997  26.656  1.00  0.00    -0.237 OA
ATOM     50  O   UNL A   1      50.365  26.480  28.850  1.00  0.00    -0.744 OA
ENDBRANCH  44  47
ENDBRANCH  26  40
BRANCH  27  51
ATOM     51  C   UNL A   1      38.619  31.282  31.346  1.00  0.00     0.023 A 
ATOM     52  C   UNL A   1      38.534  31.197  32.750  1.00  0.00     0.012 A 
ATOM     53  C   UNL A   1      37.546  31.855  30.634  1.00  0.00     0.148 A 
ATOM     54  C   UNL A   1      37.392  31.633  33.428  1.00  0.00     0.002 A 
ATOM     55  C   UNL A   1      36.431  32.332  31.318  1.00  0.00     0.091 A 
ATOM     56  F   UNL A   1      37.633  31.923  29.298  1.00  0.00    -0.205 F 
ATOM     57  C   UNL A   1      36.344  32.204  32.713  1.00  0.00     0.022 A 
BRANCH  55  58
ATOM     58  S   UNL A   1      35.078  33.183  30.495  1.00  0.00     0.127 S 
ATOM     59  O   UNL A   1      35.769  34.300  29.859  1.00  0.00    -0.237 OA
ATOM     60  O   UNL A   1      34.589  32.155  29.574  1.00  0.00    -0.237 OA
ATOM     61  O   UNL A   1      34.136  33.537  31.549  1.00  0.00    -0.744 OA
ENDBRANCH  55  58
ENDBRANCH  27  51
BRANCH  39  62
ATOM     62  C   UNL A   1      44.839  34.049  29.792  1.00  0.00     0.023 A 
ATOM     63  C   UNL A   1      45.428  34.344  31.035  1.00  0.00     0.012 A 
ATOM     64  C   UNL A   1      44.901  34.992  28.747  1.00  0.00     0.148 A 
ATOM     65  C   UNL A   1      46.051  35.572  31.244  1.00  0.00     0.002 A 
ATOM     66  C   UNL A   1      45.573  36.189  28.945  1.00  0.00     0.091 A 
ATOM     67  F   UNL A   1      44.311  34.695  27.580  1.00  0.00    -0.205 F 
ATOM     68  C   UNL A   1      46.138  36.487  30.196  1.00  0.00     0.022 A 
BRANCH  66  69
ATOM     69  S   UNL A   1      45.830  37.365  27.612  1.00  0.00     0.127 S 
ATOM     70  O   UNL A   1      46.764  38.308  28.223  1.00  0.00    -0.237 OA
ATOM     71  O   UNL A   1      46.409  36.525  26.562  1.00  0.00    -0.237 OA
ATOM     72  O   UNL A   1      44.513  37.900  27.294  1.00  0.00    -0.744 OA
ENDBRANCH  66  69
ENDBRANCH  39  62
ENDBRANCH  13  14
ENDBRANCH   6   8
ENDBRANCH   5   6
ENDBRANCH   4   5
ENDBRANCH   3   4
ENDBRANCH   2   3
ENDBRANCH   1   2
BRANCH   1  73
ATOM     73  C   UNL A   1      34.711  25.728  25.697  1.00  0.00     0.188 C 
BRANCH  73  74
ATOM     74  O   UNL A   1      33.353  25.986  26.041  1.00  0.00    -0.376 OA
BRANCH  74  75
ATOM     75  C   UNL A   1      32.841  27.278  25.739  1.00  0.00     0.202 C 
BRANCH  75  76
ATOM     76  C   UNL A   1      31.487  27.400  25.008  1.00  0.00     0.261 C 
BRANCH  76  77
ATOM     77  O   UNL A   1      30.611  26.255  25.040  1.00  0.00    -0.463 OA
BRANCH  77  78
ATOM     78  C   UNL A   1      30.242  25.813  23.808  1.00  0.00     0.310 C 
ATOM     79  O   UNL A   1      29.424  26.402  23.104  1.00  0.00    -0.252 OA
BRANCH  78  80
ATOM     80  C   UNL A   1      30.868  24.483  23.387  1.00  0.00     0.114 C 
ATOM     81  C   UNL A   1      32.071  24.828  22.498  1.00  0.00     0.018 C 
ATOM     82  C   UNL A   1      31.316  23.525  24.503  1.00  0.00     0.117 C 
ATOM     83  C   UNL A   1      32.724  23.578  21.947  1.00  0.00     0.018 C 
ATOM     84  N   UNL A   1      32.011  22.297  23.919  1.00  0.00    -0.197 NA
ATOM     85  C   UNL A   1      33.168  22.666  23.073  1.00  0.00     0.102 C 
BRANCH  84  86
ATOM     86  S   UNL A   1      32.385  21.121  25.115  1.00  0.00     0.243 S 
ATOM     87  O   UNL A   1      33.652  21.492  25.707  1.00  0.00    -0.207 OA
ATOM     88  O   UNL A   1      31.202  21.000  25.930  1.00  0.00    -0.207 OA
BRANCH  86  89
ATOM     89  C   UNL A   1      32.608  19.546  24.311  1.00  0.00     0.083 A 
ATOM     90  C   UNL A   1      32.195  19.382  22.983  1.00  0.00     0.022 A 
ATOM     91  C   UNL A   1      33.377  18.554  24.934  1.00  0.00     0.037 A 
ATOM     92  C   UNL A   1      32.470  18.192  22.307  1.00  0.00     0.003 A 
ATOM     93  C   UNL A   1      33.686  17.387  24.232  1.00  0.00     0.019 A 
ATOM     94  C   UNL A   1      33.219  17.194  22.931  1.00  0.00     0.016 A 
ATOM     95  Br  UNL A   1      34.795  16.074  25.020  1.00  0.00    -0.051 Br
ENDBRANCH  86  89
ENDBRANCH  84  86
ENDBRANCH  78  80
ENDBRANCH  77  78
ENDBRANCH  76  77
ENDBRANCH  75  76
ENDBRANCH  74  75
ENDBRANCH  73  74
ENDBRANCH   1  73
TORSDOF 22
ENDMDL
