MODEL 1
REMARK VINA RESULT:     -12.2      0.000      0.000
REMARK SMILES Cc1ccc(S(=O)(=O)n2cc(C(=O)C(=O)NCC(=O)N[C@H](Cc3c[nH]c4ccccc34)C(=O)OCCOCCOCCOC(=O)c3ccc(-c4c5nc(c(-c6cccc(S(=O)(=O)[O-])c6F)c6ccc([nH]6)c(-c6cccc(S(=O)(=O)[O-])c6F)c6nc(c(-c7cccc(S(=O)(=O)[O-])c7F)c7ccc4[nH]7)C=C6)C=C5)cc3)c3ccccc32)cc1
REMARK SMILES IDX 36 1 35 2 34 3 32 4 33 5 21 6 20 7 18 8 19 9 17 11 16 12
REMARK SMILES IDX 14 13 15 14 12 16 13 17 11 18 9 19 10 20 114 21 109 22
REMARK SMILES IDX 113 23 110 24 112 25 111 26 6 27 7 28 8 29 5 30 1 31 2 32
REMARK SMILES IDX 3 33 116 34 4 35 115 36 22 37 23 38 24 39 31 40 25 41 26 42
REMARK SMILES IDX 30 43 27 45 29 46 28 47 37 48 38 49 39 50 40 51 41 52 42 53
REMARK SMILES IDX 43 54 44 55 45 56 46 57 47 58 108 59 48 60 107 61 49 62
REMARK SMILES IDX 50 63 51 64 101 65 52 66 106 67 100 68 102 69 53 70 105 71
REMARK SMILES IDX 99 72 98 73 54 75 86 76 66 77 85 78 67 79 70 80 84 81 103 82
REMARK SMILES IDX 68 83 69 84 83 86 104 87 71 88 55 89 56 90 64 91 57 92 59 93
REMARK SMILES IDX 65 94 58 95 60 96 61 97 62 98 63 99 87 100 88 101 96 102
REMARK SMILES IDX 89 103 91 104 97 105 90 106 92 107 93 108 94 109 95 110
REMARK SMILES IDX 72 111 73 112 81 113 74 114 76 115 82 116 75 117 77 118
REMARK SMILES IDX 78 119 79 120 80 121
REMARK H PARENT 20 10 16 15 25 44 102 74 70 85
REMARK Flexibility Score: inf
ROOT
ATOM      1  C   UNL A   1      32.054  22.099  26.218  1.00  0.00     0.202 C 
ENDROOT
BRANCH   1   2
ATOM      2  C   UNL A   1      30.773  22.565  26.917  1.00  0.00     0.261 C 
BRANCH   2   3
ATOM      3  O   UNL A   1      29.955  23.721  26.699  1.00  0.00    -0.462 OA
BRANCH   3   4
ATOM      4  C   UNL A   1      30.059  24.977  26.214  1.00  0.00     0.329 C 
ATOM      5  O   UNL A   1      30.348  25.895  26.956  1.00  0.00    -0.250 OA
BRANCH   4   6
ATOM      6  C   UNL A   1      29.634  25.319  24.548  1.00  0.00     0.196 C 
BRANCH   6   7
ATOM      7  N   UNL A   1      31.024  24.469  23.563  1.00  0.00    -0.341 N 
ATOM      8  C   UNL A   1      32.016  23.830  22.944  1.00  0.00     0.240 C 
ATOM      9  O   UNL A   1      32.046  24.218  21.742  1.00  0.00    -0.273 OA
ATOM     10  H   UNL A   1      30.807  24.983  22.751  1.00  0.00     0.164 HD
BRANCH   8  11
ATOM     11  C   UNL A   1      32.994  22.697  23.173  1.00  0.00     0.216 C 
BRANCH  11  12
ATOM     12  N   UNL A   1      34.385  22.924  22.830  1.00  0.00    -0.340 N 
ATOM     13  C   UNL A   1      35.233  23.792  23.493  1.00  0.00     0.292 C 
ATOM     14  O   UNL A   1      36.360  24.056  23.087  1.00  0.00    -0.265 OA
ATOM     15  H   UNL A   1      34.754  22.424  22.067  1.00  0.00     0.164 HD
BRANCH  13  16
ATOM     16  C   UNL A   1      34.759  24.358  24.832  1.00  0.00     0.252 C 
ATOM     17  O   UNL A   1      34.928  23.582  25.783  1.00  0.00    -0.283 OA
BRANCH  16  18
ATOM     18  C   UNL A   1      34.080  25.661  25.021  1.00  0.00     0.054 A 
ATOM     19  N   UNL A   1      33.283  27.632  25.803  1.00  0.00    -0.240 N 
ATOM     20  C   UNL A   1      33.480  26.287  26.138  1.00  0.00     0.117 A 
ATOM     21  C   UNL A   1      33.659  27.818  24.468  1.00  0.00     0.065 A 
ATOM     22  C   UNL A   1      33.936  26.580  23.924  1.00  0.00     0.012 A 
ATOM     23  C   UNL A   1      33.748  28.999  23.702  1.00  0.00     0.028 A 
ATOM     24  C   UNL A   1      34.121  26.519  22.523  1.00  0.00     0.011 A 
ATOM     25  C   UNL A   1      33.876  28.917  22.332  1.00  0.00     0.002 A 
ATOM     26  C   UNL A   1      34.017  27.679  21.739  1.00  0.00     0.001 A 
BRANCH  19  27
ATOM     27  S   UNL A   1      32.285  28.902  26.375  1.00  0.00     0.268 S 
ATOM     28  O   UNL A   1      32.218  28.471  27.775  1.00  0.00    -0.201 OA
ATOM     29  O   UNL A   1      31.064  28.853  25.576  1.00  0.00    -0.201 OA
BRANCH  27  30
ATOM     30  C   UNL A   1      32.318  30.641  26.610  1.00  0.00     0.088 A 
ATOM     31  C   UNL A   1      33.538  34.483  28.203  1.00  0.00     0.044 C 
ATOM     32  C   UNL A   1      33.034  33.180  27.667  1.00  0.00    -0.051 A 
ATOM     33  C   UNL A   1      33.881  32.110  27.856  1.00  0.00     0.005 A 
ATOM     34  C   UNL A   1      31.796  32.964  27.011  1.00  0.00     0.005 A 
ATOM     35  C   UNL A   1      33.520  30.894  27.338  1.00  0.00     0.022 A 
ATOM     36  C   UNL A   1      31.416  31.682  26.489  1.00  0.00     0.022 A 
ENDBRANCH  27  30
ENDBRANCH  19  27
ENDBRANCH  16  18
ENDBRANCH  13  16
ENDBRANCH  11  12
ENDBRANCH   8  11
ENDBRANCH   6   7
BRANCH   6  37
ATOM     37  C   UNL A   1      28.635  27.101  23.695  1.00  0.00     0.074 C 
BRANCH  37  38
ATOM     38  C   UNL A   1      29.143  28.421  22.667  1.00  0.00    -0.020 A 
ATOM     39  C   UNL A   1      30.265  28.497  21.856  1.00  0.00     0.087 A 
ATOM     40  C   UNL A   1      28.564  29.730  22.668  1.00  0.00     0.003 A 
ATOM     41  N   UNL A   1      30.657  29.815  21.918  1.00  0.00    -0.361 N 
ATOM     42  C   UNL A   1      29.652  30.579  22.466  1.00  0.00     0.046 A 
ATOM     43  C   UNL A   1      27.346  30.259  23.130  1.00  0.00     0.010 A 
ATOM     44  H   UNL A   1      31.528  30.159  21.615  1.00  0.00     0.166 HD
ATOM     45  C   UNL A   1      29.640  31.908  22.892  1.00  0.00     0.026 A 
ATOM     46  C   UNL A   1      27.309  31.595  23.530  1.00  0.00     0.001 A 
ATOM     47  C   UNL A   1      28.453  32.389  23.456  1.00  0.00     0.002 A 
ENDBRANCH  37  38
ENDBRANCH   6  37
ENDBRANCH   4   6
ENDBRANCH   3   4
ENDBRANCH   2   3
ENDBRANCH   1   2
BRANCH   1  48
ATOM     48  O   UNL A   1      32.400  20.829  25.704  1.00  0.00    -0.376 OA
BRANCH  48  49
ATOM     49  C   UNL A   1      33.612  20.260  26.131  1.00  0.00     0.188 C 
BRANCH  49  50
ATOM     50  C   UNL A   1      34.620  19.942  25.037  1.00  0.00     0.188 C 
BRANCH  50  51
ATOM     51  O   UNL A   1      35.574  20.978  24.886  1.00  0.00    -0.376 OA
BRANCH  51  52
ATOM     52  C   UNL A   1      36.850  20.732  25.447  1.00  0.00     0.202 C 
BRANCH  52  53
ATOM     53  C   UNL A   1      38.021  21.647  24.986  1.00  0.00     0.261 C 
BRANCH  53  54
ATOM     54  O   UNL A   1      38.336  22.535  26.091  1.00  0.00    -0.460 OA
BRANCH  54  55
ATOM     55  C   UNL A   1      39.432  22.686  26.891  1.00  0.00     0.338 C 
ATOM     56  O   UNL A   1      40.004  21.797  27.484  1.00  0.00    -0.246 OA
BRANCH  55  57
ATOM     57  C   UNL A   1      39.768  24.184  26.753  1.00  0.00     0.060 A 
ATOM     58  C   UNL A   1      40.678  25.125  25.510  1.00  0.00     0.016 A 
ATOM     59  C   UNL A   1      39.229  25.012  28.202  1.00  0.00     0.016 A 
ATOM     60  C   UNL A   1      41.018  26.895  25.830  1.00  0.00     0.010 A 
ATOM     61  C   UNL A   1      39.562  26.700  28.560  1.00  0.00     0.010 A 
ATOM     62  C   UNL A   1      40.544  27.618  27.496  1.00  0.00    -0.014 A 
BRANCH  62  63
ATOM     63  C   UNL A   1      41.380  28.342  28.709  1.00  0.00     0.031 A 
ATOM     64  C   UNL A   1      42.445  27.387  28.925  1.00  0.00     0.074 A 
ATOM     65  C   UNL A   1      41.238  29.585  29.389  1.00  0.00     0.049 A 
ATOM     66  N   UNL A   1      42.890  26.998  30.066  1.00  0.00    -0.248 NA
ATOM     67  C   UNL A   1      42.918  26.515  27.819  1.00  0.00     0.031 C 
ATOM     68  C   UNL A   1      42.259  30.561  29.838  1.00  0.00     0.029 A 
ATOM     69  N   UNL A   1      40.119  30.363  29.736  1.00  0.00    -0.354 N 
ATOM     70  C   UNL A   1      44.113  26.534  29.659  1.00  0.00     0.074 A 
ATOM     71  C   UNL A   1      43.825  25.792  28.471  1.00  0.00     0.031 C 
ATOM     72  C   UNL A   1      41.737  31.683  30.421  1.00  0.00     0.029 A 
ATOM     73  C   UNL A   1      40.280  31.610  30.381  1.00  0.00     0.049 A 
ATOM     74  H   UNL A   1      39.214  30.035  29.529  1.00  0.00     0.167 HD
ATOM     75  C   UNL A   1      45.156  27.410  29.813  1.00  0.00     0.034 A 
ATOM     76  C   UNL A   1      39.401  32.102  31.328  1.00  0.00     0.034 A 
ATOM     77  C   UNL A   1      44.858  28.542  30.747  1.00  0.00     0.049 A 
ATOM     78  C   UNL A   1      39.891  31.343  32.575  1.00  0.00     0.074 A 
ATOM     79  C   UNL A   1      45.227  29.872  30.872  1.00  0.00     0.029 A 
ATOM     80  N   UNL A   1      43.846  28.381  31.713  1.00  0.00    -0.354 N 
ATOM     81  N   UNL A   1      40.730  30.345  32.424  1.00  0.00    -0.248 NA
ATOM     82  C   UNL A   1      39.726  31.653  33.997  1.00  0.00     0.031 C 
ATOM     83  C   UNL A   1      44.441  30.468  31.930  1.00  0.00     0.029 A 
ATOM     84  C   UNL A   1      43.541  29.524  32.420  1.00  0.00     0.049 A 
ATOM     85  H   UNL A   1      43.392  27.523  31.870  1.00  0.00     0.167 HD
ATOM     86  C   UNL A   1      41.428  30.122  33.553  1.00  0.00     0.074 A 
ATOM     87  C   UNL A   1      40.659  30.844  34.558  1.00  0.00     0.031 C 
ATOM     88  C   UNL A   1      42.615  29.439  33.565  1.00  0.00     0.034 A 
BRANCH  75  89
ATOM     89  C   UNL A   1      46.422  27.236  28.989  1.00  0.00     0.023 A 
ATOM     90  C   UNL A   1      47.487  26.642  29.676  1.00  0.00     0.012 A 
ATOM     91  C   UNL A   1      46.630  27.490  27.596  1.00  0.00     0.148 A 
ATOM     92  C   UNL A   1      48.634  26.206  29.014  1.00  0.00     0.002 A 
ATOM     93  C   UNL A   1      47.723  26.951  26.917  1.00  0.00     0.091 A 
ATOM     94  F   UNL A   1      45.838  28.334  26.922  1.00  0.00    -0.205 F 
ATOM     95  C   UNL A   1      48.729  26.305  27.631  1.00  0.00     0.022 A 
BRANCH  93  96
ATOM     96  S   UNL A   1      47.863  26.951  25.115  1.00  0.00     0.127 S 
ATOM     97  O   UNL A   1      48.060  28.369  24.820  1.00  0.00    -0.237 OA
ATOM     98  O   UNL A   1      49.043  26.114  24.896  1.00  0.00    -0.237 OA
ATOM     99  O   UNL A   1      46.620  26.382  24.607  1.00  0.00    -0.744 OA
ENDBRANCH  93  96
ENDBRANCH  75  89
BRANCH  76 100
ATOM    100  C   UNL A   1      37.950  32.408  30.872  1.00  0.00     0.023 A 
ATOM    101  C   UNL A   1      37.091  31.418  30.319  1.00  0.00     0.012 A 
ATOM    102  C   UNL A   1      37.262  33.494  31.436  1.00  0.00     0.148 A 
ATOM    103  C   UNL A   1      35.665  31.499  30.416  1.00  0.00     0.002 A 
ATOM    104  C   UNL A   1      35.870  33.523  31.639  1.00  0.00     0.091 A 
ATOM    105  F   UNL A   1      37.995  34.377  32.096  1.00  0.00    -0.205 F 
ATOM    106  C   UNL A   1      35.055  32.535  31.116  1.00  0.00     0.022 A 
BRANCH 104 107
ATOM    107  S   UNL A   1      35.133  34.636  32.868  1.00  0.00     0.127 S 
ATOM    108  O   UNL A   1      34.306  35.468  32.026  1.00  0.00    -0.237 OA
ATOM    109  O   UNL A   1      34.290  33.787  33.688  1.00  0.00    -0.237 OA
ATOM    110  O   UNL A   1      36.265  35.297  33.503  1.00  0.00    -0.744 OA
ENDBRANCH 104 107
ENDBRANCH  76 100
BRANCH  88 111
ATOM    111  C   UNL A   1      42.987  28.532  34.707  1.00  0.00     0.023 A 
ATOM    112  C   UNL A   1      43.971  28.891  35.642  1.00  0.00     0.012 A 
ATOM    113  C   UNL A   1      42.217  27.375  34.991  1.00  0.00     0.148 A 
ATOM    114  C   UNL A   1      44.261  28.079  36.736  1.00  0.00     0.002 A 
ATOM    115  C   UNL A   1      42.405  26.662  36.158  1.00  0.00     0.091 A 
ATOM    116  F   UNL A   1      41.307  26.922  34.121  1.00  0.00    -0.205 F 
ATOM    117  C   UNL A   1      43.466  26.973  37.005  1.00  0.00     0.022 A 
BRANCH 115 118
ATOM    118  S   UNL A   1      41.240  25.397  36.672  1.00  0.00     0.127 S 
ATOM    119  O   UNL A   1      40.551  26.069  37.770  1.00  0.00    -0.237 OA
ATOM    120  O   UNL A   1      40.436  25.216  35.462  1.00  0.00    -0.237 OA
ATOM    121  O   UNL A   1      42.038  24.235  37.039  1.00  0.00    -0.744 OA
ENDBRANCH 115 118
ENDBRANCH  88 111
ENDBRANCH  62  63
ENDBRANCH  55  57
ENDBRANCH  54  55
ENDBRANCH  53  54
ENDBRANCH  52  53
ENDBRANCH  51  52
ENDBRANCH  50  51
ENDBRANCH  49  50
ENDBRANCH  48  49
ENDBRANCH   1  48
TORSDOF 29
ENDMDL
MODEL 2
REMARK VINA RESULT:     -11.4      1.789      2.206
REMARK SMILES Cc1ccc(S(=O)(=O)n2cc(C(=O)C(=O)NCC(=O)N[C@H](Cc3c[nH]c4ccccc34)C(=O)OCCOCCOCCOC(=O)c3ccc(-c4c5nc(c(-c6cccc(S(=O)(=O)[O-])c6F)c6ccc([nH]6)c(-c6cccc(S(=O)(=O)[O-])c6F)c6nc(c(-c7cccc(S(=O)(=O)[O-])c7F)c7ccc4[nH]7)C=C6)C=C5)cc3)c3ccccc32)cc1
REMARK SMILES IDX 36 1 35 2 34 3 32 4 33 5 21 6 20 7 18 8 19 9 17 11 16 12
REMARK SMILES IDX 14 13 15 14 12 16 13 17 11 18 9 19 10 20 114 21 109 22
REMARK SMILES IDX 113 23 110 24 112 25 111 26 6 27 7 28 8 29 5 30 1 31 2 32
REMARK SMILES IDX 3 33 116 34 4 35 115 36 22 37 23 38 24 39 31 40 25 41 26 42
REMARK SMILES IDX 30 43 27 45 29 46 28 47 37 48 38 49 39 50 40 51 41 52 42 53
REMARK SMILES IDX 43 54 44 55 45 56 46 57 47 58 108 59 48 60 107 61 49 62
REMARK SMILES IDX 50 63 51 64 101 65 52 66 106 67 100 68 102 69 53 70 105 71
REMARK SMILES IDX 99 72 98 73 54 75 86 76 66 77 85 78 67 79 70 80 84 81 103 82
REMARK SMILES IDX 68 83 69 84 83 86 104 87 71 88 55 89 56 90 64 91 57 92 59 93
REMARK SMILES IDX 65 94 58 95 60 96 61 97 62 98 63 99 87 100 88 101 96 102
REMARK SMILES IDX 89 103 91 104 97 105 90 106 92 107 93 108 94 109 95 110
REMARK SMILES IDX 72 111 73 112 81 113 74 114 76 115 82 116 75 117 77 118
REMARK SMILES IDX 78 119 79 120 80 121
REMARK H PARENT 20 10 16 15 25 44 102 74 70 85
REMARK Flexibility Score: inf
ROOT
ATOM      1  C   UNL A   1      32.078  22.133  26.468  1.00  0.00     0.202 C 
ENDROOT
BRANCH   1   2
ATOM      2  C   UNL A   1      30.633  22.486  26.837  1.00  0.00     0.261 C 
BRANCH   2   3
ATOM      3  O   UNL A   1      29.924  23.729  26.765  1.00  0.00    -0.462 OA
BRANCH   3   4
ATOM      4  C   UNL A   1      30.082  24.973  26.264  1.00  0.00     0.329 C 
ATOM      5  O   UNL A   1      30.421  25.885  26.993  1.00  0.00    -0.250 OA
BRANCH   4   6
ATOM      6  C   UNL A   1      29.655  25.317  24.599  1.00  0.00     0.196 C 
BRANCH   6   7
ATOM      7  N   UNL A   1      31.038  24.456  23.612  1.00  0.00    -0.341 N 
ATOM      8  C   UNL A   1      32.026  23.812  22.992  1.00  0.00     0.240 C 
ATOM      9  O   UNL A   1      32.035  24.175  21.782  1.00  0.00    -0.273 OA
ATOM     10  H   UNL A   1      30.805  24.951  22.792  1.00  0.00     0.164 HD
BRANCH   8  11
ATOM     11  C   UNL A   1      33.017  22.692  23.230  1.00  0.00     0.216 C 
BRANCH  11  12
ATOM     12  N   UNL A   1      34.393  22.910  22.828  1.00  0.00    -0.340 N 
ATOM     13  C   UNL A   1      35.274  23.773  23.454  1.00  0.00     0.292 C 
ATOM     14  O   UNL A   1      36.385  24.028  23.000  1.00  0.00    -0.265 OA
ATOM     15  H   UNL A   1      34.726  22.406  22.051  1.00  0.00     0.164 HD
BRANCH  13  16
ATOM     16  C   UNL A   1      34.861  24.343  24.811  1.00  0.00     0.252 C 
ATOM     17  O   UNL A   1      35.090  23.579  25.758  1.00  0.00    -0.283 OA
BRANCH  16  18
ATOM     18  C   UNL A   1      34.175  25.638  25.024  1.00  0.00     0.054 A 
ATOM     19  N   UNL A   1      33.379  27.598  25.836  1.00  0.00    -0.240 N 
ATOM     20  C   UNL A   1      33.600  26.255  26.159  1.00  0.00     0.117 A 
ATOM     21  C   UNL A   1      33.716  27.794  24.492  1.00  0.00     0.065 A 
ATOM     22  C   UNL A   1      33.991  26.560  23.935  1.00  0.00     0.012 A 
ATOM     23  C   UNL A   1      33.771  28.978  23.728  1.00  0.00     0.028 A 
ATOM     24  C   UNL A   1      34.137  26.507  22.529  1.00  0.00     0.011 A 
ATOM     25  C   UNL A   1      33.862  28.902  22.355  1.00  0.00     0.002 A 
ATOM     26  C   UNL A   1      33.999  27.669  21.753  1.00  0.00     0.001 A 
BRANCH  19  27
ATOM     27  S   UNL A   1      32.385  28.855  26.440  1.00  0.00     0.268 S 
ATOM     28  O   UNL A   1      32.374  28.428  27.843  1.00  0.00    -0.201 OA
ATOM     29  O   UNL A   1      31.136  28.786  25.686  1.00  0.00    -0.201 OA
BRANCH  27  30
ATOM     30  C   UNL A   1      32.401  30.595  26.670  1.00  0.00     0.088 A 
ATOM     31  C   UNL A   1      33.539  34.449  28.296  1.00  0.00     0.044 C 
ATOM     32  C   UNL A   1      33.063  33.141  27.745  1.00  0.00    -0.051 A 
ATOM     33  C   UNL A   1      33.906  32.076  27.973  1.00  0.00     0.005 A 
ATOM     34  C   UNL A   1      31.854  32.917  27.040  1.00  0.00     0.005 A 
ATOM     35  C   UNL A   1      33.571  30.857  27.446  1.00  0.00     0.022 A 
ATOM     36  C   UNL A   1      31.500  31.633  26.508  1.00  0.00     0.022 A 
ENDBRANCH  27  30
ENDBRANCH  19  27
ENDBRANCH  16  18
ENDBRANCH  13  16
ENDBRANCH  11  12
ENDBRANCH   8  11
ENDBRANCH   6   7
BRANCH   6  37
ATOM     37  C   UNL A   1      28.667  27.104  23.747  1.00  0.00     0.074 C 
BRANCH  37  38
ATOM     38  C   UNL A   1      29.174  28.406  22.694  1.00  0.00    -0.020 A 
ATOM     39  C   UNL A   1      30.305  28.475  21.894  1.00  0.00     0.087 A 
ATOM     40  C   UNL A   1      28.583  29.709  22.658  1.00  0.00     0.003 A 
ATOM     41  N   UNL A   1      30.684  29.797  21.931  1.00  0.00    -0.361 N 
ATOM     42  C   UNL A   1      29.665  30.563  22.450  1.00  0.00     0.046 A 
ATOM     43  C   UNL A   1      27.354  30.236  23.094  1.00  0.00     0.010 A 
ATOM     44  H   UNL A   1      31.555  30.143  21.630  1.00  0.00     0.166 HD
ATOM     45  C   UNL A   1      29.635  31.902  22.845  1.00  0.00     0.026 A 
ATOM     46  C   UNL A   1      27.299  31.580  23.463  1.00  0.00     0.001 A 
ATOM     47  C   UNL A   1      28.437  32.384  23.384  1.00  0.00     0.002 A 
ENDBRANCH  37  38
ENDBRANCH   6  37
ENDBRANCH   4   6
ENDBRANCH   3   4
ENDBRANCH   2   3
ENDBRANCH   1   2
BRANCH   1  48
ATOM     48  O   UNL A   1      32.584  21.075  25.680  1.00  0.00    -0.376 OA
BRANCH  48  49
ATOM     49  C   UNL A   1      33.750  20.429  26.125  1.00  0.00     0.188 C 
BRANCH  49  50
ATOM     50  C   UNL A   1      34.812  20.172  25.068  1.00  0.00     0.188 C 
BRANCH  50  51
ATOM     51  O   UNL A   1      36.040  20.801  25.394  1.00  0.00    -0.376 OA
BRANCH  51  52
ATOM     52  C   UNL A   1      37.209  20.043  25.150  1.00  0.00     0.202 C 
BRANCH  52  53
ATOM     53  C   UNL A   1      38.525  20.827  24.878  1.00  0.00     0.261 C 
BRANCH  53  54
ATOM     54  O   UNL A   1      38.897  21.489  26.116  1.00  0.00    -0.460 OA
BRANCH  54  55
ATOM     55  C   UNL A   1      40.044  21.519  26.857  1.00  0.00     0.338 C 
ATOM     56  O   UNL A   1      40.484  20.603  27.518  1.00  0.00    -0.246 OA
BRANCH  55  57
ATOM     57  C   UNL A   1      40.625  22.914  26.554  1.00  0.00     0.060 A 
ATOM     58  C   UNL A   1      41.778  23.514  25.302  1.00  0.00     0.016 A 
ATOM     59  C   UNL A   1      40.100  24.021  27.810  1.00  0.00     0.016 A 
ATOM     60  C   UNL A   1      42.366  25.244  25.415  1.00  0.00     0.010 A 
ATOM     61  C   UNL A   1      40.665  25.677  27.969  1.00  0.00     0.010 A 
ATOM     62  C   UNL A   1      41.870  26.272  26.905  1.00  0.00    -0.014 A 
BRANCH  62  63
ATOM     63  C   UNL A   1      42.701  27.041  28.093  1.00  0.00     0.031 A 
ATOM     64  C   UNL A   1      43.924  26.268  28.126  1.00  0.00     0.074 A 
ATOM     65  C   UNL A   1      42.431  28.192  28.887  1.00  0.00     0.049 A 
ATOM     66  N   UNL A   1      44.544  25.883  29.184  1.00  0.00    -0.248 NA
ATOM     67  C   UNL A   1      44.412  25.569  26.910  1.00  0.00     0.031 C 
ATOM     68  C   UNL A   1      43.323  29.294  29.322  1.00  0.00     0.029 A 
ATOM     69  N   UNL A   1      41.245  28.743  29.402  1.00  0.00    -0.354 N 
ATOM     70  C   UNL A   1      45.776  25.663  28.626  1.00  0.00     0.074 A 
ATOM     71  C   UNL A   1      45.488  24.967  27.411  1.00  0.00     0.031 C 
ATOM     72  C   UNL A   1      42.690  30.268  30.045  1.00  0.00     0.029 A 
ATOM     73  C   UNL A   1      41.268  29.951  30.134  1.00  0.00     0.049 A 
ATOM     74  H   UNL A   1      40.388  28.281  29.252  1.00  0.00     0.167 HD
ATOM     75  C   UNL A   1      46.673  26.690  28.758  1.00  0.00     0.034 A 
ATOM     76  C   UNL A   1      40.427  30.220  31.197  1.00  0.00     0.034 A 
ATOM     77  C   UNL A   1      46.296  27.688  29.809  1.00  0.00     0.049 A 
ATOM     78  C   UNL A   1      41.162  29.471  32.323  1.00  0.00     0.074 A 
ATOM     79  C   UNL A   1      46.456  29.049  30.013  1.00  0.00     0.029 A 
ATOM     80  N   UNL A   1      45.431  27.291  30.847  1.00  0.00    -0.354 N 
ATOM     81  N   UNL A   1      42.131  28.643  32.010  1.00  0.00    -0.248 NA
ATOM     82  C   UNL A   1      41.100  29.648  33.776  1.00  0.00     0.031 C 
ATOM     83  C   UNL A   1      45.699  29.429  31.187  1.00  0.00     0.029 A 
ATOM     84  C   UNL A   1      45.022  28.314  31.675  1.00  0.00     0.049 A 
ATOM     85  H   UNL A   1      45.142  26.359  30.971  1.00  0.00     0.167 HD
ATOM     86  C   UNL A   1      42.972  28.464  33.046  1.00  0.00     0.074 A 
ATOM     87  C   UNL A   1      42.206  28.973  34.177  1.00  0.00     0.031 C 
ATOM     88  C   UNL A   1      44.248  27.994  32.889  1.00  0.00     0.034 A 
BRANCH  75  89
ATOM     89  C   UNL A   1      47.857  26.791  27.808  1.00  0.00     0.023 A 
ATOM     90  C   UNL A   1      47.672  27.675  26.739  1.00  0.00     0.012 A 
ATOM     91  C   UNL A   1      49.155  26.199  27.924  1.00  0.00     0.148 A 
ATOM     92  C   UNL A   1      48.729  28.055  25.912  1.00  0.00     0.002 A 
ATOM     93  C   UNL A   1      50.233  26.666  27.173  1.00  0.00     0.091 A 
ATOM     94  F   UNL A   1      49.353  25.114  28.683  1.00  0.00    -0.205 F 
ATOM     95  C   UNL A   1      50.017  27.600  26.163  1.00  0.00     0.022 A 
BRANCH  93  96
ATOM     96  S   UNL A   1      51.947  26.199  27.509  1.00  0.00     0.127 S 
ATOM     97  O   UNL A   1      52.058  24.915  26.819  1.00  0.00    -0.237 OA
ATOM     98  O   UNL A   1      52.694  27.292  26.885  1.00  0.00    -0.237 OA
ATOM     99  O   UNL A   1      52.076  26.133  28.959  1.00  0.00    -0.744 OA
ENDBRANCH  93  96
ENDBRANCH  75  89
BRANCH  76 100
ATOM    100  C   UNL A   1      38.905  30.305  30.906  1.00  0.00     0.023 A 
ATOM    101  C   UNL A   1      37.953  29.450  31.525  1.00  0.00     0.012 A 
ATOM    102  C   UNL A   1      38.356  31.511  30.441  1.00  0.00     0.148 A 
ATOM    103  C   UNL A   1      36.588  29.838  31.724  1.00  0.00     0.002 A 
ATOM    104  C   UNL A   1      37.051  31.946  30.737  1.00  0.00     0.091 A 
ATOM    105  F   UNL A   1      39.212  32.411  29.987  1.00  0.00    -0.205 F 
ATOM    106  C   UNL A   1      36.148  31.108  31.366  1.00  0.00     0.022 A 
BRANCH 104 107
ATOM    107  S   UNL A   1      36.611  33.703  30.633  1.00  0.00     0.127 S 
ATOM    108  O   UNL A   1      37.723  34.308  31.329  1.00  0.00    -0.237 OA
ATOM    109  O   UNL A   1      36.690  34.029  29.221  1.00  0.00    -0.237 OA
ATOM    110  O   UNL A   1      35.315  33.807  31.290  1.00  0.00    -0.744 OA
ENDBRANCH 104 107
ENDBRANCH  76 100
BRANCH  88 111
ATOM    111  C   UNL A   1      44.881  27.086  33.909  1.00  0.00     0.023 A 
ATOM    112  C   UNL A   1      45.542  27.595  35.039  1.00  0.00     0.012 A 
ATOM    113  C   UNL A   1      44.656  25.686  33.869  1.00  0.00     0.148 A 
ATOM    114  C   UNL A   1      46.065  26.750  36.015  1.00  0.00     0.002 A 
ATOM    115  C   UNL A   1      45.039  24.871  34.916  1.00  0.00     0.091 A 
ATOM    116  F   UNL A   1      44.096  25.108  32.800  1.00  0.00    -0.205 F 
ATOM    117  C   UNL A   1      45.798  25.389  35.963  1.00  0.00     0.022 A 
BRANCH 115 118
ATOM    118  S   UNL A   1      44.487  23.167  35.017  1.00  0.00     0.127 S 
ATOM    119  O   UNL A   1      43.042  23.322  34.864  1.00  0.00    -0.237 OA
ATOM    120  O   UNL A   1      45.165  22.560  33.870  1.00  0.00    -0.237 OA
ATOM    121  O   UNL A   1      44.938  22.669  36.310  1.00  0.00    -0.744 OA
ENDBRANCH 115 118
ENDBRANCH  88 111
ENDBRANCH  62  63
ENDBRANCH  55  57
ENDBRANCH  54  55
ENDBRANCH  53  54
ENDBRANCH  52  53
ENDBRANCH  51  52
ENDBRANCH  50  51
ENDBRANCH  49  50
ENDBRANCH  48  49
ENDBRANCH   1  48
TORSDOF 29
ENDMDL
MODEL 3
REMARK VINA RESULT:     -11.1      3.809      7.469
REMARK SMILES Cc1ccc(S(=O)(=O)n2cc(C(=O)C(=O)NCC(=O)N[C@H](Cc3c[nH]c4ccccc34)C(=O)OCCOCCOCCOC(=O)c3ccc(-c4c5nc(c(-c6cccc(S(=O)(=O)[O-])c6F)c6ccc([nH]6)c(-c6cccc(S(=O)(=O)[O-])c6F)c6nc(c(-c7cccc(S(=O)(=O)[O-])c7F)c7ccc4[nH]7)C=C6)C=C5)cc3)c3ccccc32)cc1
REMARK SMILES IDX 36 1 35 2 34 3 32 4 33 5 21 6 20 7 18 8 19 9 17 11 16 12
REMARK SMILES IDX 14 13 15 14 12 16 13 17 11 18 9 19 10 20 114 21 109 22
REMARK SMILES IDX 113 23 110 24 112 25 111 26 6 27 7 28 8 29 5 30 1 31 2 32
REMARK SMILES IDX 3 33 116 34 4 35 115 36 22 37 23 38 24 39 31 40 25 41 26 42
REMARK SMILES IDX 30 43 27 45 29 46 28 47 37 48 38 49 39 50 40 51 41 52 42 53
REMARK SMILES IDX 43 54 44 55 45 56 46 57 47 58 108 59 48 60 107 61 49 62
REMARK SMILES IDX 50 63 51 64 101 65 52 66 106 67 100 68 102 69 53 70 105 71
REMARK SMILES IDX 99 72 98 73 54 75 86 76 66 77 85 78 67 79 70 80 84 81 103 82
REMARK SMILES IDX 68 83 69 84 83 86 104 87 71 88 55 89 56 90 64 91 57 92 59 93
REMARK SMILES IDX 65 94 58 95 60 96 61 97 62 98 63 99 87 100 88 101 96 102
REMARK SMILES IDX 89 103 91 104 97 105 90 106 92 107 93 108 94 109 95 110
REMARK SMILES IDX 72 111 73 112 81 113 74 114 76 115 82 116 75 117 77 118
REMARK SMILES IDX 78 119 79 120 80 121
REMARK H PARENT 20 10 16 15 25 44 102 74 70 85
REMARK Flexibility Score: inf
ROOT
ATOM      1  C   UNL A   1      38.136  22.295  26.087  1.00  0.00     0.202 C 
ENDROOT
BRANCH   1   2
ATOM      2  C   UNL A   1      37.416  23.600  25.733  1.00  0.00     0.261 C 
BRANCH   2   3
ATOM      3  O   UNL A   1      36.647  23.962  24.579  1.00  0.00    -0.462 OA
BRANCH   3   4
ATOM      4  C   UNL A   1      36.027  23.376  23.532  1.00  0.00     0.329 C 
ATOM      5  O   UNL A   1      36.681  22.894  22.628  1.00  0.00    -0.250 OA
BRANCH   4   6
ATOM      6  C   UNL A   1      34.280  23.436  23.392  1.00  0.00     0.196 C 
BRANCH   6   7
ATOM      7  N   UNL A   1      33.830  25.058  24.283  1.00  0.00    -0.341 N 
ATOM      8  C   UNL A   1      33.584  26.228  24.872  1.00  0.00     0.240 C 
ATOM      9  O   UNL A   1      32.512  26.120  25.531  1.00  0.00    -0.273 OA
ATOM     10  H   UNL A   1      33.035  24.648  24.694  1.00  0.00     0.164 HD
BRANCH   8  11
ATOM     11  C   UNL A   1      34.082  27.658  24.876  1.00  0.00     0.216 C 
BRANCH  11  12
ATOM     12  N   UNL A   1      33.190  28.685  24.374  1.00  0.00    -0.340 N 
ATOM     13  C   UNL A   1      32.367  29.473  25.158  1.00  0.00     0.292 C 
ATOM     14  O   UNL A   1      31.530  30.234  24.683  1.00  0.00    -0.265 OA
ATOM     15  H   UNL A   1      33.169  28.834  23.401  1.00  0.00     0.164 HD
BRANCH  13  16
ATOM     16  C   UNL A   1      32.593  29.444  26.670  1.00  0.00     0.252 C 
ATOM     17  O   UNL A   1      31.648  28.951  27.301  1.00  0.00    -0.283 OA
BRANCH  16  18
ATOM     18  C   UNL A   1      33.766  30.012  27.373  1.00  0.00     0.054 A 
ATOM     19  N   UNL A   1      35.836  30.516  28.146  1.00  0.00    -0.240 N 
ATOM     20  C   UNL A   1      34.974  29.453  27.850  1.00  0.00     0.117 A 
ATOM     21  C   UNL A   1      35.144  31.716  27.952  1.00  0.00     0.065 A 
ATOM     22  C   UNL A   1      33.822  31.413  27.696  1.00  0.00     0.012 A 
ATOM     23  C   UNL A   1      35.598  33.051  28.013  1.00  0.00     0.028 A 
ATOM     24  C   UNL A   1      32.903  32.490  27.690  1.00  0.00     0.011 A 
ATOM     25  C   UNL A   1      34.685  34.082  28.059  1.00  0.00     0.002 A 
ATOM     26  C   UNL A   1      33.340  33.800  27.944  1.00  0.00     0.001 A 
BRANCH  19  27
ATOM     27  S   UNL A   1      37.233  30.725  29.115  1.00  0.00     0.268 S 
ATOM     28  O   UNL A   1      38.223  30.356  28.097  1.00  0.00    -0.201 OA
ATOM     29  O   UNL A   1      37.065  29.847  30.269  1.00  0.00    -0.201 OA
BRANCH  27  30
ATOM     30  C   UNL A   1      38.125  31.993  29.937  1.00  0.00     0.088 A 
ATOM     31  C   UNL A   1      39.728  34.340  33.211  1.00  0.00     0.044 C 
ATOM     32  C   UNL A   1      39.149  33.604  32.042  1.00  0.00    -0.051 A 
ATOM     33  C   UNL A   1      38.663  32.348  32.333  1.00  0.00     0.005 A 
ATOM     34  C   UNL A   1      39.059  34.081  30.710  1.00  0.00     0.005 A 
ATOM     35  C   UNL A   1      38.175  31.586  31.305  1.00  0.00     0.022 A 
ATOM     36  C   UNL A   1      38.527  33.284  29.643  1.00  0.00     0.022 A 
ENDBRANCH  27  30
ENDBRANCH  19  27
ENDBRANCH  16  18
ENDBRANCH  13  16
ENDBRANCH  11  12
ENDBRANCH   8  11
ENDBRANCH   6   7
BRANCH   6  37
ATOM     37  C   UNL A   1      32.820  21.774  23.363  1.00  0.00     0.074 C 
BRANCH  37  38
ATOM     38  C   UNL A   1      32.504  20.397  24.394  1.00  0.00    -0.020 A 
ATOM     39  C   UNL A   1      32.339  20.372  25.770  1.00  0.00     0.087 A 
ATOM     40  C   UNL A   1      32.571  19.029  23.978  1.00  0.00     0.003 A 
ATOM     41  N   UNL A   1      32.902  19.183  26.173  1.00  0.00    -0.361 N 
ATOM     42  C   UNL A   1      33.107  18.368  25.082  1.00  0.00     0.046 A 
ATOM     43  C   UNL A   1      32.547  18.386  22.727  1.00  0.00     0.010 A 
ATOM     44  H   UNL A   1      33.126  18.950  27.103  1.00  0.00     0.166 HD
ATOM     45  C   UNL A   1      33.800  17.162  24.957  1.00  0.00     0.026 A 
ATOM     46  C   UNL A   1      33.208  17.165  22.592  1.00  0.00     0.001 A 
ATOM     47  C   UNL A   1      33.864  16.591  23.681  1.00  0.00     0.002 A 
ENDBRANCH  37  38
ENDBRANCH   6  37
ENDBRANCH   4   6
ENDBRANCH   3   4
ENDBRANCH   2   3
ENDBRANCH   1   2
BRANCH   1  48
ATOM     48  O   UNL A   1      39.193  21.630  25.425  1.00  0.00    -0.376 OA
BRANCH  48  49
ATOM     49  C   UNL A   1      39.795  20.544  26.082  1.00  0.00     0.188 C 
BRANCH  49  50
ATOM     50  C   UNL A   1      41.175  20.800  26.665  1.00  0.00     0.188 C 
BRANCH  50  51
ATOM     51  O   UNL A   1      42.120  21.115  25.657  1.00  0.00    -0.376 OA
BRANCH  51  52
ATOM     52  C   UNL A   1      42.694  22.407  25.727  1.00  0.00     0.202 C 
BRANCH  52  53
ATOM     53  C   UNL A   1      43.677  22.814  24.592  1.00  0.00     0.261 C 
BRANCH  53  54
ATOM     54  O   UNL A   1      45.019  22.775  25.147  1.00  0.00    -0.460 OA
BRANCH  54  55
ATOM     55  C   UNL A   1      46.013  23.704  25.264  1.00  0.00     0.338 C 
ATOM     56  O   UNL A   1      46.610  24.221  24.344  1.00  0.00    -0.246 OA
BRANCH  55  57
ATOM     57  C   UNL A   1      46.085  23.957  26.782  1.00  0.00     0.060 A 
ATOM     58  C   UNL A   1      45.086  23.377  28.169  1.00  0.00     0.016 A 
ATOM     59  C   UNL A   1      47.328  25.156  27.089  1.00  0.00     0.016 A 
ATOM     60  C   UNL A   1      45.399  24.084  29.828  1.00  0.00     0.010 A 
ATOM     61  C   UNL A   1      47.638  25.881  28.660  1.00  0.00     0.010 A 
ATOM     62  C   UNL A   1      46.635  25.487  29.992  1.00  0.00    -0.014 A 
BRANCH  62  63
ATOM     63  C   UNL A   1      46.542  27.037  30.526  1.00  0.00     0.031 A 
ATOM     64  C   UNL A   1      47.348  26.968  31.727  1.00  0.00     0.074 A 
ATOM     65  C   UNL A   1      45.934  28.215  30.008  1.00  0.00     0.049 A 
ATOM     66  N   UNL A   1      47.066  27.515  32.856  1.00  0.00    -0.248 NA
ATOM     67  C   UNL A   1      48.444  25.974  31.849  1.00  0.00     0.031 C 
ATOM     68  C   UNL A   1      46.420  29.616  29.972  1.00  0.00     0.029 A 
ATOM     69  N   UNL A   1      44.769  28.438  29.252  1.00  0.00    -0.354 N 
ATOM     70  C   UNL A   1      48.326  27.529  33.392  1.00  0.00     0.074 A 
ATOM     71  C   UNL A   1      48.848  26.232  33.090  1.00  0.00     0.031 C 
ATOM     72  C   UNL A   1      45.571  30.482  29.339  1.00  0.00     0.029 A 
ATOM     73  C   UNL A   1      44.425  29.739  28.823  1.00  0.00     0.049 A 
ATOM     74  H   UNL A   1      44.186  27.679  29.021  1.00  0.00     0.167 HD
ATOM     75  C   UNL A   1      49.010  28.709  33.257  1.00  0.00     0.034 A 
ATOM     76  C   UNL A   1      43.124  30.194  28.721  1.00  0.00     0.034 A 
ATOM     77  C   UNL A   1      48.136  29.876  32.912  1.00  0.00     0.049 A 
ATOM     78  C   UNL A   1      42.845  30.556  30.192  1.00  0.00     0.074 A 
ATOM     79  C   UNL A   1      48.258  31.051  32.188  1.00  0.00     0.029 A 
ATOM     80  N   UNL A   1      46.765  29.818  33.231  1.00  0.00    -0.354 N 
ATOM     81  N   UNL A   1      43.686  30.156  31.116  1.00  0.00    -0.248 NA
ATOM     82  C   UNL A   1      41.854  31.466  30.771  1.00  0.00     0.031 C 
ATOM     83  C   UNL A   1      46.958  31.681  32.114  1.00  0.00     0.029 A 
ATOM     84  C   UNL A   1      46.018  30.866  32.739  1.00  0.00     0.049 A 
ATOM     85  H   UNL A   1      46.373  29.089  33.762  1.00  0.00     0.167 HD
ATOM     86  C   UNL A   1      43.604  30.929  32.215  1.00  0.00     0.074 A 
ATOM     87  C   UNL A   1      42.338  31.627  32.027  1.00  0.00     0.031 C 
ATOM     88  C   UNL A   1      44.606  30.998  33.145  1.00  0.00     0.034 A 
BRANCH  75  89
ATOM     89  C   UNL A   1      50.528  28.724  33.354  1.00  0.00     0.023 A 
ATOM     90  C   UNL A   1      51.028  29.109  34.602  1.00  0.00     0.012 A 
ATOM     91  C   UNL A   1      51.494  28.294  32.389  1.00  0.00     0.148 A 
ATOM     92  C   UNL A   1      52.375  28.960  34.930  1.00  0.00     0.002 A 
ATOM     93  C   UNL A   1      52.816  28.037  32.754  1.00  0.00     0.091 A 
ATOM     94  F   UNL A   1      51.186  28.221  31.088  1.00  0.00    -0.205 F 
ATOM     95  C   UNL A   1      53.256  28.371  34.032  1.00  0.00     0.022 A 
BRANCH  93  96
ATOM     96  S   UNL A   1      53.988  27.181  31.677  1.00  0.00     0.127 S 
ATOM     97  O   UNL A   1      54.060  28.078  30.525  1.00  0.00    -0.237 OA
ATOM     98  O   UNL A   1      55.197  27.148  32.500  1.00  0.00    -0.237 OA
ATOM     99  O   UNL A   1      53.411  25.870  31.403  1.00  0.00    -0.744 OA
ENDBRANCH  93  96
ENDBRANCH  75  89
BRANCH  76 100
ATOM    100  C   UNL A   1      42.197  29.496  27.690  1.00  0.00     0.023 A 
ATOM    101  C   UNL A   1      42.432  29.545  26.288  1.00  0.00     0.012 A 
ATOM    102  C   UNL A   1      41.418  28.398  28.090  1.00  0.00     0.148 A 
ATOM    103  C   UNL A   1      41.981  28.516  25.399  1.00  0.00     0.002 A 
ATOM    104  C   UNL A   1      41.076  27.328  27.244  1.00  0.00     0.091 A 
ATOM    105  F   UNL A   1      41.287  28.214  29.393  1.00  0.00    -0.205 F 
ATOM    106  C   UNL A   1      41.338  27.383  25.886  1.00  0.00     0.022 A 
BRANCH 104 107
ATOM    107  S   UNL A   1      40.609  25.715  27.929  1.00  0.00     0.127 S 
ATOM    108  O   UNL A   1      40.424  24.945  26.721  1.00  0.00    -0.237 OA
ATOM    109  O   UNL A   1      41.791  25.244  28.626  1.00  0.00    -0.237 OA
ATOM    110  O   UNL A   1      39.408  25.971  28.712  1.00  0.00    -0.744 OA
ENDBRANCH 104 107
ENDBRANCH  76 100
BRANCH  88 111
ATOM    111  C   UNL A   1      44.305  31.145  34.613  1.00  0.00     0.023 A 
ATOM    112  C   UNL A   1      44.501  30.086  35.515  1.00  0.00     0.012 A 
ATOM    113  C   UNL A   1      44.007  32.417  35.166  1.00  0.00     0.148 A 
ATOM    114  C   UNL A   1      44.288  30.251  36.882  1.00  0.00     0.002 A 
ATOM    115  C   UNL A   1      43.953  32.607  36.532  1.00  0.00     0.091 A 
ATOM    116  F   UNL A   1      43.738  33.465  34.377  1.00  0.00    -0.205 F 
ATOM    117  C   UNL A   1      44.031  31.515  37.393  1.00  0.00     0.022 A 
BRANCH 115 118
ATOM    118  S   UNL A   1      43.888  34.255  37.239  1.00  0.00     0.127 S 
ATOM    119  O   UNL A   1      45.051  34.882  36.616  1.00  0.00    -0.237 OA
ATOM    120  O   UNL A   1      42.595  34.742  36.757  1.00  0.00    -0.237 OA
ATOM    121  O   UNL A   1      43.960  34.080  38.684  1.00  0.00    -0.744 OA
ENDBRANCH 115 118
ENDBRANCH  88 111
ENDBRANCH  62  63
ENDBRANCH  55  57
ENDBRANCH  54  55
ENDBRANCH  53  54
ENDBRANCH  52  53
ENDBRANCH  51  52
ENDBRANCH  50  51
ENDBRANCH  49  50
ENDBRANCH  48  49
ENDBRANCH   1  48
TORSDOF 29
ENDMDL
