MODEL 1
REMARK VINA RESULT:     -10.1      0.000      0.000
REMARK SMILES NS(=O)(=O)c1ccc(-c2cc(Cl)cc3c2O[C@H](C(F)(F)F)C(C(=O)OCCOCCOCCOC(=O)c2ccc(-c4c5nc(c(-c6cccc(S(=O)(=O)[O-])c6F)c6ccc([nH]6)c(-c6cccc(S(=O)(=O)[O-])c6F)c6nc(c(-c7cccc(S(=O)(=O)[O-])c7F)c7ccc4[nH]7)C=C6)C=C5)cc2)=C3)cc1
REMARK SMILES IDX 29 1 28 2 27 3 26 4 25 5 23 6 24 7 22 8 9 9 10 10 15 11
REMARK SMILES IDX 11 12 14 13 16 14 12 15 13 16 100 17 17 18 8 19 5 20 6 21
REMARK SMILES IDX 102 22 7 23 101 24 2 25 3 26 4 27 1 28 18 31 19 32 20 33
REMARK SMILES IDX 21 34 30 35 31 36 32 37 33 38 34 39 35 40 36 41 37 42 38 43
REMARK SMILES IDX 99 44 39 45 98 46 40 47 41 48 42 49 92 50 43 51 97 52 91 53
REMARK SMILES IDX 93 54 44 55 96 56 90 57 89 58 45 60 77 61 57 62 76 63 58 64
REMARK SMILES IDX 61 65 75 66 94 67 59 68 60 69 74 71 95 72 62 73 46 74 47 75
REMARK SMILES IDX 55 76 48 77 50 78 56 79 49 80 51 81 52 82 53 83 54 84 78 85
REMARK SMILES IDX 79 86 87 87 80 88 82 89 88 90 81 91 83 92 84 93 85 94 86 95
REMARK SMILES IDX 63 96 64 97 72 98 65 99 67 100 73 101 66 102 68 103 69 104
REMARK SMILES IDX 70 105 71 106
REMARK H PARENT 1 29 1 30 93 59 61 70
REMARK Flexibility Score: inf
ROOT
ATOM      1  C   UNL A   1      40.026  22.789  27.270  1.00  0.00     0.188 C 
ENDROOT
BRANCH   1   2
ATOM      2  O   UNL A   1      39.000  23.663  26.826  1.00  0.00    -0.376 OA
BRANCH   2   3
ATOM      3  C   UNL A   1      37.943  23.073  26.077  1.00  0.00     0.202 C 
BRANCH   3   4
ATOM      4  C   UNL A   1      36.620  23.844  26.129  1.00  0.00     0.261 C 
BRANCH   4   5
ATOM      5  O   UNL A   1      35.621  23.182  25.315  1.00  0.00    -0.460 OA
BRANCH   5   6
ATOM      6  C   UNL A   1      34.559  22.704  26.000  1.00  0.00     0.338 C 
ATOM      7  O   UNL A   1      34.631  22.009  27.004  1.00  0.00    -0.246 OA
BRANCH   6   8
ATOM      8  C   UNL A   1      33.278  23.250  25.483  1.00  0.00     0.087 C 
ATOM      9  C   UNL A   1      32.297  27.089  24.235  1.00  0.00     0.026 A 
ATOM     10  C   UNL A   1      33.140  27.987  24.924  1.00  0.00     0.033 A 
ATOM     11  C   UNL A   1      32.375  25.756  24.640  1.00  0.00     0.135 A 
ATOM     12  C   UNL A   1      33.900  27.617  26.032  1.00  0.00     0.042 A 
ATOM     13  C   UNL A   1      32.939  25.452  25.895  1.00  0.00     0.019 A 
ATOM     14  O   UNL A   1      32.029  24.674  23.843  1.00  0.00    -0.475 OA
ATOM     15  Cl  UNL A   1      34.999  28.721  26.749  1.00  0.00    -0.084 Cl
ATOM     16  C   UNL A   1      33.738  26.360  26.576  1.00  0.00     0.032 A 
ATOM     17  C   UNL A   1      32.771  24.081  26.409  1.00  0.00     0.027 C 
ATOM     18  C   UNL A   1      33.039  23.579  24.012  1.00  0.00     0.316 C 
BRANCH   9  19
ATOM     19  C   UNL A   1      31.288  27.728  23.359  1.00  0.00    -0.015 A 
ATOM     20  C   UNL A   1      29.339  29.551  22.396  1.00  0.00     0.082 A 
ATOM     21  C   UNL A   1      30.668  29.658  21.981  1.00  0.00     0.022 A 
ATOM     22  C   UNL A   1      28.957  28.513  23.244  1.00  0.00     0.022 A 
ATOM     23  C   UNL A   1      31.628  28.748  22.456  1.00  0.00     0.010 A 
ATOM     24  C   UNL A   1      29.926  27.609  23.712  1.00  0.00     0.010 A 
BRANCH  20  25
ATOM     25  S   UNL A   1      28.163  30.765  21.857  1.00  0.00     0.238 S 
ATOM     26  O   UNL A   1      27.187  30.966  22.898  1.00  0.00    -0.207 OA
ATOM     27  O   UNL A   1      27.830  30.522  20.476  1.00  0.00    -0.207 OA
BRANCH  25  28
ATOM     28  N   UNL A   1      29.049  32.204  21.830  1.00  0.00    -0.225 NA
ATOM     29  H   UNL A   1      28.408  32.997  21.807  1.00  0.00     0.137 HD
ATOM     30  H   UNL A   1      29.642  32.222  21.001  1.00  0.00     0.137 HD
ENDBRANCH  25  28
ENDBRANCH  20  25
ENDBRANCH   9  19
BRANCH  18  31
ATOM     31  C   UNL A   1      32.618  22.309  23.265  1.00  0.00     0.430 C 
ATOM     32  F   UNL A   1      33.503  21.957  22.306  1.00  0.00    -0.167 F 
ATOM     33  F   UNL A   1      32.473  21.258  24.104  1.00  0.00    -0.167 F 
ATOM     34  F   UNL A   1      31.418  22.484  22.653  1.00  0.00    -0.167 F 
ENDBRANCH  18  31
ENDBRANCH   6   8
ENDBRANCH   5   6
ENDBRANCH   4   5
ENDBRANCH   3   4
ENDBRANCH   2   3
ENDBRANCH   1   2
BRANCH   1  35
ATOM     35  C   UNL A   1      40.312  21.593  26.335  1.00  0.00     0.188 C 
BRANCH  35  36
ATOM     36  O   UNL A   1      41.476  21.591  25.516  1.00  0.00    -0.376 OA
BRANCH  36  37
ATOM     37  C   UNL A   1      42.700  21.089  26.037  1.00  0.00     0.202 C 
BRANCH  37  38
ATOM     38  C   UNL A   1      44.003  21.536  25.369  1.00  0.00     0.261 C 
BRANCH  38  39
ATOM     39  O   UNL A   1      44.739  22.510  26.131  1.00  0.00    -0.460 OA
BRANCH  39  40
ATOM     40  C   UNL A   1      44.958  23.686  25.495  1.00  0.00     0.338 C 
ATOM     41  O   UNL A   1      45.315  23.835  24.338  1.00  0.00    -0.246 OA
BRANCH  40  42
ATOM     42  C   UNL A   1      44.532  24.826  26.334  1.00  0.00     0.060 A 
ATOM     43  C   UNL A   1      43.909  25.895  25.683  1.00  0.00     0.016 A 
ATOM     44  C   UNL A   1      44.834  24.910  27.696  1.00  0.00     0.016 A 
ATOM     45  C   UNL A   1      43.641  27.071  26.380  1.00  0.00     0.010 A 
ATOM     46  C   UNL A   1      44.566  26.100  28.394  1.00  0.00     0.010 A 
ATOM     47  C   UNL A   1      43.995  27.199  27.732  1.00  0.00    -0.014 A 
BRANCH  47  48
ATOM     48  C   UNL A   1      43.952  28.558  28.339  1.00  0.00     0.031 A 
ATOM     49  C   UNL A   1      45.162  29.432  28.187  1.00  0.00     0.074 A 
ATOM     50  C   UNL A   1      42.861  29.029  28.972  1.00  0.00     0.049 A 
ATOM     51  N   UNL A   1      45.310  30.697  28.474  1.00  0.00    -0.248 NA
ATOM     52  C   UNL A   1      46.377  28.782  27.665  1.00  0.00     0.031 C 
ATOM     53  C   UNL A   1      41.677  28.238  29.268  1.00  0.00     0.029 A 
ATOM     54  N   UNL A   1      42.551  30.280  29.453  1.00  0.00    -0.354 N 
ATOM     55  C   UNL A   1      46.651  30.976  28.244  1.00  0.00     0.074 A 
ATOM     56  C   UNL A   1      47.260  29.766  27.738  1.00  0.00     0.031 C 
ATOM     57  C   UNL A   1      40.728  29.037  29.785  1.00  0.00     0.029 A 
ATOM     58  C   UNL A   1      41.249  30.396  29.900  1.00  0.00     0.049 A 
ATOM     59  H   UNL A   1      43.197  31.023  29.477  1.00  0.00     0.167 HD
ATOM     60  C   UNL A   1      47.323  32.126  28.476  1.00  0.00     0.034 A 
ATOM     61  C   UNL A   1      40.558  31.478  30.326  1.00  0.00     0.034 A 
ATOM     62  C   UNL A   1      46.713  33.321  28.990  1.00  0.00     0.049 A 
ATOM     63  C   UNL A   1      41.294  32.801  30.399  1.00  0.00     0.074 A 
ATOM     64  C   UNL A   1      47.308  34.534  29.280  1.00  0.00     0.029 A 
ATOM     65  N   UNL A   1      45.366  33.450  29.299  1.00  0.00    -0.354 N 
ATOM     66  N   UNL A   1      42.531  33.083  30.055  1.00  0.00    -0.248 NA
ATOM     67  C   UNL A   1      40.546  33.955  30.924  1.00  0.00     0.031 C 
ATOM     68  C   UNL A   1      46.325  35.392  29.784  1.00  0.00     0.029 A 
ATOM     69  C   UNL A   1      45.111  34.721  29.782  1.00  0.00     0.049 A 
ATOM     70  H   UNL A   1      44.693  32.741  29.192  1.00  0.00     0.167 HD
ATOM     71  C   UNL A   1      42.700  34.444  30.300  1.00  0.00     0.074 A 
ATOM     72  C   UNL A   1      41.426  34.939  30.780  1.00  0.00     0.031 C 
ATOM     73  C   UNL A   1      43.816  35.210  30.186  1.00  0.00     0.034 A 
BRANCH  60  74
ATOM     74  C   UNL A   1      48.804  32.122  28.215  1.00  0.00     0.023 A 
ATOM     75  C   UNL A   1      49.690  31.630  29.194  1.00  0.00     0.012 A 
ATOM     76  C   UNL A   1      49.317  32.605  26.995  1.00  0.00     0.148 A 
ATOM     77  C   UNL A   1      51.068  31.650  28.975  1.00  0.00     0.002 A 
ATOM     78  C   UNL A   1      50.686  32.583  26.767  1.00  0.00     0.091 A 
ATOM     79  F   UNL A   1      48.459  33.100  26.092  1.00  0.00    -0.205 F 
ATOM     80  C   UNL A   1      51.564  32.116  27.759  1.00  0.00     0.022 A 
BRANCH  78  81
ATOM     81  S   UNL A   1      51.415  33.105  25.211  1.00  0.00     0.127 S 
ATOM     82  O   UNL A   1      52.742  33.542  25.637  1.00  0.00    -0.237 OA
ATOM     83  O   UNL A   1      51.402  31.865  24.433  1.00  0.00    -0.237 OA
ATOM     84  O   UNL A   1      50.546  34.153  24.693  1.00  0.00    -0.744 OA
ENDBRANCH  78  81
ENDBRANCH  60  74
BRANCH  61  85
ATOM     85  C   UNL A   1      39.081  31.397  30.605  1.00  0.00     0.023 A 
ATOM     86  C   UNL A   1      38.642  30.777  31.794  1.00  0.00     0.012 A 
ATOM     87  C   UNL A   1      38.101  31.940  29.752  1.00  0.00     0.148 A 
ATOM     88  C   UNL A   1      37.289  30.682  32.126  1.00  0.00     0.002 A 
ATOM     89  C   UNL A   1      36.753  31.898  30.114  1.00  0.00     0.091 A 
ATOM     90  F   UNL A   1      38.495  32.493  28.596  1.00  0.00    -0.205 F 
ATOM     91  C   UNL A   1      36.343  31.257  31.292  1.00  0.00     0.022 A 
BRANCH  89  92
ATOM     92  S   UNL A   1      35.480  32.746  29.170  1.00  0.00     0.127 S 
ATOM     93  O   UNL A   1      35.541  32.051  27.888  1.00  0.00    -0.237 OA
ATOM     94  O   UNL A   1      34.276  32.474  29.959  1.00  0.00    -0.237 OA
ATOM     95  O   UNL A   1      35.881  34.147  29.162  1.00  0.00    -0.744 OA
ENDBRANCH  89  92
ENDBRANCH  61  85
BRANCH  73  96
ATOM     96  C   UNL A   1      43.731  36.663  30.592  1.00  0.00     0.023 A 
ATOM     97  C   UNL A   1      44.042  37.030  31.918  1.00  0.00     0.012 A 
ATOM     98  C   UNL A   1      43.470  37.671  29.643  1.00  0.00     0.148 A 
ATOM     99  C   UNL A   1      44.062  38.371  32.300  1.00  0.00     0.002 A 
ATOM    100  C   UNL A   1      43.542  39.010  30.020  1.00  0.00     0.091 A 
ATOM    101  F   UNL A   1      43.165  37.311  28.388  1.00  0.00    -0.205 F 
ATOM    102  C   UNL A   1      43.826  39.360  31.349  1.00  0.00     0.022 A 
BRANCH 100 103
ATOM    103  S   UNL A   1      43.361  40.349  28.833  1.00  0.00     0.127 S 
ATOM    104  O   UNL A   1      44.366  39.999  27.830  1.00  0.00    -0.237 OA
ATOM    105  O   UNL A   1      41.976  40.191  28.387  1.00  0.00    -0.237 OA
ATOM    106  O   UNL A   1      43.614  41.575  29.578  1.00  0.00    -0.744 OA
ENDBRANCH 100 103
ENDBRANCH  73  96
ENDBRANCH  47  48
ENDBRANCH  40  42
ENDBRANCH  39  40
ENDBRANCH  38  39
ENDBRANCH  37  38
ENDBRANCH  36  37
ENDBRANCH  35  36
ENDBRANCH   1  35
TORSDOF 24
ENDMDL
MODEL 2
REMARK VINA RESULT:     -10.1      6.266     11.187
REMARK SMILES NS(=O)(=O)c1ccc(-c2cc(Cl)cc3c2O[C@H](C(F)(F)F)C(C(=O)OCCOCCOCCOC(=O)c2ccc(-c4c5nc(c(-c6cccc(S(=O)(=O)[O-])c6F)c6ccc([nH]6)c(-c6cccc(S(=O)(=O)[O-])c6F)c6nc(c(-c7cccc(S(=O)(=O)[O-])c7F)c7ccc4[nH]7)C=C6)C=C5)cc2)=C3)cc1
REMARK SMILES IDX 29 1 28 2 27 3 26 4 25 5 23 6 24 7 22 8 9 9 10 10 15 11
REMARK SMILES IDX 11 12 14 13 16 14 12 15 13 16 100 17 17 18 8 19 5 20 6 21
REMARK SMILES IDX 102 22 7 23 101 24 2 25 3 26 4 27 1 28 18 31 19 32 20 33
REMARK SMILES IDX 21 34 30 35 31 36 32 37 33 38 34 39 35 40 36 41 37 42 38 43
REMARK SMILES IDX 99 44 39 45 98 46 40 47 41 48 42 49 92 50 43 51 97 52 91 53
REMARK SMILES IDX 93 54 44 55 96 56 90 57 89 58 45 60 77 61 57 62 76 63 58 64
REMARK SMILES IDX 61 65 75 66 94 67 59 68 60 69 74 71 95 72 62 73 46 74 47 75
REMARK SMILES IDX 55 76 48 77 50 78 56 79 49 80 51 81 52 82 53 83 54 84 78 85
REMARK SMILES IDX 79 86 87 87 80 88 82 89 88 90 81 91 83 92 84 93 85 94 86 95
REMARK SMILES IDX 63 96 64 97 72 98 65 99 67 100 73 101 66 102 68 103 69 104
REMARK SMILES IDX 70 105 71 106
REMARK H PARENT 1 29 1 30 93 59 61 70
REMARK Flexibility Score: inf
ROOT
ATOM      1  C   UNL A   1      34.630  31.072  27.575  1.00  0.00     0.188 C 
ENDROOT
BRANCH   1   2
ATOM      2  O   UNL A   1      33.216  31.116  27.476  1.00  0.00    -0.376 OA
BRANCH   2   3
ATOM      3  C   UNL A   1      32.573  29.929  27.025  1.00  0.00     0.202 C 
BRANCH   3   4
ATOM      4  C   UNL A   1      33.513  28.895  26.398  1.00  0.00     0.261 C 
BRANCH   4   5
ATOM      5  O   UNL A   1      32.750  27.810  25.815  1.00  0.00    -0.460 OA
BRANCH   5   6
ATOM      6  C   UNL A   1      32.849  27.707  24.471  1.00  0.00     0.338 C 
ATOM      7  O   UNL A   1      33.343  28.555  23.740  1.00  0.00    -0.246 OA
BRANCH   6   8
ATOM      8  C   UNL A   1      32.428  26.368  23.988  1.00  0.00     0.087 C 
ATOM      9  C   UNL A   1      33.686  22.577  25.128  1.00  0.00     0.026 A 
ATOM     10  C   UNL A   1      35.010  22.695  25.602  1.00  0.00     0.033 A 
ATOM     11  C   UNL A   1      33.146  23.728  24.553  1.00  0.00     0.135 A 
ATOM     12  C   UNL A   1      35.793  23.828  25.394  1.00  0.00     0.042 A 
ATOM     13  C   UNL A   1      34.013  24.755  24.129  1.00  0.00     0.019 A 
ATOM     14  O   UNL A   1      31.787  23.993  24.459  1.00  0.00    -0.475 OA
ATOM     15  Cl  UNL A   1      37.349  23.960  26.103  1.00  0.00    -0.084 Cl
ATOM     16  C   UNL A   1      35.324  24.837  24.580  1.00  0.00     0.032 A 
ATOM     17  C   UNL A   1      33.447  25.830  23.296  1.00  0.00     0.027 C 
ATOM     18  C   UNL A   1      31.529  25.431  24.790  1.00  0.00     0.316 C 
BRANCH   9  19
ATOM     19  C   UNL A   1      33.158  21.194  25.089  1.00  0.00    -0.015 A 
ATOM     20  C   UNL A   1      33.036  18.374  24.791  1.00  0.00     0.082 A 
ATOM     21  C   UNL A   1      33.179  18.942  26.059  1.00  0.00     0.022 A 
ATOM     22  C   UNL A   1      32.898  19.196  23.673  1.00  0.00     0.022 A 
ATOM     23  C   UNL A   1      33.232  20.339  26.201  1.00  0.00     0.010 A 
ATOM     24  C   UNL A   1      32.953  20.592  23.828  1.00  0.00     0.010 A 
BRANCH  20  25
ATOM     25  S   UNL A   1      33.064  16.609  24.624  1.00  0.00     0.238 S 
ATOM     26  O   UNL A   1      33.269  16.272  23.238  1.00  0.00    -0.207 OA
ATOM     27  O   UNL A   1      32.027  16.038  25.447  1.00  0.00    -0.207 OA
BRANCH  25  28
ATOM     28  N   UNL A   1      34.503  16.152  25.383  1.00  0.00    -0.225 NA
ATOM     29  H   UNL A   1      35.259  16.138  24.699  1.00  0.00     0.137 HD
ATOM     30  H   UNL A   1      34.393  15.222  25.787  1.00  0.00     0.137 HD
ENDBRANCH  25  28
ENDBRANCH  20  25
ENDBRANCH   9  19
BRANCH  18  31
ATOM     31  C   UNL A   1      30.061  25.804  24.555  1.00  0.00     0.430 C 
ATOM     32  F   UNL A   1      29.527  25.156  23.496  1.00  0.00    -0.167 F 
ATOM     33  F   UNL A   1      29.295  25.535  25.637  1.00  0.00    -0.167 F 
ATOM     34  F   UNL A   1      29.933  27.134  24.311  1.00  0.00    -0.167 F 
ENDBRANCH  18  31
ENDBRANCH   6   8
ENDBRANCH   5   6
ENDBRANCH   4   5
ENDBRANCH   3   4
ENDBRANCH   2   3
ENDBRANCH   1   2
BRANCH   1  35
ATOM     35  C   UNL A   1      35.292  32.388  28.041  1.00  0.00     0.188 C 
BRANCH  35  36
ATOM     36  O   UNL A   1      34.581  33.280  28.893  1.00  0.00    -0.376 OA
BRANCH  36  37
ATOM     37  C   UNL A   1      34.323  34.609  28.457  1.00  0.00     0.202 C 
BRANCH  37  38
ATOM     38  C   UNL A   1      33.225  35.400  29.174  1.00  0.00     0.261 C 
BRANCH  38  39
ATOM     39  O   UNL A   1      33.651  35.981  30.420  1.00  0.00    -0.460 OA
BRANCH  39  40
ATOM     40  C   UNL A   1      33.223  35.331  31.528  1.00  0.00     0.338 C 
ATOM     41  O   UNL A   1      32.066  35.152  31.870  1.00  0.00    -0.246 OA
BRANCH  40  42
ATOM     42  C   UNL A   1      34.352  34.677  32.223  1.00  0.00     0.060 A 
ATOM     43  C   UNL A   1      35.456  35.477  32.531  1.00  0.00     0.016 A 
ATOM     44  C   UNL A   1      34.391  33.300  32.464  1.00  0.00     0.016 A 
ATOM     45  C   UNL A   1      36.621  34.893  33.025  1.00  0.00     0.010 A 
ATOM     46  C   UNL A   1      35.569  32.715  32.958  1.00  0.00     0.010 A 
ATOM     47  C   UNL A   1      36.701  33.504  33.213  1.00  0.00    -0.014 A 
BRANCH  47  48
ATOM     48  C   UNL A   1      38.045  32.911  33.462  1.00  0.00     0.031 A 
ATOM     49  C   UNL A   1      38.607  33.006  34.849  1.00  0.00     0.074 A 
ATOM     50  C   UNL A   1      38.735  32.268  32.501  1.00  0.00     0.049 A 
ATOM     51  N   UNL A   1      39.665  32.431  35.354  1.00  0.00    -0.248 NA
ATOM     52  C   UNL A   1      37.893  33.891  35.785  1.00  0.00     0.031 C 
ATOM     53  C   UNL A   1      38.338  32.206  31.104  1.00  0.00     0.029 A 
ATOM     54  N   UNL A   1      39.891  31.523  32.548  1.00  0.00    -0.354 N 
ATOM     55  C   UNL A   1      39.791  32.943  36.638  1.00  0.00     0.074 A 
ATOM     56  C   UNL A   1      38.669  33.829  36.857  1.00  0.00     0.031 C 
ATOM     57  C   UNL A   1      39.169  31.383  30.442  1.00  0.00     0.029 A 
ATOM     58  C   UNL A   1      40.192  30.889  31.359  1.00  0.00     0.049 A 
ATOM     59  H   UNL A   1      40.451  31.449  33.355  1.00  0.00     0.167 HD
ATOM     60  C   UNL A   1      40.776  32.728  37.538  1.00  0.00     0.034 A 
ATOM     61  C   UNL A   1      41.162  29.995  31.058  1.00  0.00     0.034 A 
ATOM     62  C   UNL A   1      41.894  31.855  37.309  1.00  0.00     0.049 A 
ATOM     63  C   UNL A   1      42.148  29.631  32.151  1.00  0.00     0.074 A 
ATOM     64  C   UNL A   1      42.958  31.583  38.147  1.00  0.00     0.029 A 
ATOM     65  N   UNL A   1      42.096  31.119  36.150  1.00  0.00    -0.354 N 
ATOM     66  N   UNL A   1      42.180  30.025  33.404  1.00  0.00    -0.248 NA
ATOM     67  C   UNL A   1      43.235  28.707  31.790  1.00  0.00     0.031 C 
ATOM     68  C   UNL A   1      43.815  30.696  37.488  1.00  0.00     0.029 A 
ATOM     69  C   UNL A   1      43.270  30.394  36.249  1.00  0.00     0.049 A 
ATOM     70  H   UNL A   1      41.492  31.114  35.373  1.00  0.00     0.167 HD
ATOM     71  C   UNL A   1      43.272  29.380  33.984  1.00  0.00     0.074 A 
ATOM     72  C   UNL A   1      43.848  28.538  32.955  1.00  0.00     0.031 C 
ATOM     73  C   UNL A   1      43.784  29.507  35.235  1.00  0.00     0.034 A 
BRANCH  60  74
ATOM     74  C   UNL A   1      40.704  33.490  38.833  1.00  0.00     0.023 A 
ATOM     75  C   UNL A   1      40.054  32.923  39.948  1.00  0.00     0.012 A 
ATOM     76  C   UNL A   1      41.283  34.768  38.944  1.00  0.00     0.148 A 
ATOM     77  C   UNL A   1      39.954  33.633  41.145  1.00  0.00     0.002 A 
ATOM     78  C   UNL A   1      41.216  35.452  40.151  1.00  0.00     0.091 A 
ATOM     79  F   UNL A   1      41.866  35.303  37.862  1.00  0.00    -0.205 F 
ATOM     80  C   UNL A   1      40.543  34.892  41.249  1.00  0.00     0.022 A 
BRANCH  78  81
ATOM     81  S   UNL A   1      41.996  37.051  40.400  1.00  0.00     0.127 S 
ATOM     82  O   UNL A   1      41.914  37.632  39.061  1.00  0.00    -0.237 OA
ATOM     83  O   UNL A   1      41.116  37.673  41.390  1.00  0.00    -0.237 OA
ATOM     84  O   UNL A   1      43.342  36.770  40.879  1.00  0.00    -0.744 OA
ENDBRANCH  78  81
ENDBRANCH  60  74
BRANCH  61  85
ATOM     85  C   UNL A   1      41.192  29.299  29.724  1.00  0.00     0.023 A 
ATOM     86  C   UNL A   1      41.847  29.924  28.640  1.00  0.00     0.012 A 
ATOM     87  C   UNL A   1      40.626  28.030  29.499  1.00  0.00     0.148 A 
ATOM     88  C   UNL A   1      41.930  29.329  27.380  1.00  0.00     0.002 A 
ATOM     89  C   UNL A   1      40.762  27.409  28.256  1.00  0.00     0.091 A 
ATOM     90  F   UNL A   1      39.961  27.441  30.504  1.00  0.00    -0.205 F 
ATOM     91  C   UNL A   1      41.399  28.062  27.191  1.00  0.00     0.022 A 
BRANCH  89  92
ATOM     92  S   UNL A   1      40.238  25.714  27.968  1.00  0.00     0.127 S 
ATOM     93  O   UNL A   1      41.250  24.957  28.698  1.00  0.00    -0.237 OA
ATOM     94  O   UNL A   1      38.904  25.697  28.572  1.00  0.00    -0.237 OA
ATOM     95  O   UNL A   1      40.236  25.557  26.520  1.00  0.00    -0.744 OA
ENDBRANCH  89  92
ENDBRANCH  61  85
BRANCH  73  96
ATOM     96  C   UNL A   1      45.035  28.731  35.578  1.00  0.00     0.023 A 
ATOM     97  C   UNL A   1      46.295  29.336  35.397  1.00  0.00     0.012 A 
ATOM     98  C   UNL A   1      44.963  27.464  36.191  1.00  0.00     0.148 A 
ATOM     99  C   UNL A   1      47.464  28.682  35.789  1.00  0.00     0.002 A 
ATOM    100  C   UNL A   1      46.129  26.839  36.625  1.00  0.00     0.091 A 
ATOM    101  F   UNL A   1      43.760  26.892  36.348  1.00  0.00    -0.205 F 
ATOM    102  C   UNL A   1      47.379  27.441  36.414  1.00  0.00     0.022 A 
BRANCH 100 103
ATOM    103  S   UNL A   1      46.101  25.291  37.540  1.00  0.00     0.127 S 
ATOM    104  O   UNL A   1      47.477  25.202  38.023  1.00  0.00    -0.237 OA
ATOM    105  O   UNL A   1      45.106  25.558  38.581  1.00  0.00    -0.237 OA
ATOM    106  O   UNL A   1      45.701  24.271  36.579  1.00  0.00    -0.744 OA
ENDBRANCH 100 103
ENDBRANCH  73  96
ENDBRANCH  47  48
ENDBRANCH  40  42
ENDBRANCH  39  40
ENDBRANCH  38  39
ENDBRANCH  37  38
ENDBRANCH  36  37
ENDBRANCH  35  36
ENDBRANCH   1  35
TORSDOF 24
ENDMDL
MODEL 3
REMARK VINA RESULT:      -9.7      5.392     10.892
REMARK SMILES NS(=O)(=O)c1ccc(-c2cc(Cl)cc3c2O[C@H](C(F)(F)F)C(C(=O)OCCOCCOCCOC(=O)c2ccc(-c4c5nc(c(-c6cccc(S(=O)(=O)[O-])c6F)c6ccc([nH]6)c(-c6cccc(S(=O)(=O)[O-])c6F)c6nc(c(-c7cccc(S(=O)(=O)[O-])c7F)c7ccc4[nH]7)C=C6)C=C5)cc2)=C3)cc1
REMARK SMILES IDX 29 1 28 2 27 3 26 4 25 5 23 6 24 7 22 8 9 9 10 10 15 11
REMARK SMILES IDX 11 12 14 13 16 14 12 15 13 16 100 17 17 18 8 19 5 20 6 21
REMARK SMILES IDX 102 22 7 23 101 24 2 25 3 26 4 27 1 28 18 31 19 32 20 33
REMARK SMILES IDX 21 34 30 35 31 36 32 37 33 38 34 39 35 40 36 41 37 42 38 43
REMARK SMILES IDX 99 44 39 45 98 46 40 47 41 48 42 49 92 50 43 51 97 52 91 53
REMARK SMILES IDX 93 54 44 55 96 56 90 57 89 58 45 60 77 61 57 62 76 63 58 64
REMARK SMILES IDX 61 65 75 66 94 67 59 68 60 69 74 71 95 72 62 73 46 74 47 75
REMARK SMILES IDX 55 76 48 77 50 78 56 79 49 80 51 81 52 82 53 83 54 84 78 85
REMARK SMILES IDX 79 86 87 87 80 88 82 89 88 90 81 91 83 92 84 93 85 94 86 95
REMARK SMILES IDX 63 96 64 97 72 98 65 99 67 100 73 101 66 102 68 103 69 104
REMARK SMILES IDX 70 105 71 106
REMARK H PARENT 1 29 1 30 93 59 61 70
REMARK Flexibility Score: inf
ROOT
ATOM      1  C   UNL A   1      47.281  32.298  26.887  1.00  0.00     0.188 C 
ENDROOT
BRANCH   1   2
ATOM      2  O   UNL A   1      46.253  32.055  25.941  1.00  0.00    -0.376 OA
BRANCH   2   3
ATOM      3  C   UNL A   1      44.915  32.180  26.409  1.00  0.00     0.202 C 
BRANCH   3   4
ATOM      4  C   UNL A   1      44.437  31.021  27.290  1.00  0.00     0.261 C 
BRANCH   4   5
ATOM      5  O   UNL A   1      43.390  30.279  26.619  1.00  0.00    -0.460 OA
BRANCH   5   6
ATOM      6  C   UNL A   1      42.692  29.439  27.416  1.00  0.00     0.338 C 
ATOM      7  O   UNL A   1      42.365  29.682  28.570  1.00  0.00    -0.246 OA
BRANCH   6   8
ATOM      8  C   UNL A   1      42.227  28.238  26.678  1.00  0.00     0.087 C 
ATOM      9  C   UNL A   1      44.320  24.885  25.401  1.00  0.00     0.026 A 
ATOM     10  C   UNL A   1      45.662  25.273  25.202  1.00  0.00     0.033 A 
ATOM     11  C   UNL A   1      43.427  25.919  25.684  1.00  0.00     0.135 A 
ATOM     12  C   UNL A   1      46.067  26.605  25.146  1.00  0.00     0.042 A 
ATOM     13  C   UNL A   1      43.794  27.245  25.377  1.00  0.00     0.019 A 
ATOM     14  O   UNL A   1      42.224  25.754  26.355  1.00  0.00    -0.475 OA
ATOM     15  Cl  UNL A   1      47.729  27.012  25.029  1.00  0.00    -0.084 Cl
ATOM     16  C   UNL A   1      45.116  27.604  25.151  1.00  0.00     0.032 A 
ATOM     17  C   UNL A   1      42.745  28.278  25.439  1.00  0.00     0.027 C 
ATOM     18  C   UNL A   1      42.033  26.873  27.333  1.00  0.00     0.316 C 
BRANCH   9  19
ATOM     19  C   UNL A   1      44.018  23.481  25.041  1.00  0.00    -0.015 A 
ATOM     20  C   UNL A   1      44.186  20.651  24.892  1.00  0.00     0.082 A 
ATOM     21  C   UNL A   1      43.307  21.257  25.793  1.00  0.00     0.022 A 
ATOM     22  C   UNL A   1      44.944  21.437  24.026  1.00  0.00     0.022 A 
ATOM     23  C   UNL A   1      43.223  22.659  25.857  1.00  0.00     0.010 A 
ATOM     24  C   UNL A   1      44.851  22.838  24.100  1.00  0.00     0.010 A 
BRANCH  20  25
ATOM     25  S   UNL A   1      44.344  18.885  24.892  1.00  0.00     0.238 S 
ATOM     26  O   UNL A   1      44.879  18.463  23.623  1.00  0.00    -0.207 OA
ATOM     27  O   UNL A   1      43.176  18.305  25.507  1.00  0.00    -0.207 OA
BRANCH  25  28
ATOM     28  N   UNL A   1      45.591  18.589  25.992  1.00  0.00    -0.225 NA
ATOM     29  H   UNL A   1      45.943  17.640  25.860  1.00  0.00     0.137 HD
ATOM     30  H   UNL A   1      45.236  18.689  26.944  1.00  0.00     0.137 HD
ENDBRANCH  25  28
ENDBRANCH  20  25
ENDBRANCH   9  19
BRANCH  18  31
ATOM     31  C   UNL A   1      40.650  26.812  27.990  1.00  0.00     0.430 C 
ATOM     32  F   UNL A   1      40.176  25.550  28.079  1.00  0.00    -0.167 F 
ATOM     33  F   UNL A   1      40.662  27.340  29.235  1.00  0.00    -0.167 F 
ATOM     34  F   UNL A   1      39.743  27.527  27.275  1.00  0.00    -0.167 F 
ENDBRANCH  18  31
ENDBRANCH   6   8
ENDBRANCH   5   6
ENDBRANCH   4   5
ENDBRANCH   3   4
ENDBRANCH   2   3
ENDBRANCH   1   2
BRANCH   1  35
ATOM     35  C   UNL A   1      48.291  33.395  26.485  1.00  0.00     0.188 C 
BRANCH  35  36
ATOM     36  O   UNL A   1      49.667  33.072  26.318  1.00  0.00    -0.376 OA
BRANCH  36  37
ATOM     37  C   UNL A   1      50.654  34.077  26.516  1.00  0.00     0.202 C 
BRANCH  37  38
ATOM     38  C   UNL A   1      51.980  33.665  27.160  1.00  0.00     0.261 C 
BRANCH  38  39
ATOM     39  O   UNL A   1      52.087  34.032  28.548  1.00  0.00    -0.460 OA
BRANCH  39  40
ATOM     40  C   UNL A   1      52.127  32.989  29.412  1.00  0.00     0.338 C 
ATOM     41  O   UNL A   1      53.119  32.381  29.778  1.00  0.00    -0.246 OA
BRANCH  40  42
ATOM     42  C   UNL A   1      50.803  32.767  30.029  1.00  0.00     0.060 A 
ATOM     43  C   UNL A   1      50.033  31.718  29.518  1.00  0.00     0.016 A 
ATOM     44  C   UNL A   1      50.271  33.625  30.997  1.00  0.00     0.016 A 
ATOM     45  C   UNL A   1      48.711  31.562  29.931  1.00  0.00     0.010 A 
ATOM     46  C   UNL A   1      48.935  33.466  31.406  1.00  0.00     0.010 A 
ATOM     47  C   UNL A   1      48.139  32.452  30.853  1.00  0.00    -0.014 A 
BRANCH  47  48
ATOM     48  C   UNL A   1      46.661  32.414  31.033  1.00  0.00     0.031 A 
ATOM     49  C   UNL A   1      45.843  33.464  30.339  1.00  0.00     0.074 A 
ATOM     50  C   UNL A   1      46.049  31.457  31.755  1.00  0.00     0.049 A 
ATOM     51  N   UNL A   1      44.547  33.547  30.203  1.00  0.00    -0.248 NA
ATOM     52  C   UNL A   1      46.589  34.584  29.741  1.00  0.00     0.031 C 
ATOM     53  C   UNL A   1      46.742  30.458  32.551  1.00  0.00     0.029 A 
ATOM     54  N   UNL A   1      44.719  31.143  31.918  1.00  0.00    -0.354 N 
ATOM     55  C   UNL A   1      44.316  34.764  29.576  1.00  0.00     0.074 A 
ATOM     56  C   UNL A   1      45.606  35.358  29.305  1.00  0.00     0.031 C 
ATOM     57  C   UNL A   1      45.849  29.578  33.036  1.00  0.00     0.029 A 
ATOM     58  C   UNL A   1      44.506  29.974  32.622  1.00  0.00     0.049 A 
ATOM     59  H   UNL A   1      43.987  31.700  31.565  1.00  0.00     0.167 HD
ATOM     60  C   UNL A   1      43.133  35.354  29.292  1.00  0.00     0.034 A 
ATOM     61  C   UNL A   1      43.364  29.295  32.877  1.00  0.00     0.034 A 
ATOM     62  C   UNL A   1      41.855  34.762  29.575  1.00  0.00     0.049 A 
ATOM     63  C   UNL A   1      42.063  29.893  32.379  1.00  0.00     0.074 A 
ATOM     64  C   UNL A   1      40.596  35.284  29.346  1.00  0.00     0.029 A 
ATOM     65  N   UNL A   1      41.673  33.517  30.160  1.00  0.00    -0.354 N 
ATOM     66  N   UNL A   1      41.867  30.983  31.672  1.00  0.00    -0.248 NA
ATOM     67  C   UNL A   1      40.824  29.175  32.719  1.00  0.00     0.031 C 
ATOM     68  C   UNL A   1      39.652  34.363  29.810  1.00  0.00     0.029 A 
ATOM     69  C   UNL A   1      40.323  33.254  30.304  1.00  0.00     0.049 A 
ATOM     70  H   UNL A   1      42.399  32.911  30.433  1.00  0.00     0.167 HD
ATOM     71  C   UNL A   1      40.491  31.067  31.465  1.00  0.00     0.074 A 
ATOM     72  C   UNL A   1      39.908  29.895  32.084  1.00  0.00     0.031 C 
ATOM     73  C   UNL A   1      39.768  32.045  30.861  1.00  0.00     0.034 A 
BRANCH  60  74
ATOM     74  C   UNL A   1      43.178  36.727  28.682  1.00  0.00     0.023 A 
ATOM     75  C   UNL A   1      43.030  36.886  27.290  1.00  0.00     0.012 A 
ATOM     76  C   UNL A   1      43.365  37.864  29.493  1.00  0.00     0.148 A 
ATOM     77  C   UNL A   1      43.101  38.153  26.710  1.00  0.00     0.002 A 
ATOM     78  C   UNL A   1      43.393  39.126  28.914  1.00  0.00     0.091 A 
ATOM     79  F   UNL A   1      43.538  37.688  30.811  1.00  0.00    -0.205 F 
ATOM     80  C   UNL A   1      43.272  39.272  27.522  1.00  0.00     0.022 A 
BRANCH  78  81
ATOM     81  S   UNL A   1      43.547  40.630  29.883  1.00  0.00     0.127 S 
ATOM     82  O   UNL A   1      43.833  41.621  28.848  1.00  0.00    -0.237 OA
ATOM     83  O   UNL A   1      42.219  40.745  30.488  1.00  0.00    -0.237 OA
ATOM     84  O   UNL A   1      44.625  40.387  30.832  1.00  0.00    -0.744 OA
ENDBRANCH  78  81
ENDBRANCH  60  74
BRANCH  61  85
ATOM     85  C   UNL A   1      43.395  27.937  33.526  1.00  0.00     0.023 A 
ATOM     86  C   UNL A   1      43.799  26.821  32.762  1.00  0.00     0.012 A 
ATOM     87  C   UNL A   1      43.071  27.719  34.879  1.00  0.00     0.148 A 
ATOM     88  C   UNL A   1      43.868  25.537  33.304  1.00  0.00     0.002 A 
ATOM     89  C   UNL A   1      43.199  26.445  35.436  1.00  0.00     0.091 A 
ATOM     90  F   UNL A   1      42.641  28.759  35.609  1.00  0.00    -0.205 F 
ATOM     91  C   UNL A   1      43.582  25.350  34.648  1.00  0.00     0.022 A 
BRANCH  89  92
ATOM     92  S   UNL A   1      42.993  26.142  37.196  1.00  0.00     0.127 S 
ATOM     93  O   UNL A   1      43.747  27.246  37.782  1.00  0.00    -0.237 OA
ATOM     94  O   UNL A   1      41.541  26.235  37.357  1.00  0.00    -0.237 OA
ATOM     95  O   UNL A   1      43.531  24.806  37.417  1.00  0.00    -0.744 OA
ENDBRANCH  89  92
ENDBRANCH  61  85
BRANCH  73  96
ATOM     96  C   UNL A   1      38.263  31.912  30.838  1.00  0.00     0.023 A 
ATOM     97  C   UNL A   1      37.528  32.171  32.014  1.00  0.00     0.012 A 
ATOM     98  C   UNL A   1      37.571  31.656  29.638  1.00  0.00     0.148 A 
ATOM     99  C   UNL A   1      36.134  32.146  32.003  1.00  0.00     0.002 A 
ATOM    100  C   UNL A   1      36.178  31.682  29.624  1.00  0.00     0.091 A 
ATOM    101  F   UNL A   1      38.278  31.399  28.528  1.00  0.00    -0.205 F 
ATOM    102  C   UNL A   1      35.460  31.915  30.807  1.00  0.00     0.022 A 
BRANCH 100 103
ATOM    103  S   UNL A   1      35.234  31.505  28.104  1.00  0.00     0.127 S 
ATOM    104  O   UNL A   1      33.882  31.283  28.614  1.00  0.00    -0.237 OA
ATOM    105  O   UNL A   1      35.434  32.803  27.455  1.00  0.00    -0.237 OA
ATOM    106  O   UNL A   1      35.833  30.383  27.393  1.00  0.00    -0.744 OA
ENDBRANCH 100 103
ENDBRANCH  73  96
ENDBRANCH  47  48
ENDBRANCH  40  42
ENDBRANCH  39  40
ENDBRANCH  38  39
ENDBRANCH  37  38
ENDBRANCH  36  37
ENDBRANCH  35  36
ENDBRANCH   1  35
TORSDOF 24
ENDMDL
