MODEL 1
REMARK VINA RESULT:     -10.4      0.000      0.000
REMARK SMILES Cc1cc(Br)cc2c1O[C@H](C(F)(F)F)C(C(=O)OCCOCCOCCOC(=O)c1ccc(-c3c4nc(c(-c5cccc(S(=O)(=O)[O-])c5F)c5ccc([nH]5)c(-c5cccc(S(=O)(=O)[O-])c5F)c5nc(c(-c6cccc(S(=O)(=O)[O-])c6F)c6ccc3[nH]6)C=C5)C=C4)cc1)=C2
REMARK SMILES IDX 23 1 22 2 21 3 20 4 19 5 18 6 16 7 17 8 15 9 1 10 2 11 3 12
REMARK SMILES IDX 8 13 4 14 7 15 9 16 5 17 6 18 93 19 10 20 11 21 12 22 13 23
REMARK SMILES IDX 14 24 24 25 25 26 26 27 27 28 28 29 29 30 30 31 31 32 92 33
REMARK SMILES IDX 32 34 91 35 33 36 34 37 35 38 85 39 36 40 90 41 84 42 86 43
REMARK SMILES IDX 37 44 89 45 83 46 82 47 38 49 70 50 50 51 69 52 51 53 54 54
REMARK SMILES IDX 68 55 87 56 52 57 53 58 67 60 88 61 55 62 39 63 40 64 48 65
REMARK SMILES IDX 41 66 43 67 49 68 42 69 44 70 45 71 46 72 47 73 71 74 72 75
REMARK SMILES IDX 80 76 73 77 75 78 81 79 74 80 76 81 77 82 78 83 79 84 56 85
REMARK SMILES IDX 57 86 65 87 58 88 60 89 66 90 59 91 61 92 62 93 63 94 64 95
REMARK H PARENT 86 48 54 59
REMARK Flexibility Score: inf
ROOT
ATOM      1  C   UNL A   1      33.889  28.630  27.506  1.00  0.00     0.188 C 
ENDROOT
BRANCH   1   2
ATOM      2  C   UNL A   1      32.350  28.554  27.592  1.00  0.00     0.188 C 
BRANCH   2   3
ATOM      3  O   UNL A   1      31.694  27.341  27.297  1.00  0.00    -0.376 OA
BRANCH   3   4
ATOM      4  C   UNL A   1      31.169  27.059  26.014  1.00  0.00     0.202 C 
BRANCH   4   5
ATOM      5  C   UNL A   1      31.740  27.600  24.695  1.00  0.00     0.261 C 
BRANCH   5   6
ATOM      6  O   UNL A   1      33.108  27.291  24.424  1.00  0.00    -0.460 OA
BRANCH   6   7
ATOM      7  C   UNL A   1      33.310  26.476  23.361  1.00  0.00     0.338 C 
ATOM      8  O   UNL A   1      33.489  26.810  22.201  1.00  0.00    -0.246 OA
BRANCH   7   9
ATOM      9  C   UNL A   1      33.377  25.078  23.822  1.00  0.00     0.087 C 
ATOM     10  C   UNL A   1      32.394  20.171  25.020  1.00  0.00     0.048 C 
ATOM     11  C   UNL A   1      33.614  21.036  24.865  1.00  0.00    -0.007 A 
ATOM     12  C   UNL A   1      34.879  20.433  24.951  1.00  0.00     0.023 A 
ATOM     13  C   UNL A   1      33.528  22.407  24.565  1.00  0.00     0.130 A 
ATOM     14  C   UNL A   1      36.033  21.191  24.765  1.00  0.00     0.019 A 
ATOM     15  C   UNL A   1      34.694  23.155  24.352  1.00  0.00     0.019 A 
ATOM     16  O   UNL A   1      32.274  22.945  24.490  1.00  0.00    -0.475 OA
ATOM     17  Br  UNL A   1      37.726  20.359  24.881  1.00  0.00    -0.051 Br
ATOM     18  C   UNL A   1      35.948  22.548  24.469  1.00  0.00     0.027 A 
ATOM     19  C   UNL A   1      34.599  24.549  23.954  1.00  0.00     0.027 C 
ATOM     20  C   UNL A   1      32.104  24.334  24.106  1.00  0.00     0.316 C 
BRANCH  20  21
ATOM     21  C   UNL A   1      31.119  24.384  22.929  1.00  0.00     0.430 C 
ATOM     22  F   UNL A   1      30.165  23.427  23.049  1.00  0.00    -0.167 F 
ATOM     23  F   UNL A   1      30.465  25.568  22.864  1.00  0.00    -0.167 F 
ATOM     24  F   UNL A   1      31.733  24.194  21.739  1.00  0.00    -0.167 F 
ENDBRANCH  20  21
ENDBRANCH   7   9
ENDBRANCH   6   7
ENDBRANCH   5   6
ENDBRANCH   4   5
ENDBRANCH   3   4
ENDBRANCH   2   3
ENDBRANCH   1   2
BRANCH   1  25
ATOM     25  O   UNL A   1      34.565  29.872  27.599  1.00  0.00    -0.376 OA
BRANCH  25  26
ATOM     26  C   UNL A   1      33.807  31.072  27.553  1.00  0.00     0.202 C 
BRANCH  26  27
ATOM     27  C   UNL A   1      34.460  32.421  27.883  1.00  0.00     0.261 C 
BRANCH  27  28
ATOM     28  O   UNL A   1      33.599  33.553  27.701  1.00  0.00    -0.460 OA
BRANCH  28  29
ATOM     29  C   UNL A   1      33.547  34.412  28.749  1.00  0.00     0.338 C 
ATOM     30  O   UNL A   1      32.657  35.203  29.011  1.00  0.00    -0.246 OA
BRANCH  29  31
ATOM     31  C   UNL A   1      34.653  34.117  29.679  1.00  0.00     0.060 A 
ATOM     32  C   UNL A   1      35.948  34.499  29.303  1.00  0.00     0.016 A 
ATOM     33  C   UNL A   1      34.429  33.433  30.874  1.00  0.00     0.016 A 
ATOM     34  C   UNL A   1      37.034  34.170  30.111  1.00  0.00     0.010 A 
ATOM     35  C   UNL A   1      35.523  33.076  31.667  1.00  0.00     0.010 A 
ATOM     36  C   UNL A   1      36.830  33.412  31.270  1.00  0.00    -0.014 A 
BRANCH  36  37
ATOM     37  C   UNL A   1      37.992  32.783  31.940  1.00  0.00     0.031 A 
ATOM     38  C   UNL A   1      38.628  31.592  31.279  1.00  0.00     0.074 A 
ATOM     39  C   UNL A   1      38.476  33.258  33.100  1.00  0.00     0.049 A 
ATOM     40  N   UNL A   1      39.627  30.855  31.687  1.00  0.00    -0.248 NA
ATOM     41  C   UNL A   1      38.063  31.179  29.982  1.00  0.00     0.031 C 
ATOM     42  C   UNL A   1      37.963  34.422  33.819  1.00  0.00     0.029 A 
ATOM     43  N   UNL A   1      39.505  32.801  33.884  1.00  0.00    -0.354 N 
ATOM     44  C   UNL A   1      39.803  29.885  30.706  1.00  0.00     0.074 A 
ATOM     45  C   UNL A   1      38.799  30.117  29.690  1.00  0.00     0.031 C 
ATOM     46  C   UNL A   1      38.665  34.574  34.956  1.00  0.00     0.029 A 
ATOM     47  C   UNL A   1      39.658  33.504  35.056  1.00  0.00     0.049 A 
ATOM     48  H   UNL A   1      40.078  32.041  33.633  1.00  0.00     0.167 HD
ATOM     49  C   UNL A   1      40.729  28.902  30.646  1.00  0.00     0.034 A 
ATOM     50  C   UNL A   1      40.492  33.293  36.095  1.00  0.00     0.034 A 
ATOM     51  C   UNL A   1      41.728  28.673  31.653  1.00  0.00     0.049 A 
ATOM     52  C   UNL A   1      41.469  32.144  36.036  1.00  0.00     0.074 A 
ATOM     53  C   UNL A   1      42.720  27.710  31.673  1.00  0.00     0.029 A 
ATOM     54  N   UNL A   1      41.854  29.405  32.821  1.00  0.00    -0.354 N 
ATOM     55  N   UNL A   1      41.691  31.296  35.060  1.00  0.00    -0.248 NA
ATOM     56  C   UNL A   1      42.325  31.935  37.214  1.00  0.00     0.031 C 
ATOM     57  C   UNL A   1      43.432  27.845  32.867  1.00  0.00     0.029 A 
ATOM     58  C   UNL A   1      42.899  28.907  33.579  1.00  0.00     0.049 A 
ATOM     59  H   UNL A   1      41.285  30.168  33.075  1.00  0.00     0.167 HD
ATOM     60  C   UNL A   1      42.727  30.472  35.494  1.00  0.00     0.074 A 
ATOM     61  C   UNL A   1      43.105  30.940  36.811  1.00  0.00     0.031 C 
ATOM     62  C   UNL A   1      43.297  29.412  34.870  1.00  0.00     0.034 A 
BRANCH  49  63
ATOM     63  C   UNL A   1      40.727  28.016  29.430  1.00  0.00     0.023 A 
ATOM     64  C   UNL A   1      39.801  26.957  29.351  1.00  0.00     0.012 A 
ATOM     65  C   UNL A   1      41.589  28.268  28.346  1.00  0.00     0.148 A 
ATOM     66  C   UNL A   1      39.746  26.146  28.218  1.00  0.00     0.002 A 
ATOM     67  C   UNL A   1      41.500  27.482  27.203  1.00  0.00     0.091 A 
ATOM     68  F   UNL A   1      42.480  29.264  28.455  1.00  0.00    -0.205 F 
ATOM     69  C   UNL A   1      40.587  26.415  27.141  1.00  0.00     0.022 A 
BRANCH  67  70
ATOM     70  S   UNL A   1      42.485  27.790  25.734  1.00  0.00     0.127 S 
ATOM     71  O   UNL A   1      43.838  27.821  26.286  1.00  0.00    -0.237 OA
ATOM     72  O   UNL A   1      42.188  26.616  24.913  1.00  0.00    -0.237 OA
ATOM     73  O   UNL A   1      42.008  29.053  25.186  1.00  0.00    -0.744 OA
ENDBRANCH  67  70
ENDBRANCH  49  63
BRANCH  50  74
ATOM     74  C   UNL A   1      40.468  34.213  37.269  1.00  0.00     0.023 A 
ATOM     75  C   UNL A   1      41.162  35.437  37.200  1.00  0.00     0.012 A 
ATOM     76  C   UNL A   1      39.751  33.897  38.439  1.00  0.00     0.148 A 
ATOM     77  C   UNL A   1      41.158  36.319  38.281  1.00  0.00     0.002 A 
ATOM     78  C   UNL A   1      39.706  34.804  39.491  1.00  0.00     0.091 A 
ATOM     79  F   UNL A   1      39.116  32.717  38.494  1.00  0.00    -0.205 F 
ATOM     80  C   UNL A   1      40.422  36.009  39.420  1.00  0.00     0.022 A 
BRANCH  78  81
ATOM     81  S   UNL A   1      38.684  34.549  40.947  1.00  0.00     0.127 S 
ATOM     82  O   UNL A   1      39.580  33.784  41.811  1.00  0.00    -0.237 OA
ATOM     83  O   UNL A   1      38.433  35.923  41.381  1.00  0.00    -0.237 OA
ATOM     84  O   UNL A   1      37.502  33.838  40.480  1.00  0.00    -0.744 OA
ENDBRANCH  78  81
ENDBRANCH  50  74
BRANCH  62  85
ATOM     85  C   UNL A   1      44.397  28.671  35.588  1.00  0.00     0.023 A 
ATOM     86  C   UNL A   1      45.734  29.078  35.413  1.00  0.00     0.012 A 
ATOM     87  C   UNL A   1      44.101  27.655  36.521  1.00  0.00     0.148 A 
ATOM     88  C   UNL A   1      46.761  28.472  36.136  1.00  0.00     0.002 A 
ATOM     89  C   UNL A   1      45.124  27.092  37.275  1.00  0.00     0.091 A 
ATOM     90  F   UNL A   1      42.824  27.272  36.664  1.00  0.00    -0.205 F 
ATOM     91  C   UNL A   1      46.455  27.491  37.075  1.00  0.00     0.022 A 
BRANCH  89  92
ATOM     92  S   UNL A   1      44.815  25.898  38.583  1.00  0.00     0.127 S 
ATOM     93  O   UNL A   1      44.107  24.842  37.862  1.00  0.00    -0.237 OA
ATOM     94  O   UNL A   1      46.170  25.544  39.008  1.00  0.00    -0.237 OA
ATOM     95  O   UNL A   1      44.031  26.602  39.591  1.00  0.00    -0.744 OA
ENDBRANCH  89  92
ENDBRANCH  62  85
ENDBRANCH  36  37
ENDBRANCH  29  31
ENDBRANCH  28  29
ENDBRANCH  27  28
ENDBRANCH  26  27
ENDBRANCH  25  26
ENDBRANCH   1  25
TORSDOF 21
ENDMDL
MODEL 2
REMARK VINA RESULT:     -10.1      2.517      3.942
REMARK SMILES Cc1cc(Br)cc2c1O[C@H](C(F)(F)F)C(C(=O)OCCOCCOCCOC(=O)c1ccc(-c3c4nc(c(-c5cccc(S(=O)(=O)[O-])c5F)c5ccc([nH]5)c(-c5cccc(S(=O)(=O)[O-])c5F)c5nc(c(-c6cccc(S(=O)(=O)[O-])c6F)c6ccc3[nH]6)C=C5)C=C4)cc1)=C2
REMARK SMILES IDX 23 1 22 2 21 3 20 4 19 5 18 6 16 7 17 8 15 9 1 10 2 11 3 12
REMARK SMILES IDX 8 13 4 14 7 15 9 16 5 17 6 18 93 19 10 20 11 21 12 22 13 23
REMARK SMILES IDX 14 24 24 25 25 26 26 27 27 28 28 29 29 30 30 31 31 32 92 33
REMARK SMILES IDX 32 34 91 35 33 36 34 37 35 38 85 39 36 40 90 41 84 42 86 43
REMARK SMILES IDX 37 44 89 45 83 46 82 47 38 49 70 50 50 51 69 52 51 53 54 54
REMARK SMILES IDX 68 55 87 56 52 57 53 58 67 60 88 61 55 62 39 63 40 64 48 65
REMARK SMILES IDX 41 66 43 67 49 68 42 69 44 70 45 71 46 72 47 73 71 74 72 75
REMARK SMILES IDX 80 76 73 77 75 78 81 79 74 80 76 81 77 82 78 83 79 84 56 85
REMARK SMILES IDX 57 86 65 87 58 88 60 89 66 90 59 91 61 92 62 93 63 94 64 95
REMARK H PARENT 86 48 54 59
REMARK Flexibility Score: inf
ROOT
ATOM      1  C   UNL A   1      34.233  33.907  28.322  1.00  0.00     0.188 C 
ENDROOT
BRANCH   1   2
ATOM      2  C   UNL A   1      34.580  32.948  29.481  1.00  0.00     0.188 C 
BRANCH   2   3
ATOM      3  O   UNL A   1      35.002  31.633  29.196  1.00  0.00    -0.376 OA
BRANCH   3   4
ATOM      4  C   UNL A   1      35.605  31.284  27.964  1.00  0.00     0.202 C 
BRANCH   4   5
ATOM      5  C   UNL A   1      36.083  29.873  27.593  1.00  0.00     0.261 C 
BRANCH   5   6
ATOM      6  O   UNL A   1      35.342  29.201  26.573  1.00  0.00    -0.460 OA
BRANCH   6   7
ATOM      7  C   UNL A   1      34.101  28.799  26.939  1.00  0.00     0.338 C 
ATOM      8  O   UNL A   1      33.660  28.718  28.074  1.00  0.00    -0.246 OA
BRANCH   7   9
ATOM      9  C   UNL A   1      33.292  28.548  25.733  1.00  0.00     0.087 C 
ATOM     10  C   UNL A   1      31.012  26.510  21.594  1.00  0.00     0.048 C 
ATOM     11  C   UNL A   1      30.809  27.710  22.476  1.00  0.00    -0.007 A 
ATOM     12  C   UNL A   1      29.669  28.506  22.273  1.00  0.00     0.023 A 
ATOM     13  C   UNL A   1      31.676  28.017  23.538  1.00  0.00     0.130 A 
ATOM     14  C   UNL A   1      29.417  29.598  23.099  1.00  0.00     0.019 A 
ATOM     15  C   UNL A   1      31.400  29.102  24.382  1.00  0.00     0.019 A 
ATOM     16  O   UNL A   1      32.768  27.211  23.696  1.00  0.00    -0.475 OA
ATOM     17  Br  UNL A   1      27.877  30.654  22.811  1.00  0.00    -0.051 Br
ATOM     18  C   UNL A   1      30.278  29.903  24.150  1.00  0.00     0.027 A 
ATOM     19  C   UNL A   1      32.249  29.361  25.533  1.00  0.00     0.027 C 
ATOM     20  C   UNL A   1      33.665  27.417  24.819  1.00  0.00     0.316 C 
BRANCH  20  21
ATOM     21  C   UNL A   1      33.808  26.081  25.562  1.00  0.00     0.430 C 
ATOM     22  F   UNL A   1      33.689  25.032  24.711  1.00  0.00    -0.167 F 
ATOM     23  F   UNL A   1      35.021  25.958  26.153  1.00  0.00    -0.167 F 
ATOM     24  F   UNL A   1      32.871  25.929  26.525  1.00  0.00    -0.167 F 
ENDBRANCH  20  21
ENDBRANCH   7   9
ENDBRANCH   6   7
ENDBRANCH   5   6
ENDBRANCH   4   5
ENDBRANCH   3   4
ENDBRANCH   2   3
ENDBRANCH   1   2
BRANCH   1  25
ATOM     25  O   UNL A   1      33.154  34.819  28.426  1.00  0.00    -0.376 OA
BRANCH  25  26
ATOM     26  C   UNL A   1      33.362  36.056  29.093  1.00  0.00     0.202 C 
BRANCH  26  27
ATOM     27  C   UNL A   1      32.479  36.461  30.280  1.00  0.00     0.261 C 
BRANCH  27  28
ATOM     28  O   UNL A   1      32.450  35.505  31.348  1.00  0.00    -0.460 OA
BRANCH  28  29
ATOM     29  C   UNL A   1      33.144  35.859  32.458  1.00  0.00     0.338 C 
ATOM     30  O   UNL A   1      32.791  36.630  33.334  1.00  0.00    -0.246 OA
BRANCH  29  31
ATOM     31  C   UNL A   1      34.343  35.009  32.578  1.00  0.00     0.060 A 
ATOM     32  C   UNL A   1      34.238  33.822  33.317  1.00  0.00     0.016 A 
ATOM     33  C   UNL A   1      35.562  35.395  32.019  1.00  0.00     0.016 A 
ATOM     34  C   UNL A   1      35.363  33.028  33.526  1.00  0.00     0.010 A 
ATOM     35  C   UNL A   1      36.696  34.614  32.256  1.00  0.00     0.010 A 
ATOM     36  C   UNL A   1      36.607  33.449  33.039  1.00  0.00    -0.014 A 
BRANCH  36  37
ATOM     37  C   UNL A   1      37.839  32.795  33.537  1.00  0.00     0.031 A 
ATOM     38  C   UNL A   1      38.379  31.624  32.763  1.00  0.00     0.074 A 
ATOM     39  C   UNL A   1      38.468  33.230  34.642  1.00  0.00     0.049 A 
ATOM     40  N   UNL A   1      39.416  30.872  33.018  1.00  0.00    -0.248 NA
ATOM     41  C   UNL A   1      37.654  31.256  31.534  1.00  0.00     0.031 C 
ATOM     42  C   UNL A   1      38.057  34.371  35.457  1.00  0.00     0.029 A 
ATOM     43  N   UNL A   1      39.584  32.744  35.276  1.00  0.00    -0.354 N 
ATOM     44  C   UNL A   1      39.461  29.934  31.992  1.00  0.00     0.074 A 
ATOM     45  C   UNL A   1      38.340  30.203  31.118  1.00  0.00     0.031 C 
ATOM     46  C   UNL A   1      38.897  34.483  36.501  1.00  0.00     0.029 A 
ATOM     47  C   UNL A   1      39.888  33.408  36.442  1.00  0.00     0.049 A 
ATOM     48  H   UNL A   1      40.116  31.991  34.930  1.00  0.00     0.167 HD
ATOM     49  C   UNL A   1      40.365  28.951  31.784  1.00  0.00     0.034 A 
ATOM     50  C   UNL A   1      40.844  33.159  37.360  1.00  0.00     0.034 A 
ATOM     51  C   UNL A   1      41.480  28.685  32.650  1.00  0.00     0.049 A 
ATOM     52  C   UNL A   1      41.797  32.010  37.141  1.00  0.00     0.074 A 
ATOM     53  C   UNL A   1      42.460  27.720  32.514  1.00  0.00     0.029 A 
ATOM     54  N   UNL A   1      41.757  29.379  33.817  1.00  0.00    -0.354 N 
ATOM     55  N   UNL A   1      41.890  31.195  36.118  1.00  0.00    -0.248 NA
ATOM     56  C   UNL A   1      42.793  31.760  38.195  1.00  0.00     0.031 C 
ATOM     57  C   UNL A   1      43.318  27.813  33.613  1.00  0.00     0.029 A 
ATOM     58  C   UNL A   1      42.886  28.853  34.421  1.00  0.00     0.049 A 
ATOM     59  H   UNL A   1      41.230  30.134  34.165  1.00  0.00     0.167 HD
ATOM     60  C   UNL A   1      42.965  30.354  36.392  1.00  0.00     0.074 A 
ATOM     61  C   UNL A   1      43.509  30.777  37.665  1.00  0.00     0.031 C 
ATOM     62  C   UNL A   1      43.445  29.313  35.667  1.00  0.00     0.034 A 
BRANCH  49  63
ATOM     63  C   UNL A   1      40.204  28.106  30.550  1.00  0.00     0.023 A 
ATOM     64  C   UNL A   1      39.219  27.098  30.528  1.00  0.00     0.012 A 
ATOM     65  C   UNL A   1      40.977  28.348  29.398  1.00  0.00     0.148 A 
ATOM     66  C   UNL A   1      39.018  26.329  29.384  1.00  0.00     0.002 A 
ATOM     67  C   UNL A   1      40.741  27.604  28.247  1.00  0.00     0.091 A 
ATOM     68  F   UNL A   1      41.926  29.292  29.451  1.00  0.00    -0.205 F 
ATOM     69  C   UNL A   1      39.771  26.589  28.241  1.00  0.00     0.022 A 
BRANCH  67  70
ATOM     70  S   UNL A   1      41.604  27.909  26.702  1.00  0.00     0.127 S 
ATOM     71  O   UNL A   1      41.150  26.787  25.883  1.00  0.00    -0.237 OA
ATOM     72  O   UNL A   1      41.068  29.211  26.304  1.00  0.00    -0.237 OA
ATOM     73  O   UNL A   1      43.024  27.909  27.026  1.00  0.00    -0.744 OA
ENDBRANCH  67  70
ENDBRANCH  49  63
BRANCH  50  74
ATOM     74  C   UNL A   1      40.974  34.040  38.557  1.00  0.00     0.023 A 
ATOM     75  C   UNL A   1      41.990  35.015  38.589  1.00  0.00     0.012 A 
ATOM     76  C   UNL A   1      40.089  33.935  39.649  1.00  0.00     0.148 A 
ATOM     77  C   UNL A   1      42.137  35.853  39.694  1.00  0.00     0.002 A 
ATOM     78  C   UNL A   1      40.207  34.810  40.722  1.00  0.00     0.091 A 
ATOM     79  F   UNL A   1      39.143  32.987  39.609  1.00  0.00    -0.205 F 
ATOM     80  C   UNL A   1      41.240  35.760  40.754  1.00  0.00     0.022 A 
BRANCH  78  81
ATOM     81  S   UNL A   1      39.024  34.849  42.074  1.00  0.00     0.127 S 
ATOM     82  O   UNL A   1      37.758  34.664  41.369  1.00  0.00    -0.237 OA
ATOM     83  O   UNL A   1      39.453  33.706  42.881  1.00  0.00    -0.237 OA
ATOM     84  O   UNL A   1      39.204  36.143  42.719  1.00  0.00    -0.744 OA
ENDBRANCH  78  81
ENDBRANCH  50  74
BRANCH  62  85
ATOM     85  C   UNL A   1      44.622  28.545  36.217  1.00  0.00     0.023 A 
ATOM     86  C   UNL A   1      45.928  28.997  35.950  1.00  0.00     0.012 A 
ATOM     87  C   UNL A   1      44.433  27.453  37.090  1.00  0.00     0.148 A 
ATOM     88  C   UNL A   1      47.030  28.362  36.522  1.00  0.00     0.002 A 
ATOM     89  C   UNL A   1      45.533  26.858  37.697  1.00  0.00     0.091 A 
ATOM     90  F   UNL A   1      43.182  27.029  37.322  1.00  0.00    -0.205 F 
ATOM     91  C   UNL A   1      46.832  27.304  37.405  1.00  0.00     0.022 A 
BRANCH  89  92
ATOM     92  S   UNL A   1      45.371  25.559  38.929  1.00  0.00     0.127 S 
ATOM     93  O   UNL A   1      46.765  25.335  39.311  1.00  0.00    -0.237 OA
ATOM     94  O   UNL A   1      44.554  26.205  39.956  1.00  0.00    -0.237 OA
ATOM     95  O   UNL A   1      44.721  24.444  38.253  1.00  0.00    -0.744 OA
ENDBRANCH  89  92
ENDBRANCH  62  85
ENDBRANCH  36  37
ENDBRANCH  29  31
ENDBRANCH  28  29
ENDBRANCH  27  28
ENDBRANCH  26  27
ENDBRANCH  25  26
ENDBRANCH   1  25
TORSDOF 21
ENDMDL
MODEL 3
REMARK VINA RESULT:      -9.9      6.763     14.093
REMARK SMILES Cc1cc(Br)cc2c1O[C@H](C(F)(F)F)C(C(=O)OCCOCCOCCOC(=O)c1ccc(-c3c4nc(c(-c5cccc(S(=O)(=O)[O-])c5F)c5ccc([nH]5)c(-c5cccc(S(=O)(=O)[O-])c5F)c5nc(c(-c6cccc(S(=O)(=O)[O-])c6F)c6ccc3[nH]6)C=C5)C=C4)cc1)=C2
REMARK SMILES IDX 23 1 22 2 21 3 20 4 19 5 18 6 16 7 17 8 15 9 1 10 2 11 3 12
REMARK SMILES IDX 8 13 4 14 7 15 9 16 5 17 6 18 93 19 10 20 11 21 12 22 13 23
REMARK SMILES IDX 14 24 24 25 25 26 26 27 27 28 28 29 29 30 30 31 31 32 92 33
REMARK SMILES IDX 32 34 91 35 33 36 34 37 35 38 85 39 36 40 90 41 84 42 86 43
REMARK SMILES IDX 37 44 89 45 83 46 82 47 38 49 70 50 50 51 69 52 51 53 54 54
REMARK SMILES IDX 68 55 87 56 52 57 53 58 67 60 88 61 55 62 39 63 40 64 48 65
REMARK SMILES IDX 41 66 43 67 49 68 42 69 44 70 45 71 46 72 47 73 71 74 72 75
REMARK SMILES IDX 80 76 73 77 75 78 81 79 74 80 76 81 77 82 78 83 79 84 56 85
REMARK SMILES IDX 57 86 65 87 58 88 60 89 66 90 59 91 61 92 62 93 63 94 64 95
REMARK H PARENT 86 48 54 59
REMARK Flexibility Score: inf
ROOT
ATOM      1  C   UNL A   1      47.433  22.276  37.766  1.00  0.00     0.188 C 
ENDROOT
BRANCH   1   2
ATOM      2  C   UNL A   1      45.990  22.463  38.283  1.00  0.00     0.188 C 
BRANCH   2   3
ATOM      3  O   UNL A   1      45.486  21.597  39.275  1.00  0.00    -0.376 OA
BRANCH   3   4
ATOM      4  C   UNL A   1      46.328  20.946  40.207  1.00  0.00     0.202 C 
BRANCH   4   5
ATOM      5  C   UNL A   1      46.578  19.432  40.254  1.00  0.00     0.261 C 
BRANCH   5   6
ATOM      6  O   UNL A   1      45.539  18.636  40.825  1.00  0.00    -0.460 OA
BRANCH   6   7
ATOM      7  C   UNL A   1      45.615  17.312  40.548  1.00  0.00     0.338 C 
ATOM      8  O   UNL A   1      46.315  16.777  39.703  1.00  0.00    -0.246 OA
BRANCH   7   9
ATOM      9  C   UNL A   1      44.774  16.563  41.499  1.00  0.00     0.087 C 
ATOM     10  C   UNL A   1      41.051  13.862  43.806  1.00  0.00     0.048 C 
ATOM     11  C   UNL A   1      42.489  14.202  44.083  1.00  0.00    -0.007 A 
ATOM     12  C   UNL A   1      43.119  13.601  45.184  1.00  0.00     0.023 A 
ATOM     13  C   UNL A   1      43.239  15.039  43.239  1.00  0.00     0.130 A 
ATOM     14  C   UNL A   1      44.464  13.851  45.448  1.00  0.00     0.019 A 
ATOM     15  C   UNL A   1      44.598  15.263  43.496  1.00  0.00     0.019 A 
ATOM     16  O   UNL A   1      42.580  15.597  42.179  1.00  0.00    -0.475 OA
ATOM     17  Br  UNL A   1      45.295  13.029  46.934  1.00  0.00    -0.051 Br
ATOM     18  C   UNL A   1      45.206  14.681  44.613  1.00  0.00     0.027 A 
ATOM     19  C   UNL A   1      45.392  16.054  42.571  1.00  0.00     0.027 C 
ATOM     20  C   UNL A   1      43.307  16.406  41.219  1.00  0.00     0.316 C 
BRANCH  20  21
ATOM     21  C   UNL A   1      43.032  15.842  39.818  1.00  0.00     0.430 C 
ATOM     22  F   UNL A   1      44.045  15.039  39.406  1.00  0.00    -0.167 F 
ATOM     23  F   UNL A   1      41.910  15.085  39.788  1.00  0.00    -0.167 F 
ATOM     24  F   UNL A   1      42.889  16.817  38.893  1.00  0.00    -0.167 F 
ENDBRANCH  20  21
ENDBRANCH   7   9
ENDBRANCH   6   7
ENDBRANCH   5   6
ENDBRANCH   4   5
ENDBRANCH   3   4
ENDBRANCH   2   3
ENDBRANCH   1   2
BRANCH   1  25
ATOM     25  O   UNL A   1      47.752  22.477  36.400  1.00  0.00    -0.376 OA
BRANCH  25  26
ATOM     26  C   UNL A   1      49.086  22.812  36.049  1.00  0.00     0.202 C 
BRANCH  26  27
ATOM     27  C   UNL A   1      49.367  23.867  34.971  1.00  0.00     0.261 C 
BRANCH  27  28
ATOM     28  O   UNL A   1      48.236  24.681  34.632  1.00  0.00    -0.460 OA
BRANCH  28  29
ATOM     29  C   UNL A   1      48.445  26.018  34.707  1.00  0.00     0.338 C 
ATOM     30  O   UNL A   1      49.515  26.594  34.806  1.00  0.00    -0.246 OA
BRANCH  29  31
ATOM     31  C   UNL A   1      47.178  26.727  34.443  1.00  0.00     0.060 A 
ATOM     32  C   UNL A   1      45.978  26.035  34.666  1.00  0.00     0.016 A 
ATOM     33  C   UNL A   1      47.168  28.026  33.937  1.00  0.00     0.016 A 
ATOM     34  C   UNL A   1      44.760  26.634  34.354  1.00  0.00     0.010 A 
ATOM     35  C   UNL A   1      45.947  28.613  33.595  1.00  0.00     0.010 A 
ATOM     36  C   UNL A   1      44.744  27.906  33.769  1.00  0.00    -0.014 A 
BRANCH  36  37
ATOM     37  C   UNL A   1      43.498  28.398  33.137  1.00  0.00     0.031 A 
ATOM     38  C   UNL A   1      43.228  28.008  31.710  1.00  0.00     0.074 A 
ATOM     39  C   UNL A   1      42.624  29.165  33.811  1.00  0.00     0.049 A 
ATOM     40  N   UNL A   1      42.230  28.341  30.936  1.00  0.00    -0.248 NA
ATOM     41  C   UNL A   1      44.216  27.118  31.073  1.00  0.00     0.031 C 
ATOM     42  C   UNL A   1      42.762  29.583  35.204  1.00  0.00     0.029 A 
ATOM     43  N   UNL A   1      41.450  29.742  33.397  1.00  0.00    -0.354 N 
ATOM     44  C   UNL A   1      42.474  27.716  29.719  1.00  0.00     0.074 A 
ATOM     45  C   UNL A   1      43.721  26.994  29.851  1.00  0.00     0.031 C 
ATOM     46  C   UNL A   1      41.723  30.373  35.524  1.00  0.00     0.029 A 
ATOM     47  C   UNL A   1      40.861  30.537  34.353  1.00  0.00     0.049 A 
ATOM     48  H   UNL A   1      41.065  29.602  32.502  1.00  0.00     0.167 HD
ATOM     49  C   UNL A   1      41.719  27.724  28.597  1.00  0.00     0.034 A 
ATOM     50  C   UNL A   1      39.764  31.319  34.280  1.00  0.00     0.034 A 
ATOM     51  C   UNL A   1      40.479  28.438  28.466  1.00  0.00     0.049 A 
ATOM     52  C   UNL A   1      38.978  31.367  32.993  1.00  0.00     0.074 A 
ATOM     53  C   UNL A   1      39.634  28.495  27.374  1.00  0.00     0.029 A 
ATOM     54  N   UNL A   1      39.914  29.227  29.454  1.00  0.00    -0.354 N 
ATOM     55  N   UNL A   1      39.164  30.694  31.883  1.00  0.00    -0.248 NA
ATOM     56  C   UNL A   1      37.815  32.268  32.955  1.00  0.00     0.031 C 
ATOM     57  C   UNL A   1      38.568  29.339  27.693  1.00  0.00     0.029 A 
ATOM     58  C   UNL A   1      38.737  29.789  28.992  1.00  0.00     0.049 A 
ATOM     59  H   UNL A   1      40.293  29.368  30.351  1.00  0.00     0.167 HD
ATOM     60  C   UNL A   1      38.132  31.070  31.026  1.00  0.00     0.074 A 
ATOM     61  C   UNL A   1      37.308  32.010  31.757  1.00  0.00     0.031 C 
ATOM     62  C   UNL A   1      37.899  30.689  29.746  1.00  0.00     0.034 A 
BRANCH  49  63
ATOM     63  C   UNL A   1      42.197  26.907  27.429  1.00  0.00     0.023 A 
ATOM     64  C   UNL A   1      42.944  27.532  26.410  1.00  0.00     0.012 A 
ATOM     65  C   UNL A   1      41.967  25.519  27.369  1.00  0.00     0.148 A 
ATOM     66  C   UNL A   1      43.437  26.792  25.337  1.00  0.00     0.002 A 
ATOM     67  C   UNL A   1      42.498  24.781  26.318  1.00  0.00     0.091 A 
ATOM     68  F   UNL A   1      41.232  24.951  28.335  1.00  0.00    -0.205 F 
ATOM     69  C   UNL A   1      43.224  25.417  25.296  1.00  0.00     0.022 A 
BRANCH  67  70
ATOM     70  S   UNL A   1      42.344  22.995  26.211  1.00  0.00     0.127 S 
ATOM     71  O   UNL A   1      43.193  22.558  27.317  1.00  0.00    -0.237 OA
ATOM     72  O   UNL A   1      40.910  22.798  26.428  1.00  0.00    -0.237 OA
ATOM     73  O   UNL A   1      42.814  22.628  24.882  1.00  0.00    -0.744 OA
ENDBRANCH  67  70
ENDBRANCH  49  63
BRANCH  50  74
ATOM     74  C   UNL A   1      39.320  32.094  35.474  1.00  0.00     0.023 A 
ATOM     75  C   UNL A   1      38.483  31.477  36.424  1.00  0.00     0.012 A 
ATOM     76  C   UNL A   1      39.736  33.424  35.686  1.00  0.00     0.148 A 
ATOM     77  C   UNL A   1      38.051  32.176  37.552  1.00  0.00     0.002 A 
ATOM     78  C   UNL A   1      39.346  34.095  36.839  1.00  0.00     0.091 A 
ATOM     79  F   UNL A   1      40.513  34.000  34.759  1.00  0.00    -0.205 F 
ATOM     80  C   UNL A   1      38.492  33.479  37.766  1.00  0.00     0.022 A 
BRANCH  78  81
ATOM     81  S   UNL A   1      39.962  35.730  37.262  1.00  0.00     0.127 S 
ATOM     82  O   UNL A   1      39.231  36.016  38.494  1.00  0.00    -0.237 OA
ATOM     83  O   UNL A   1      41.392  35.473  37.439  1.00  0.00    -0.237 OA
ATOM     84  O   UNL A   1      39.639  36.580  36.125  1.00  0.00    -0.744 OA
ENDBRANCH  78  81
ENDBRANCH  50  74
BRANCH  62  85
ATOM     85  C   UNL A   1      36.707  31.278  29.033  1.00  0.00     0.023 A 
ATOM     86  C   UNL A   1      36.679  32.658  28.757  1.00  0.00     0.012 A 
ATOM     87  C   UNL A   1      35.677  30.453  28.537  1.00  0.00     0.148 A 
ATOM     88  C   UNL A   1      35.635  33.214  28.018  1.00  0.00     0.002 A 
ATOM     89  C   UNL A   1      34.666  31.005  27.759  1.00  0.00     0.091 A 
ATOM     90  F   UNL A   1      35.713  29.143  28.822  1.00  0.00    -0.205 F 
ATOM     91  C   UNL A   1      34.638  32.386  27.508  1.00  0.00     0.022 A 
BRANCH  89  92
ATOM     92  S   UNL A   1      33.398  30.004  26.970  1.00  0.00     0.127 S 
ATOM     93  O   UNL A   1      32.430  31.020  26.559  1.00  0.00    -0.237 OA
ATOM     94  O   UNL A   1      34.133  29.383  25.868  1.00  0.00    -0.237 OA
ATOM     95  O   UNL A   1      32.932  29.071  27.988  1.00  0.00    -0.744 OA
ENDBRANCH  89  92
ENDBRANCH  62  85
ENDBRANCH  36  37
ENDBRANCH  29  31
ENDBRANCH  28  29
ENDBRANCH  27  28
ENDBRANCH  26  27
ENDBRANCH  25  26
ENDBRANCH   1  25
TORSDOF 21
ENDMDL
