MODEL 1
REMARK VINA RESULT:      -9.9      0.000      0.000
REMARK SMILES CC(C)c1nc(N2C[C@H](C)OC(C)(C)C2)sc1C(=O)OCCOCCOCCOC(=O)c1ccc(-c2c3nc(c(-c4cccc(S(=O)(=O)[O-])c4F)c4ccc([nH]4)c(-c4cccc(S(=O)(=O)[O-])c4F)c4nc(c(-c5cccc(S(=O)(=O)[O-])c5F)c5ccc2[nH]5)C=C4)C=C3)cc1
REMARK SMILES IDX 25 1 24 2 23 3 22 4 21 5 20 6 18 7 19 8 17 9 4 10 5 11 6 12
REMARK SMILES IDX 16 13 2 14 1 15 3 16 7 17 8 18 15 19 9 20 12 21 11 22 10 23
REMARK SMILES IDX 13 24 14 25 26 26 27 27 28 28 29 29 30 30 31 31 32 32 33 33
REMARK SMILES IDX 94 34 34 35 93 36 35 37 36 38 37 39 87 40 38 41 92 42 86 43
REMARK SMILES IDX 88 44 39 45 91 46 85 47 84 48 40 50 72 51 52 52 71 53 53 54
REMARK SMILES IDX 56 55 70 56 89 57 54 58 55 59 69 61 90 62 57 63 41 64 42 65
REMARK SMILES IDX 50 66 43 67 45 68 51 69 44 70 46 71 47 72 48 73 49 74 73 75
REMARK SMILES IDX 74 76 82 77 75 78 77 79 83 80 76 81 78 82 79 83 80 84 81 85
REMARK SMILES IDX 58 86 59 87 67 88 60 89 62 90 68 91 61 92 63 93 64 94 65 95
REMARK SMILES IDX 66 96
REMARK H PARENT 88 49 56 60
REMARK Flexibility Score: inf
ROOT
ATOM      1  C   UNL A   1      41.133  21.206  26.657  1.00  0.00     0.188 C 
ENDROOT
BRANCH   1   2
ATOM      2  C   UNL A   1      39.844  21.906  26.183  1.00  0.00     0.188 C 
BRANCH   2   3
ATOM      3  O   UNL A   1      39.598  23.244  26.600  1.00  0.00    -0.376 OA
BRANCH   3   4
ATOM      4  C   UNL A   1      38.288  23.783  26.459  1.00  0.00     0.202 C 
BRANCH   4   5
ATOM      5  C   UNL A   1      37.481  23.310  25.250  1.00  0.00     0.261 C 
BRANCH   5   6
ATOM      6  O   UNL A   1      36.395  24.204  24.951  1.00  0.00    -0.459 OA
BRANCH   6   7
ATOM      7  C   UNL A   1      35.302  23.630  24.373  1.00  0.00     0.350 C 
ATOM      8  O   UNL A   1      35.338  22.626  23.671  1.00  0.00    -0.245 OA
BRANCH   7   9
ATOM      9  C   UNL A   1      34.101  24.328  24.762  1.00  0.00     0.137 A 
ATOM     10  C   UNL A   1      33.004  23.963  25.531  1.00  0.00     0.071 A 
ATOM     11  N   UNL A   1      32.083  24.995  25.705  1.00  0.00    -0.224 NA
ATOM     12  C   UNL A   1      32.409  26.065  25.022  1.00  0.00     0.186 A 
ATOM     13  S   UNL A   1      33.888  25.930  24.166  1.00  0.00    -0.089 S 
BRANCH  10  14
ATOM     14  C   UNL A   1      32.680  22.633  26.184  1.00  0.00     0.034 C 
ATOM     15  C   UNL A   1      32.184  22.759  27.626  1.00  0.00     0.014 C 
ATOM     16  C   UNL A   1      31.630  21.839  25.386  1.00  0.00     0.014 C 
ENDBRANCH  10  14
BRANCH  12  17
ATOM     17  N   UNL A   1      31.676  27.198  25.046  1.00  0.00    -0.343 N 
ATOM     18  C   UNL A   1      31.838  28.236  26.054  1.00  0.00     0.150 C 
ATOM     19  C   UNL A   1      30.502  27.317  24.193  1.00  0.00     0.153 C 
ATOM     20  C   UNL A   1      31.800  29.612  25.348  1.00  0.00     0.135 C 
ATOM     21  C   UNL A   1      30.432  28.727  23.557  1.00  0.00     0.081 C 
ATOM     22  O   UNL A   1      30.611  29.768  24.545  1.00  0.00    -0.369 OA
ATOM     23  C   UNL A   1      31.818  30.753  26.355  1.00  0.00     0.040 C 
ATOM     24  C   UNL A   1      31.455  28.875  22.421  1.00  0.00     0.044 C 
ATOM     25  C   UNL A   1      29.026  28.943  22.981  1.00  0.00     0.044 C 
ENDBRANCH  12  17
ENDBRANCH   7   9
ENDBRANCH   6   7
ENDBRANCH   5   6
ENDBRANCH   4   5
ENDBRANCH   3   4
ENDBRANCH   2   3
ENDBRANCH   1   2
BRANCH   1  26
ATOM     26  O   UNL A   1      41.570  20.151  25.810  1.00  0.00    -0.376 OA
BRANCH  26  27
ATOM     27  C   UNL A   1      42.270  19.093  26.453  1.00  0.00     0.202 C 
BRANCH  27  28
ATOM     28  C   UNL A   1      43.362  18.447  25.594  1.00  0.00     0.261 C 
BRANCH  28  29
ATOM     29  O   UNL A   1      43.743  19.196  24.431  1.00  0.00    -0.460 OA
BRANCH  29  30
ATOM     30  C   UNL A   1      44.999  19.695  24.397  1.00  0.00     0.338 C 
ATOM     31  O   UNL A   1      45.988  19.163  23.928  1.00  0.00    -0.246 OA
BRANCH  30  32
ATOM     32  C   UNL A   1      44.936  21.096  24.867  1.00  0.00     0.060 A 
ATOM     33  C   UNL A   1      44.641  22.109  23.945  1.00  0.00     0.016 A 
ATOM     34  C   UNL A   1      45.143  21.402  26.214  1.00  0.00     0.016 A 
ATOM     35  C   UNL A   1      44.577  23.439  24.370  1.00  0.00     0.010 A 
ATOM     36  C   UNL A   1      45.093  22.732  26.634  1.00  0.00     0.010 A 
ATOM     37  C   UNL A   1      44.836  23.759  25.711  1.00  0.00    -0.014 A 
BRANCH  37  38
ATOM     38  C   UNL A   1      45.005  25.173  26.125  1.00  0.00     0.031 A 
ATOM     39  C   UNL A   1      46.391  25.760  26.123  1.00  0.00     0.074 A 
ATOM     40  C   UNL A   1      43.959  25.913  26.537  1.00  0.00     0.049 A 
ATOM     41  N   UNL A   1      46.782  26.960  26.462  1.00  0.00    -0.248 NA
ATOM     42  C   UNL A   1      47.479  24.874  25.679  1.00  0.00     0.031 C 
ATOM     43  C   UNL A   1      42.573  25.456  26.607  1.00  0.00     0.029 A 
ATOM     44  N   UNL A   1      43.913  27.204  27.005  1.00  0.00    -0.354 N 
ATOM     45  C   UNL A   1      48.161  26.968  26.294  1.00  0.00     0.074 A 
ATOM     46  C   UNL A   1      48.541  25.651  25.832  1.00  0.00     0.031 C 
ATOM     47  C   UNL A   1      41.814  26.443  27.118  1.00  0.00     0.029 A 
ATOM     48  C   UNL A   1      42.663  27.594  27.424  1.00  0.00     0.049 A 
ATOM     49  H   UNL A   1      44.701  27.793  27.038  1.00  0.00     0.167 HD
ATOM     50  C   UNL A   1      49.034  27.984  26.488  1.00  0.00     0.034 A 
ATOM     51  C   UNL A   1      42.256  28.743  28.000  1.00  0.00     0.034 A 
ATOM     52  C   UNL A   1      48.661  29.296  26.937  1.00  0.00     0.049 A 
ATOM     53  C   UNL A   1      43.253  29.854  28.226  1.00  0.00     0.074 A 
ATOM     54  C   UNL A   1      49.467  30.407  27.109  1.00  0.00     0.029 A 
ATOM     55  N   UNL A   1      47.377  29.673  27.300  1.00  0.00    -0.354 N 
ATOM     56  N   UNL A   1      44.526  29.898  27.914  1.00  0.00    -0.248 NA
ATOM     57  C   UNL A   1      42.749  31.085  28.855  1.00  0.00     0.031 C 
ATOM     58  C   UNL A   1      48.673  31.452  27.594  1.00  0.00     0.029 A 
ATOM     59  C   UNL A   1      47.370  30.995  27.708  1.00  0.00     0.049 A 
ATOM     60  H   UNL A   1      46.588  29.085  27.271  1.00  0.00     0.167 HD
ATOM     61  C   UNL A   1      44.964  31.170  28.273  1.00  0.00     0.074 A 
ATOM     62  C   UNL A   1      43.818  31.870  28.809  1.00  0.00     0.031 C 
ATOM     63  C   UNL A   1      46.208  31.703  28.180  1.00  0.00     0.034 A 
BRANCH  50  64
ATOM     64  C   UNL A   1      50.480  27.724  26.174  1.00  0.00     0.023 A 
ATOM     65  C   UNL A   1      51.342  27.290  27.201  1.00  0.00     0.012 A 
ATOM     66  C   UNL A   1      50.976  27.859  24.863  1.00  0.00     0.148 A 
ATOM     67  C   UNL A   1      52.682  27.016  26.935  1.00  0.00     0.002 A 
ATOM     68  C   UNL A   1      52.304  27.550  24.598  1.00  0.00     0.091 A 
ATOM     69  F   UNL A   1      50.146  28.301  23.907  1.00  0.00    -0.205 F 
ATOM     70  C   UNL A   1      53.160  27.136  25.632  1.00  0.00     0.022 A 
BRANCH  68  71
ATOM     71  S   UNL A   1      52.996  27.612  22.942  1.00  0.00     0.127 S 
ATOM     72  O   UNL A   1      52.909  29.040  22.639  1.00  0.00    -0.237 OA
ATOM     73  O   UNL A   1      54.356  27.116  23.154  1.00  0.00    -0.237 OA
ATOM     74  O   UNL A   1      52.156  26.745  22.126  1.00  0.00    -0.744 OA
ENDBRANCH  68  71
ENDBRANCH  50  64
BRANCH  51  75
ATOM     75  C   UNL A   1      40.823  28.933  28.365  1.00  0.00     0.023 A 
ATOM     76  C   UNL A   1      39.892  29.253  27.357  1.00  0.00     0.012 A 
ATOM     77  C   UNL A   1      40.378  28.801  29.694  1.00  0.00     0.148 A 
ATOM     78  C   UNL A   1      38.549  29.466  27.671  1.00  0.00     0.002 A 
ATOM     79  C   UNL A   1      39.029  28.968  29.992  1.00  0.00     0.091 A 
ATOM     80  F   UNL A   1      41.283  28.522  30.643  1.00  0.00    -0.205 F 
ATOM     81  C   UNL A   1      38.116  29.313  28.985  1.00  0.00     0.022 A 
BRANCH  79  82
ATOM     82  S   UNL A   1      38.370  28.682  31.639  1.00  0.00     0.127 S 
ATOM     83  O   UNL A   1      39.164  29.607  32.444  1.00  0.00    -0.237 OA
ATOM     84  O   UNL A   1      36.966  29.058  31.476  1.00  0.00    -0.237 OA
ATOM     85  O   UNL A   1      38.583  27.266  31.903  1.00  0.00    -0.744 OA
ENDBRANCH  79  82
ENDBRANCH  51  75
BRANCH  63  86
ATOM     86  C   UNL A   1      46.403  33.125  28.637  1.00  0.00     0.023 A 
ATOM     87  C   UNL A   1      46.896  33.379  29.932  1.00  0.00     0.012 A 
ATOM     88  C   UNL A   1      46.188  34.203  27.755  1.00  0.00     0.148 A 
ATOM     89  C   UNL A   1      47.149  34.685  30.350  1.00  0.00     0.002 A 
ATOM     90  C   UNL A   1      46.485  35.499  28.163  1.00  0.00     0.091 A 
ATOM     91  F   UNL A   1      45.699  33.943  26.533  1.00  0.00    -0.205 F 
ATOM     92  C   UNL A   1      46.957  35.742  29.463  1.00  0.00     0.022 A 
BRANCH  90  93
ATOM     93  S   UNL A   1      46.356  36.906  27.053  1.00  0.00     0.127 S 
ATOM     94  O   UNL A   1      46.948  36.376  25.828  1.00  0.00    -0.237 OA
ATOM     95  O   UNL A   1      44.909  37.123  26.987  1.00  0.00    -0.237 OA
ATOM     96  O   UNL A   1      47.095  37.986  27.695  1.00  0.00    -0.744 OA
ENDBRANCH  90  93
ENDBRANCH  63  86
ENDBRANCH  37  38
ENDBRANCH  30  32
ENDBRANCH  29  30
ENDBRANCH  28  29
ENDBRANCH  27  28
ENDBRANCH  26  27
ENDBRANCH   1  26
TORSDOF 22
ENDMDL
MODEL 2
REMARK VINA RESULT:      -9.6      2.627      3.555
REMARK SMILES CC(C)c1nc(N2C[C@H](C)OC(C)(C)C2)sc1C(=O)OCCOCCOCCOC(=O)c1ccc(-c2c3nc(c(-c4cccc(S(=O)(=O)[O-])c4F)c4ccc([nH]4)c(-c4cccc(S(=O)(=O)[O-])c4F)c4nc(c(-c5cccc(S(=O)(=O)[O-])c5F)c5ccc2[nH]5)C=C4)C=C3)cc1
REMARK SMILES IDX 25 1 24 2 23 3 22 4 21 5 20 6 18 7 19 8 17 9 4 10 5 11 6 12
REMARK SMILES IDX 16 13 2 14 1 15 3 16 7 17 8 18 15 19 9 20 12 21 11 22 10 23
REMARK SMILES IDX 13 24 14 25 26 26 27 27 28 28 29 29 30 30 31 31 32 32 33 33
REMARK SMILES IDX 94 34 34 35 93 36 35 37 36 38 37 39 87 40 38 41 92 42 86 43
REMARK SMILES IDX 88 44 39 45 91 46 85 47 84 48 40 50 72 51 52 52 71 53 53 54
REMARK SMILES IDX 56 55 70 56 89 57 54 58 55 59 69 61 90 62 57 63 41 64 42 65
REMARK SMILES IDX 50 66 43 67 45 68 51 69 44 70 46 71 47 72 48 73 49 74 73 75
REMARK SMILES IDX 74 76 82 77 75 78 77 79 83 80 76 81 78 82 79 83 80 84 81 85
REMARK SMILES IDX 58 86 59 87 67 88 60 89 62 90 68 91 61 92 63 93 64 94 65 95
REMARK SMILES IDX 66 96
REMARK H PARENT 88 49 56 60
REMARK Flexibility Score: inf
ROOT
ATOM      1  C   UNL A   1      36.799  19.291  24.955  1.00  0.00     0.188 C 
ENDROOT
BRANCH   1   2
ATOM      2  C   UNL A   1      35.625  20.289  24.975  1.00  0.00     0.188 C 
BRANCH   2   3
ATOM      3  O   UNL A   1      34.317  19.815  24.676  1.00  0.00    -0.376 OA
BRANCH   3   4
ATOM      4  C   UNL A   1      33.301  19.914  25.667  1.00  0.00     0.202 C 
BRANCH   4   5
ATOM      5  C   UNL A   1      33.545  20.913  26.798  1.00  0.00     0.261 C 
BRANCH   5   6
ATOM      6  O   UNL A   1      32.953  22.194  26.517  1.00  0.00    -0.459 OA
BRANCH   6   7
ATOM      7  C   UNL A   1      33.831  23.213  26.297  1.00  0.00     0.350 C 
ATOM      8  O   UNL A   1      35.005  23.201  26.647  1.00  0.00    -0.245 OA
BRANCH   7   9
ATOM      9  C   UNL A   1      33.202  24.265  25.537  1.00  0.00     0.137 A 
ATOM     10  C   UNL A   1      32.976  24.443  24.179  1.00  0.00     0.071 A 
ATOM     11  N   UNL A   1      32.260  25.602  23.885  1.00  0.00    -0.224 NA
ATOM     12  C   UNL A   1      32.034  26.326  24.954  1.00  0.00     0.186 A 
ATOM     13  S   UNL A   1      32.616  25.630  26.409  1.00  0.00    -0.089 S 
BRANCH  10  14
ATOM     14  C   UNL A   1      33.395  23.576  23.007  1.00  0.00     0.034 C 
ATOM     15  C   UNL A   1      34.877  23.195  23.021  1.00  0.00     0.014 C 
ATOM     16  C   UNL A   1      32.569  22.280  22.923  1.00  0.00     0.014 C 
ENDBRANCH  10  14
BRANCH  12  17
ATOM     17  N   UNL A   1      31.346  27.485  24.921  1.00  0.00    -0.343 N 
ATOM     18  C   UNL A   1      31.495  28.534  25.920  1.00  0.00     0.150 C 
ATOM     19  C   UNL A   1      30.224  27.633  24.005  1.00  0.00     0.153 C 
ATOM     20  C   UNL A   1      31.546  29.898  25.190  1.00  0.00     0.135 C 
ATOM     21  C   UNL A   1      30.242  29.034  23.344  1.00  0.00     0.081 C 
ATOM     22  O   UNL A   1      30.409  30.084  24.324  1.00  0.00    -0.369 OA
ATOM     23  C   UNL A   1      31.555  31.056  26.179  1.00  0.00     0.040 C 
ATOM     24  C   UNL A   1      31.328  29.123  22.261  1.00  0.00     0.044 C 
ATOM     25  C   UNL A   1      28.878  29.292  22.690  1.00  0.00     0.044 C 
ENDBRANCH  12  17
ENDBRANCH   7   9
ENDBRANCH   6   7
ENDBRANCH   5   6
ENDBRANCH   4   5
ENDBRANCH   3   4
ENDBRANCH   2   3
ENDBRANCH   1   2
BRANCH   1  26
ATOM     26  O   UNL A   1      38.069  19.888  24.724  1.00  0.00    -0.376 OA
BRANCH  26  27
ATOM     27  C   UNL A   1      38.247  21.189  25.270  1.00  0.00     0.202 C 
BRANCH  27  28
ATOM     28  C   UNL A   1      39.460  21.322  26.197  1.00  0.00     0.261 C 
BRANCH  28  29
ATOM     29  O   UNL A   1      40.253  20.133  26.335  1.00  0.00    -0.460 OA
BRANCH  29  30
ATOM     30  C   UNL A   1      41.573  20.230  26.063  1.00  0.00     0.338 C 
ATOM     31  O   UNL A   1      42.262  19.422  25.467  1.00  0.00    -0.246 OA
BRANCH  30  32
ATOM     32  C   UNL A   1      42.010  21.588  26.454  1.00  0.00     0.060 A 
ATOM     33  C   UNL A   1      42.175  21.884  27.813  1.00  0.00     0.016 A 
ATOM     34  C   UNL A   1      42.276  22.554  25.480  1.00  0.00     0.016 A 
ATOM     35  C   UNL A   1      42.586  23.162  28.201  1.00  0.00     0.010 A 
ATOM     36  C   UNL A   1      42.674  23.834  25.871  1.00  0.00     0.010 A 
ATOM     37  C   UNL A   1      42.805  24.152  27.233  1.00  0.00    -0.014 A 
BRANCH  37  38
ATOM     38  C   UNL A   1      43.010  25.564  27.637  1.00  0.00     0.031 A 
ATOM     39  C   UNL A   1      44.412  26.111  27.647  1.00  0.00     0.074 A 
ATOM     40  C   UNL A   1      41.982  26.337  28.032  1.00  0.00     0.049 A 
ATOM     41  N   UNL A   1      44.834  27.301  27.981  1.00  0.00    -0.248 NA
ATOM     42  C   UNL A   1      45.480  25.189  27.223  1.00  0.00     0.031 C 
ATOM     43  C   UNL A   1      40.582  25.921  28.089  1.00  0.00     0.029 A 
ATOM     44  N   UNL A   1      41.968  27.633  28.488  1.00  0.00    -0.354 N 
ATOM     45  C   UNL A   1      46.215  27.268  27.829  1.00  0.00     0.074 A 
ATOM     46  C   UNL A   1      46.561  25.936  27.382  1.00  0.00     0.031 C 
ATOM     47  C   UNL A   1      39.847  26.935  28.583  1.00  0.00     0.029 A 
ATOM     48  C   UNL A   1      40.725  28.062  28.890  1.00  0.00     0.049 A 
ATOM     49  H   UNL A   1      42.772  28.199  28.525  1.00  0.00     0.167 HD
ATOM     50  C   UNL A   1      47.115  28.259  28.025  1.00  0.00     0.034 A 
ATOM     51  C   UNL A   1      40.345  29.228  29.452  1.00  0.00     0.034 A 
ATOM     52  C   UNL A   1      46.775  29.586  28.459  1.00  0.00     0.049 A 
ATOM     53  C   UNL A   1      41.372  30.311  29.680  1.00  0.00     0.074 A 
ATOM     54  C   UNL A   1      47.612  30.674  28.631  1.00  0.00     0.029 A 
ATOM     55  N   UNL A   1      45.499  30.002  28.803  1.00  0.00    -0.354 N 
ATOM     56  N   UNL A   1      42.649  30.316  29.382  1.00  0.00    -0.248 NA
ATOM     57  C   UNL A   1      40.897  31.562  30.293  1.00  0.00     0.031 C 
ATOM     58  C   UNL A   1      46.843  31.746  29.098  1.00  0.00     0.029 A 
ATOM     59  C   UNL A   1      45.526  31.327  29.201  1.00  0.00     0.049 A 
ATOM     60  H   UNL A   1      44.693  29.438  28.770  1.00  0.00     0.167 HD
ATOM     61  C   UNL A   1      43.120  31.577  29.736  1.00  0.00     0.074 A 
ATOM     62  C   UNL A   1      41.988  32.315  30.253  1.00  0.00     0.031 C 
ATOM     63  C   UNL A   1      44.379  32.073  29.653  1.00  0.00     0.034 A 
BRANCH  50  64
ATOM     64  C   UNL A   1      48.557  27.954  27.730  1.00  0.00     0.023 A 
ATOM     65  C   UNL A   1      49.044  28.131  26.419  1.00  0.00     0.012 A 
ATOM     66  C   UNL A   1      49.437  27.544  28.749  1.00  0.00     0.148 A 
ATOM     67  C   UNL A   1      50.383  27.881  26.121  1.00  0.00     0.002 A 
ATOM     68  C   UNL A   1      50.777  27.330  28.451  1.00  0.00     0.091 A 
ATOM     69  F   UNL A   1      48.946  27.354  29.981  1.00  0.00    -0.205 F 
ATOM     70  C   UNL A   1      51.250  27.491  27.138  1.00  0.00     0.022 A 
BRANCH  68  71
ATOM     71  S   UNL A   1      51.984  26.888  29.705  1.00  0.00     0.127 S 
ATOM     72  O   UNL A   1      53.186  26.682  28.898  1.00  0.00    -0.237 OA
ATOM     73  O   UNL A   1      52.013  28.085  30.545  1.00  0.00    -0.237 OA
ATOM     74  O   UNL A   1      51.459  25.700  30.363  1.00  0.00    -0.744 OA
ENDBRANCH  68  71
ENDBRANCH  50  64
BRANCH  51  75
ATOM     75  C   UNL A   1      38.915  29.463  29.798  1.00  0.00     0.023 A 
ATOM     76  C   UNL A   1      38.461  29.158  31.096  1.00  0.00     0.012 A 
ATOM     77  C   UNL A   1      38.006  29.982  28.857  1.00  0.00     0.148 A 
ATOM     78  C   UNL A   1      37.120  29.339  31.442  1.00  0.00     0.002 A 
ATOM     79  C   UNL A   1      36.682  30.205  29.223  1.00  0.00     0.091 A 
ATOM     80  F   UNL A   1      38.449  30.242  27.620  1.00  0.00    -0.205 F 
ATOM     81  C   UNL A   1      36.235  29.871  30.510  1.00  0.00     0.022 A 
BRANCH  79  82
ATOM     82  S   UNL A   1      35.501  30.988  28.118  1.00  0.00     0.127 S 
ATOM     83  O   UNL A   1      34.376  31.242  29.015  1.00  0.00    -0.237 OA
ATOM     84  O   UNL A   1      36.228  32.183  27.690  1.00  0.00    -0.237 OA
ATOM     85  O   UNL A   1      35.262  30.021  27.056  1.00  0.00    -0.744 OA
ENDBRANCH  79  82
ENDBRANCH  51  75
BRANCH  63  86
ATOM     86  C   UNL A   1      44.611  33.493  30.101  1.00  0.00     0.023 A 
ATOM     87  C   UNL A   1      45.120  33.742  31.391  1.00  0.00     0.012 A 
ATOM     88  C   UNL A   1      44.415  34.571  29.215  1.00  0.00     0.148 A 
ATOM     89  C   UNL A   1      45.406  35.044  31.800  1.00  0.00     0.002 A 
ATOM     90  C   UNL A   1      44.745  35.861  29.613  1.00  0.00     0.091 A 
ATOM     91  F   UNL A   1      43.911  34.316  27.998  1.00  0.00    -0.205 F 
ATOM     92  C   UNL A   1      45.231  36.101  30.909  1.00  0.00     0.022 A 
BRANCH  90  93
ATOM     93  S   UNL A   1      44.639  37.265  28.497  1.00  0.00     0.127 S 
ATOM     94  O   UNL A   1      43.207  37.550  28.509  1.00  0.00    -0.237 OA
ATOM     95  O   UNL A   1      45.467  38.267  29.171  1.00  0.00    -0.237 OA
ATOM     96  O   UNL A   1      45.179  36.801  27.225  1.00  0.00    -0.744 OA
ENDBRANCH  90  93
ENDBRANCH  63  86
ENDBRANCH  37  38
ENDBRANCH  30  32
ENDBRANCH  29  30
ENDBRANCH  28  29
ENDBRANCH  27  28
ENDBRANCH  26  27
ENDBRANCH   1  26
TORSDOF 22
ENDMDL
MODEL 3
REMARK VINA RESULT:      -9.5      1.962      3.169
REMARK SMILES CC(C)c1nc(N2C[C@H](C)OC(C)(C)C2)sc1C(=O)OCCOCCOCCOC(=O)c1ccc(-c2c3nc(c(-c4cccc(S(=O)(=O)[O-])c4F)c4ccc([nH]4)c(-c4cccc(S(=O)(=O)[O-])c4F)c4nc(c(-c5cccc(S(=O)(=O)[O-])c5F)c5ccc2[nH]5)C=C4)C=C3)cc1
REMARK SMILES IDX 25 1 24 2 23 3 22 4 21 5 20 6 18 7 19 8 17 9 4 10 5 11 6 12
REMARK SMILES IDX 16 13 2 14 1 15 3 16 7 17 8 18 15 19 9 20 12 21 11 22 10 23
REMARK SMILES IDX 13 24 14 25 26 26 27 27 28 28 29 29 30 30 31 31 32 32 33 33
REMARK SMILES IDX 94 34 34 35 93 36 35 37 36 38 37 39 87 40 38 41 92 42 86 43
REMARK SMILES IDX 88 44 39 45 91 46 85 47 84 48 40 50 72 51 52 52 71 53 53 54
REMARK SMILES IDX 56 55 70 56 89 57 54 58 55 59 69 61 90 62 57 63 41 64 42 65
REMARK SMILES IDX 50 66 43 67 45 68 51 69 44 70 46 71 47 72 48 73 49 74 73 75
REMARK SMILES IDX 74 76 82 77 75 78 77 79 83 80 76 81 78 82 79 83 80 84 81 85
REMARK SMILES IDX 58 86 59 87 67 88 60 89 62 90 68 91 61 92 63 93 64 94 65 95
REMARK SMILES IDX 66 96
REMARK H PARENT 88 49 56 60
REMARK Flexibility Score: inf
ROOT
ATOM      1  C   UNL A   1      36.718  18.862  24.983  1.00  0.00     0.188 C 
ENDROOT
BRANCH   1   2
ATOM      2  C   UNL A   1      35.532  19.847  24.963  1.00  0.00     0.188 C 
BRANCH   2   3
ATOM      3  O   UNL A   1      34.312  19.438  24.355  1.00  0.00    -0.376 OA
BRANCH   3   4
ATOM      4  C   UNL A   1      33.128  19.391  25.144  1.00  0.00     0.202 C 
BRANCH   4   5
ATOM      5  C   UNL A   1      33.081  20.314  26.361  1.00  0.00     0.261 C 
BRANCH   5   6
ATOM      6  O   UNL A   1      32.616  21.631  26.016  1.00  0.00    -0.459 OA
BRANCH   6   7
ATOM      7  C   UNL A   1      32.847  22.600  26.947  1.00  0.00     0.350 C 
ATOM      8  O   UNL A   1      32.818  22.415  28.157  1.00  0.00    -0.245 OA
BRANCH   7   9
ATOM      9  C   UNL A   1      33.195  23.843  26.304  1.00  0.00     0.137 A 
ATOM     10  C   UNL A   1      34.265  24.224  25.505  1.00  0.00     0.071 A 
ATOM     11  N   UNL A   1      34.166  25.534  25.038  1.00  0.00    -0.224 NA
ATOM     12  C   UNL A   1      33.124  26.156  25.534  1.00  0.00     0.186 A 
ATOM     13  S   UNL A   1      32.147  25.186  26.555  1.00  0.00    -0.089 S 
BRANCH  10  14
ATOM     14  C   UNL A   1      35.491  23.435  25.088  1.00  0.00     0.034 C 
ATOM     15  C   UNL A   1      35.675  23.339  23.571  1.00  0.00     0.014 C 
ATOM     16  C   UNL A   1      36.783  24.015  25.689  1.00  0.00     0.014 C 
ENDBRANCH  10  14
BRANCH  12  17
ATOM     17  N   UNL A   1      32.813  27.429  25.215  1.00  0.00    -0.343 N 
ATOM     18  C   UNL A   1      32.052  27.795  24.029  1.00  0.00     0.150 C 
ATOM     19  C   UNL A   1      33.450  28.529  25.925  1.00  0.00     0.153 C 
ATOM     20  C   UNL A   1      31.018  28.875  24.426  1.00  0.00     0.135 C 
ATOM     21  C   UNL A   1      32.420  29.640  26.245  1.00  0.00     0.081 C 
ATOM     22  O   UNL A   1      31.643  29.999  25.079  1.00  0.00    -0.369 OA
ATOM     23  C   UNL A   1      30.281  29.413  23.208  1.00  0.00     0.040 C 
ATOM     24  C   UNL A   1      31.500  29.228  27.405  1.00  0.00     0.044 C 
ATOM     25  C   UNL A   1      33.173  30.915  26.647  1.00  0.00     0.044 C 
ENDBRANCH  12  17
ENDBRANCH   7   9
ENDBRANCH   6   7
ENDBRANCH   5   6
ENDBRANCH   4   5
ENDBRANCH   3   4
ENDBRANCH   2   3
ENDBRANCH   1   2
BRANCH   1  26
ATOM     26  O   UNL A   1      37.978  19.460  24.706  1.00  0.00    -0.376 OA
BRANCH  26  27
ATOM     27  C   UNL A   1      38.160  20.777  25.211  1.00  0.00     0.202 C 
BRANCH  27  28
ATOM     28  C   UNL A   1      39.444  20.967  26.025  1.00  0.00     0.261 C 
BRANCH  28  29
ATOM     29  O   UNL A   1      40.150  19.757  26.338  1.00  0.00    -0.460 OA
BRANCH  29  30
ATOM     30  C   UNL A   1      41.483  19.740  26.116  1.00  0.00     0.338 C 
ATOM     31  O   UNL A   1      42.135  18.834  25.629  1.00  0.00    -0.246 OA
BRANCH  30  32
ATOM     32  C   UNL A   1      42.000  21.096  26.398  1.00  0.00     0.060 A 
ATOM     33  C   UNL A   1      42.280  21.455  27.723  1.00  0.00     0.016 A 
ATOM     34  C   UNL A   1      42.228  21.999  25.356  1.00  0.00     0.016 A 
ATOM     35  C   UNL A   1      42.769  22.732  28.009  1.00  0.00     0.010 A 
ATOM     36  C   UNL A   1      42.702  23.280  25.646  1.00  0.00     0.010 A 
ATOM     37  C   UNL A   1      42.950  23.662  26.974  1.00  0.00    -0.014 A 
BRANCH  37  38
ATOM     38  C   UNL A   1      43.239  25.083  27.285  1.00  0.00     0.031 A 
ATOM     39  C   UNL A   1      44.599  25.629  26.941  1.00  0.00     0.074 A 
ATOM     40  C   UNL A   1      42.333  25.865  27.898  1.00  0.00     0.049 A 
ATOM     41  N   UNL A   1      45.083  26.827  27.136  1.00  0.00    -0.248 NA
ATOM     42  C   UNL A   1      45.537  24.697  26.293  1.00  0.00     0.031 C 
ATOM     43  C   UNL A   1      40.990  25.451  28.302  1.00  0.00     0.029 A 
ATOM     44  N   UNL A   1      42.422  27.171  28.314  1.00  0.00    -0.354 N 
ATOM     45  C   UNL A   1      46.386  26.790  26.655  1.00  0.00     0.074 A 
ATOM     46  C   UNL A   1      46.621  25.448  26.168  1.00  0.00     0.031 C 
ATOM     47  C   UNL A   1      40.391  26.476  28.936  1.00  0.00     0.029 A 
ATOM     48  C   UNL A   1      41.312  27.611  28.995  1.00  0.00     0.049 A 
ATOM     49  H   UNL A   1      43.209  27.738  28.143  1.00  0.00     0.167 HD
ATOM     50  C   UNL A   1      47.301  27.785  26.604  1.00  0.00     0.034 A 
ATOM     51  C   UNL A   1      41.073  28.790  29.605  1.00  0.00     0.034 A 
ATOM     52  C   UNL A   1      47.069  29.122  27.076  1.00  0.00     0.049 A 
ATOM     53  C   UNL A   1      42.118  29.877  29.553  1.00  0.00     0.074 A 
ATOM     54  C   UNL A   1      47.917  30.214  27.016  1.00  0.00     0.029 A 
ATOM     55  N   UNL A   1      45.912  29.547  27.710  1.00  0.00    -0.354 N 
ATOM     56  N   UNL A   1      43.285  29.875  28.954  1.00  0.00    -0.248 NA
ATOM     57  C   UNL A   1      41.799  31.142  30.233  1.00  0.00     0.031 C 
ATOM     58  C   UNL A   1      47.278  31.296  27.630  1.00  0.00     0.029 A 
ATOM     59  C   UNL A   1      46.027  30.881  28.059  1.00  0.00     0.049 A 
ATOM     60  H   UNL A   1      45.125  28.982  27.886  1.00  0.00     0.167 HD
ATOM     61  C   UNL A   1      43.821  31.144  29.154  1.00  0.00     0.074 A 
ATOM     62  C   UNL A   1      42.844  31.895  29.913  1.00  0.00     0.031 C 
ATOM     63  C   UNL A   1      45.020  31.637  28.758  1.00  0.00     0.034 A 
BRANCH  50  64
ATOM     64  C   UNL A   1      48.630  27.473  25.975  1.00  0.00     0.023 A 
ATOM     65  C   UNL A   1      49.681  26.998  26.785  1.00  0.00     0.012 A 
ATOM     66  C   UNL A   1      48.826  27.601  24.587  1.00  0.00     0.148 A 
ATOM     67  C   UNL A   1      50.916  26.675  26.227  1.00  0.00     0.002 A 
ATOM     68  C   UNL A   1      50.049  27.244  24.033  1.00  0.00     0.091 A 
ATOM     69  F   UNL A   1      47.823  28.082  23.840  1.00  0.00    -0.205 F 
ATOM     70  C   UNL A   1      51.097  26.789  24.851  1.00  0.00     0.022 A 
BRANCH  68  71
ATOM     71  S   UNL A   1      50.357  27.294  22.264  1.00  0.00     0.127 S 
ATOM     72  O   UNL A   1      49.278  26.449  21.753  1.00  0.00    -0.237 OA
ATOM     73  O   UNL A   1      50.209  28.718  21.964  1.00  0.00    -0.237 OA
ATOM     74  O   UNL A   1      51.704  26.774  22.079  1.00  0.00    -0.744 OA
ENDBRANCH  68  71
ENDBRANCH  50  64
BRANCH  51  75
ATOM     75  C   UNL A   1      39.767  29.033  30.282  1.00  0.00     0.023 A 
ATOM     76  C   UNL A   1      39.546  28.497  31.566  1.00  0.00     0.012 A 
ATOM     77  C   UNL A   1      38.749  29.786  29.668  1.00  0.00     0.148 A 
ATOM     78  C   UNL A   1      38.323  28.682  32.213  1.00  0.00     0.002 A 
ATOM     79  C   UNL A   1      37.550  30.007  30.339  1.00  0.00     0.091 A 
ATOM     80  F   UNL A   1      38.968  30.266  28.436  1.00  0.00    -0.205 F 
ATOM     81  C   UNL A   1      37.331  29.445  31.605  1.00  0.00     0.022 A 
BRANCH  79  82
ATOM     82  S   UNL A   1      36.261  31.068  29.674  1.00  0.00     0.127 S 
ATOM     83  O   UNL A   1      35.633  30.193  28.687  1.00  0.00    -0.237 OA
ATOM     84  O   UNL A   1      35.449  31.343  30.859  1.00  0.00    -0.237 OA
ATOM     85  O   UNL A   1      36.954  32.233  29.141  1.00  0.00    -0.744 OA
ENDBRANCH  79  82
ENDBRANCH  51  75
BRANCH  63  86
ATOM     86  C   UNL A   1      45.346  33.067  29.103  1.00  0.00     0.023 A 
ATOM     87  C   UNL A   1      45.997  33.359  30.317  1.00  0.00     0.012 A 
ATOM     88  C   UNL A   1      45.091  34.107  28.187  1.00  0.00     0.148 A 
ATOM     89  C   UNL A   1      46.369  34.668  30.624  1.00  0.00     0.002 A 
ATOM     90  C   UNL A   1      45.504  35.402  28.480  1.00  0.00     0.091 A 
ATOM     91  F   UNL A   1      44.451  33.813  27.045  1.00  0.00    -0.205 F 
ATOM     92  C   UNL A   1      46.135  35.686  29.702  1.00  0.00     0.022 A 
BRANCH  90  93
ATOM     93  S   UNL A   1      45.326  36.753  27.309  1.00  0.00     0.127 S 
ATOM     94  O   UNL A   1      46.156  36.296  26.197  1.00  0.00    -0.237 OA
ATOM     95  O   UNL A   1      43.887  36.748  27.038  1.00  0.00    -0.237 OA
ATOM     96  O   UNL A   1      45.801  37.944  28.002  1.00  0.00    -0.744 OA
ENDBRANCH  90  93
ENDBRANCH  63  86
ENDBRANCH  37  38
ENDBRANCH  30  32
ENDBRANCH  29  30
ENDBRANCH  28  29
ENDBRANCH  27  28
ENDBRANCH  26  27
ENDBRANCH   1  26
TORSDOF 22
ENDMDL
