MODEL 1
REMARK VINA RESULT:      -8.3      0.000      0.000
REMARK SMILES CC(C)CSc1cc2c(cc1Cl)C=C(C(=O)OCCOCCOCCOC(=O)c1ccc(-c3c4nc(c(-c5cccc(S(=O)(=O)[O-])c5F)c5ccc([nH]5)c(-c5cccc(S(=O)(=O)[O-])c5F)c5nc(c(-c6cccc(S(=O)(=O)[O-])c6F)c6ccc3[nH]6)C=C5)C=C4)cc1)[C@@H](C(F)(F)F)O2
REMARK SMILES IDX 21 1 20 2 19 3 18 4 17 5 15 6 16 7 14 8 6 9 7 10 11 11 8 12
REMARK SMILES IDX 10 13 12 14 9 15 97 16 13 17 92 18 5 19 4 20 2 21 1 22 3 23
REMARK SMILES IDX 93 24 94 25 95 26 96 27 22 28 23 29 24 30 25 31 26 32 27 33
REMARK SMILES IDX 28 34 29 35 30 36 91 37 31 38 90 39 32 40 33 41 34 42 84 43
REMARK SMILES IDX 35 44 89 45 83 46 85 47 36 48 88 49 82 50 81 51 37 53 69 54
REMARK SMILES IDX 49 55 68 56 50 57 53 58 67 59 86 60 51 61 52 62 66 64 87 65
REMARK SMILES IDX 54 66 38 67 39 68 47 69 40 70 42 71 48 72 41 73 43 74 44 75
REMARK SMILES IDX 45 76 46 77 70 78 71 79 79 80 72 81 74 82 80 83 73 84 75 85
REMARK SMILES IDX 76 86 77 87 78 88 55 89 56 90 64 91 57 92 59 93 65 94 58 95
REMARK SMILES IDX 60 96 61 97 62 98 63 99
REMARK H PARENT 85 52 53 63
REMARK Flexibility Score: inf
ROOT
ATOM      1  C   UNL A   1      32.556  36.293  30.752  1.00  0.00     0.188 C 
ENDROOT
BRANCH   1   2
ATOM      2  O   UNL A   1      32.422  35.514  31.930  1.00  0.00    -0.376 OA
BRANCH   2   3
ATOM      3  C   UNL A   1      32.901  36.082  33.135  1.00  0.00     0.202 C 
BRANCH   3   4
ATOM      4  C   UNL A   1      34.425  36.164  33.296  1.00  0.00     0.261 C 
BRANCH   4   5
ATOM      5  O   UNL A   1      34.977  35.341  34.335  1.00  0.00    -0.460 OA
BRANCH   5   6
ATOM      6  C   UNL A   1      35.428  34.120  33.981  1.00  0.00     0.338 C 
ATOM      7  O   UNL A   1      34.763  33.106  33.870  1.00  0.00    -0.246 OA
BRANCH   6   8
ATOM      8  C   UNL A   1      36.861  34.239  33.633  1.00  0.00     0.087 C 
ATOM      9  C   UNL A   1      41.298  34.389  31.266  1.00  0.00     0.030 A 
ATOM     10  C   UNL A   1      40.896  34.325  32.612  1.00  0.00     0.063 A 
ATOM     11  C   UNL A   1      40.320  34.656  30.297  1.00  0.00     0.055 A 
ATOM     12  C   UNL A   1      39.546  34.379  32.964  1.00  0.00     0.129 A 
ATOM     13  C   UNL A   1      38.962  34.672  30.649  1.00  0.00     0.033 A 
ATOM     14  Cl  UNL A   1      40.696  35.003  28.648  1.00  0.00    -0.083 Cl
ATOM     15  C   UNL A   1      38.570  34.486  31.977  1.00  0.00     0.019 A 
ATOM     16  O   UNL A   1      39.271  34.270  34.297  1.00  0.00    -0.475 OA
ATOM     17  C   UNL A   1      37.167  34.348  32.332  1.00  0.00     0.027 C 
ATOM     18  C   UNL A   1      37.886  34.305  34.738  1.00  0.00     0.316 C 
BRANCH   9  19
ATOM     19  S   UNL A   1      43.035  34.072  30.969  1.00  0.00    -0.124 SA
BRANCH  19  20
ATOM     20  C   UNL A   1      43.878  35.518  31.737  1.00  0.00     0.078 C 
BRANCH  20  21
ATOM     21  C   UNL A   1      45.385  35.403  32.046  1.00  0.00    -0.007 C 
ATOM     22  C   UNL A   1      46.066  34.174  31.445  1.00  0.00     0.008 C 
ATOM     23  C   UNL A   1      46.091  36.656  31.505  1.00  0.00     0.008 C 
ENDBRANCH  20  21
ENDBRANCH  19  20
ENDBRANCH   9  19
BRANCH  18  24
ATOM     24  C   UNL A   1      37.720  33.196  35.788  1.00  0.00     0.430 C 
ATOM     25  F   UNL A   1      37.366  32.022  35.206  1.00  0.00    -0.167 F 
ATOM     26  F   UNL A   1      38.865  32.952  36.466  1.00  0.00    -0.167 F 
ATOM     27  F   UNL A   1      36.767  33.498  36.699  1.00  0.00    -0.167 F 
ENDBRANCH  18  24
ENDBRANCH   6   8
ENDBRANCH   5   6
ENDBRANCH   4   5
ENDBRANCH   3   4
ENDBRANCH   2   3
ENDBRANCH   1   2
BRANCH   1  28
ATOM     28  C   UNL A   1      33.246  35.525  29.605  1.00  0.00     0.188 C 
BRANCH  28  29
ATOM     29  O   UNL A   1      32.457  34.748  28.711  1.00  0.00    -0.376 OA
BRANCH  29  30
ATOM     30  C   UNL A   1      33.112  33.883  27.788  1.00  0.00     0.202 C 
BRANCH  30  31
ATOM     31  C   UNL A   1      34.599  33.582  28.008  1.00  0.00     0.261 C 
BRANCH  31  32
ATOM     32  O   UNL A   1      34.862  32.250  28.476  1.00  0.00    -0.460 OA
BRANCH  32  33
ATOM     33  C   UNL A   1      35.097  32.129  29.809  1.00  0.00     0.338 C 
ATOM     34  O   UNL A   1      34.344  32.430  30.719  1.00  0.00    -0.246 OA
BRANCH  33  35
ATOM     35  C   UNL A   1      36.348  31.367  30.003  1.00  0.00     0.060 A 
ATOM     36  C   UNL A   1      37.472  31.618  29.215  1.00  0.00     0.016 A 
ATOM     37  C   UNL A   1      36.382  30.376  30.995  1.00  0.00     0.016 A 
ATOM     38  C   UNL A   1      38.640  30.882  29.434  1.00  0.00     0.010 A 
ATOM     39  C   UNL A   1      37.544  29.628  31.197  1.00  0.00     0.010 A 
ATOM     40  C   UNL A   1      38.686  29.886  30.426  1.00  0.00    -0.014 A 
BRANCH  40  41
ATOM     41  C   UNL A   1      39.979  29.245  30.760  1.00  0.00     0.031 A 
ATOM     42  C   UNL A   1      40.544  28.124  29.943  1.00  0.00     0.074 A 
ATOM     43  C   UNL A   1      40.648  29.699  31.836  1.00  0.00     0.049 A 
ATOM     44  N   UNL A   1      41.724  27.565  30.035  1.00  0.00    -0.248 NA
ATOM     45  C   UNL A   1      39.686  27.553  28.895  1.00  0.00     0.031 C 
ATOM     46  C   UNL A   1      40.164  30.741  32.745  1.00  0.00     0.029 A 
ATOM     47  N   UNL A   1      41.871  29.349  32.347  1.00  0.00    -0.354 N 
ATOM     48  C   UNL A   1      41.758  26.580  29.057  1.00  0.00     0.074 A 
ATOM     49  C   UNL A   1      40.469  26.601  28.397  1.00  0.00     0.031 C 
ATOM     50  C   UNL A   1      41.087  30.955  33.693  1.00  0.00     0.029 A 
ATOM     51  C   UNL A   1      42.225  30.071  33.461  1.00  0.00     0.049 A 
ATOM     52  H   UNL A   1      42.440  28.647  31.955  1.00  0.00     0.167 HD
ATOM     53  C   UNL A   1      42.782  25.758  28.729  1.00  0.00     0.034 A 
ATOM     54  C   UNL A   1      43.349  30.044  34.203  1.00  0.00     0.034 A 
ATOM     55  C   UNL A   1      44.066  25.755  29.379  1.00  0.00     0.049 A 
ATOM     56  C   UNL A   1      44.477  29.139  33.801  1.00  0.00     0.074 A 
ATOM     57  C   UNL A   1      45.188  25.008  29.059  1.00  0.00     0.029 A 
ATOM     58  N   UNL A   1      44.400  26.518  30.487  1.00  0.00    -0.354 N 
ATOM     59  N   UNL A   1      44.553  28.332  32.772  1.00  0.00    -0.248 NA
ATOM     60  C   UNL A   1      45.684  29.164  34.639  1.00  0.00     0.031 C 
ATOM     61  C   UNL A   1      46.196  25.311  29.980  1.00  0.00     0.029 A 
ATOM     62  C   UNL A   1      45.704  26.252  30.868  1.00  0.00     0.049 A 
ATOM     63  H   UNL A   1      43.798  27.155  30.936  1.00  0.00     0.167 HD
ATOM     64  C   UNL A   1      45.820  27.767  32.824  1.00  0.00     0.074 A 
ATOM     65  C   UNL A   1      46.485  28.335  33.980  1.00  0.00     0.031 C 
ATOM     66  C   UNL A   1      46.374  26.850  31.996  1.00  0.00     0.034 A 
BRANCH  53  67
ATOM     67  C   UNL A   1      42.605  24.833  27.556  1.00  0.00     0.023 A 
ATOM     68  C   UNL A   1      43.093  25.235  26.297  1.00  0.00     0.012 A 
ATOM     69  C   UNL A   1      42.098  23.529  27.722  1.00  0.00     0.148 A 
ATOM     70  C   UNL A   1      43.076  24.354  25.216  1.00  0.00     0.002 A 
ATOM     71  C   UNL A   1      42.108  22.648  26.647  1.00  0.00     0.091 A 
ATOM     72  F   UNL A   1      41.634  23.175  28.928  1.00  0.00    -0.205 F 
ATOM     73  C   UNL A   1      42.594  23.060  25.393  1.00  0.00     0.022 A 
BRANCH  71  74
ATOM     74  S   UNL A   1      41.564  20.941  26.778  1.00  0.00     0.127 S 
ATOM     75  O   UNL A   1      42.334  20.475  27.931  1.00  0.00    -0.237 OA
ATOM     76  O   UNL A   1      40.130  21.094  27.024  1.00  0.00    -0.237 OA
ATOM     77  O   UNL A   1      41.905  20.310  25.511  1.00  0.00    -0.744 OA
ENDBRANCH  71  74
ENDBRANCH  53  67
BRANCH  54  78
ATOM     78  C   UNL A   1      43.480  30.986  35.343  1.00  0.00     0.023 A 
ATOM     79  C   UNL A   1      43.203  30.530  36.645  1.00  0.00     0.012 A 
ATOM     80  C   UNL A   1      43.964  32.295  35.152  1.00  0.00     0.148 A 
ATOM     81  C   UNL A   1      43.403  31.366  37.743  1.00  0.00     0.002 A 
ATOM     82  C   UNL A   1      44.198  33.108  36.253  1.00  0.00     0.091 A 
ATOM     83  F   UNL A   1      44.218  32.700  33.900  1.00  0.00    -0.205 F 
ATOM     84  C   UNL A   1      43.909  32.649  37.549  1.00  0.00     0.022 A 
BRANCH  82  85
ATOM     85  S   UNL A   1      44.947  34.735  36.116  1.00  0.00     0.127 S 
ATOM     86  O   UNL A   1      46.195  34.430  35.421  1.00  0.00    -0.237 OA
ATOM     87  O   UNL A   1      43.955  35.453  35.316  1.00  0.00    -0.237 OA
ATOM     88  O   UNL A   1      45.092  35.221  37.481  1.00  0.00    -0.744 OA
ENDBRANCH  82  85
ENDBRANCH  54  78
BRANCH  66  89
ATOM     89  C   UNL A   1      47.771  26.381  32.292  1.00  0.00     0.023 A 
ATOM     90  C   UNL A   1      48.862  27.087  31.750  1.00  0.00     0.012 A 
ATOM     91  C   UNL A   1      48.005  25.326  33.196  1.00  0.00     0.148 A 
ATOM     92  C   UNL A   1      50.168  26.745  32.097  1.00  0.00     0.002 A 
ATOM     93  C   UNL A   1      49.308  25.012  33.562  1.00  0.00     0.091 A 
ATOM     94  F   UNL A   1      46.948  24.664  33.691  1.00  0.00    -0.205 F 
ATOM     95  C   UNL A   1      50.390  25.717  33.010  1.00  0.00     0.022 A 
BRANCH  93  96
ATOM     96  S   UNL A   1      49.697  23.753  34.785  1.00  0.00     0.127 S 
ATOM     97  O   UNL A   1      51.157  23.817  34.823  1.00  0.00    -0.237 OA
ATOM     98  O   UNL A   1      49.031  24.269  35.981  1.00  0.00    -0.237 OA
ATOM     99  O   UNL A   1      49.145  22.507  34.272  1.00  0.00    -0.744 OA
ENDBRANCH  93  96
ENDBRANCH  66  89
ENDBRANCH  40  41
ENDBRANCH  33  35
ENDBRANCH  32  33
ENDBRANCH  31  32
ENDBRANCH  30  31
ENDBRANCH  29  30
ENDBRANCH  28  29
ENDBRANCH   1  28
TORSDOF 24
ENDMDL
MODEL 2
REMARK VINA RESULT:      -8.2      5.695     11.161
REMARK SMILES CC(C)CSc1cc2c(cc1Cl)C=C(C(=O)OCCOCCOCCOC(=O)c1ccc(-c3c4nc(c(-c5cccc(S(=O)(=O)[O-])c5F)c5ccc([nH]5)c(-c5cccc(S(=O)(=O)[O-])c5F)c5nc(c(-c6cccc(S(=O)(=O)[O-])c6F)c6ccc3[nH]6)C=C5)C=C4)cc1)[C@@H](C(F)(F)F)O2
REMARK SMILES IDX 21 1 20 2 19 3 18 4 17 5 15 6 16 7 14 8 6 9 7 10 11 11 8 12
REMARK SMILES IDX 10 13 12 14 9 15 97 16 13 17 92 18 5 19 4 20 2 21 1 22 3 23
REMARK SMILES IDX 93 24 94 25 95 26 96 27 22 28 23 29 24 30 25 31 26 32 27 33
REMARK SMILES IDX 28 34 29 35 30 36 91 37 31 38 90 39 32 40 33 41 34 42 84 43
REMARK SMILES IDX 35 44 89 45 83 46 85 47 36 48 88 49 82 50 81 51 37 53 69 54
REMARK SMILES IDX 49 55 68 56 50 57 53 58 67 59 86 60 51 61 52 62 66 64 87 65
REMARK SMILES IDX 54 66 38 67 39 68 47 69 40 70 42 71 48 72 41 73 43 74 44 75
REMARK SMILES IDX 45 76 46 77 70 78 71 79 79 80 72 81 74 82 80 83 73 84 75 85
REMARK SMILES IDX 76 86 77 87 78 88 55 89 56 90 64 91 57 92 59 93 65 94 58 95
REMARK SMILES IDX 60 96 61 97 62 98 63 99
REMARK H PARENT 85 52 53 63
REMARK Flexibility Score: inf
ROOT
ATOM      1  C   UNL A   1      34.180  32.161  28.457  1.00  0.00     0.188 C 
ENDROOT
BRANCH   1   2
ATOM      2  O   UNL A   1      35.324  31.324  28.429  1.00  0.00    -0.376 OA
BRANCH   2   3
ATOM      3  C   UNL A   1      35.284  30.208  27.559  1.00  0.00     0.202 C 
BRANCH   3   4
ATOM      4  C   UNL A   1      33.916  29.855  26.959  1.00  0.00     0.261 C 
BRANCH   4   5
ATOM      5  O   UNL A   1      33.602  28.454  26.931  1.00  0.00    -0.460 OA
BRANCH   5   6
ATOM      6  C   UNL A   1      33.472  27.876  25.718  1.00  0.00     0.338 C 
ATOM      7  O   UNL A   1      33.575  28.427  24.637  1.00  0.00    -0.246 OA
BRANCH   6   8
ATOM      8  C   UNL A   1      33.294  26.420  25.917  1.00  0.00     0.087 C 
ATOM      9  C   UNL A   1      33.795  21.415  25.938  1.00  0.00     0.030 A 
ATOM     10  C   UNL A   1      32.746  22.305  26.228  1.00  0.00     0.063 A 
ATOM     11  C   UNL A   1      35.083  21.943  25.768  1.00  0.00     0.055 A 
ATOM     12  C   UNL A   1      32.947  23.687  26.205  1.00  0.00     0.129 A 
ATOM     13  C   UNL A   1      35.274  23.331  25.708  1.00  0.00     0.033 A 
ATOM     14  Cl  UNL A   1      36.498  20.961  25.649  1.00  0.00    -0.083 Cl
ATOM     15  C   UNL A   1      34.198  24.205  25.880  1.00  0.00     0.019 A 
ATOM     16  O   UNL A   1      31.850  24.455  26.467  1.00  0.00    -0.475 OA
ATOM     17  C   UNL A   1      34.352  25.636  25.669  1.00  0.00     0.027 C 
ATOM     18  C   UNL A   1      31.980  25.903  26.449  1.00  0.00     0.316 C 
BRANCH   9  19
ATOM     19  S   UNL A   1      33.319  19.695  25.780  1.00  0.00    -0.124 SA
BRANCH  19  20
ATOM     20  C   UNL A   1      33.318  19.410  23.961  1.00  0.00     0.078 C 
BRANCH  20  21
ATOM     21  C   UNL A   1      33.202  17.959  23.451  1.00  0.00    -0.007 C 
ATOM     22  C   UNL A   1      32.687  16.960  24.487  1.00  0.00     0.008 C 
ATOM     23  C   UNL A   1      32.247  17.939  22.248  1.00  0.00     0.008 C 
ENDBRANCH  20  21
ENDBRANCH  19  20
ENDBRANCH   9  19
BRANCH  18  24
ATOM     24  C   UNL A   1      30.760  26.455  25.695  1.00  0.00     0.430 C 
ATOM     25  F   UNL A   1      30.690  27.806  25.802  1.00  0.00    -0.167 F 
ATOM     26  F   UNL A   1      30.806  26.182  24.370  1.00  0.00    -0.167 F 
ATOM     27  F   UNL A   1      29.600  25.951  26.172  1.00  0.00    -0.167 F 
ENDBRANCH  18  24
ENDBRANCH   6   8
ENDBRANCH   5   6
ENDBRANCH   4   5
ENDBRANCH   3   4
ENDBRANCH   2   3
ENDBRANCH   1   2
BRANCH   1  28
ATOM     28  C   UNL A   1      34.475  33.555  29.051  1.00  0.00     0.188 C 
BRANCH  28  29
ATOM     29  O   UNL A   1      33.655  34.053  30.102  1.00  0.00    -0.376 OA
BRANCH  29  30
ATOM     30  C   UNL A   1      34.273  34.495  31.307  1.00  0.00     0.202 C 
BRANCH  30  31
ATOM     31  C   UNL A   1      34.252  33.555  32.518  1.00  0.00     0.261 C 
BRANCH  31  32
ATOM     32  O   UNL A   1      35.096  32.401  32.375  1.00  0.00    -0.460 OA
BRANCH  32  33
ATOM     33  C   UNL A   1      36.167  32.347  33.210  1.00  0.00     0.338 C 
ATOM     34  O   UNL A   1      36.154  32.406  34.427  1.00  0.00    -0.246 OA
BRANCH  33  35
ATOM     35  C   UNL A   1      37.366  31.990  32.423  1.00  0.00     0.060 A 
ATOM     36  C   UNL A   1      38.443  31.328  33.015  1.00  0.00     0.016 A 
ATOM     37  C   UNL A   1      37.404  32.338  31.065  1.00  0.00     0.016 A 
ATOM     38  C   UNL A   1      39.556  31.000  32.236  1.00  0.00     0.010 A 
ATOM     39  C   UNL A   1      38.526  32.027  30.295  1.00  0.00     0.010 A 
ATOM     40  C   UNL A   1      39.605  31.343  30.873  1.00  0.00    -0.014 A 
BRANCH  40  41
ATOM     41  C   UNL A   1      40.709  30.832  30.028  1.00  0.00     0.031 A 
ATOM     42  C   UNL A   1      41.973  31.608  29.818  1.00  0.00     0.074 A 
ATOM     43  C   UNL A   1      40.551  29.631  29.442  1.00  0.00     0.049 A 
ATOM     44  N   UNL A   1      43.073  31.226  29.222  1.00  0.00    -0.248 NA
ATOM     45  C   UNL A   1      42.013  32.985  30.331  1.00  0.00     0.031 C 
ATOM     46  C   UNL A   1      39.338  28.814  29.523  1.00  0.00     0.029 A 
ATOM     47  N   UNL A   1      41.405  28.888  28.669  1.00  0.00    -0.354 N 
ATOM     48  C   UNL A   1      43.942  32.306  29.291  1.00  0.00     0.074 A 
ATOM     49  C   UNL A   1      43.231  33.372  29.967  1.00  0.00     0.031 C 
ATOM     50  C   UNL A   1      39.532  27.677  28.839  1.00  0.00     0.029 A 
ATOM     51  C   UNL A   1      40.878  27.683  28.274  1.00  0.00     0.049 A 
ATOM     52  H   UNL A   1      42.309  29.190  28.420  1.00  0.00     0.167 HD
ATOM     53  C   UNL A   1      45.221  32.385  28.853  1.00  0.00     0.034 A 
ATOM     54  C   UNL A   1      41.422  26.681  27.557  1.00  0.00     0.034 A 
ATOM     55  C   UNL A   1      45.926  31.315  28.197  1.00  0.00     0.049 A 
ATOM     56  C   UNL A   1      42.848  26.786  27.104  1.00  0.00     0.074 A 
ATOM     57  C   UNL A   1      47.249  31.282  27.791  1.00  0.00     0.029 A 
ATOM     58  N   UNL A   1      45.370  30.098  27.837  1.00  0.00    -0.354 N 
ATOM     59  N   UNL A   1      43.708  27.751  27.323  1.00  0.00    -0.248 NA
ATOM     60  C   UNL A   1      43.392  25.655  26.339  1.00  0.00     0.031 C 
ATOM     61  C   UNL A   1      47.490  30.051  27.174  1.00  0.00     0.029 A 
ATOM     62  C   UNL A   1      46.319  29.313  27.204  1.00  0.00     0.049 A 
ATOM     63  H   UNL A   1      44.436  29.831  28.006  1.00  0.00     0.167 HD
ATOM     64  C   UNL A   1      44.899  27.338  26.741  1.00  0.00     0.074 A 
ATOM     65  C   UNL A   1      44.656  26.028  26.172  1.00  0.00     0.031 C 
ATOM     66  C   UNL A   1      46.081  27.995  26.674  1.00  0.00     0.034 A 
BRANCH  53  67
ATOM     67  C   UNL A   1      45.993  33.645  29.133  1.00  0.00     0.023 A 
ATOM     68  C   UNL A   1      46.773  33.714  30.305  1.00  0.00     0.012 A 
ATOM     69  C   UNL A   1      46.065  34.685  28.187  1.00  0.00     0.148 A 
ATOM     70  C   UNL A   1      47.613  34.804  30.534  1.00  0.00     0.002 A 
ATOM     71  C   UNL A   1      46.923  35.756  28.411  1.00  0.00     0.091 A 
ATOM     72  F   UNL A   1      45.308  34.598  27.086  1.00  0.00    -0.205 F 
ATOM     73  C   UNL A   1      47.696  35.818  29.584  1.00  0.00     0.022 A 
BRANCH  71  74
ATOM     74  S   UNL A   1      47.150  37.088  27.227  1.00  0.00     0.127 S 
ATOM     75  O   UNL A   1      47.485  36.347  26.011  1.00  0.00    -0.237 OA
ATOM     76  O   UNL A   1      45.829  37.717  27.215  1.00  0.00    -0.237 OA
ATOM     77  O   UNL A   1      48.220  37.922  27.757  1.00  0.00    -0.744 OA
ENDBRANCH  71  74
ENDBRANCH  53  67
BRANCH  54  78
ATOM     78  C   UNL A   1      40.621  25.453  27.318  1.00  0.00     0.023 A 
ATOM     79  C   UNL A   1      39.355  25.566  26.712  1.00  0.00     0.012 A 
ATOM     80  C   UNL A   1      41.146  24.177  27.601  1.00  0.00     0.148 A 
ATOM     81  C   UNL A   1      38.621  24.424  26.394  1.00  0.00     0.002 A 
ATOM     82  C   UNL A   1      40.425  23.044  27.246  1.00  0.00     0.091 A 
ATOM     83  F   UNL A   1      42.353  24.102  28.177  1.00  0.00    -0.205 F 
ATOM     84  C   UNL A   1      39.159  23.165  26.651  1.00  0.00     0.022 A 
BRANCH  82  85
ATOM     85  S   UNL A   1      41.077  21.381  27.437  1.00  0.00     0.127 S 
ATOM     86  O   UNL A   1      41.179  21.266  28.890  1.00  0.00    -0.237 OA
ATOM     87  O   UNL A   1      40.020  20.575  26.827  1.00  0.00    -0.237 OA
ATOM     88  O   UNL A   1      42.343  21.366  26.718  1.00  0.00    -0.744 OA
ENDBRANCH  82  85
ENDBRANCH  54  78
BRANCH  66  89
ATOM     89  C   UNL A   1      47.222  27.327  25.958  1.00  0.00     0.023 A 
ATOM     90  C   UNL A   1      47.321  27.450  24.559  1.00  0.00     0.012 A 
ATOM     91  C   UNL A   1      48.251  26.684  26.675  1.00  0.00     0.148 A 
ATOM     92  C   UNL A   1      48.426  26.937  23.881  1.00  0.00     0.002 A 
ATOM     93  C   UNL A   1      49.364  26.204  25.996  1.00  0.00     0.091 A 
ATOM     94  F   UNL A   1      48.127  26.572  28.006  1.00  0.00    -0.205 F 
ATOM     95  C   UNL A   1      49.451  26.326  24.599  1.00  0.00     0.022 A 
BRANCH  93  96
ATOM     96  S   UNL A   1      50.770  25.465  26.836  1.00  0.00     0.127 S 
ATOM     97  O   UNL A   1      51.629  25.097  25.711  1.00  0.00    -0.237 OA
ATOM     98  O   UNL A   1      51.266  26.579  27.645  1.00  0.00    -0.237 OA
ATOM     99  O   UNL A   1      50.240  24.345  27.603  1.00  0.00    -0.744 OA
ENDBRANCH  93  96
ENDBRANCH  66  89
ENDBRANCH  40  41
ENDBRANCH  33  35
ENDBRANCH  32  33
ENDBRANCH  31  32
ENDBRANCH  30  31
ENDBRANCH  29  30
ENDBRANCH  28  29
ENDBRANCH   1  28
TORSDOF 24
ENDMDL
MODEL 3
REMARK VINA RESULT:      -7.8      3.129      4.652
REMARK SMILES CC(C)CSc1cc2c(cc1Cl)C=C(C(=O)OCCOCCOCCOC(=O)c1ccc(-c3c4nc(c(-c5cccc(S(=O)(=O)[O-])c5F)c5ccc([nH]5)c(-c5cccc(S(=O)(=O)[O-])c5F)c5nc(c(-c6cccc(S(=O)(=O)[O-])c6F)c6ccc3[nH]6)C=C5)C=C4)cc1)[C@@H](C(F)(F)F)O2
REMARK SMILES IDX 21 1 20 2 19 3 18 4 17 5 15 6 16 7 14 8 6 9 7 10 11 11 8 12
REMARK SMILES IDX 10 13 12 14 9 15 97 16 13 17 92 18 5 19 4 20 2 21 1 22 3 23
REMARK SMILES IDX 93 24 94 25 95 26 96 27 22 28 23 29 24 30 25 31 26 32 27 33
REMARK SMILES IDX 28 34 29 35 30 36 91 37 31 38 90 39 32 40 33 41 34 42 84 43
REMARK SMILES IDX 35 44 89 45 83 46 85 47 36 48 88 49 82 50 81 51 37 53 69 54
REMARK SMILES IDX 49 55 68 56 50 57 53 58 67 59 86 60 51 61 52 62 66 64 87 65
REMARK SMILES IDX 54 66 38 67 39 68 47 69 40 70 42 71 48 72 41 73 43 74 44 75
REMARK SMILES IDX 45 76 46 77 70 78 71 79 79 80 72 81 74 82 80 83 73 84 75 85
REMARK SMILES IDX 76 86 77 87 78 88 55 89 56 90 64 91 57 92 59 93 65 94 58 95
REMARK SMILES IDX 60 96 61 97 62 98 63 99
REMARK H PARENT 85 52 53 63
REMARK Flexibility Score: inf
ROOT
ATOM      1  C   UNL A   1      33.828  36.928  33.141  1.00  0.00     0.188 C 
ENDROOT
BRANCH   1   2
ATOM      2  O   UNL A   1      33.979  35.542  32.884  1.00  0.00    -0.376 OA
BRANCH   2   3
ATOM      3  C   UNL A   1      35.277  34.997  33.035  1.00  0.00     0.202 C 
BRANCH   3   4
ATOM      4  C   UNL A   1      35.482  34.031  34.210  1.00  0.00     0.261 C 
BRANCH   4   5
ATOM      5  O   UNL A   1      36.739  34.154  34.892  1.00  0.00    -0.460 OA
BRANCH   5   6
ATOM      6  C   UNL A   1      36.882  33.475  36.050  1.00  0.00     0.338 C 
ATOM      7  O   UNL A   1      36.090  33.444  36.974  1.00  0.00    -0.246 OA
BRANCH   6   8
ATOM      8  C   UNL A   1      38.121  32.670  35.965  1.00  0.00     0.087 C 
ATOM      9  C   UNL A   1      41.634  29.249  34.841  1.00  0.00     0.030 A 
ATOM     10  C   UNL A   1      41.485  30.220  35.846  1.00  0.00     0.063 A 
ATOM     11  C   UNL A   1      40.746  29.281  33.755  1.00  0.00     0.055 A 
ATOM     12  C   UNL A   1      40.399  31.099  35.844  1.00  0.00     0.129 A 
ATOM     13  C   UNL A   1      39.637  30.139  33.774  1.00  0.00     0.033 A 
ATOM     14  Cl  UNL A   1      40.954  28.316  32.338  1.00  0.00    -0.083 Cl
ATOM     15  C   UNL A   1      39.436  31.016  34.842  1.00  0.00     0.019 A 
ATOM     16  O   UNL A   1      40.337  31.975  36.889  1.00  0.00    -0.475 OA
ATOM     17  C   UNL A   1      38.215  31.800  34.950  1.00  0.00     0.027 C 
ATOM     18  C   UNL A   1      39.228  32.913  36.960  1.00  0.00     0.316 C 
BRANCH   9  19
ATOM     19  S   UNL A   1      42.940  28.056  35.116  1.00  0.00    -0.124 SA
BRANCH  19  20
ATOM     20  C   UNL A   1      42.076  26.644  35.923  1.00  0.00     0.078 C 
BRANCH  20  21
ATOM     21  C   UNL A   1      42.752  25.258  35.885  1.00  0.00    -0.007 C 
ATOM     22  C   UNL A   1      41.824  24.109  35.490  1.00  0.00     0.008 C 
ATOM     23  C   UNL A   1      43.911  25.307  34.879  1.00  0.00     0.008 C 
ENDBRANCH  20  21
ENDBRANCH  19  20
ENDBRANCH   9  19
BRANCH  18  24
ATOM     24  C   UNL A   1      38.743  32.926  38.418  1.00  0.00     0.430 C 
ATOM     25  F   UNL A   1      38.204  34.128  38.743  1.00  0.00    -0.167 F 
ATOM     26  F   UNL A   1      37.779  32.005  38.649  1.00  0.00    -0.167 F 
ATOM     27  F   UNL A   1      39.748  32.686  39.289  1.00  0.00    -0.167 F 
ENDBRANCH  18  24
ENDBRANCH   6   8
ENDBRANCH   5   6
ENDBRANCH   4   5
ENDBRANCH   3   4
ENDBRANCH   2   3
ENDBRANCH   1   2
BRANCH   1  28
ATOM     28  C   UNL A   1      33.320  37.711  31.912  1.00  0.00     0.188 C 
BRANCH  28  29
ATOM     29  O   UNL A   1      32.685  37.007  30.850  1.00  0.00    -0.376 OA
BRANCH  29  30
ATOM     30  C   UNL A   1      33.181  37.169  29.525  1.00  0.00     0.202 C 
BRANCH  30  31
ATOM     31  C   UNL A   1      33.794  35.950  28.827  1.00  0.00     0.261 C 
BRANCH  31  32
ATOM     32  O   UNL A   1      33.510  34.701  29.478  1.00  0.00    -0.460 OA
BRANCH  32  33
ATOM     33  C   UNL A   1      33.688  33.587  28.720  1.00  0.00     0.338 C 
ATOM     34  O   UNL A   1      32.950  33.165  27.847  1.00  0.00    -0.246 OA
BRANCH  33  35
ATOM     35  C   UNL A   1      35.045  33.056  28.969  1.00  0.00     0.060 A 
ATOM     36  C   UNL A   1      36.115  33.402  28.143  1.00  0.00     0.016 A 
ATOM     37  C   UNL A   1      35.235  32.185  30.052  1.00  0.00     0.016 A 
ATOM     38  C   UNL A   1      37.385  32.885  28.414  1.00  0.00     0.010 A 
ATOM     39  C   UNL A   1      36.501  31.655  30.309  1.00  0.00     0.010 A 
ATOM     40  C   UNL A   1      37.588  32.013  29.499  1.00  0.00    -0.014 A 
BRANCH  40  41
ATOM     41  C   UNL A   1      38.966  31.620  29.875  1.00  0.00     0.031 A 
ATOM     42  C   UNL A   1      39.662  30.456  29.239  1.00  0.00     0.074 A 
ATOM     43  C   UNL A   1      39.593  32.347  30.818  1.00  0.00     0.049 A 
ATOM     44  N   UNL A   1      40.909  30.084  29.368  1.00  0.00    -0.248 NA
ATOM     45  C   UNL A   1      38.865  29.595  28.354  1.00  0.00     0.031 C 
ATOM     46  C   UNL A   1      38.992  33.463  31.552  1.00  0.00     0.029 A 
ATOM     47  N   UNL A   1      40.866  32.261  31.320  1.00  0.00    -0.354 N 
ATOM     48  C   UNL A   1      41.055  28.952  28.579  1.00  0.00     0.074 A 
ATOM     49  C   UNL A   1      39.759  28.681  27.991  1.00  0.00     0.031 C 
ATOM     50  C   UNL A   1      39.901  33.966  32.400  1.00  0.00     0.029 A 
ATOM     51  C   UNL A   1      41.145  33.214  32.269  1.00  0.00     0.049 A 
ATOM     52  H   UNL A   1      41.517  31.582  31.029  1.00  0.00     0.167 HD
ATOM     53  C   UNL A   1      42.176  28.227  28.348  1.00  0.00     0.034 A 
ATOM     54  C   UNL A   1      42.281  33.472  32.946  1.00  0.00     0.034 A 
ATOM     55  C   UNL A   1      43.465  28.513  28.923  1.00  0.00     0.049 A 
ATOM     56  C   UNL A   1      43.513  32.667  32.653  1.00  0.00     0.074 A 
ATOM     57  C   UNL A   1      44.671  27.877  28.682  1.00  0.00     0.029 A 
ATOM     58  N   UNL A   1      43.717  29.502  29.860  1.00  0.00    -0.354 N 
ATOM     59  N   UNL A   1      43.674  31.704  31.779  1.00  0.00    -0.248 NA
ATOM     60  C   UNL A   1      44.727  33.004  33.411  1.00  0.00     0.031 C 
ATOM     61  C   UNL A   1      45.650  28.473  29.482  1.00  0.00     0.029 A 
ATOM     62  C   UNL A   1      45.055  29.486  30.216  1.00  0.00     0.049 A 
ATOM     63  H   UNL A   1      43.043  30.124  30.221  1.00  0.00     0.167 HD
ATOM     64  C   UNL A   1      45.009  31.332  31.866  1.00  0.00     0.074 A 
ATOM     65  C   UNL A   1      45.618  32.183  32.868  1.00  0.00     0.031 C 
ATOM     66  C   UNL A   1      45.664  30.361  31.184  1.00  0.00     0.034 A 
BRANCH  53  67
ATOM     67  C   UNL A   1      42.100  27.089  27.367  1.00  0.00     0.023 A 
ATOM     68  C   UNL A   1      42.446  27.330  26.023  1.00  0.00     0.012 A 
ATOM     69  C   UNL A   1      41.831  25.774  27.792  1.00  0.00     0.148 A 
ATOM     70  C   UNL A   1      42.524  26.277  25.112  1.00  0.00     0.002 A 
ATOM     71  C   UNL A   1      41.936  24.726  26.884  1.00  0.00     0.091 A 
ATOM     72  F   UNL A   1      41.496  25.574  29.074  1.00  0.00    -0.205 F 
ATOM     73  C   UNL A   1      42.280  24.976  25.544  1.00  0.00     0.022 A 
BRANCH  71  74
ATOM     74  S   UNL A   1      41.698  23.007  27.346  1.00  0.00     0.127 S 
ATOM     75  O   UNL A   1      42.680  22.852  28.420  1.00  0.00    -0.237 OA
ATOM     76  O   UNL A   1      40.304  22.997  27.788  1.00  0.00    -0.237 OA
ATOM     77  O   UNL A   1      41.966  22.225  26.147  1.00  0.00    -0.744 OA
ENDBRANCH  71  74
ENDBRANCH  53  67
BRANCH  54  78
ATOM     78  C   UNL A   1      42.308  34.614  33.894  1.00  0.00     0.023 A 
ATOM     79  C   UNL A   1      41.865  34.419  35.216  1.00  0.00     0.012 A 
ATOM     80  C   UNL A   1      42.854  35.857  33.519  1.00  0.00     0.148 A 
ATOM     81  C   UNL A   1      41.963  35.448  36.152  1.00  0.00     0.002 A 
ATOM     82  C   UNL A   1      42.984  36.864  34.467  1.00  0.00     0.091 A 
ATOM     83  F   UNL A   1      43.267  36.011  32.254  1.00  0.00    -0.205 F 
ATOM     84  C   UNL A   1      42.530  36.665  35.781  1.00  0.00     0.022 A 
BRANCH  82  85
ATOM     85  S   UNL A   1      43.798  38.426  34.116  1.00  0.00     0.127 S 
ATOM     86  O   UNL A   1      42.678  39.251  33.670  1.00  0.00    -0.237 OA
ATOM     87  O   UNL A   1      44.340  38.780  35.428  1.00  0.00    -0.237 OA
ATOM     88  O   UNL A   1      44.801  38.132  33.104  1.00  0.00    -0.744 OA
ENDBRANCH  82  85
ENDBRANCH  54  78
BRANCH  66  89
ATOM     89  C   UNL A   1      47.120  30.144  31.487  1.00  0.00     0.023 A 
ATOM     90  C   UNL A   1      47.483  29.273  32.532  1.00  0.00     0.012 A 
ATOM     91  C   UNL A   1      48.121  30.703  30.668  1.00  0.00     0.148 A 
ATOM     92  C   UNL A   1      48.822  28.966  32.764  1.00  0.00     0.002 A 
ATOM     93  C   UNL A   1      49.452  30.367  30.885  1.00  0.00     0.091 A 
ATOM     94  F   UNL A   1      47.749  31.537  29.685  1.00  0.00    -0.205 F 
ATOM     95  C   UNL A   1      49.805  29.503  31.934  1.00  0.00     0.022 A 
BRANCH  93  96
ATOM     96  S   UNL A   1      50.785  30.948  29.828  1.00  0.00     0.127 S 
ATOM     97  O   UNL A   1      51.095  32.245  30.428  1.00  0.00    -0.237 OA
ATOM     98  O   UNL A   1      51.807  29.921  30.029  1.00  0.00    -0.237 OA
ATOM     99  O   UNL A   1      50.236  31.005  28.480  1.00  0.00    -0.744 OA
ENDBRANCH  93  96
ENDBRANCH  66  89
ENDBRANCH  40  41
ENDBRANCH  33  35
ENDBRANCH  32  33
ENDBRANCH  31  32
ENDBRANCH  30  31
ENDBRANCH  29  30
ENDBRANCH  28  29
ENDBRANCH   1  28
TORSDOF 24
ENDMDL
