MODEL 1
REMARK VINA RESULT:      -8.2      0.000      0.000
REMARK SMILES CC1=C(CC(=O)OCCOCCOCCOC(=O)c2ccc(-c3c4nc(c(-c5cccc(S(=O)(=O)[O-])c5F)c5ccc([nH]5)c(-c5cccc(S(=O)(=O)[O-])c5F)c5nc(c(-c6cccc(S(=O)(=O)[O-])c6F)c6ccc3[nH]6)C=C5)C=C4)cc2)c2cc(F)ccc2/C1=C\c1cccc(OCc2ccccc2)c1
REMARK SMILES IDX 11 1 10 2 9 3 8 4 7 5 5 6 6 7 4 8 3 9 1 10 2 11 89 12 82 13
REMARK SMILES IDX 88 14 90 15 83 16 87 17 84 18 86 19 85 20 91 21 92 22 104 23
REMARK SMILES IDX 93 24 95 25 94 26 96 27 97 28 98 29 99 30 103 31 100 32
REMARK SMILES IDX 102 33 101 34 12 35 13 36 14 37 15 38 16 39 17 40 18 41
REMARK SMILES IDX 19 42 20 43 81 44 21 45 80 46 22 47 23 48 24 49 74 50 25 51
REMARK SMILES IDX 79 52 73 53 75 54 26 55 78 56 72 57 71 58 27 60 59 61 39 62
REMARK SMILES IDX 58 63 40 64 43 65 57 66 76 67 41 68 42 69 56 71 77 72 44 73
REMARK SMILES IDX 28 74 29 75 37 76 30 77 32 78 38 79 31 80 33 81 34 82 35 83
REMARK SMILES IDX 36 84 60 85 61 86 69 87 62 88 64 89 70 90 63 91 65 92 66 93
REMARK SMILES IDX 67 94 68 95 45 96 46 97 54 98 47 99 49 100 55 101 48 102
REMARK SMILES IDX 50 103 51 104 52 105 53 106
REMARK H PARENT 75 59 43 70
REMARK Flexibility Score: inf
ROOT
ATOM      1  C   UNL A   1      38.106  30.909  35.560  1.00  0.00     0.188 C 
ENDROOT
BRANCH   1   2
ATOM      2  O   UNL A   1      38.944  29.895  35.003  1.00  0.00    -0.376 OA
BRANCH   2   3
ATOM      3  C   UNL A   1      38.703  29.519  33.651  1.00  0.00     0.202 C 
BRANCH   3   4
ATOM      4  C   UNL A   1      39.951  29.080  32.883  1.00  0.00     0.261 C 
BRANCH   4   5
ATOM      5  O   UNL A   1      39.658  28.881  31.485  1.00  0.00    -0.463 OA
BRANCH   5   6
ATOM      6  C   UNL A   1      40.539  29.439  30.616  1.00  0.00     0.310 C 
ATOM      7  O   UNL A   1      41.729  29.605  30.864  1.00  0.00    -0.252 OA
BRANCH   6   8
ATOM      8  C   UNL A   1      39.935  29.715  29.237  1.00  0.00     0.159 C 
BRANCH   8   9
ATOM      9  C   UNL A   1      38.835  30.728  29.123  1.00  0.00    -0.025 C 
ATOM     10  C   UNL A   1      36.905  29.286  28.314  1.00  0.00     0.045 C 
ATOM     11  C   UNL A   1      37.555  30.570  28.707  1.00  0.00    -0.039 C 
ATOM     12  C   UNL A   1      36.836  31.855  28.793  1.00  0.00    -0.014 C 
ATOM     13  C   UNL A   1      38.963  32.122  29.598  1.00  0.00    -0.011 A 
ATOM     14  C   UNL A   1      37.802  32.850  29.288  1.00  0.00    -0.010 A 
ATOM     15  C   UNL A   1      35.518  32.039  28.577  1.00  0.00     0.017 C 
ATOM     16  C   UNL A   1      39.979  32.731  30.316  1.00  0.00     0.048 A 
ATOM     17  C   UNL A   1      37.726  34.219  29.528  1.00  0.00     0.012 A 
ATOM     18  C   UNL A   1      39.851  34.084  30.637  1.00  0.00     0.123 A 
ATOM     19  C   UNL A   1      38.768  34.842  30.206  1.00  0.00     0.040 A 
ATOM     20  F   UNL A   1      40.810  34.681  31.354  1.00  0.00    -0.207 F 
BRANCH  15  21
ATOM     21  C   UNL A   1      34.807  33.306  28.788  1.00  0.00    -0.021 A 
ATOM     22  C   UNL A   1      34.782  34.260  27.764  1.00  0.00     0.008 A 
ATOM     23  C   UNL A   1      34.257  33.615  30.045  1.00  0.00     0.054 A 
ATOM     24  C   UNL A   1      34.260  35.530  28.006  1.00  0.00     0.004 A 
ATOM     25  C   UNL A   1      33.709  34.880  30.278  1.00  0.00     0.120 A 
ATOM     26  C   UNL A   1      33.740  35.839  29.261  1.00  0.00     0.046 A 
BRANCH  25  27
ATOM     27  O   UNL A   1      33.095  35.304  31.426  1.00  0.00    -0.489 OA
BRANCH  27  28
ATOM     28  C   UNL A   1      33.316  34.575  32.638  1.00  0.00     0.265 C 
BRANCH  28  29
ATOM     29  C   UNL A   1      34.739  34.087  32.850  1.00  0.00    -0.011 A 
ATOM     30  C   UNL A   1      35.089  32.732  32.755  1.00  0.00     0.007 A 
ATOM     31  C   UNL A   1      35.744  35.019  33.147  1.00  0.00     0.007 A 
ATOM     32  C   UNL A   1      36.419  32.328  32.870  1.00  0.00     0.000 A 
ATOM     33  C   UNL A   1      37.072  34.612  33.285  1.00  0.00     0.000 A 
ATOM     34  C   UNL A   1      37.412  33.269  33.128  1.00  0.00     0.000 A 
ENDBRANCH  28  29
ENDBRANCH  27  28
ENDBRANCH  25  27
ENDBRANCH  15  21
ENDBRANCH   8   9
ENDBRANCH   6   8
ENDBRANCH   5   6
ENDBRANCH   4   5
ENDBRANCH   3   4
ENDBRANCH   2   3
ENDBRANCH   1   2
BRANCH   1  35
ATOM     35  C   UNL A   1      38.163  31.122  37.081  1.00  0.00     0.188 C 
BRANCH  35  36
ATOM     36  O   UNL A   1      37.366  32.234  37.486  1.00  0.00    -0.376 OA
BRANCH  36  37
ATOM     37  C   UNL A   1      37.824  32.849  38.686  1.00  0.00     0.202 C 
BRANCH  37  38
ATOM     38  C   UNL A   1      38.453  34.206  38.375  1.00  0.00     0.261 C 
BRANCH  38  39
ATOM     39  O   UNL A   1      39.864  34.256  38.654  1.00  0.00    -0.460 OA
BRANCH  39  40
ATOM     40  C   UNL A   1      40.620  34.928  37.757  1.00  0.00     0.338 C 
ATOM     41  O   UNL A   1      40.855  36.120  37.745  1.00  0.00    -0.246 OA
BRANCH  40  42
ATOM     42  C   UNL A   1      41.188  33.944  36.816  1.00  0.00     0.060 A 
ATOM     43  C   UNL A   1      40.487  33.554  35.681  1.00  0.00     0.016 A 
ATOM     44  C   UNL A   1      42.474  33.455  37.043  1.00  0.00     0.016 A 
ATOM     45  C   UNL A   1      41.096  32.686  34.765  1.00  0.00     0.010 A 
ATOM     46  C   UNL A   1      43.105  32.638  36.103  1.00  0.00     0.010 A 
ATOM     47  C   UNL A   1      42.423  32.242  34.950  1.00  0.00    -0.014 A 
BRANCH  47  48
ATOM     48  C   UNL A   1      43.107  31.455  33.889  1.00  0.00     0.031 A 
ATOM     49  C   UNL A   1      43.405  29.988  34.051  1.00  0.00     0.074 A 
ATOM     50  C   UNL A   1      43.491  32.088  32.761  1.00  0.00     0.049 A 
ATOM     51  N   UNL A   1      43.830  29.137  33.151  1.00  0.00    -0.248 NA
ATOM     52  C   UNL A   1      43.228  29.397  35.388  1.00  0.00     0.031 C 
ATOM     53  C   UNL A   1      43.397  33.533  32.535  1.00  0.00     0.029 A 
ATOM     54  N   UNL A   1      44.021  31.604  31.592  1.00  0.00    -0.354 N 
ATOM     55  C   UNL A   1      43.972  27.919  33.805  1.00  0.00     0.074 A 
ATOM     56  C   UNL A   1      43.631  28.146  35.193  1.00  0.00     0.031 C 
ATOM     57  C   UNL A   1      43.792  33.809  31.282  1.00  0.00     0.029 A 
ATOM     58  C   UNL A   1      44.168  32.565  30.617  1.00  0.00     0.049 A 
ATOM     59  H   UNL A   1      44.272  30.661  31.462  1.00  0.00     0.167 HD
ATOM     60  C   UNL A   1      44.311  26.715  33.287  1.00  0.00     0.034 A 
ATOM     61  C   UNL A   1      44.518  32.454  29.321  1.00  0.00     0.034 A 
ATOM     62  C   UNL A   1      44.595  26.485  31.896  1.00  0.00     0.049 A 
ATOM     63  C   UNL A   1      44.786  31.092  28.746  1.00  0.00     0.074 A 
ATOM     64  C   UNL A   1      44.845  25.282  31.260  1.00  0.00     0.029 A 
ATOM     65  N   UNL A   1      44.661  27.473  30.928  1.00  0.00    -0.354 N 
ATOM     66  N   UNL A   1      44.728  29.924  29.338  1.00  0.00    -0.248 NA
ATOM     67  C   UNL A   1      45.128  31.025  27.317  1.00  0.00     0.031 C 
ATOM     68  C   UNL A   1      45.058  25.541  29.902  1.00  0.00     0.029 A 
ATOM     69  C   UNL A   1      44.940  26.907  29.698  1.00  0.00     0.049 A 
ATOM     70  H   UNL A   1      44.528  28.434  31.091  1.00  0.00     0.167 HD
ATOM     71  C   UNL A   1      45.001  28.984  28.353  1.00  0.00     0.074 A 
ATOM     72  C   UNL A   1      45.208  29.714  27.119  1.00  0.00     0.031 C 
ATOM     73  C   UNL A   1      45.088  27.637  28.467  1.00  0.00     0.034 A 
BRANCH  60  74
ATOM     74  C   UNL A   1      44.279  25.511  34.189  1.00  0.00     0.023 A 
ATOM     75  C   UNL A   1      43.054  24.838  34.366  1.00  0.00     0.012 A 
ATOM     76  C   UNL A   1      45.458  24.961  34.730  1.00  0.00     0.148 A 
ATOM     77  C   UNL A   1      42.998  23.636  35.070  1.00  0.00     0.002 A 
ATOM     78  C   UNL A   1      45.398  23.748  35.410  1.00  0.00     0.091 A 
ATOM     79  F   UNL A   1      46.613  25.618  34.546  1.00  0.00    -0.205 F 
ATOM     80  C   UNL A   1      44.171  23.088  35.583  1.00  0.00     0.022 A 
BRANCH  78  81
ATOM     81  S   UNL A   1      46.852  22.918  36.063  1.00  0.00     0.127 S 
ATOM     82  O   UNL A   1      47.333  23.891  37.044  1.00  0.00    -0.237 OA
ATOM     83  O   UNL A   1      46.276  21.703  36.639  1.00  0.00    -0.237 OA
ATOM     84  O   UNL A   1      47.741  22.704  34.929  1.00  0.00    -0.744 OA
ENDBRANCH  78  81
ENDBRANCH  60  74
BRANCH  61  85
ATOM     85  C   UNL A   1      44.483  33.657  28.447  1.00  0.00     0.023 A 
ATOM     86  C   UNL A   1      43.239  34.106  27.958  1.00  0.00     0.012 A 
ATOM     87  C   UNL A   1      45.647  34.387  28.145  1.00  0.00     0.148 A 
ATOM     88  C   UNL A   1      43.158  35.254  27.170  1.00  0.00     0.002 A 
ATOM     89  C   UNL A   1      45.554  35.551  27.389  1.00  0.00     0.091 A 
ATOM     90  F   UNL A   1      46.818  33.936  28.614  1.00  0.00    -0.205 F 
ATOM     91  C   UNL A   1      44.312  35.980  26.892  1.00  0.00     0.022 A 
BRANCH  89  92
ATOM     92  S   UNL A   1      46.971  36.607  27.063  1.00  0.00     0.127 S 
ATOM     93  O   UNL A   1      47.835  35.715  26.294  1.00  0.00    -0.237 OA
ATOM     94  O   UNL A   1      46.368  37.695  26.291  1.00  0.00    -0.237 OA
ATOM     95  O   UNL A   1      47.474  37.004  28.370  1.00  0.00    -0.744 OA
ENDBRANCH  89  92
ENDBRANCH  61  85
BRANCH  73  96
ATOM     96  C   UNL A   1      45.414  26.842  27.236  1.00  0.00     0.023 A 
ATOM     97  C   UNL A   1      44.380  26.153  26.573  1.00  0.00     0.012 A 
ATOM     98  C   UNL A   1      46.700  26.887  26.667  1.00  0.00     0.148 A 
ATOM     99  C   UNL A   1      44.625  25.514  25.358  1.00  0.00     0.002 A 
ATOM    100  C   UNL A   1      46.930  26.276  25.441  1.00  0.00     0.091 A 
ATOM    101  F   UNL A   1      47.667  27.543  27.326  1.00  0.00    -0.205 F 
ATOM    102  C   UNL A   1      45.894  25.586  24.787  1.00  0.00     0.022 A 
BRANCH 100 103
ATOM    103  S   UNL A   1      48.508  26.375  24.587  1.00  0.00     0.127 S 
ATOM    104  O   UNL A   1      48.668  27.820  24.428  1.00  0.00    -0.237 OA
ATOM    105  O   UNL A   1      49.420  25.763  25.553  1.00  0.00    -0.237 OA
ATOM    106  O   UNL A   1      48.344  25.629  23.347  1.00  0.00    -0.744 OA
ENDBRANCH 100 103
ENDBRANCH  73  96
ENDBRANCH  47  48
ENDBRANCH  40  42
ENDBRANCH  39  40
ENDBRANCH  38  39
ENDBRANCH  37  38
ENDBRANCH  36  37
ENDBRANCH  35  36
ENDBRANCH   1  35
TORSDOF 25
ENDMDL
MODEL 2
REMARK VINA RESULT:      -7.7      4.710     10.373
REMARK SMILES CC1=C(CC(=O)OCCOCCOCCOC(=O)c2ccc(-c3c4nc(c(-c5cccc(S(=O)(=O)[O-])c5F)c5ccc([nH]5)c(-c5cccc(S(=O)(=O)[O-])c5F)c5nc(c(-c6cccc(S(=O)(=O)[O-])c6F)c6ccc3[nH]6)C=C5)C=C4)cc2)c2cc(F)ccc2/C1=C\c1cccc(OCc2ccccc2)c1
REMARK SMILES IDX 11 1 10 2 9 3 8 4 7 5 5 6 6 7 4 8 3 9 1 10 2 11 89 12 82 13
REMARK SMILES IDX 88 14 90 15 83 16 87 17 84 18 86 19 85 20 91 21 92 22 104 23
REMARK SMILES IDX 93 24 95 25 94 26 96 27 97 28 98 29 99 30 103 31 100 32
REMARK SMILES IDX 102 33 101 34 12 35 13 36 14 37 15 38 16 39 17 40 18 41
REMARK SMILES IDX 19 42 20 43 81 44 21 45 80 46 22 47 23 48 24 49 74 50 25 51
REMARK SMILES IDX 79 52 73 53 75 54 26 55 78 56 72 57 71 58 27 60 59 61 39 62
REMARK SMILES IDX 58 63 40 64 43 65 57 66 76 67 41 68 42 69 56 71 77 72 44 73
REMARK SMILES IDX 28 74 29 75 37 76 30 77 32 78 38 79 31 80 33 81 34 82 35 83
REMARK SMILES IDX 36 84 60 85 61 86 69 87 62 88 64 89 70 90 63 91 65 92 66 93
REMARK SMILES IDX 67 94 68 95 45 96 46 97 54 98 47 99 49 100 55 101 48 102
REMARK SMILES IDX 50 103 51 104 52 105 53 106
REMARK H PARENT 75 59 43 70
REMARK Flexibility Score: inf
ROOT
ATOM      1  C   UNL A   1      41.479  31.195  45.248  1.00  0.00     0.188 C 
ENDROOT
BRANCH   1   2
ATOM      2  O   UNL A   1      40.695  30.447  44.318  1.00  0.00    -0.376 OA
BRANCH   2   3
ATOM      3  C   UNL A   1      41.134  30.423  42.964  1.00  0.00     0.202 C 
BRANCH   3   4
ATOM      4  C   UNL A   1      40.755  31.663  42.153  1.00  0.00     0.261 C 
BRANCH   4   5
ATOM      5  O   UNL A   1      39.540  31.446  41.407  1.00  0.00    -0.463 OA
BRANCH   5   6
ATOM      6  C   UNL A   1      38.484  32.218  41.768  1.00  0.00     0.310 C 
ATOM      7  O   UNL A   1      37.685  31.912  42.648  1.00  0.00    -0.252 OA
BRANCH   6   8
ATOM      8  C   UNL A   1      38.463  33.579  41.069  1.00  0.00     0.159 C 
BRANCH   8   9
ATOM      9  C   UNL A   1      38.354  33.619  39.574  1.00  0.00    -0.025 C 
ATOM     10  C   UNL A   1      36.604  31.826  39.148  1.00  0.00     0.045 C 
ATOM     11  C   UNL A   1      37.595  32.865  38.742  1.00  0.00    -0.039 C 
ATOM     12  C   UNL A   1      37.807  33.289  37.345  1.00  0.00    -0.014 C 
ATOM     13  C   UNL A   1      39.019  34.643  38.740  1.00  0.00    -0.011 A 
ATOM     14  C   UNL A   1      38.797  34.377  37.378  1.00  0.00    -0.010 A 
ATOM     15  C   UNL A   1      37.124  32.842  36.273  1.00  0.00     0.017 C 
ATOM     16  C   UNL A   1      39.718  35.779  39.109  1.00  0.00     0.048 A 
ATOM     17  C   UNL A   1      39.419  35.133  36.388  1.00  0.00     0.012 A 
ATOM     18  C   UNL A   1      40.258  36.587  38.105  1.00  0.00     0.123 A 
ATOM     19  C   UNL A   1      40.163  36.248  36.760  1.00  0.00     0.040 A 
ATOM     20  F   UNL A   1      40.912  37.703  38.444  1.00  0.00    -0.207 F 
BRANCH  15  21
ATOM     21  C   UNL A   1      37.273  33.370  34.910  1.00  0.00    -0.021 A 
ATOM     22  C   UNL A   1      36.377  34.339  34.446  1.00  0.00     0.008 A 
ATOM     23  C   UNL A   1      38.230  32.825  34.035  1.00  0.00     0.054 A 
ATOM     24  C   UNL A   1      36.399  34.724  33.106  1.00  0.00     0.004 A 
ATOM     25  C   UNL A   1      38.268  33.233  32.699  1.00  0.00     0.120 A 
ATOM     26  C   UNL A   1      37.332  34.162  32.237  1.00  0.00     0.046 A 
BRANCH  25  27
ATOM     27  O   UNL A   1      39.170  32.832  31.750  1.00  0.00    -0.489 OA
BRANCH  27  28
ATOM     28  C   UNL A   1      38.693  32.137  30.592  1.00  0.00     0.265 C 
BRANCH  28  29
ATOM     29  C   UNL A   1      38.881  30.631  30.619  1.00  0.00    -0.011 A 
ATOM     30  C   UNL A   1      40.030  30.008  30.107  1.00  0.00     0.007 A 
ATOM     31  C   UNL A   1      37.878  29.826  31.179  1.00  0.00     0.007 A 
ATOM     32  C   UNL A   1      40.210  28.631  30.225  1.00  0.00     0.000 A 
ATOM     33  C   UNL A   1      38.048  28.444  31.277  1.00  0.00     0.000 A 
ATOM     34  C   UNL A   1      39.221  27.849  30.816  1.00  0.00     0.000 A 
ENDBRANCH  28  29
ENDBRANCH  27  28
ENDBRANCH  25  27
ENDBRANCH  15  21
ENDBRANCH   8   9
ENDBRANCH   6   8
ENDBRANCH   5   6
ENDBRANCH   4   5
ENDBRANCH   3   4
ENDBRANCH   2   3
ENDBRANCH   1   2
BRANCH   1  35
ATOM     35  C   UNL A   1      42.749  30.532  45.802  1.00  0.00     0.188 C 
BRANCH  35  36
ATOM     36  O   UNL A   1      43.931  31.160  45.306  1.00  0.00    -0.376 OA
BRANCH  36  37
ATOM     37  C   UNL A   1      43.680  32.404  44.663  1.00  0.00     0.202 C 
BRANCH  37  38
ATOM     38  C   UNL A   1      44.350  32.432  43.290  1.00  0.00     0.261 C 
BRANCH  38  39
ATOM     39  O   UNL A   1      45.374  33.437  43.176  1.00  0.00    -0.460 OA
BRANCH  39  40
ATOM     40  C   UNL A   1      44.942  34.717  43.124  1.00  0.00     0.338 C 
ATOM     41  O   UNL A   1      44.818  35.486  44.056  1.00  0.00    -0.246 OA
BRANCH  40  42
ATOM     42  C   UNL A   1      44.712  35.060  41.708  1.00  0.00     0.060 A 
ATOM     43  C   UNL A   1      45.685  34.813  40.747  1.00  0.00     0.016 A 
ATOM     44  C   UNL A   1      43.474  35.577  41.328  1.00  0.00     0.016 A 
ATOM     45  C   UNL A   1      45.398  35.069  39.400  1.00  0.00     0.010 A 
ATOM     46  C   UNL A   1      43.164  35.776  39.982  1.00  0.00     0.010 A 
ATOM     47  C   UNL A   1      44.124  35.525  38.998  1.00  0.00    -0.014 A 
BRANCH  47  48
ATOM     48  C   UNL A   1      43.785  35.636  37.553  1.00  0.00     0.031 A 
ATOM     49  C   UNL A   1      43.962  36.921  36.789  1.00  0.00     0.074 A 
ATOM     50  C   UNL A   1      43.283  34.554  36.923  1.00  0.00     0.049 A 
ATOM     51  N   UNL A   1      43.880  37.120  35.497  1.00  0.00    -0.248 NA
ATOM     52  C   UNL A   1      44.243  38.143  37.560  1.00  0.00     0.031 C 
ATOM     53  C   UNL A   1      42.925  33.292  37.576  1.00  0.00     0.029 A 
ATOM     54  N   UNL A   1      43.001  34.332  35.599  1.00  0.00    -0.354 N 
ATOM     55  C   UNL A   1      44.097  38.478  35.300  1.00  0.00     0.074 A 
ATOM     56  C   UNL A   1      44.270  39.070  36.609  1.00  0.00     0.031 C 
ATOM     57  C   UNL A   1      42.533  32.409  36.644  1.00  0.00     0.029 A 
ATOM     58  C   UNL A   1      42.610  33.040  35.330  1.00  0.00     0.049 A 
ATOM     59  H   UNL A   1      43.071  35.030  34.908  1.00  0.00     0.167 HD
ATOM     60  C   UNL A   1      44.188  39.160  34.133  1.00  0.00     0.034 A 
ATOM     61  C   UNL A   1      42.386  32.418  34.156  1.00  0.00     0.034 A 
ATOM     62  C   UNL A   1      44.069  38.556  32.834  1.00  0.00     0.049 A 
ATOM     63  C   UNL A   1      42.597  33.170  32.872  1.00  0.00     0.074 A 
ATOM     64  C   UNL A   1      44.251  39.146  31.595  1.00  0.00     0.029 A 
ATOM     65  N   UNL A   1      43.747  37.229  32.604  1.00  0.00    -0.354 N 
ATOM     66  N   UNL A   1      42.990  34.408  32.702  1.00  0.00    -0.248 NA
ATOM     67  C   UNL A   1      42.374  32.431  31.620  1.00  0.00     0.031 C 
ATOM     68  C   UNL A   1      44.042  38.172  30.613  1.00  0.00     0.029 A 
ATOM     69  C   UNL A   1      43.730  36.979  31.244  1.00  0.00     0.049 A 
ATOM     70  H   UNL A   1      43.557  36.564  33.304  1.00  0.00     0.167 HD
ATOM     71  C   UNL A   1      43.087  34.590  31.328  1.00  0.00     0.074 A 
ATOM     72  C   UNL A   1      42.726  33.331  30.710  1.00  0.00     0.031 C 
ATOM     73  C   UNL A   1      43.427  35.708  30.643  1.00  0.00     0.034 A 
BRANCH  60  74
ATOM     74  C   UNL A   1      44.551  40.620  34.182  1.00  0.00     0.023 A 
ATOM     75  C   UNL A   1      45.914  40.969  34.256  1.00  0.00     0.012 A 
ATOM     76  C   UNL A   1      43.585  41.628  34.003  1.00  0.00     0.148 A 
ATOM     77  C   UNL A   1      46.313  42.301  34.156  1.00  0.00     0.002 A 
ATOM     78  C   UNL A   1      43.992  42.953  33.877  1.00  0.00     0.091 A 
ATOM     79  F   UNL A   1      42.294  41.271  33.931  1.00  0.00    -0.205 F 
ATOM     80  C   UNL A   1      45.353  43.289  33.957  1.00  0.00     0.022 A 
BRANCH  78  81
ATOM     81  S   UNL A   1      42.851  44.305  33.561  1.00  0.00     0.127 S 
ATOM     82  O   UNL A   1      43.717  45.471  33.742  1.00  0.00    -0.237 OA
ATOM     83  O   UNL A   1      42.452  44.050  32.178  1.00  0.00    -0.237 OA
ATOM     84  O   UNL A   1      41.787  44.176  34.546  1.00  0.00    -0.744 OA
ENDBRANCH  78  81
ENDBRANCH  60  74
BRANCH  61  85
ATOM     85  C   UNL A   1      42.084  30.961  34.146  1.00  0.00     0.023 A 
ATOM     86  C   UNL A   1      40.742  30.546  34.033  1.00  0.00     0.012 A 
ATOM     87  C   UNL A   1      43.105  29.993  34.187  1.00  0.00     0.148 A 
ATOM     88  C   UNL A   1      40.420  29.190  33.978  1.00  0.00     0.002 A 
ATOM     89  C   UNL A   1      42.779  28.643  34.095  1.00  0.00     0.091 A 
ATOM     90  F   UNL A   1      44.372  30.412  34.304  1.00  0.00    -0.205 F 
ATOM     91  C   UNL A   1      41.437  28.240  34.000  1.00  0.00     0.022 A 
BRANCH  89  92
ATOM     92  S   UNL A   1      44.026  27.353  34.017  1.00  0.00     0.127 S 
ATOM     93  O   UNL A   1      45.252  28.132  33.863  1.00  0.00    -0.237 OA
ATOM     94  O   UNL A   1      43.870  26.701  35.318  1.00  0.00    -0.237 OA
ATOM     95  O   UNL A   1      43.659  26.520  32.881  1.00  0.00    -0.744 OA
ENDBRANCH  89  92
ENDBRANCH  61  85
BRANCH  73  96
ATOM     96  C   UNL A   1      43.439  35.642  29.143  1.00  0.00     0.023 A 
ATOM     97  C   UNL A   1      42.279  36.003  28.432  1.00  0.00     0.012 A 
ATOM     98  C   UNL A   1      44.627  35.359  28.442  1.00  0.00     0.148 A 
ATOM     99  C   UNL A   1      42.300  36.078  27.039  1.00  0.00     0.002 A 
ATOM    100  C   UNL A   1      44.650  35.466  27.058  1.00  0.00     0.091 A 
ATOM    101  F   UNL A   1      45.715  35.009  29.146  1.00  0.00    -0.205 F 
ATOM    102  C   UNL A   1      43.486  35.823  26.355  1.00  0.00     0.022 A 
BRANCH 100 103
ATOM    103  S   UNL A   1      46.146  35.231  26.090  1.00  0.00     0.127 S 
ATOM    104  O   UNL A   1      45.629  34.539  24.910  1.00  0.00    -0.237 OA
ATOM    105  O   UNL A   1      46.578  36.607  25.850  1.00  0.00    -0.237 OA
ATOM    106  O   UNL A   1      47.047  34.447  26.924  1.00  0.00    -0.744 OA
ENDBRANCH 100 103
ENDBRANCH  73  96
ENDBRANCH  47  48
ENDBRANCH  40  42
ENDBRANCH  39  40
ENDBRANCH  38  39
ENDBRANCH  37  38
ENDBRANCH  36  37
ENDBRANCH  35  36
ENDBRANCH   1  35
TORSDOF 25
ENDMDL
MODEL 3
REMARK VINA RESULT:      -7.5      2.744      6.766
REMARK SMILES CC1=C(CC(=O)OCCOCCOCCOC(=O)c2ccc(-c3c4nc(c(-c5cccc(S(=O)(=O)[O-])c5F)c5ccc([nH]5)c(-c5cccc(S(=O)(=O)[O-])c5F)c5nc(c(-c6cccc(S(=O)(=O)[O-])c6F)c6ccc3[nH]6)C=C5)C=C4)cc2)c2cc(F)ccc2/C1=C\c1cccc(OCc2ccccc2)c1
REMARK SMILES IDX 11 1 10 2 9 3 8 4 7 5 5 6 6 7 4 8 3 9 1 10 2 11 89 12 82 13
REMARK SMILES IDX 88 14 90 15 83 16 87 17 84 18 86 19 85 20 91 21 92 22 104 23
REMARK SMILES IDX 93 24 95 25 94 26 96 27 97 28 98 29 99 30 103 31 100 32
REMARK SMILES IDX 102 33 101 34 12 35 13 36 14 37 15 38 16 39 17 40 18 41
REMARK SMILES IDX 19 42 20 43 81 44 21 45 80 46 22 47 23 48 24 49 74 50 25 51
REMARK SMILES IDX 79 52 73 53 75 54 26 55 78 56 72 57 71 58 27 60 59 61 39 62
REMARK SMILES IDX 58 63 40 64 43 65 57 66 76 67 41 68 42 69 56 71 77 72 44 73
REMARK SMILES IDX 28 74 29 75 37 76 30 77 32 78 38 79 31 80 33 81 34 82 35 83
REMARK SMILES IDX 36 84 60 85 61 86 69 87 62 88 64 89 70 90 63 91 65 92 66 93
REMARK SMILES IDX 67 94 68 95 45 96 46 97 54 98 47 99 49 100 55 101 48 102
REMARK SMILES IDX 50 103 51 104 52 105 53 106
REMARK H PARENT 75 59 43 70
REMARK Flexibility Score: inf
ROOT
ATOM      1  C   UNL A   1      34.762  32.941  30.425  1.00  0.00     0.188 C 
ENDROOT
BRANCH   1   2
ATOM      2  O   UNL A   1      35.853  32.050  30.192  1.00  0.00    -0.376 OA
BRANCH   2   3
ATOM      3  C   UNL A   1      36.938  32.537  29.410  1.00  0.00     0.202 C 
BRANCH   3   4
ATOM      4  C   UNL A   1      38.117  31.570  29.291  1.00  0.00     0.261 C 
BRANCH   4   5
ATOM      5  O   UNL A   1      37.694  30.206  29.498  1.00  0.00    -0.463 OA
BRANCH   5   6
ATOM      6  C   UNL A   1      38.461  29.477  30.348  1.00  0.00     0.310 C 
ATOM      7  O   UNL A   1      38.098  28.422  30.860  1.00  0.00    -0.252 OA
BRANCH   6   8
ATOM      8  C   UNL A   1      39.882  30.022  30.499  1.00  0.00     0.159 C 
BRANCH   8   9
ATOM      9  C   UNL A   1      41.038  29.108  30.216  1.00  0.00    -0.025 C 
ATOM     10  C   UNL A   1      41.537  28.194  32.534  1.00  0.00     0.045 C 
ATOM     11  C   UNL A   1      41.768  28.350  31.069  1.00  0.00    -0.039 C 
ATOM     12  C   UNL A   1      42.790  27.594  30.320  1.00  0.00    -0.014 C 
ATOM     13  C   UNL A   1      41.502  28.788  28.850  1.00  0.00    -0.011 A 
ATOM     14  C   UNL A   1      42.644  27.971  28.904  1.00  0.00    -0.010 A 
ATOM     15  C   UNL A   1      43.607  26.652  30.830  1.00  0.00     0.017 C 
ATOM     16  C   UNL A   1      40.952  29.112  27.621  1.00  0.00     0.048 A 
ATOM     17  C   UNL A   1      43.339  27.630  27.747  1.00  0.00     0.012 A 
ATOM     18  C   UNL A   1      41.605  28.682  26.463  1.00  0.00     0.123 A 
ATOM     19  C   UNL A   1      42.813  27.996  26.513  1.00  0.00     0.040 A 
ATOM     20  F   UNL A   1      41.072  28.962  25.269  1.00  0.00    -0.207 F 
BRANCH  15  21
ATOM     21  C   UNL A   1      44.531  25.830  30.037  1.00  0.00    -0.021 A 
ATOM     22  C   UNL A   1      45.860  26.241  29.886  1.00  0.00     0.008 A 
ATOM     23  C   UNL A   1      44.063  24.705  29.335  1.00  0.00     0.054 A 
ATOM     24  C   UNL A   1      46.702  25.567  29.002  1.00  0.00     0.004 A 
ATOM     25  C   UNL A   1      44.916  24.015  28.470  1.00  0.00     0.120 A 
ATOM     26  C   UNL A   1      46.225  24.469  28.289  1.00  0.00     0.046 A 
BRANCH  25  27
ATOM     27  O   UNL A   1      44.618  22.879  27.765  1.00  0.00    -0.489 OA
BRANCH  27  28
ATOM     28  C   UNL A   1      43.904  22.999  26.529  1.00  0.00     0.265 C 
BRANCH  28  29
ATOM     29  C   UNL A   1      42.395  22.870  26.638  1.00  0.00    -0.011 A 
ATOM     30  C   UNL A   1      41.566  23.969  26.908  1.00  0.00     0.007 A 
ATOM     31  C   UNL A   1      41.802  21.612  26.459  1.00  0.00     0.007 A 
ATOM     32  C   UNL A   1      40.178  23.832  26.916  1.00  0.00     0.000 A 
ATOM     33  C   UNL A   1      40.413  21.471  26.490  1.00  0.00     0.000 A 
ATOM     34  C   UNL A   1      39.601  22.584  26.701  1.00  0.00     0.000 A 
ENDBRANCH  28  29
ENDBRANCH  27  28
ENDBRANCH  25  27
ENDBRANCH  15  21
ENDBRANCH   8   9
ENDBRANCH   6   8
ENDBRANCH   5   6
ENDBRANCH   4   5
ENDBRANCH   3   4
ENDBRANCH   2   3
ENDBRANCH   1   2
BRANCH   1  35
ATOM     35  C   UNL A   1      35.057  34.241  31.191  1.00  0.00     0.188 C 
BRANCH  35  36
ATOM     36  O   UNL A   1      34.113  34.461  32.238  1.00  0.00    -0.376 OA
BRANCH  36  37
ATOM     37  C   UNL A   1      34.116  33.435  33.225  1.00  0.00     0.202 C 
BRANCH  37  38
ATOM     38  C   UNL A   1      35.550  33.091  33.623  1.00  0.00     0.261 C 
BRANCH  38  39
ATOM     39  O   UNL A   1      36.144  34.060  34.507  1.00  0.00    -0.460 OA
BRANCH  39  40
ATOM     40  C   UNL A   1      36.832  33.557  35.556  1.00  0.00     0.338 C 
ATOM     41  O   UNL A   1      36.427  33.401  36.690  1.00  0.00    -0.246 OA
BRANCH  40  42
ATOM     42  C   UNL A   1      38.163  33.148  35.070  1.00  0.00     0.060 A 
ATOM     43  C   UNL A   1      38.300  32.118  34.146  1.00  0.00     0.016 A 
ATOM     44  C   UNL A   1      39.288  33.853  35.498  1.00  0.00     0.016 A 
ATOM     45  C   UNL A   1      39.571  31.817  33.641  1.00  0.00     0.010 A 
ATOM     46  C   UNL A   1      40.545  33.595  34.951  1.00  0.00     0.010 A 
ATOM     47  C   UNL A   1      40.704  32.571  34.014  1.00  0.00    -0.014 A 
BRANCH  47  48
ATOM     48  C   UNL A   1      42.014  32.343  33.345  1.00  0.00     0.031 A 
ATOM     49  C   UNL A   1      42.962  31.263  33.795  1.00  0.00     0.074 A 
ATOM     50  C   UNL A   1      42.364  33.148  32.321  1.00  0.00     0.049 A 
ATOM     51  N   UNL A   1      44.048  30.832  33.204  1.00  0.00    -0.248 NA
ATOM     52  C   UNL A   1      42.679  30.594  35.076  1.00  0.00     0.031 C 
ATOM     53  C   UNL A   1      41.609  34.322  31.878  1.00  0.00     0.029 A 
ATOM     54  N   UNL A   1      43.431  33.097  31.459  1.00  0.00    -0.354 N 
ATOM     55  C   UNL A   1      44.576  29.849  34.032  1.00  0.00     0.074 A 
ATOM     56  C   UNL A   1      43.718  29.774  35.195  1.00  0.00     0.031 C 
ATOM     57  C   UNL A   1      42.199  34.841  30.789  1.00  0.00     0.029 A 
ATOM     58  C   UNL A   1      43.373  34.040  30.458  1.00  0.00     0.049 A 
ATOM     59  H   UNL A   1      44.167  32.449  31.548  1.00  0.00     0.167 HD
ATOM     60  C   UNL A   1      45.650  29.052  33.821  1.00  0.00     0.034 A 
ATOM     61  C   UNL A   1      44.146  34.211  29.368  1.00  0.00     0.034 A 
ATOM     62  C   UNL A   1      46.467  29.095  32.638  1.00  0.00     0.049 A 
ATOM     63  C   UNL A   1      45.268  33.248  29.103  1.00  0.00     0.074 A 
ATOM     64  C   UNL A   1      47.513  28.258  32.288  1.00  0.00     0.029 A 
ATOM     65  N   UNL A   1      46.329  30.015  31.613  1.00  0.00    -0.354 N 
ATOM     66  N   UNL A   1      45.635  32.202  29.803  1.00  0.00    -0.248 NA
ATOM     67  C   UNL A   1      46.057  33.460  27.880  1.00  0.00     0.031 C 
ATOM     68  C   UNL A   1      48.005  28.670  31.046  1.00  0.00     0.029 A 
ATOM     69  C   UNL A   1      47.265  29.764  30.627  1.00  0.00     0.049 A 
ATOM     70  H   UNL A   1      45.665  30.741  31.591  1.00  0.00     0.167 HD
ATOM     71  C   UNL A   1      46.678  31.618  29.096  1.00  0.00     0.074 A 
ATOM     72  C   UNL A   1      46.877  32.415  27.903  1.00  0.00     0.031 C 
ATOM     73  C   UNL A   1      47.415  30.529  29.418  1.00  0.00     0.034 A 
BRANCH  60  74
ATOM     74  C   UNL A   1      45.951  27.972  34.825  1.00  0.00     0.023 A 
ATOM     75  C   UNL A   1      46.846  28.262  35.873  1.00  0.00     0.012 A 
ATOM     76  C   UNL A   1      45.251  26.750  34.827  1.00  0.00     0.148 A 
ATOM     77  C   UNL A   1      47.046  27.351  36.910  1.00  0.00     0.002 A 
ATOM     78  C   UNL A   1      45.436  25.857  35.878  1.00  0.00     0.091 A 
ATOM     79  F   UNL A   1      44.401  26.498  33.821  1.00  0.00    -0.205 F 
ATOM     80  C   UNL A   1      46.335  26.155  36.916  1.00  0.00     0.022 A 
BRANCH  78  81
ATOM     81  S   UNL A   1      44.532  24.311  36.023  1.00  0.00     0.127 S 
ATOM     82  O   UNL A   1      43.667  24.362  34.844  1.00  0.00    -0.237 OA
ATOM     83  O   UNL A   1      45.605  23.321  35.951  1.00  0.00    -0.237 OA
ATOM     84  O   UNL A   1      43.829  24.370  37.298  1.00  0.00    -0.744 OA
ENDBRANCH  78  81
ENDBRANCH  60  74
BRANCH  61  85
ATOM     85  C   UNL A   1      43.784  35.254  28.370  1.00  0.00     0.023 A 
ATOM     86  C   UNL A   1      43.043  34.876  27.232  1.00  0.00     0.012 A 
ATOM     87  C   UNL A   1      44.112  36.608  28.561  1.00  0.00     0.148 A 
ATOM     88  C   UNL A   1      42.648  35.828  26.293  1.00  0.00     0.002 A 
ATOM     89  C   UNL A   1      43.684  37.558  27.640  1.00  0.00     0.091 A 
ATOM     90  F   UNL A   1      44.825  36.941  29.647  1.00  0.00    -0.205 F 
ATOM     91  C   UNL A   1      42.961  37.169  26.500  1.00  0.00     0.022 A 
BRANCH  89  92
ATOM     92  S   UNL A   1      43.953  39.319  27.872  1.00  0.00     0.127 S 
ATOM     93  O   UNL A   1      45.411  39.404  27.840  1.00  0.00    -0.237 OA
ATOM     94  O   UNL A   1      43.277  39.886  26.704  1.00  0.00    -0.237 OA
ATOM     95  O   UNL A   1      43.328  39.647  29.145  1.00  0.00    -0.744 OA
ENDBRANCH  89  92
ENDBRANCH  61  85
BRANCH  73  96
ATOM     96  C   UNL A   1      48.508  30.109  28.477  1.00  0.00     0.023 A 
ATOM     97  C   UNL A   1      49.813  30.598  28.682  1.00  0.00     0.012 A 
ATOM     98  C   UNL A   1      48.274  29.137  27.486  1.00  0.00     0.148 A 
ATOM     99  C   UNL A   1      50.872  30.126  27.907  1.00  0.00     0.002 A 
ATOM    100  C   UNL A   1      49.338  28.649  26.739  1.00  0.00     0.091 A 
ATOM    101  F   UNL A   1      47.019  28.697  27.308  1.00  0.00    -0.205 F 
ATOM    102  C   UNL A   1      50.637  29.145  26.947  1.00  0.00     0.022 A 
BRANCH 100 103
ATOM    103  S   UNL A   1      49.153  27.332  25.531  1.00  0.00     0.127 S 
ATOM    104  O   UNL A   1      50.539  27.107  25.123  1.00  0.00    -0.237 OA
ATOM    105  O   UNL A   1      48.570  26.257  26.333  1.00  0.00    -0.237 OA
ATOM    106  O   UNL A   1      48.279  27.858  24.491  1.00  0.00    -0.744 OA
ENDBRANCH 100 103
ENDBRANCH  73  96
ENDBRANCH  47  48
ENDBRANCH  40  42
ENDBRANCH  39  40
ENDBRANCH  38  39
ENDBRANCH  37  38
ENDBRANCH  36  37
ENDBRANCH  35  36
ENDBRANCH   1  35
TORSDOF 25
ENDMDL
