MODEL 1
REMARK VINA RESULT:      -9.8      0.000      0.000
REMARK SMILES COc1cccc(-c2cccnc2C(=O)OCCOCCOCCOC(=O)c2ccc(-c3c4nc(c(-c5cccc(S(=O)(=O)[O-])c5F)c5ccc([nH]5)c(-c5cccc(S(=O)(=O)[O-])c5F)c5nc(c(-c6cccc(S(=O)(=O)[O-])c6F)c6ccc3[nH]6)C=C5)C=C4)cc2)c1F
REMARK SMILES IDX 21 1 20 2 19 3 18 4 17 5 16 6 14 7 15 8 13 9 8 10 9 11 10 12
REMARK SMILES IDX 12 13 11 14 7 15 3 16 4 17 91 18 5 19 92 20 6 21 2 22 1 23
REMARK SMILES IDX 22 24 23 25 24 26 25 27 26 28 27 29 28 30 29 31 90 32 30 33
REMARK SMILES IDX 89 34 31 35 32 36 33 37 83 38 34 39 88 40 82 41 84 42 35 43
REMARK SMILES IDX 87 44 81 45 80 46 36 48 68 49 48 50 67 51 49 52 52 53 66 54
REMARK SMILES IDX 85 55 50 56 51 57 65 59 86 60 53 61 37 62 38 63 46 64 39 65
REMARK SMILES IDX 41 66 47 67 40 68 42 69 43 70 44 71 45 72 69 73 70 74 78 75
REMARK SMILES IDX 71 76 73 77 79 78 72 79 74 80 75 81 76 82 77 83 54 84 55 85
REMARK SMILES IDX 63 86 56 87 58 88 64 89 57 90 59 91 60 92 61 93 62 94
REMARK H PARENT 84 47 52 58
REMARK Flexibility Score: inf
ROOT
ATOM      1  C   UNL A   1      40.461  21.916  27.152  1.00  0.00     0.188 C 
ENDROOT
BRANCH   1   2
ATOM      2  C   UNL A   1      39.368  22.845  26.574  1.00  0.00     0.188 C 
BRANCH   2   3
ATOM      3  O   UNL A   1      38.237  22.288  25.922  1.00  0.00    -0.376 OA
BRANCH   3   4
ATOM      4  C   UNL A   1      37.359  23.138  25.192  1.00  0.00     0.202 C 
BRANCH   4   5
ATOM      5  C   UNL A   1      36.248  22.501  24.364  1.00  0.00     0.261 C 
BRANCH   5   6
ATOM      6  O   UNL A   1      36.052  21.139  24.758  1.00  0.00    -0.458 OA
BRANCH   6   7
ATOM      7  C   UNL A   1      34.904  20.907  25.440  1.00  0.00     0.357 C 
ATOM      8  O   UNL A   1      34.614  21.360  26.536  1.00  0.00    -0.244 OA
BRANCH   7   9
ATOM      9  C   UNL A   1      34.004  20.051  24.614  1.00  0.00     0.156 A 
ATOM     10  C   UNL A   1      32.958  20.581  23.840  1.00  0.00     0.018 A 
ATOM     11  C   UNL A   1      32.219  19.634  23.104  1.00  0.00     0.013 A 
ATOM     12  C   UNL A   1      32.500  18.270  23.191  1.00  0.00     0.021 A 
ATOM     13  N   UNL A   1      34.295  18.721  24.712  1.00  0.00    -0.249 NA
ATOM     14  C   UNL A   1      33.532  17.864  24.010  1.00  0.00     0.112 A 
BRANCH  10  15
ATOM     15  C   UNL A   1      32.591  22.014  23.795  1.00  0.00     0.024 A 
ATOM     16  C   UNL A   1      31.476  23.958  24.808  1.00  0.00     0.155 A 
ATOM     17  C   UNL A   1      31.959  24.765  23.776  1.00  0.00     0.049 A 
ATOM     18  C   UNL A   1      31.795  22.594  24.808  1.00  0.00     0.172 A 
ATOM     19  C   UNL A   1      32.744  24.221  22.763  1.00  0.00     0.005 A 
ATOM     20  F   UNL A   1      31.323  21.801  25.785  1.00  0.00    -0.202 F 
ATOM     21  C   UNL A   1      33.042  22.857  22.763  1.00  0.00     0.012 A 
BRANCH  16  22
ATOM     22  O   UNL A   1      30.695  24.619  25.719  1.00  0.00    -0.494 OA
ATOM     23  C   UNL A   1      30.028  25.786  25.247  1.00  0.00     0.278 C 
ENDBRANCH  16  22
ENDBRANCH  10  15
ENDBRANCH   7   9
ENDBRANCH   6   7
ENDBRANCH   5   6
ENDBRANCH   4   5
ENDBRANCH   3   4
ENDBRANCH   2   3
ENDBRANCH   1   2
BRANCH   1  24
ATOM     24  O   UNL A   1      40.525  20.544  26.798  1.00  0.00    -0.376 OA
BRANCH  24  25
ATOM     25  C   UNL A   1      41.657  19.780  27.186  1.00  0.00     0.202 C 
BRANCH  25  26
ATOM     26  C   UNL A   1      42.348  18.870  26.170  1.00  0.00     0.261 C 
BRANCH  26  27
ATOM     27  O   UNL A   1      42.738  19.545  24.967  1.00  0.00    -0.460 OA
BRANCH  27  28
ATOM     28  C   UNL A   1      44.075  19.623  24.765  1.00  0.00     0.338 C 
ATOM     29  O   UNL A   1      44.810  18.750  24.334  1.00  0.00    -0.246 OA
BRANCH  28  30
ATOM     30  C   UNL A   1      44.524  21.010  24.974  1.00  0.00     0.060 A 
ATOM     31  C   UNL A   1      45.206  21.309  26.161  1.00  0.00     0.016 A 
ATOM     32  C   UNL A   1      44.232  22.012  24.048  1.00  0.00     0.016 A 
ATOM     33  C   UNL A   1      45.567  22.624  26.445  1.00  0.00     0.010 A 
ATOM     34  C   UNL A   1      44.576  23.333  24.343  1.00  0.00     0.010 A 
ATOM     35  C   UNL A   1      45.215  23.648  25.556  1.00  0.00    -0.014 A 
BRANCH  35  36
ATOM     36  C   UNL A   1      45.364  25.062  25.966  1.00  0.00     0.031 A 
ATOM     37  C   UNL A   1      46.740  25.670  25.961  1.00  0.00     0.074 A 
ATOM     38  C   UNL A   1      44.297  25.790  26.343  1.00  0.00     0.049 A 
ATOM     39  N   UNL A   1      47.114  26.866  26.329  1.00  0.00    -0.248 NA
ATOM     40  C   UNL A   1      47.839  24.819  25.471  1.00  0.00     0.031 C 
ATOM     41  C   UNL A   1      42.915  25.315  26.366  1.00  0.00     0.029 A 
ATOM     42  N   UNL A   1      44.219  27.082  26.800  1.00  0.00    -0.354 N 
ATOM     43  C   UNL A   1      48.490  26.908  26.135  1.00  0.00     0.074 A 
ATOM     44  C   UNL A   1      48.888  25.616  25.621  1.00  0.00     0.031 C 
ATOM     45  C   UNL A   1      42.126  26.295  26.842  1.00  0.00     0.029 A 
ATOM     46  C   UNL A   1      42.951  27.455  27.178  1.00  0.00     0.049 A 
ATOM     47  H   UNL A   1      44.997  27.682  26.854  1.00  0.00     0.167 HD
ATOM     48  C   UNL A   1      49.341  27.936  26.349  1.00  0.00     0.034 A 
ATOM     49  C   UNL A   1      42.513  28.598  27.747  1.00  0.00     0.034 A 
ATOM     50  C   UNL A   1      48.942  29.224  26.844  1.00  0.00     0.049 A 
ATOM     51  C   UNL A   1      43.496  29.710  28.017  1.00  0.00     0.074 A 
ATOM     52  C   UNL A   1      49.735  30.334  27.077  1.00  0.00     0.029 A 
ATOM     53  N   UNL A   1      47.647  29.575  27.182  1.00  0.00    -0.354 N 
ATOM     54  N   UNL A   1      44.776  29.769  27.734  1.00  0.00    -0.248 NA
ATOM     55  C   UNL A   1      42.970  30.924  28.661  1.00  0.00     0.031 C 
ATOM     56  C   UNL A   1      48.919  31.355  27.571  1.00  0.00     0.029 A 
ATOM     57  C   UNL A   1      47.617  30.884  27.627  1.00  0.00     0.049 A 
ATOM     58  H   UNL A   1      46.864  28.981  27.118  1.00  0.00     0.167 HD
ATOM     59  C   UNL A   1      45.196  31.035  28.129  1.00  0.00     0.074 A 
ATOM     60  C   UNL A   1      44.033  31.718  28.656  1.00  0.00     0.031 C 
ATOM     61  C   UNL A   1      46.437  31.577  28.078  1.00  0.00     0.034 A 
BRANCH  48  62
ATOM     62  C   UNL A   1      50.790  27.740  26.004  1.00  0.00     0.023 A 
ATOM     63  C   UNL A   1      51.698  27.399  27.028  1.00  0.00     0.012 A 
ATOM     64  C   UNL A   1      51.230  27.776  24.667  1.00  0.00     0.148 A 
ATOM     65  C   UNL A   1      53.025  27.100  26.724  1.00  0.00     0.002 A 
ATOM     66  C   UNL A   1      52.545  27.441  24.369  1.00  0.00     0.091 A 
ATOM     67  F   UNL A   1      50.350  28.120  23.716  1.00  0.00    -0.205 F 
ATOM     68  C   UNL A   1      53.444  27.109  25.396  1.00  0.00     0.022 A 
BRANCH  66  69
ATOM     69  S   UNL A   1      53.170  27.352  22.688  1.00  0.00     0.127 S 
ATOM     70  O   UNL A   1      53.065  28.747  22.259  1.00  0.00    -0.237 OA
ATOM     71  O   UNL A   1      54.539  26.880  22.897  1.00  0.00    -0.237 OA
ATOM     72  O   UNL A   1      52.302  26.423  21.981  1.00  0.00    -0.744 OA
ENDBRANCH  66  69
ENDBRANCH  48  62
BRANCH  49  73
ATOM     73  C   UNL A   1      41.067  28.772  28.063  1.00  0.00     0.023 A 
ATOM     74  C   UNL A   1      40.173  29.111  27.028  1.00  0.00     0.012 A 
ATOM     75  C   UNL A   1      40.572  28.610  29.370  1.00  0.00     0.148 A 
ATOM     76  C   UNL A   1      38.818  29.312  27.296  1.00  0.00     0.002 A 
ATOM     77  C   UNL A   1      39.211  28.761  29.621  1.00  0.00     0.091 A 
ATOM     78  F   UNL A   1      41.440  28.315  30.349  1.00  0.00    -0.205 F 
ATOM     79  C   UNL A   1      38.335  29.127  28.588  1.00  0.00     0.022 A 
BRANCH  77  80
ATOM     80  S   UNL A   1      38.493  28.427  31.234  1.00  0.00     0.127 S 
ATOM     81  O   UNL A   1      37.104  28.825  31.031  1.00  0.00    -0.237 OA
ATOM     82  O   UNL A   1      38.709  26.986  31.374  1.00  0.00    -0.237 OA
ATOM     83  O   UNL A   1      39.258  29.238  32.171  1.00  0.00    -0.744 OA
ENDBRANCH  77  80
ENDBRANCH  49  73
BRANCH  61  84
ATOM     84  C   UNL A   1      46.622  32.990  28.566  1.00  0.00     0.023 A 
ATOM     85  C   UNL A   1      46.918  33.223  29.923  1.00  0.00     0.012 A 
ATOM     86  C   UNL A   1      46.632  34.068  27.659  1.00  0.00     0.148 A 
ATOM     87  C   UNL A   1      47.207  34.510  30.373  1.00  0.00     0.002 A 
ATOM     88  C   UNL A   1      46.966  35.341  28.106  1.00  0.00     0.091 A 
ATOM     89  F   UNL A   1      46.332  33.826  26.375  1.00  0.00    -0.205 F 
ATOM     90  C   UNL A   1      47.245  35.565  29.465  1.00  0.00     0.022 A 
BRANCH  88  91
ATOM     91  S   UNL A   1      47.141  36.739  26.990  1.00  0.00     0.127 S 
ATOM     92  O   UNL A   1      45.827  36.776  26.351  1.00  0.00    -0.237 OA
ATOM     93  O   UNL A   1      47.402  37.844  27.912  1.00  0.00    -0.237 OA
ATOM     94  O   UNL A   1      48.255  36.412  26.111  1.00  0.00    -0.744 OA
ENDBRANCH  88  91
ENDBRANCH  61  84
ENDBRANCH  35  36
ENDBRANCH  28  30
ENDBRANCH  27  28
ENDBRANCH  26  27
ENDBRANCH  25  26
ENDBRANCH  24  25
ENDBRANCH   1  24
TORSDOF 22
ENDMDL
MODEL 2
REMARK VINA RESULT:      -9.6      1.261      2.461
REMARK SMILES COc1cccc(-c2cccnc2C(=O)OCCOCCOCCOC(=O)c2ccc(-c3c4nc(c(-c5cccc(S(=O)(=O)[O-])c5F)c5ccc([nH]5)c(-c5cccc(S(=O)(=O)[O-])c5F)c5nc(c(-c6cccc(S(=O)(=O)[O-])c6F)c6ccc3[nH]6)C=C5)C=C4)cc2)c1F
REMARK SMILES IDX 21 1 20 2 19 3 18 4 17 5 16 6 14 7 15 8 13 9 8 10 9 11 10 12
REMARK SMILES IDX 12 13 11 14 7 15 3 16 4 17 91 18 5 19 92 20 6 21 2 22 1 23
REMARK SMILES IDX 22 24 23 25 24 26 25 27 26 28 27 29 28 30 29 31 90 32 30 33
REMARK SMILES IDX 89 34 31 35 32 36 33 37 83 38 34 39 88 40 82 41 84 42 35 43
REMARK SMILES IDX 87 44 81 45 80 46 36 48 68 49 48 50 67 51 49 52 52 53 66 54
REMARK SMILES IDX 85 55 50 56 51 57 65 59 86 60 53 61 37 62 38 63 46 64 39 65
REMARK SMILES IDX 41 66 47 67 40 68 42 69 43 70 44 71 45 72 69 73 70 74 78 75
REMARK SMILES IDX 71 76 73 77 79 78 72 79 74 80 75 81 76 82 77 83 54 84 55 85
REMARK SMILES IDX 63 86 56 87 58 88 64 89 57 90 59 91 60 92 61 93 62 94
REMARK H PARENT 84 47 52 58
REMARK Flexibility Score: inf
ROOT
ATOM      1  C   UNL A   1      40.379  20.491  26.172  1.00  0.00     0.188 C 
ENDROOT
BRANCH   1   2
ATOM      2  C   UNL A   1      39.878  21.953  26.140  1.00  0.00     0.188 C 
BRANCH   2   3
ATOM      3  O   UNL A   1      38.512  22.229  25.874  1.00  0.00    -0.376 OA
BRANCH   3   4
ATOM      4  C   UNL A   1      37.956  23.477  26.274  1.00  0.00     0.202 C 
BRANCH   4   5
ATOM      5  C   UNL A   1      36.493  23.761  25.956  1.00  0.00     0.261 C 
BRANCH   5   6
ATOM      6  O   UNL A   1      35.991  22.798  25.023  1.00  0.00    -0.458 OA
BRANCH   6   7
ATOM      7  C   UNL A   1      35.120  23.295  24.110  1.00  0.00     0.357 C 
ATOM      8  O   UNL A   1      35.293  23.342  22.902  1.00  0.00    -0.244 OA
BRANCH   7   9
ATOM      9  C   UNL A   1      33.873  23.728  24.803  1.00  0.00     0.156 A 
ATOM     10  C   UNL A   1      32.771  22.875  24.981  1.00  0.00     0.018 A 
ATOM     11  C   UNL A   1      31.683  23.438  25.676  1.00  0.00     0.013 A 
ATOM     12  C   UNL A   1      31.708  24.765  26.108  1.00  0.00     0.021 A 
ATOM     13  N   UNL A   1      33.918  25.028  25.219  1.00  0.00    -0.249 NA
ATOM     14  C   UNL A   1      32.835  25.518  25.848  1.00  0.00     0.112 A 
BRANCH  10  15
ATOM     15  C   UNL A   1      32.691  21.491  24.461  1.00  0.00     0.024 A 
ATOM     16  C   UNL A   1      32.829  19.065  24.839  1.00  0.00     0.155 A 
ATOM     17  C   UNL A   1      32.451  18.843  23.514  1.00  0.00     0.049 A 
ATOM     18  C   UNL A   1      32.945  20.383  25.299  1.00  0.00     0.172 A 
ATOM     19  C   UNL A   1      32.196  19.916  22.664  1.00  0.00     0.005 A 
ATOM     20  F   UNL A   1      33.325  20.612  26.568  1.00  0.00    -0.202 F 
ATOM     21  C   UNL A   1      32.331  21.225  23.128  1.00  0.00     0.012 A 
BRANCH  16  22
ATOM     22  O   UNL A   1      33.076  17.921  25.551  1.00  0.00    -0.494 OA
ATOM     23  C   UNL A   1      33.259  16.732  24.789  1.00  0.00     0.278 C 
ENDBRANCH  16  22
ENDBRANCH  10  15
ENDBRANCH   7   9
ENDBRANCH   6   7
ENDBRANCH   5   6
ENDBRANCH   4   5
ENDBRANCH   3   4
ENDBRANCH   2   3
ENDBRANCH   1   2
BRANCH   1  24
ATOM     24  O   UNL A   1      41.693  20.153  25.761  1.00  0.00    -0.376 OA
BRANCH  24  25
ATOM     25  C   UNL A   1      42.231  18.890  26.126  1.00  0.00     0.202 C 
BRANCH  25  26
ATOM     26  C   UNL A   1      43.572  18.436  25.549  1.00  0.00     0.261 C 
BRANCH  26  27
ATOM     27  O   UNL A   1      43.950  19.135  24.356  1.00  0.00    -0.460 OA
BRANCH  27  28
ATOM     28  C   UNL A   1      45.155  19.752  24.414  1.00  0.00     0.338 C 
ATOM     29  O   UNL A   1      46.218  19.339  23.984  1.00  0.00    -0.246 OA
BRANCH  28  30
ATOM     30  C   UNL A   1      44.982  21.122  24.928  1.00  0.00     0.060 A 
ATOM     31  C   UNL A   1      44.673  22.134  24.010  1.00  0.00     0.016 A 
ATOM     32  C   UNL A   1      45.176  21.417  26.278  1.00  0.00     0.016 A 
ATOM     33  C   UNL A   1      44.592  23.458  24.435  1.00  0.00     0.010 A 
ATOM     34  C   UNL A   1      45.116  22.748  26.698  1.00  0.00     0.010 A 
ATOM     35  C   UNL A   1      44.855  23.776  25.773  1.00  0.00    -0.014 A 
BRANCH  35  36
ATOM     36  C   UNL A   1      45.024  25.190  26.175  1.00  0.00     0.031 A 
ATOM     37  C   UNL A   1      46.402  25.791  26.129  1.00  0.00     0.074 A 
ATOM     38  C   UNL A   1      43.972  25.924  26.581  1.00  0.00     0.049 A 
ATOM     39  N   UNL A   1      46.793  26.986  26.483  1.00  0.00    -0.248 NA
ATOM     40  C   UNL A   1      47.482  24.933  25.610  1.00  0.00     0.031 C 
ATOM     41  C   UNL A   1      42.589  25.457  26.645  1.00  0.00     0.029 A 
ATOM     42  N   UNL A   1      43.914  27.218  27.037  1.00  0.00    -0.354 N 
ATOM     43  C   UNL A   1      48.162  27.020  26.248  1.00  0.00     0.074 A 
ATOM     44  C   UNL A   1      48.539  25.725  25.726  1.00  0.00     0.031 C 
ATOM     45  C   UNL A   1      41.819  26.442  27.141  1.00  0.00     0.029 A 
ATOM     46  C   UNL A   1      42.659  27.598  27.450  1.00  0.00     0.049 A 
ATOM     47  H   UNL A   1      44.696  27.814  27.067  1.00  0.00     0.167 HD
ATOM     48  C   UNL A   1      49.024  28.044  26.434  1.00  0.00     0.034 A 
ATOM     49  C   UNL A   1      42.244  28.745  28.028  1.00  0.00     0.034 A 
ATOM     50  C   UNL A   1      48.647  29.335  26.937  1.00  0.00     0.049 A 
ATOM     51  C   UNL A   1      43.240  29.852  28.266  1.00  0.00     0.074 A 
ATOM     52  C   UNL A   1      49.452  30.442  27.145  1.00  0.00     0.029 A 
ATOM     53  N   UNL A   1      47.364  29.694  27.313  1.00  0.00    -0.354 N 
ATOM     54  N   UNL A   1      44.511  29.905  27.947  1.00  0.00    -0.248 NA
ATOM     55  C   UNL A   1      42.739  31.071  28.922  1.00  0.00     0.031 C 
ATOM     56  C   UNL A   1      48.656  31.468  27.659  1.00  0.00     0.029 A 
ATOM     57  C   UNL A   1      47.353  31.005  27.754  1.00  0.00     0.049 A 
ATOM     58  H   UNL A   1      46.576  29.104  27.272  1.00  0.00     0.167 HD
ATOM     59  C   UNL A   1      44.949  31.170  28.326  1.00  0.00     0.074 A 
ATOM     60  C   UNL A   1      43.806  31.860  28.884  1.00  0.00     0.031 C 
ATOM     61  C   UNL A   1      46.191  31.704  28.237  1.00  0.00     0.034 A 
BRANCH  48  62
ATOM     62  C   UNL A   1      50.462  27.839  26.049  1.00  0.00     0.023 A 
ATOM     63  C   UNL A   1      51.379  27.400  27.026  1.00  0.00     0.012 A 
ATOM     64  C   UNL A   1      50.880  27.965  24.710  1.00  0.00     0.148 A 
ATOM     65  C   UNL A   1      52.692  27.093  26.676  1.00  0.00     0.002 A 
ATOM     66  C   UNL A   1      52.180  27.622  24.362  1.00  0.00     0.091 A 
ATOM     67  F   UNL A   1      49.992  28.400  23.804  1.00  0.00    -0.205 F 
ATOM     68  C   UNL A   1      53.088  27.191  25.344  1.00  0.00     0.022 A 
BRANCH  66  69
ATOM     69  S   UNL A   1      52.774  27.644  22.668  1.00  0.00     0.127 S 
ATOM     70  O   UNL A   1      52.017  26.540  22.076  1.00  0.00    -0.237 OA
ATOM     71  O   UNL A   1      52.364  28.974  22.218  1.00  0.00    -0.237 OA
ATOM     72  O   UNL A   1      54.212  27.436  22.739  1.00  0.00    -0.744 OA
ENDBRANCH  66  69
ENDBRANCH  48  62
BRANCH  49  73
ATOM     73  C   UNL A   1      40.808  28.928  28.386  1.00  0.00     0.023 A 
ATOM     74  C   UNL A   1      39.883  29.250  27.373  1.00  0.00     0.012 A 
ATOM     75  C   UNL A   1      40.353  28.790  29.711  1.00  0.00     0.148 A 
ATOM     76  C   UNL A   1      38.537  29.459  27.679  1.00  0.00     0.002 A 
ATOM     77  C   UNL A   1      39.002  28.948  30.000  1.00  0.00     0.091 A 
ATOM     78  F   UNL A   1      41.251  28.511  30.667  1.00  0.00    -0.205 F 
ATOM     79  C   UNL A   1      38.094  29.298  28.989  1.00  0.00     0.022 A 
BRANCH  77  80
ATOM     80  S   UNL A   1      38.333  28.644  31.640  1.00  0.00     0.127 S 
ATOM     81  O   UNL A   1      36.935  29.024  31.469  1.00  0.00    -0.237 OA
ATOM     82  O   UNL A   1      38.567  27.209  31.806  1.00  0.00    -0.237 OA
ATOM     83  O   UNL A   1      39.117  29.483  32.537  1.00  0.00    -0.744 OA
ENDBRANCH  77  80
ENDBRANCH  49  73
BRANCH  61  84
ATOM     84  C   UNL A   1      46.397  33.118  28.716  1.00  0.00     0.023 A 
ATOM     85  C   UNL A   1      46.932  33.345  29.999  1.00  0.00     0.012 A 
ATOM     86  C   UNL A   1      46.185  34.208  27.850  1.00  0.00     0.148 A 
ATOM     87  C   UNL A   1      47.239  34.639  30.418  1.00  0.00     0.002 A 
ATOM     88  C   UNL A   1      46.537  35.490  28.257  1.00  0.00     0.091 A 
ATOM     89  F   UNL A   1      45.662  33.970  26.639  1.00  0.00    -0.205 F 
ATOM     90  C   UNL A   1      47.056  35.708  29.544  1.00  0.00     0.022 A 
BRANCH  88  91
ATOM     91  S   UNL A   1      46.433  36.911  27.161  1.00  0.00     0.127 S 
ATOM     92  O   UNL A   1      47.267  36.483  26.039  1.00  0.00    -0.237 OA
ATOM     93  O   UNL A   1      45.001  36.973  26.866  1.00  0.00    -0.237 OA
ATOM     94  O   UNL A   1      46.941  38.043  27.922  1.00  0.00    -0.744 OA
ENDBRANCH  88  91
ENDBRANCH  61  84
ENDBRANCH  35  36
ENDBRANCH  28  30
ENDBRANCH  27  28
ENDBRANCH  26  27
ENDBRANCH  25  26
ENDBRANCH  24  25
ENDBRANCH   1  24
TORSDOF 22
ENDMDL
MODEL 3
REMARK VINA RESULT:      -9.4      2.152      2.532
REMARK SMILES COc1cccc(-c2cccnc2C(=O)OCCOCCOCCOC(=O)c2ccc(-c3c4nc(c(-c5cccc(S(=O)(=O)[O-])c5F)c5ccc([nH]5)c(-c5cccc(S(=O)(=O)[O-])c5F)c5nc(c(-c6cccc(S(=O)(=O)[O-])c6F)c6ccc3[nH]6)C=C5)C=C4)cc2)c1F
REMARK SMILES IDX 21 1 20 2 19 3 18 4 17 5 16 6 14 7 15 8 13 9 8 10 9 11 10 12
REMARK SMILES IDX 12 13 11 14 7 15 3 16 4 17 91 18 5 19 92 20 6 21 2 22 1 23
REMARK SMILES IDX 22 24 23 25 24 26 25 27 26 28 27 29 28 30 29 31 90 32 30 33
REMARK SMILES IDX 89 34 31 35 32 36 33 37 83 38 34 39 88 40 82 41 84 42 35 43
REMARK SMILES IDX 87 44 81 45 80 46 36 48 68 49 48 50 67 51 49 52 52 53 66 54
REMARK SMILES IDX 85 55 50 56 51 57 65 59 86 60 53 61 37 62 38 63 46 64 39 65
REMARK SMILES IDX 41 66 47 67 40 68 42 69 43 70 44 71 45 72 69 73 70 74 78 75
REMARK SMILES IDX 71 76 73 77 79 78 72 79 74 80 75 81 76 82 77 83 54 84 55 85
REMARK SMILES IDX 63 86 56 87 58 88 64 89 57 90 59 91 60 92 61 93 62 94
REMARK H PARENT 84 47 52 58
REMARK Flexibility Score: inf
ROOT
ATOM      1  C   UNL A   1      40.310  21.009  26.365  1.00  0.00     0.188 C 
ENDROOT
BRANCH   1   2
ATOM      2  C   UNL A   1      39.917  22.493  26.188  1.00  0.00     0.188 C 
BRANCH   2   3
ATOM      3  O   UNL A   1      38.548  22.860  26.114  1.00  0.00    -0.376 OA
BRANCH   3   4
ATOM      4  C   UNL A   1      37.560  21.851  25.931  1.00  0.00     0.202 C 
BRANCH   4   5
ATOM      5  C   UNL A   1      36.933  21.685  24.551  1.00  0.00     0.261 C 
BRANCH   5   6
ATOM      6  O   UNL A   1      35.706  22.417  24.470  1.00  0.00    -0.458 OA
BRANCH   6   7
ATOM      7  C   UNL A   1      34.724  21.966  25.290  1.00  0.00     0.357 C 
ATOM      8  O   UNL A   1      34.500  22.355  26.425  1.00  0.00    -0.244 OA
BRANCH   7   9
ATOM      9  C   UNL A   1      33.905  20.951  24.567  1.00  0.00     0.156 A 
ATOM     10  C   UNL A   1      32.867  21.303  23.688  1.00  0.00     0.018 A 
ATOM     11  C   UNL A   1      32.211  20.220  23.072  1.00  0.00     0.013 A 
ATOM     12  C   UNL A   1      32.558  18.901  23.365  1.00  0.00     0.021 A 
ATOM     13  N   UNL A   1      34.261  19.667  24.866  1.00  0.00    -0.249 NA
ATOM     14  C   UNL A   1      33.574  18.676  24.270  1.00  0.00     0.112 A 
BRANCH  10  15
ATOM     15  C   UNL A   1      32.429  22.692  23.423  1.00  0.00     0.024 A 
ATOM     16  C   UNL A   1      32.710  24.820  22.223  1.00  0.00     0.155 A 
ATOM     17  C   UNL A   1      31.555  25.311  22.834  1.00  0.00     0.049 A 
ATOM     18  C   UNL A   1      33.136  23.520  22.522  1.00  0.00     0.172 A 
ATOM     19  C   UNL A   1      30.839  24.519  23.728  1.00  0.00     0.005 A 
ATOM     20  F   UNL A   1      34.255  23.040  21.955  1.00  0.00    -0.202 F 
ATOM     21  C   UNL A   1      31.280  23.230  24.032  1.00  0.00     0.012 A 
BRANCH  16  22
ATOM     22  O   UNL A   1      33.328  25.716  21.390  1.00  0.00    -0.494 OA
ATOM     23  C   UNL A   1      33.444  27.050  21.876  1.00  0.00     0.278 C 
ENDBRANCH  16  22
ENDBRANCH  10  15
ENDBRANCH   7   9
ENDBRANCH   6   7
ENDBRANCH   5   6
ENDBRANCH   4   5
ENDBRANCH   3   4
ENDBRANCH   2   3
ENDBRANCH   1   2
BRANCH   1  24
ATOM     24  O   UNL A   1      41.653  20.579  26.211  1.00  0.00    -0.376 OA
BRANCH  24  25
ATOM     25  C   UNL A   1      41.931  19.189  26.124  1.00  0.00     0.202 C 
BRANCH  25  26
ATOM     26  C   UNL A   1      43.283  18.712  25.592  1.00  0.00     0.261 C 
BRANCH  26  27
ATOM     27  O   UNL A   1      43.701  19.388  24.399  1.00  0.00    -0.460 OA
BRANCH  27  28
ATOM     28  C   UNL A   1      44.909  19.995  24.481  1.00  0.00     0.338 C 
ATOM     29  O   UNL A   1      45.970  19.593  24.036  1.00  0.00    -0.246 OA
BRANCH  28  30
ATOM     30  C   UNL A   1      44.742  21.346  25.047  1.00  0.00     0.060 A 
ATOM     31  C   UNL A   1      44.349  22.376  24.182  1.00  0.00     0.016 A 
ATOM     32  C   UNL A   1      45.022  21.607  26.388  1.00  0.00     0.016 A 
ATOM     33  C   UNL A   1      44.270  23.686  24.651  1.00  0.00     0.010 A 
ATOM     34  C   UNL A   1      44.963  22.924  26.851  1.00  0.00     0.010 A 
ATOM     35  C   UNL A   1      44.618  23.971  25.977  1.00  0.00    -0.014 A 
BRANCH  35  36
ATOM     36  C   UNL A   1      44.783  25.377  26.409  1.00  0.00     0.031 A 
ATOM     37  C   UNL A   1      46.152  25.995  26.331  1.00  0.00     0.074 A 
ATOM     38  C   UNL A   1      43.738  26.088  26.868  1.00  0.00     0.049 A 
ATOM     39  N   UNL A   1      46.541  27.186  26.702  1.00  0.00    -0.248 NA
ATOM     40  C   UNL A   1      47.224  25.164  25.755  1.00  0.00     0.031 C 
ATOM     41  C   UNL A   1      42.363  25.602  26.966  1.00  0.00     0.029 A 
ATOM     42  N   UNL A   1      43.680  27.369  27.358  1.00  0.00    -0.354 N 
ATOM     43  C   UNL A   1      47.901  27.243  26.423  1.00  0.00     0.074 A 
ATOM     44  C   UNL A   1      48.275  25.966  25.856  1.00  0.00     0.031 C 
ATOM     45  C   UNL A   1      41.599  26.565  27.513  1.00  0.00     0.029 A 
ATOM     46  C   UNL A   1      42.436  27.723  27.822  1.00  0.00     0.049 A 
ATOM     47  H   UNL A   1      44.456  27.974  27.376  1.00  0.00     0.167 HD
ATOM     48  C   UNL A   1      48.758  28.272  26.606  1.00  0.00     0.034 A 
ATOM     49  C   UNL A   1      42.027  28.850  28.443  1.00  0.00     0.034 A 
ATOM     50  C   UNL A   1      48.383  29.546  27.153  1.00  0.00     0.049 A 
ATOM     51  C   UNL A   1      43.018  29.964  28.675  1.00  0.00     0.074 A 
ATOM     52  C   UNL A   1      49.181  30.657  27.361  1.00  0.00     0.029 A 
ATOM     53  N   UNL A   1      47.108  29.880  27.580  1.00  0.00    -0.354 N 
ATOM     54  N   UNL A   1      44.277  30.039  28.315  1.00  0.00    -0.248 NA
ATOM     55  C   UNL A   1      42.525  31.160  29.378  1.00  0.00     0.031 C 
ATOM     56  C   UNL A   1      48.391  31.660  27.928  1.00  0.00     0.029 A 
ATOM     57  C   UNL A   1      47.098  31.179  28.055  1.00  0.00     0.049 A 
ATOM     58  H   UNL A   1      46.327  29.282  27.551  1.00  0.00     0.167 HD
ATOM     59  C   UNL A   1      44.713  31.300  28.711  1.00  0.00     0.074 A 
ATOM     60  C   UNL A   1      43.581  31.962  29.324  1.00  0.00     0.031 C 
ATOM     61  C   UNL A   1      45.945  31.852  28.594  1.00  0.00     0.034 A 
BRANCH  48  62
ATOM     62  C   UNL A   1      50.184  28.095  26.167  1.00  0.00     0.023 A 
ATOM     63  C   UNL A   1      50.526  28.360  24.825  1.00  0.00     0.012 A 
ATOM     64  C   UNL A   1      51.196  27.785  27.096  1.00  0.00     0.148 A 
ATOM     65  C   UNL A   1      51.857  28.314  24.413  1.00  0.00     0.002 A 
ATOM     66  C   UNL A   1      52.523  27.778  26.686  1.00  0.00     0.091 A 
ATOM     67  F   UNL A   1      50.841  27.522  28.361  1.00  0.00    -0.205 F 
ATOM     68  C   UNL A   1      52.855  28.037  25.345  1.00  0.00     0.022 A 
BRANCH  66  69
ATOM     69  S   UNL A   1      53.891  27.503  27.817  1.00  0.00     0.127 S 
ATOM     70  O   UNL A   1      55.037  27.541  26.908  1.00  0.00    -0.237 OA
ATOM     71  O   UNL A   1      53.784  28.657  28.710  1.00  0.00    -0.237 OA
ATOM     72  O   UNL A   1      53.645  26.214  28.445  1.00  0.00    -0.744 OA
ENDBRANCH  66  69
ENDBRANCH  48  62
BRANCH  49  73
ATOM     73  C   UNL A   1      40.602  29.007  28.852  1.00  0.00     0.023 A 
ATOM     74  C   UNL A   1      39.630  29.277  27.870  1.00  0.00     0.012 A 
ATOM     75  C   UNL A   1      40.204  28.893  30.198  1.00  0.00     0.148 A 
ATOM     76  C   UNL A   1      38.292  29.460  28.223  1.00  0.00     0.002 A 
ATOM     77  C   UNL A   1      38.861  29.026  30.537  1.00  0.00     0.091 A 
ATOM     78  F   UNL A   1      41.145  28.664  31.124  1.00  0.00    -0.205 F 
ATOM     79  C   UNL A   1      37.906  29.324  29.554  1.00  0.00     0.022 A 
BRANCH  77  80
ATOM     80  S   UNL A   1      38.266  28.751  32.210  1.00  0.00     0.127 S 
ATOM     81  O   UNL A   1      36.842  29.040  32.073  1.00  0.00    -0.237 OA
ATOM     82  O   UNL A   1      38.591  27.339  32.424  1.00  0.00    -0.237 OA
ATOM     83  O   UNL A   1      39.026  29.671  33.045  1.00  0.00    -0.744 OA
ENDBRANCH  77  80
ENDBRANCH  49  73
BRANCH  61  84
ATOM     84  C   UNL A   1      46.151  33.255  29.101  1.00  0.00     0.023 A 
ATOM     85  C   UNL A   1      45.877  34.347  28.254  1.00  0.00     0.012 A 
ATOM     86  C   UNL A   1      46.486  33.492  30.449  1.00  0.00     0.148 A 
ATOM     87  C   UNL A   1      45.949  35.653  28.736  1.00  0.00     0.002 A 
ATOM     88  C   UNL A   1      46.510  34.793  30.935  1.00  0.00     0.091 A 
ATOM     89  F   UNL A   1      46.757  32.439  31.234  1.00  0.00    -0.205 F 
ATOM     90  C   UNL A   1      46.251  35.875  30.078  1.00  0.00     0.022 A 
BRANCH  88  91
ATOM     91  S   UNL A   1      46.787  35.168  32.671  1.00  0.00     0.127 S 
ATOM     92  O   UNL A   1      46.662  36.624  32.685  1.00  0.00    -0.237 OA
ATOM     93  O   UNL A   1      45.686  34.456  33.322  1.00  0.00    -0.237 OA
ATOM     94  O   UNL A   1      48.110  34.649  32.987  1.00  0.00    -0.744 OA
ENDBRANCH  88  91
ENDBRANCH  61  84
ENDBRANCH  35  36
ENDBRANCH  28  30
ENDBRANCH  27  28
ENDBRANCH  26  27
ENDBRANCH  25  26
ENDBRANCH  24  25
ENDBRANCH   1  24
TORSDOF 22
ENDMDL
