MODEL 1
REMARK VINA RESULT:     -10.9      0.000      0.000
REMARK SMILES CC[NH+]1CCC2(CC1)OC[C@@H](C(=O)OCCOCCOCCOC(=O)c1ccc(-c3c4nc(c(-c5cccc(S(=O)(=O)[O-])c5F)c5ccc([nH]5)c(-c5cccc(S(=O)(=O)[O-])c5F)c5nc(c(-c6cccc(S(=O)(=O)[O-])c6F)c6ccc3[nH]6)C=C5)C=C4)cc1)N2C(=O)c1ccc(Cl)c([N+](=O)[O-])c1
REMARK SMILES IDX 18 1 17 2 16 3 15 4 14 5 12 6 13 7 11 8 3 9 4 10 8 11 5 13
REMARK SMILES IDX 7 14 6 15 9 16 89 17 10 18 2 19 1 20 90 21 91 22 92 23 93 24
REMARK SMILES IDX 101 25 94 26 97 27 95 28 96 29 98 30 99 31 100 32 19 33
REMARK SMILES IDX 20 34 21 35 22 36 23 37 24 38 25 39 26 40 27 41 88 42 28 43
REMARK SMILES IDX 87 44 29 45 30 46 31 47 81 48 32 49 86 50 80 51 82 52 33 53
REMARK SMILES IDX 85 54 79 55 78 56 34 58 66 59 46 60 65 61 47 62 50 63 64 64
REMARK SMILES IDX 83 65 48 66 49 67 63 69 84 70 51 71 35 72 36 73 44 74 37 75
REMARK SMILES IDX 39 76 45 77 38 78 40 79 41 80 42 81 43 82 67 83 68 84 76 85
REMARK SMILES IDX 69 86 71 87 77 88 70 89 72 90 73 91 74 92 75 93 52 94 53 95
REMARK SMILES IDX 61 96 54 97 56 98 62 99 55 100 57 101 58 102 59 103 60 104
REMARK H PARENT 3 12 82 57 50 68
REMARK Flexibility Score: inf
ROOT
ATOM      1  C   UNL A   1      34.100  21.940  26.022  1.00  0.00     0.188 C 
ENDROOT
BRANCH   1   2
ATOM      2  O   UNL A   1      33.245  21.310  25.083  1.00  0.00    -0.376 OA
BRANCH   2   3
ATOM      3  C   UNL A   1      32.112  21.993  24.573  1.00  0.00     0.202 C 
BRANCH   3   4
ATOM      4  C   UNL A   1      32.132  22.402  23.091  1.00  0.00     0.261 C 
BRANCH   4   5
ATOM      5  O   UNL A   1      33.380  22.917  22.548  1.00  0.00    -0.462 OA
BRANCH   5   6
ATOM      6  C   UNL A   1      33.289  24.153  22.005  1.00  0.00     0.331 C 
ATOM      7  O   UNL A   1      33.266  24.337  20.785  1.00  0.00    -0.250 OA
BRANCH   6   8
ATOM      8  C   UNL A   1      33.193  25.393  22.944  1.00  0.00     0.224 C 
ATOM      9  N   UNL A   1      32.084  29.242  26.132  1.00  0.00    -0.335 N 
ATOM     10  C   UNL A   1      32.803  29.199  24.863  1.00  0.00     0.267 C 
ATOM     11  C   UNL A   1      31.566  27.972  26.650  1.00  0.00     0.267 C 
ATOM     12  H   UNL A   1      31.272  29.767  25.807  1.00  0.00     0.348 HD
ATOM     13  C   UNL A   1      33.702  28.011  24.658  1.00  0.00     0.120 C 
ATOM     14  C   UNL A   1      32.367  26.720  26.344  1.00  0.00     0.120 C 
ATOM     15  C   UNL A   1      33.002  26.679  24.960  1.00  0.00     0.155 C 
ATOM     16  O   UNL A   1      34.106  25.758  25.135  1.00  0.00    -0.352 OA
ATOM     17  N   UNL A   1      32.231  26.081  23.849  1.00  0.00    -0.293 N 
ATOM     18  C   UNL A   1      34.321  25.050  23.923  1.00  0.00     0.200 C 
BRANCH   9  19
ATOM     19  C   UNL A   1      32.686  30.032  27.209  1.00  0.00     0.258 C 
ATOM     20  C   UNL A   1      32.495  31.541  27.149  1.00  0.00     0.071 C 
ENDBRANCH   9  19
BRANCH  17  21
ATOM     21  C   UNL A   1      30.932  26.305  23.403  1.00  0.00     0.257 C 
ATOM     22  O   UNL A   1      30.106  25.403  23.442  1.00  0.00    -0.269 OA
BRANCH  21  23
ATOM     23  C   UNL A   1      30.335  27.599  22.996  1.00  0.00     0.047 A 
ATOM     24  C   UNL A   1      31.048  28.388  22.086  1.00  0.00     0.016 A 
ATOM     25  C   UNL A   1      29.197  28.156  23.592  1.00  0.00     0.101 A 
ATOM     26  C   UNL A   1      30.536  29.621  21.653  1.00  0.00     0.028 A 
ATOM     27  C   UNL A   1      28.599  29.320  23.047  1.00  0.00     0.288 A 
ATOM     28  C   UNL A   1      29.279  30.070  22.085  1.00  0.00     0.118 A 
ATOM     29  Cl  UNL A   1      28.728  31.560  21.404  1.00  0.00    -0.077 Cl
BRANCH  27  30
ATOM     30  N   UNL A   1      27.209  29.610  23.423  1.00  0.00     0.064 N 
ATOM     31  O   UNL A   1      26.940  30.730  23.880  1.00  0.00    -0.258 OA
ATOM     32  O   UNL A   1      26.364  28.733  23.191  1.00  0.00    -0.258 OA
ENDBRANCH  27  30
ENDBRANCH  21  23
ENDBRANCH  17  21
ENDBRANCH   6   8
ENDBRANCH   5   6
ENDBRANCH   4   5
ENDBRANCH   3   4
ENDBRANCH   2   3
ENDBRANCH   1   2
BRANCH   1  33
ATOM     33  C   UNL A   1      35.566  22.192  25.683  1.00  0.00     0.188 C 
BRANCH  33  34
ATOM     34  O   UNL A   1      36.416  21.079  25.906  1.00  0.00    -0.376 OA
BRANCH  34  35
ATOM     35  C   UNL A   1      36.808  20.347  24.749  1.00  0.00     0.202 C 
BRANCH  35  36
ATOM     36  C   UNL A   1      38.151  19.668  25.000  1.00  0.00     0.261 C 
BRANCH  36  37
ATOM     37  O   UNL A   1      38.727  20.026  26.270  1.00  0.00    -0.460 OA
BRANCH  37  38
ATOM     38  C   UNL A   1      40.074  20.167  26.315  1.00  0.00     0.338 C 
ATOM     39  O   UNL A   1      40.908  19.375  25.897  1.00  0.00    -0.246 OA
BRANCH  38  40
ATOM     40  C   UNL A   1      40.386  21.550  26.756  1.00  0.00     0.060 A 
ATOM     41  C   UNL A   1      39.631  22.610  26.232  1.00  0.00     0.016 A 
ATOM     42  C   UNL A   1      41.368  21.802  27.718  1.00  0.00     0.016 A 
ATOM     43  C   UNL A   1      39.905  23.927  26.614  1.00  0.00     0.010 A 
ATOM     44  C   UNL A   1      41.640  23.119  28.098  1.00  0.00     0.010 A 
ATOM     45  C   UNL A   1      40.944  24.193  27.514  1.00  0.00    -0.014 A 
BRANCH  45  46
ATOM     46  C   UNL A   1      41.435  25.580  27.720  1.00  0.00     0.031 A 
ATOM     47  C   UNL A   1      42.818  25.932  27.233  1.00  0.00     0.074 A 
ATOM     48  C   UNL A   1      40.694  26.508  28.355  1.00  0.00     0.049 A 
ATOM     49  N   UNL A   1      43.488  27.045  27.371  1.00  0.00    -0.248 NA
ATOM     50  C   UNL A   1      43.543  24.879  26.503  1.00  0.00     0.031 C 
ATOM     51  C   UNL A   1      39.347  26.304  28.883  1.00  0.00     0.029 A 
ATOM     52  N   UNL A   1      40.997  27.805  28.697  1.00  0.00    -0.354 N 
ATOM     53  C   UNL A   1      44.729  26.813  26.786  1.00  0.00     0.074 A 
ATOM     54  C   UNL A   1      44.718  25.453  26.295  1.00  0.00     0.031 C 
ATOM     55  C   UNL A   1      38.953  27.423  29.516  1.00  0.00     0.029 A 
ATOM     56  C   UNL A   1      40.029  28.412  29.465  1.00  0.00     0.049 A 
ATOM     57  H   UNL A   1      41.825  28.258  28.418  1.00  0.00     0.167 HD
ATOM     58  C   UNL A   1      45.780  27.657  26.661  1.00  0.00     0.034 A 
ATOM     59  C   UNL A   1      40.027  29.610  30.086  1.00  0.00     0.034 A 
ATOM     60  C   UNL A   1      45.787  29.017  27.126  1.00  0.00     0.049 A 
ATOM     61  C   UNL A   1      41.217  30.528  29.940  1.00  0.00     0.074 A 
ATOM     62  C   UNL A   1      46.781  29.968  26.979  1.00  0.00     0.029 A 
ATOM     63  N   UNL A   1      44.765  29.614  27.847  1.00  0.00    -0.354 N 
ATOM     64  N   UNL A   1      42.328  30.343  29.270  1.00  0.00    -0.248 NA
ATOM     65  C   UNL A   1      41.136  31.837  30.609  1.00  0.00     0.031 C 
ATOM     66  C   UNL A   1      46.380  31.127  27.651  1.00  0.00     0.029 A 
ATOM     67  C   UNL A   1      45.114  30.914  28.171  1.00  0.00     0.049 A 
ATOM     68  H   UNL A   1      43.918  29.178  28.093  1.00  0.00     0.167 HD
ATOM     69  C   UNL A   1      43.058  31.521  29.404  1.00  0.00     0.074 A 
ATOM     70  C   UNL A   1      42.254  32.422  30.202  1.00  0.00     0.031 C 
ATOM     71  C   UNL A   1      44.288  31.826  28.919  1.00  0.00     0.034 A 
BRANCH  58  72
ATOM     72  C   UNL A   1      47.021  27.140  25.984  1.00  0.00     0.023 A 
ATOM     73  C   UNL A   1      47.204  27.336  24.600  1.00  0.00     0.012 A 
ATOM     74  C   UNL A   1      48.043  26.528  26.738  1.00  0.00     0.148 A 
ATOM     75  C   UNL A   1      48.373  26.905  23.972  1.00  0.00     0.002 A 
ATOM     76  C   UNL A   1      49.224  26.147  26.114  1.00  0.00     0.091 A 
ATOM     77  F   UNL A   1      47.839  26.332  28.048  1.00  0.00    -0.205 F 
ATOM     78  C   UNL A   1      49.386  26.323  24.730  1.00  0.00     0.022 A 
BRANCH  76  79
ATOM     79  S   UNL A   1      50.620  25.467  27.016  1.00  0.00     0.127 S 
ATOM     80  O   UNL A   1      51.539  25.132  25.929  1.00  0.00    -0.237 OA
ATOM     81  O   UNL A   1      51.036  26.604  27.836  1.00  0.00    -0.237 OA
ATOM     82  O   UNL A   1      50.104  24.331  27.765  1.00  0.00    -0.744 OA
ENDBRANCH  76  79
ENDBRANCH  58  72
BRANCH  59  83
ATOM     83  C   UNL A   1      38.854  30.028  30.908  1.00  0.00     0.023 A 
ATOM     84  C   UNL A   1      38.741  29.590  32.242  1.00  0.00     0.012 A 
ATOM     85  C   UNL A   1      37.843  30.845  30.366  1.00  0.00     0.148 A 
ATOM     86  C   UNL A   1      37.624  29.925  33.009  1.00  0.00     0.002 A 
ATOM     87  C   UNL A   1      36.763  31.224  31.153  1.00  0.00     0.091 A 
ATOM     88  F   UNL A   1      37.959  31.235  29.090  1.00  0.00    -0.205 F 
ATOM     89  C   UNL A   1      36.640  30.749  32.468  1.00  0.00     0.022 A 
BRANCH  87  90
ATOM     90  S   UNL A   1      35.513  32.380  30.583  1.00  0.00     0.127 S 
ATOM     91  O   UNL A   1      34.557  32.355  31.686  1.00  0.00    -0.237 OA
ATOM     92  O   UNL A   1      36.283  33.618  30.463  1.00  0.00    -0.237 OA
ATOM     93  O   UNL A   1      35.031  31.846  29.317  1.00  0.00    -0.744 OA
ENDBRANCH  87  90
ENDBRANCH  59  83
BRANCH  71  94
ATOM     94  C   UNL A   1      44.830  33.208  29.180  1.00  0.00     0.023 A 
ATOM     95  C   UNL A   1      44.521  34.269  28.306  1.00  0.00     0.012 A 
ATOM     96  C   UNL A   1      45.591  33.469  30.339  1.00  0.00     0.148 A 
ATOM     97  C   UNL A   1      44.993  35.558  28.561  1.00  0.00     0.002 A 
ATOM     98  C   UNL A   1      46.011  34.765  30.614  1.00  0.00     0.091 A 
ATOM     99  F   UNL A   1      45.889  32.444  31.152  1.00  0.00    -0.205 F 
ATOM    100  C   UNL A   1      45.725  35.808  29.720  1.00  0.00     0.022 A 
BRANCH  98 101
ATOM    101  S   UNL A   1      46.873  35.198  32.129  1.00  0.00     0.127 S 
ATOM    102  O   UNL A   1      45.947  34.707  33.149  1.00  0.00    -0.237 OA
ATOM    103  O   UNL A   1      48.113  34.430  32.011  1.00  0.00    -0.237 OA
ATOM    104  O   UNL A   1      47.050  36.643  32.094  1.00  0.00    -0.744 OA
ENDBRANCH  98 101
ENDBRANCH  71  94
ENDBRANCH  45  46
ENDBRANCH  38  40
ENDBRANCH  37  38
ENDBRANCH  36  37
ENDBRANCH  35  36
ENDBRANCH  34  35
ENDBRANCH  33  34
ENDBRANCH   1  33
TORSDOF 24
ENDMDL
MODEL 2
REMARK VINA RESULT:     -10.9      1.998      7.363
REMARK SMILES CC[NH+]1CCC2(CC1)OC[C@@H](C(=O)OCCOCCOCCOC(=O)c1ccc(-c3c4nc(c(-c5cccc(S(=O)(=O)[O-])c5F)c5ccc([nH]5)c(-c5cccc(S(=O)(=O)[O-])c5F)c5nc(c(-c6cccc(S(=O)(=O)[O-])c6F)c6ccc3[nH]6)C=C5)C=C4)cc1)N2C(=O)c1ccc(Cl)c([N+](=O)[O-])c1
REMARK SMILES IDX 18 1 17 2 16 3 15 4 14 5 12 6 13 7 11 8 3 9 4 10 8 11 5 13
REMARK SMILES IDX 7 14 6 15 9 16 89 17 10 18 2 19 1 20 90 21 91 22 92 23 93 24
REMARK SMILES IDX 101 25 94 26 97 27 95 28 96 29 98 30 99 31 100 32 19 33
REMARK SMILES IDX 20 34 21 35 22 36 23 37 24 38 25 39 26 40 27 41 88 42 28 43
REMARK SMILES IDX 87 44 29 45 30 46 31 47 81 48 32 49 86 50 80 51 82 52 33 53
REMARK SMILES IDX 85 54 79 55 78 56 34 58 66 59 46 60 65 61 47 62 50 63 64 64
REMARK SMILES IDX 83 65 48 66 49 67 63 69 84 70 51 71 35 72 36 73 44 74 37 75
REMARK SMILES IDX 39 76 45 77 38 78 40 79 41 80 42 81 43 82 67 83 68 84 76 85
REMARK SMILES IDX 69 86 71 87 77 88 70 89 72 90 73 91 74 92 75 93 52 94 53 95
REMARK SMILES IDX 61 96 54 97 56 98 62 99 55 100 57 101 58 102 59 103 60 104
REMARK H PARENT 3 12 82 57 50 68
REMARK Flexibility Score: inf
ROOT
ATOM      1  C   UNL A   1      35.184  21.204  25.695  1.00  0.00     0.188 C 
ENDROOT
BRANCH   1   2
ATOM      2  O   UNL A   1      34.465  20.543  24.667  1.00  0.00    -0.376 OA
BRANCH   2   3
ATOM      3  C   UNL A   1      33.103  20.857  24.430  1.00  0.00     0.202 C 
BRANCH   3   4
ATOM      4  C   UNL A   1      32.792  21.944  23.388  1.00  0.00     0.261 C 
BRANCH   4   5
ATOM      5  O   UNL A   1      33.888  22.794  22.949  1.00  0.00    -0.462 OA
BRANCH   5   6
ATOM      6  C   UNL A   1      33.503  23.958  22.377  1.00  0.00     0.331 C 
ATOM      7  O   UNL A   1      33.270  24.053  21.169  1.00  0.00    -0.250 OA
BRANCH   6   8
ATOM      8  C   UNL A   1      33.327  25.224  23.268  1.00  0.00     0.224 C 
ATOM      9  N   UNL A   1      31.952  29.159  26.240  1.00  0.00    -0.335 N 
ATOM     10  C   UNL A   1      32.773  29.083  25.036  1.00  0.00     0.267 C 
ATOM     11  C   UNL A   1      31.395  27.903  26.750  1.00  0.00     0.267 C 
ATOM     12  H   UNL A   1      31.168  29.671  25.834  1.00  0.00     0.348 HD
ATOM     13  C   UNL A   1      33.688  27.893  24.941  1.00  0.00     0.120 C 
ATOM     14  C   UNL A   1      32.221  26.646  26.548  1.00  0.00     0.120 C 
ATOM     15  C   UNL A   1      32.968  26.567  25.223  1.00  0.00     0.155 C 
ATOM     16  O   UNL A   1      34.056  25.657  25.515  1.00  0.00    -0.352 OA
ATOM     17  N   UNL A   1      32.293  25.934  24.070  1.00  0.00    -0.293 N 
ATOM     18  C   UNL A   1      34.371  24.915  24.346  1.00  0.00     0.200 C 
BRANCH   9  19
ATOM     19  C   UNL A   1      32.461  29.983  27.339  1.00  0.00     0.258 C 
ATOM     20  C   UNL A   1      32.779  31.437  27.023  1.00  0.00     0.071 C 
ENDBRANCH   9  19
BRANCH  17  21
ATOM     21  C   UNL A   1      31.034  26.139  23.512  1.00  0.00     0.257 C 
ATOM     22  O   UNL A   1      30.233  25.216  23.450  1.00  0.00    -0.269 OA
BRANCH  21  23
ATOM     23  C   UNL A   1      30.442  27.430  23.087  1.00  0.00     0.047 A 
ATOM     24  C   UNL A   1      31.178  28.224  22.199  1.00  0.00     0.016 A 
ATOM     25  C   UNL A   1      29.284  27.980  23.650  1.00  0.00     0.101 A 
ATOM     26  C   UNL A   1      30.671  29.454  21.751  1.00  0.00     0.028 A 
ATOM     27  C   UNL A   1      28.696  29.141  23.087  1.00  0.00     0.288 A 
ATOM     28  C   UNL A   1      29.400  29.895  22.146  1.00  0.00     0.118 A 
ATOM     29  Cl  UNL A   1      28.861  31.382  21.447  1.00  0.00    -0.077 Cl
BRANCH  27  30
ATOM     30  N   UNL A   1      27.294  29.423  23.421  1.00  0.00     0.064 N 
ATOM     31  O   UNL A   1      26.967  30.593  23.668  1.00  0.00    -0.258 OA
ATOM     32  O   UNL A   1      26.496  28.476  23.365  1.00  0.00    -0.258 OA
ENDBRANCH  27  30
ENDBRANCH  21  23
ENDBRANCH  17  21
ENDBRANCH   6   8
ENDBRANCH   5   6
ENDBRANCH   4   5
ENDBRANCH   3   4
ENDBRANCH   2   3
ENDBRANCH   1   2
BRANCH   1  33
ATOM     33  C   UNL A   1      36.403  22.058  25.358  1.00  0.00     0.188 C 
BRANCH  33  34
ATOM     34  O   UNL A   1      37.641  21.377  25.468  1.00  0.00    -0.376 OA
BRANCH  34  35
ATOM     35  C   UNL A   1      37.731  20.124  24.800  1.00  0.00     0.202 C 
BRANCH  35  36
ATOM     36  C   UNL A   1      38.813  19.268  25.451  1.00  0.00     0.261 C 
BRANCH  36  37
ATOM     37  O   UNL A   1      39.681  20.029  26.312  1.00  0.00    -0.460 OA
BRANCH  37  38
ATOM     38  C   UNL A   1      41.008  19.770  26.229  1.00  0.00     0.338 C 
ATOM     39  O   UNL A   1      41.530  18.742  25.819  1.00  0.00    -0.246 OA
BRANCH  38  40
ATOM     40  C   UNL A   1      41.750  21.026  26.509  1.00  0.00     0.060 A 
ATOM     41  C   UNL A   1      42.172  21.278  27.823  1.00  0.00     0.016 A 
ATOM     42  C   UNL A   1      42.082  21.917  25.486  1.00  0.00     0.016 A 
ATOM     43  C   UNL A   1      42.862  22.456  28.127  1.00  0.00     0.010 A 
ATOM     44  C   UNL A   1      42.771  23.094  25.792  1.00  0.00     0.010 A 
ATOM     45  C   UNL A   1      43.124  23.394  27.120  1.00  0.00    -0.014 A 
BRANCH  45  46
ATOM     46  C   UNL A   1      43.599  24.760  27.460  1.00  0.00     0.031 A 
ATOM     47  C   UNL A   1      42.619  25.730  28.070  1.00  0.00     0.074 A 
ATOM     48  C   UNL A   1      44.860  25.157  27.204  1.00  0.00     0.049 A 
ATOM     49  N   UNL A   1      42.778  26.991  28.373  1.00  0.00    -0.248 NA
ATOM     50  C   UNL A   1      41.275  25.205  28.367  1.00  0.00     0.031 C 
ATOM     51  C   UNL A   1      45.907  24.329  26.611  1.00  0.00     0.029 A 
ATOM     52  N   UNL A   1      45.459  26.383  27.380  1.00  0.00    -0.354 N 
ATOM     53  C   UNL A   1      41.546  27.423  28.853  1.00  0.00     0.074 A 
ATOM     54  C   UNL A   1      40.649  26.289  28.798  1.00  0.00     0.031 C 
ATOM     55  C   UNL A   1      47.010  25.079  26.437  1.00  0.00     0.029 A 
ATOM     56  C   UNL A   1      46.738  26.447  26.876  1.00  0.00     0.049 A 
ATOM     57  H   UNL A   1      45.016  27.141  27.825  1.00  0.00     0.167 HD
ATOM     58  C   UNL A   1      41.193  28.648  29.306  1.00  0.00     0.034 A 
ATOM     59  C   UNL A   1      47.578  27.496  26.750  1.00  0.00     0.034 A 
ATOM     60  C   UNL A   1      42.086  29.771  29.385  1.00  0.00     0.049 A 
ATOM     61  C   UNL A   1      47.155  28.855  27.254  1.00  0.00     0.074 A 
ATOM     62  C   UNL A   1      41.835  31.032  29.898  1.00  0.00     0.029 A 
ATOM     63  N   UNL A   1      43.391  29.780  28.921  1.00  0.00    -0.354 N 
ATOM     64  N   UNL A   1      46.032  29.213  27.827  1.00  0.00    -0.248 NA
ATOM     65  C   UNL A   1      48.132  29.949  27.122  1.00  0.00     0.031 C 
ATOM     66  C   UNL A   1      42.974  31.818  29.702  1.00  0.00     0.029 A 
ATOM     67  C   UNL A   1      43.952  31.031  29.115  1.00  0.00     0.049 A 
ATOM     68  H   UNL A   1      43.851  29.012  28.512  1.00  0.00     0.167 HD
ATOM     69  C   UNL A   1      46.182  30.557  28.159  1.00  0.00     0.074 A 
ATOM     70  C   UNL A   1      47.513  30.944  27.742  1.00  0.00     0.031 C 
ATOM     71  C   UNL A   1      45.295  31.397  28.747  1.00  0.00     0.034 A 
BRANCH  58  72
ATOM     72  C   UNL A   1      39.772  28.847  29.765  1.00  0.00     0.023 A 
ATOM     73  C   UNL A   1      39.379  28.425  31.051  1.00  0.00     0.012 A 
ATOM     74  C   UNL A   1      38.846  29.524  28.945  1.00  0.00     0.148 A 
ATOM     75  C   UNL A   1      38.080  28.649  31.504  1.00  0.00     0.002 A 
ATOM     76  C   UNL A   1      37.569  29.788  29.423  1.00  0.00     0.091 A 
ATOM     77  F   UNL A   1      39.234  29.898  27.718  1.00  0.00    -0.205 F 
ATOM     78  C   UNL A   1      37.179  29.341  30.697  1.00  0.00     0.022 A 
BRANCH  76  79
ATOM     79  S   UNL A   1      36.365  30.743  28.494  1.00  0.00     0.127 S 
ATOM     80  O   UNL A   1      36.151  29.893  27.324  1.00  0.00    -0.237 OA
ATOM     81  O   UNL A   1      35.236  30.797  29.423  1.00  0.00    -0.237 OA
ATOM     82  O   UNL A   1      36.992  32.029  28.222  1.00  0.00    -0.744 OA
ENDBRANCH  76  79
ENDBRANCH  58  72
BRANCH  59  83
ATOM     83  C   UNL A   1      48.919  27.313  26.122  1.00  0.00     0.023 A 
ATOM     84  C   UNL A   1      50.017  26.923  26.913  1.00  0.00     0.012 A 
ATOM     85  C   UNL A   1      49.112  27.538  24.745  1.00  0.00     0.148 A 
ATOM     86  C   UNL A   1      51.290  26.800  26.354  1.00  0.00     0.002 A 
ATOM     87  C   UNL A   1      50.369  27.356  24.183  1.00  0.00     0.091 A 
ATOM     88  F   UNL A   1      48.059  27.926  24.012  1.00  0.00    -0.205 F 
ATOM     89  C   UNL A   1      51.463  27.007  24.988  1.00  0.00     0.022 A 
BRANCH  87  90
ATOM     90  S   UNL A   1      50.662  27.479  22.416  1.00  0.00     0.127 S 
ATOM     91  O   UNL A   1      49.618  26.612  21.878  1.00  0.00    -0.237 OA
ATOM     92  O   UNL A   1      50.458  28.909  22.178  1.00  0.00    -0.237 OA
ATOM     93  O   UNL A   1      52.030  27.025  22.210  1.00  0.00    -0.744 OA
ENDBRANCH  87  90
ENDBRANCH  59  83
BRANCH  71  94
ATOM     94  C   UNL A   1      45.739  32.810  29.035  1.00  0.00     0.023 A 
ATOM     95  C   UNL A   1      46.462  33.102  30.207  1.00  0.00     0.012 A 
ATOM     96  C   UNL A   1      45.497  33.837  28.099  1.00  0.00     0.148 A 
ATOM     97  C   UNL A   1      46.905  34.401  30.462  1.00  0.00     0.002 A 
ATOM     98  C   UNL A   1      45.989  35.116  28.334  1.00  0.00     0.091 A 
ATOM     99  F   UNL A   1      44.794  33.545  26.995  1.00  0.00    -0.205 F 
ATOM    100  C   UNL A   1      46.680  35.403  29.521  1.00  0.00     0.022 A 
BRANCH  98 101
ATOM    101  S   UNL A   1      45.833  36.445  27.134  1.00  0.00     0.127 S 
ATOM    102  O   UNL A   1      46.342  37.588  27.890  1.00  0.00    -0.237 OA
ATOM    103  O   UNL A   1      46.708  35.990  26.053  1.00  0.00    -0.237 OA
ATOM    104  O   UNL A   1      44.421  36.509  26.784  1.00  0.00    -0.744 OA
ENDBRANCH  98 101
ENDBRANCH  71  94
ENDBRANCH  45  46
ENDBRANCH  38  40
ENDBRANCH  37  38
ENDBRANCH  36  37
ENDBRANCH  35  36
ENDBRANCH  34  35
ENDBRANCH  33  34
ENDBRANCH   1  33
TORSDOF 24
ENDMDL
MODEL 3
REMARK VINA RESULT:     -10.5      2.512      7.918
REMARK SMILES CC[NH+]1CCC2(CC1)OC[C@@H](C(=O)OCCOCCOCCOC(=O)c1ccc(-c3c4nc(c(-c5cccc(S(=O)(=O)[O-])c5F)c5ccc([nH]5)c(-c5cccc(S(=O)(=O)[O-])c5F)c5nc(c(-c6cccc(S(=O)(=O)[O-])c6F)c6ccc3[nH]6)C=C5)C=C4)cc1)N2C(=O)c1ccc(Cl)c([N+](=O)[O-])c1
REMARK SMILES IDX 18 1 17 2 16 3 15 4 14 5 12 6 13 7 11 8 3 9 4 10 8 11 5 13
REMARK SMILES IDX 7 14 6 15 9 16 89 17 10 18 2 19 1 20 90 21 91 22 92 23 93 24
REMARK SMILES IDX 101 25 94 26 97 27 95 28 96 29 98 30 99 31 100 32 19 33
REMARK SMILES IDX 20 34 21 35 22 36 23 37 24 38 25 39 26 40 27 41 88 42 28 43
REMARK SMILES IDX 87 44 29 45 30 46 31 47 81 48 32 49 86 50 80 51 82 52 33 53
REMARK SMILES IDX 85 54 79 55 78 56 34 58 66 59 46 60 65 61 47 62 50 63 64 64
REMARK SMILES IDX 83 65 48 66 49 67 63 69 84 70 51 71 35 72 36 73 44 74 37 75
REMARK SMILES IDX 39 76 45 77 38 78 40 79 41 80 42 81 43 82 67 83 68 84 76 85
REMARK SMILES IDX 69 86 71 87 77 88 70 89 72 90 73 91 74 92 75 93 52 94 53 95
REMARK SMILES IDX 61 96 54 97 56 98 62 99 55 100 57 101 58 102 59 103 60 104
REMARK H PARENT 3 12 82 57 50 68
REMARK Flexibility Score: inf
ROOT
ATOM      1  C   UNL A   1      35.580  21.206  25.743  1.00  0.00     0.188 C 
ENDROOT
BRANCH   1   2
ATOM      2  O   UNL A   1      34.597  20.397  25.118  1.00  0.00    -0.376 OA
BRANCH   2   3
ATOM      3  C   UNL A   1      33.272  20.365  25.619  1.00  0.00     0.202 C 
BRANCH   3   4
ATOM      4  C   UNL A   1      32.262  21.363  25.030  1.00  0.00     0.261 C 
BRANCH   4   5
ATOM      5  O   UNL A   1      32.775  22.629  24.529  1.00  0.00    -0.462 OA
BRANCH   5   6
ATOM      6  C   UNL A   1      32.472  23.702  25.296  1.00  0.00     0.331 C 
ATOM      7  O   UNL A   1      32.761  23.757  26.495  1.00  0.00    -0.250 OA
BRANCH   6   8
ATOM      8  C   UNL A   1      31.750  24.922  24.650  1.00  0.00     0.224 C 
ATOM      9  N   UNL A   1      29.807  29.388  23.073  1.00  0.00    -0.335 N 
ATOM     10  C   UNL A   1      29.186  28.101  23.370  1.00  0.00     0.267 C 
ATOM     11  C   UNL A   1      31.262  29.479  23.225  1.00  0.00     0.267 C 
ATOM     12  H   UNL A   1      29.408  29.911  23.851  1.00  0.00     0.348 HD
ATOM     13  C   UNL A   1      29.952  26.885  22.928  1.00  0.00     0.120 C 
ATOM     14  C   UNL A   1      32.070  28.228  22.928  1.00  0.00     0.120 C 
ATOM     15  C   UNL A   1      31.423  26.920  23.364  1.00  0.00     0.155 C 
ATOM     16  O   UNL A   1      32.047  25.943  22.496  1.00  0.00    -0.352 OA
ATOM     17  N   UNL A   1      31.714  26.409  24.720  1.00  0.00    -0.293 N 
ATOM     18  C   UNL A   1      32.162  24.709  23.189  1.00  0.00     0.200 C 
BRANCH   9  19
ATOM     19  C   UNL A   1      29.372  30.067  21.850  1.00  0.00     0.258 C 
ATOM     20  C   UNL A   1      27.900  30.440  21.752  1.00  0.00     0.071 C 
ENDBRANCH   9  19
BRANCH  17  21
ATOM     21  C   UNL A   1      31.653  27.020  25.969  1.00  0.00     0.257 C 
ATOM     22  O   UNL A   1      31.010  26.504  26.874  1.00  0.00    -0.269 OA
BRANCH  21  23
ATOM     23  C   UNL A   1      32.419  28.205  26.425  1.00  0.00     0.047 A 
ATOM     24  C   UNL A   1      33.771  28.025  26.737  1.00  0.00     0.016 A 
ATOM     25  C   UNL A   1      31.837  29.441  26.728  1.00  0.00     0.101 A 
ATOM     26  C   UNL A   1      34.556  29.107  27.168  1.00  0.00     0.028 A 
ATOM     27  C   UNL A   1      32.651  30.566  27.011  1.00  0.00     0.288 A 
ATOM     28  C   UNL A   1      34.017  30.398  27.252  1.00  0.00     0.118 A 
ATOM     29  Cl  UNL A   1      35.116  31.653  27.706  1.00  0.00    -0.077 Cl
BRANCH  27  30
ATOM     30  N   UNL A   1      32.038  31.896  26.897  1.00  0.00     0.064 N 
ATOM     31  O   UNL A   1      32.569  32.847  27.489  1.00  0.00    -0.258 OA
ATOM     32  O   UNL A   1      31.056  32.005  26.148  1.00  0.00    -0.258 OA
ENDBRANCH  27  30
ENDBRANCH  21  23
ENDBRANCH  17  21
ENDBRANCH   6   8
ENDBRANCH   5   6
ENDBRANCH   4   5
ENDBRANCH   3   4
ENDBRANCH   2   3
ENDBRANCH   1   2
BRANCH   1  33
ATOM     33  C   UNL A   1      36.689  21.850  24.915  1.00  0.00     0.188 C 
BRANCH  33  34
ATOM     34  O   UNL A   1      37.948  21.209  25.027  1.00  0.00    -0.376 OA
BRANCH  34  35
ATOM     35  C   UNL A   1      37.943  19.790  24.918  1.00  0.00     0.202 C 
BRANCH  35  36
ATOM     36  C   UNL A   1      39.164  19.213  25.628  1.00  0.00     0.261 C 
BRANCH  36  37
ATOM     37  O   UNL A   1      40.059  20.232  26.110  1.00  0.00    -0.460 OA
BRANCH  37  38
ATOM     38  C   UNL A   1      41.376  19.919  26.159  1.00  0.00     0.338 C 
ATOM     39  O   UNL A   1      41.887  18.850  25.852  1.00  0.00    -0.246 OA
BRANCH  38  40
ATOM     40  C   UNL A   1      42.144  21.160  26.434  1.00  0.00     0.060 A 
ATOM     41  C   UNL A   1      42.537  21.429  27.753  1.00  0.00     0.016 A 
ATOM     42  C   UNL A   1      42.529  22.020  25.402  1.00  0.00     0.016 A 
ATOM     43  C   UNL A   1      43.249  22.595  28.052  1.00  0.00     0.010 A 
ATOM     44  C   UNL A   1      43.242  23.184  25.703  1.00  0.00     0.010 A 
ATOM     45  C   UNL A   1      43.565  23.503  27.034  1.00  0.00    -0.014 A 
BRANCH  45  46
ATOM     46  C   UNL A   1      44.068  24.863  27.359  1.00  0.00     0.031 A 
ATOM     47  C   UNL A   1      43.083  25.894  27.848  1.00  0.00     0.074 A 
ATOM     48  C   UNL A   1      45.361  25.200  27.192  1.00  0.00     0.049 A 
ATOM     49  N   UNL A   1      43.269  27.160  28.114  1.00  0.00    -0.248 NA
ATOM     50  C   UNL A   1      41.699  25.434  28.053  1.00  0.00     0.031 C 
ATOM     51  C   UNL A   1      46.417  24.308  26.720  1.00  0.00     0.029 A 
ATOM     52  N   UNL A   1      45.994  26.408  27.369  1.00  0.00    -0.354 N 
ATOM     53  C   UNL A   1      42.021  27.658  28.474  1.00  0.00     0.074 A 
ATOM     54  C   UNL A   1      41.086  26.559  28.389  1.00  0.00     0.031 C 
ATOM     55  C   UNL A   1      47.560  25.008  26.608  1.00  0.00     0.029 A 
ATOM     56  C   UNL A   1      47.311  26.402  26.971  1.00  0.00     0.049 A 
ATOM     57  H   UNL A   1      45.549  27.201  27.747  1.00  0.00     0.167 HD
ATOM     58  C   UNL A   1      41.684  28.914  28.849  1.00  0.00     0.034 A 
ATOM     59  C   UNL A   1      48.202  27.412  26.873  1.00  0.00     0.034 A 
ATOM     60  C   UNL A   1      42.614  30.005  28.958  1.00  0.00     0.049 A 
ATOM     61  C   UNL A   1      47.797  28.806  27.288  1.00  0.00     0.074 A 
ATOM     62  C   UNL A   1      42.376  31.294  29.400  1.00  0.00     0.029 A 
ATOM     63  N   UNL A   1      43.952  29.944  28.603  1.00  0.00    -0.354 N 
ATOM     64  N   UNL A   1      46.647  29.231  27.752  1.00  0.00    -0.248 NA
ATOM     65  C   UNL A   1      48.825  29.855  27.195  1.00  0.00     0.031 C 
ATOM     66  C   UNL A   1      43.559  32.027  29.267  1.00  0.00     0.029 A 
ATOM     67  C   UNL A   1      44.547  31.180  28.794  1.00  0.00     0.049 A 
ATOM     68  H   UNL A   1      44.411  29.142  28.263  1.00  0.00     0.167 HD
ATOM     69  C   UNL A   1      46.825  30.581  28.044  1.00  0.00     0.074 A 
ATOM     70  C   UNL A   1      48.200  30.899  27.722  1.00  0.00     0.031 C 
ATOM     71  C   UNL A   1      45.929  31.478  28.523  1.00  0.00     0.034 A 
BRANCH  58  72
ATOM     72  C   UNL A   1      40.241  29.187  29.181  1.00  0.00     0.023 A 
ATOM     73  C   UNL A   1      39.303  29.381  28.148  1.00  0.00     0.012 A 
ATOM     74  C   UNL A   1      39.803  29.172  30.521  1.00  0.00     0.148 A 
ATOM     75  C   UNL A   1      37.955  29.584  28.444  1.00  0.00     0.002 A 
ATOM     76  C   UNL A   1      38.452  29.325  30.805  1.00  0.00     0.091 A 
ATOM     77  F   UNL A   1      40.715  29.006  31.489  1.00  0.00    -0.205 F 
ATOM     78  C   UNL A   1      37.528  29.544  29.769  1.00  0.00     0.022 A 
BRANCH  76  79
ATOM     79  S   UNL A   1      37.792  29.204  32.470  1.00  0.00     0.127 S 
ATOM     80  O   UNL A   1      38.745  30.016  33.226  1.00  0.00    -0.237 OA
ATOM     81  O   UNL A   1      36.467  29.806  32.318  1.00  0.00    -0.237 OA
ATOM     82  O   UNL A   1      37.784  27.786  32.801  1.00  0.00    -0.744 OA
ENDBRANCH  76  79
ENDBRANCH  58  72
BRANCH  59  83
ATOM     83  C   UNL A   1      49.580  27.151  26.365  1.00  0.00     0.023 A 
ATOM     84  C   UNL A   1      49.811  27.062  24.978  1.00  0.00     0.012 A 
ATOM     85  C   UNL A   1      50.659  26.976  27.252  1.00  0.00     0.148 A 
ATOM     86  C   UNL A   1      51.083  26.764  24.486  1.00  0.00     0.002 A 
ATOM     87  C   UNL A   1      51.934  26.738  26.754  1.00  0.00     0.091 A 
ATOM     88  F   UNL A   1      50.416  27.045  28.568  1.00  0.00    -0.205 F 
ATOM     89  C   UNL A   1      52.145  26.612  25.373  1.00  0.00     0.022 A 
BRANCH  87  90
ATOM     90  S   UNL A   1      53.382  26.651  27.812  1.00  0.00     0.127 S 
ATOM     91  O   UNL A   1      53.852  28.033  27.790  1.00  0.00    -0.237 OA
ATOM     92  O   UNL A   1      52.799  26.219  29.083  1.00  0.00    -0.237 OA
ATOM     93  O   UNL A   1      54.265  25.673  27.192  1.00  0.00    -0.744 OA
ENDBRANCH  87  90
ENDBRANCH  59  83
BRANCH  71  94
ATOM     94  C   UNL A   1      46.407  32.883  28.792  1.00  0.00     0.023 A 
ATOM     95  C   UNL A   1      46.787  33.268  30.092  1.00  0.00     0.012 A 
ATOM     96  C   UNL A   1      46.547  33.804  27.732  1.00  0.00     0.148 A 
ATOM     97  C   UNL A   1      47.263  34.557  30.340  1.00  0.00     0.002 A 
ATOM     98  C   UNL A   1      47.072  35.067  27.977  1.00  0.00     0.091 A 
ATOM     99  F   UNL A   1      46.166  33.425  26.503  1.00  0.00    -0.205 F 
ATOM    100  C   UNL A   1      47.416  35.450  29.283  1.00  0.00     0.022 A 
BRANCH  98 101
ATOM    101  S   UNL A   1      47.398  36.248  26.663  1.00  0.00     0.127 S 
ATOM    102  O   UNL A   1      46.044  36.644  26.277  1.00  0.00    -0.237 OA
ATOM    103  O   UNL A   1      48.161  37.284  27.360  1.00  0.00    -0.237 OA
ATOM    104  O   UNL A   1      48.148  35.523  25.647  1.00  0.00    -0.744 OA
ENDBRANCH  98 101
ENDBRANCH  71  94
ENDBRANCH  45  46
ENDBRANCH  38  40
ENDBRANCH  37  38
ENDBRANCH  36  37
ENDBRANCH  35  36
ENDBRANCH  34  35
ENDBRANCH  33  34
ENDBRANCH   1  33
TORSDOF 24
ENDMDL
