MODEL 1
REMARK VINA RESULT:     -10.0      0.000      0.000
REMARK SMILES O=C(OCCOCCOCCOC(=O)c1cc(NC(=O)c2cccnc2Cl)ccc1O)c1ccc(-c2c3nc(c(-c4cccc(S(=O)(=O)[O-])c4F)c4ccc([nH]4)c(-c4cccc(S(=O)(=O)[O-])c4F)c4nc(c(-c5cccc(S(=O)(=O)[O-])c5F)c5ccc2[nH]5)C=C4)C=C3)cc1
REMARK SMILES IDX 7 1 6 2 5 3 4 4 3 5 2 6 1 7 32 8 33 9 94 10 34 11 93 12
REMARK SMILES IDX 35 13 36 14 37 15 87 16 38 17 92 18 86 19 88 20 39 21 91 22
REMARK SMILES IDX 85 23 84 24 40 26 72 27 52 28 71 29 53 30 56 31 70 32 89 33
REMARK SMILES IDX 54 34 55 35 69 37 90 38 57 39 41 40 42 41 50 42 43 43 45 44
REMARK SMILES IDX 51 45 44 46 46 47 47 48 48 49 49 50 73 51 74 52 82 53 75 54
REMARK SMILES IDX 77 55 83 56 76 57 78 58 79 59 80 60 81 61 58 62 59 63 67 64
REMARK SMILES IDX 60 65 62 66 68 67 61 68 63 69 64 70 65 71 66 72 8 73 9 74
REMARK SMILES IDX 10 75 11 76 12 77 13 78 14 79 15 80 16 81 30 82 17 83 29 84
REMARK SMILES IDX 28 85 31 86 18 88 19 89 20 91 21 92 22 93 26 94 23 95 25 96
REMARK SMILES IDX 27 97 24 98
REMARK H PARENT 88 25 56 36 31 87 18 90
REMARK Flexibility Score: inf
ROOT
ATOM      1  C   UNL A   1      40.792  21.688  27.585  1.00  0.00     0.188 C 
ENDROOT
BRANCH   1   2
ATOM      2  O   UNL A   1      40.725  20.268  27.657  1.00  0.00    -0.376 OA
BRANCH   2   3
ATOM      3  C   UNL A   1      41.037  19.610  26.428  1.00  0.00     0.202 C 
BRANCH   3   4
ATOM      4  C   UNL A   1      42.498  19.144  26.309  1.00  0.00     0.261 C 
BRANCH   4   5
ATOM      5  O   UNL A   1      42.984  19.225  24.957  1.00  0.00    -0.460 OA
BRANCH   5   6
ATOM      6  C   UNL A   1      44.052  19.922  24.492  1.00  0.00     0.338 C 
ATOM      7  O   UNL A   1      44.748  19.382  23.632  1.00  0.00    -0.246 OA
BRANCH   6   8
ATOM      8  C   UNL A   1      44.455  21.278  25.002  1.00  0.00     0.060 A 
ATOM      9  C   UNL A   1      45.246  21.527  26.124  1.00  0.00     0.016 A 
ATOM     10  C   UNL A   1      44.022  22.396  24.264  1.00  0.00     0.016 A 
ATOM     11  C   UNL A   1      45.529  22.821  26.553  1.00  0.00     0.010 A 
ATOM     12  C   UNL A   1      44.347  23.702  24.660  1.00  0.00     0.010 A 
ATOM     13  C   UNL A   1      45.070  23.921  25.837  1.00  0.00    -0.014 A 
BRANCH  13  14
ATOM     14  C   UNL A   1      45.209  25.259  26.458  1.00  0.00     0.031 A 
ATOM     15  C   UNL A   1      46.541  25.949  26.358  1.00  0.00     0.074 A 
ATOM     16  C   UNL A   1      44.134  25.907  26.947  1.00  0.00     0.049 A 
ATOM     17  N   UNL A   1      46.875  27.157  26.722  1.00  0.00    -0.248 NA
ATOM     18  C   UNL A   1      47.642  25.178  25.753  1.00  0.00     0.031 C 
ATOM     19  C   UNL A   1      42.782  25.353  27.041  1.00  0.00     0.029 A 
ATOM     20  N   UNL A   1      43.999  27.189  27.420  1.00  0.00    -0.354 N 
ATOM     21  C   UNL A   1      48.223  27.280  26.411  1.00  0.00     0.074 A 
ATOM     22  C   UNL A   1      48.657  26.017  25.865  1.00  0.00     0.031 C 
ATOM     23  C   UNL A   1      41.952  26.300  27.511  1.00  0.00     0.029 A 
ATOM     24  C   UNL A   1      42.714  27.511  27.792  1.00  0.00     0.049 A 
ATOM     25  H   UNL A   1      44.753  27.820  27.485  1.00  0.00     0.167 HD
ATOM     26  C   UNL A   1      49.028  28.360  26.534  1.00  0.00     0.034 A 
ATOM     27  C   UNL A   1      42.214  28.653  28.304  1.00  0.00     0.034 A 
ATOM     28  C   UNL A   1      48.589  29.624  27.045  1.00  0.00     0.049 A 
ATOM     29  C   UNL A   1      43.139  29.833  28.463  1.00  0.00     0.074 A 
ATOM     30  C   UNL A   1      49.326  30.772  27.260  1.00  0.00     0.029 A 
ATOM     31  N   UNL A   1      47.281  29.905  27.414  1.00  0.00    -0.354 N 
ATOM     32  N   UNL A   1      44.402  29.941  28.120  1.00  0.00    -0.248 NA
ATOM     33  C   UNL A   1      42.570  31.056  29.047  1.00  0.00     0.031 C 
ATOM     34  C   UNL A   1      48.463  31.750  27.763  1.00  0.00     0.029 A 
ATOM     35  C   UNL A   1      47.186  31.214  27.847  1.00  0.00     0.049 A 
ATOM     36  H   UNL A   1      46.533  29.267  27.374  1.00  0.00     0.167 HD
ATOM     37  C   UNL A   1      44.767  31.248  28.418  1.00  0.00     0.074 A 
ATOM     38  C   UNL A   1      43.585  31.902  28.940  1.00  0.00     0.031 C 
ATOM     39  C   UNL A   1      45.976  31.851  28.298  1.00  0.00     0.034 A 
BRANCH  26  40
ATOM     40  C   UNL A   1      50.449  28.194  26.078  1.00  0.00     0.023 A 
ATOM     41  C   UNL A   1      50.758  28.325  24.708  1.00  0.00     0.012 A 
ATOM     42  C   UNL A   1      51.467  27.859  26.989  1.00  0.00     0.148 A 
ATOM     43  C   UNL A   1      52.050  28.082  24.245  1.00  0.00     0.002 A 
ATOM     44  C   UNL A   1      52.761  27.653  26.525  1.00  0.00     0.091 A 
ATOM     45  F   UNL A   1      51.144  27.713  28.282  1.00  0.00    -0.205 F 
ATOM     46  C   UNL A   1      53.051  27.750  25.153  1.00  0.00     0.022 A 
BRANCH  44  47
ATOM     47  S   UNL A   1      54.132  27.265  27.618  1.00  0.00     0.127 S 
ATOM     48  O   UNL A   1      53.732  25.961  28.142  1.00  0.00    -0.237 OA
ATOM     49  O   UNL A   1      55.261  27.229  26.688  1.00  0.00    -0.237 OA
ATOM     50  O   UNL A   1      54.185  28.342  28.596  1.00  0.00    -0.744 OA
ENDBRANCH  44  47
ENDBRANCH  26  40
BRANCH  27  51
ATOM     51  C   UNL A   1      40.773  28.752  28.683  1.00  0.00     0.023 A 
ATOM     52  C   UNL A   1      39.786  28.893  27.686  1.00  0.00     0.012 A 
ATOM     53  C   UNL A   1      40.372  28.715  30.032  1.00  0.00     0.148 A 
ATOM     54  C   UNL A   1      38.439  29.036  28.029  1.00  0.00     0.002 A 
ATOM     55  C   UNL A   1      39.024  28.791  30.363  1.00  0.00     0.091 A 
ATOM     56  F   UNL A   1      41.317  28.597  30.976  1.00  0.00    -0.205 F 
ATOM     57  C   UNL A   1      38.056  28.975  29.366  1.00  0.00     0.022 A 
BRANCH  55  58
ATOM     58  S   UNL A   1      38.446  28.528  32.043  1.00  0.00     0.127 S 
ATOM     59  O   UNL A   1      39.324  29.406  32.808  1.00  0.00    -0.237 OA
ATOM     60  O   UNL A   1      37.052  28.962  31.946  1.00  0.00    -0.237 OA
ATOM     61  O   UNL A   1      38.596  27.098  32.279  1.00  0.00    -0.744 OA
ENDBRANCH  55  58
ENDBRANCH  27  51
BRANCH  39  62
ATOM     62  C   UNL A   1      46.076  33.293  28.708  1.00  0.00     0.023 A 
ATOM     63  C   UNL A   1      46.672  33.625  29.940  1.00  0.00     0.012 A 
ATOM     64  C   UNL A   1      45.669  34.316  27.832  1.00  0.00     0.148 A 
ATOM     65  C   UNL A   1      46.840  34.959  30.305  1.00  0.00     0.002 A 
ATOM     66  C   UNL A   1      45.884  35.643  28.181  1.00  0.00     0.091 A 
ATOM     67  F   UNL A   1      45.081  33.976  26.675  1.00  0.00    -0.205 F 
ATOM     68  C   UNL A   1      46.460  35.967  29.420  1.00  0.00     0.022 A 
BRANCH  66  69
ATOM     69  S   UNL A   1      45.517  36.994  27.056  1.00  0.00     0.127 S 
ATOM     70  O   UNL A   1      44.209  36.602  26.537  1.00  0.00    -0.237 OA
ATOM     71  O   UNL A   1      45.496  38.151  27.953  1.00  0.00    -0.237 OA
ATOM     72  O   UNL A   1      46.604  37.006  26.086  1.00  0.00    -0.744 OA
ENDBRANCH  66  69
ENDBRANCH  39  62
ENDBRANCH  13  14
ENDBRANCH   6   8
ENDBRANCH   5   6
ENDBRANCH   4   5
ENDBRANCH   3   4
ENDBRANCH   2   3
ENDBRANCH   1   2
BRANCH   1  73
ATOM     73  C   UNL A   1      40.240  22.327  26.305  1.00  0.00     0.188 C 
BRANCH  73  74
ATOM     74  O   UNL A   1      38.862  22.665  26.261  1.00  0.00    -0.376 OA
BRANCH  74  75
ATOM     75  C   UNL A   1      38.022  21.856  25.439  1.00  0.00     0.202 C 
BRANCH  75  76
ATOM     76  C   UNL A   1      36.521  21.775  25.752  1.00  0.00     0.261 C 
BRANCH  76  77
ATOM     77  O   UNL A   1      35.656  21.545  24.629  1.00  0.00    -0.460 OA
BRANCH  77  78
ATOM     78  C   UNL A   1      35.070  22.660  24.126  1.00  0.00     0.342 C 
ATOM     79  O   UNL A   1      35.546  23.419  23.282  1.00  0.00    -0.246 OA
BRANCH  78  80
ATOM     80  C   UNL A   1      33.696  22.818  24.619  1.00  0.00     0.103 A 
ATOM     81  C   UNL A   1      33.373  23.979  25.351  1.00  0.00     0.045 A 
ATOM     82  C   UNL A   1      32.794  21.758  24.536  1.00  0.00     0.130 A 
ATOM     83  C   UNL A   1      32.135  24.078  25.989  1.00  0.00     0.042 A 
ATOM     84  C   UNL A   1      31.566  21.852  25.180  1.00  0.00     0.049 A 
ATOM     85  C   UNL A   1      31.245  23.000  25.907  1.00  0.00     0.030 A 
BRANCH  82  86
ATOM     86  O   UNL A   1      33.123  20.604  23.882  1.00  0.00    -0.507 OA
ATOM     87  H   UNL A   1      32.768  19.786  24.169  1.00  0.00     0.293 HD
ENDBRANCH  82  86
BRANCH  83  88
ATOM     88  N   UNL A   1      31.724  25.166  26.784  1.00  0.00    -0.322 N 
ATOM     89  C   UNL A   1      31.456  26.484  26.502  1.00  0.00     0.258 C 
ATOM     90  H   UNL A   1      31.604  24.936  27.732  1.00  0.00     0.170 HD
ATOM     91  O   UNL A   1      31.387  27.309  27.414  1.00  0.00    -0.269 OA
BRANCH  89  92
ATOM     92  C   UNL A   1      31.166  26.964  25.146  1.00  0.00     0.077 A 
ATOM     93  C   UNL A   1      29.917  26.682  24.581  1.00  0.00     0.018 A 
ATOM     94  C   UNL A   1      32.124  27.537  24.329  1.00  0.00     0.141 A 
ATOM     95  C   UNL A   1      29.662  27.029  23.256  1.00  0.00     0.021 A 
ATOM     96  N   UNL A   1      31.892  27.909  23.046  1.00  0.00    -0.244 NA
ATOM     97  Cl  UNL A   1      33.759  27.759  24.798  1.00  0.00    -0.061 Cl
ATOM     98  C   UNL A   1      30.673  27.638  22.535  1.00  0.00     0.113 A 
ENDBRANCH  89  92
ENDBRANCH  83  88
ENDBRANCH  78  80
ENDBRANCH  77  78
ENDBRANCH  76  77
ENDBRANCH  75  76
ENDBRANCH  74  75
ENDBRANCH  73  74
ENDBRANCH   1  73
TORSDOF 23
ENDMDL
MODEL 2
REMARK VINA RESULT:     -10.0      6.597     11.546
REMARK SMILES O=C(OCCOCCOCCOC(=O)c1cc(NC(=O)c2cccnc2Cl)ccc1O)c1ccc(-c2c3nc(c(-c4cccc(S(=O)(=O)[O-])c4F)c4ccc([nH]4)c(-c4cccc(S(=O)(=O)[O-])c4F)c4nc(c(-c5cccc(S(=O)(=O)[O-])c5F)c5ccc2[nH]5)C=C4)C=C3)cc1
REMARK SMILES IDX 7 1 6 2 5 3 4 4 3 5 2 6 1 7 32 8 33 9 94 10 34 11 93 12
REMARK SMILES IDX 35 13 36 14 37 15 87 16 38 17 92 18 86 19 88 20 39 21 91 22
REMARK SMILES IDX 85 23 84 24 40 26 72 27 52 28 71 29 53 30 56 31 70 32 89 33
REMARK SMILES IDX 54 34 55 35 69 37 90 38 57 39 41 40 42 41 50 42 43 43 45 44
REMARK SMILES IDX 51 45 44 46 46 47 47 48 48 49 49 50 73 51 74 52 82 53 75 54
REMARK SMILES IDX 77 55 83 56 76 57 78 58 79 59 80 60 81 61 58 62 59 63 67 64
REMARK SMILES IDX 60 65 62 66 68 67 61 68 63 69 64 70 65 71 66 72 8 73 9 74
REMARK SMILES IDX 10 75 11 76 12 77 13 78 14 79 15 80 16 81 30 82 17 83 29 84
REMARK SMILES IDX 28 85 31 86 18 88 19 89 20 91 21 92 22 93 26 94 23 95 25 96
REMARK SMILES IDX 27 97 24 98
REMARK H PARENT 88 25 56 36 31 87 18 90
REMARK Flexibility Score: inf
ROOT
ATOM      1  C   UNL A   1      33.953  33.713  27.926  1.00  0.00     0.188 C 
ENDROOT
BRANCH   1   2
ATOM      2  O   UNL A   1      34.495  34.986  27.593  1.00  0.00    -0.376 OA
BRANCH   2   3
ATOM      3  C   UNL A   1      34.098  36.034  28.478  1.00  0.00     0.202 C 
BRANCH   3   4
ATOM      4  C   UNL A   1      32.596  36.052  28.810  1.00  0.00     0.261 C 
BRANCH   4   5
ATOM      5  O   UNL A   1      32.322  35.494  30.108  1.00  0.00    -0.460 OA
BRANCH   5   6
ATOM      6  C   UNL A   1      33.045  35.631  31.248  1.00  0.00     0.338 C 
ATOM      7  O   UNL A   1      32.822  36.623  31.943  1.00  0.00    -0.246 OA
BRANCH   6   8
ATOM      8  C   UNL A   1      34.126  34.676  31.676  1.00  0.00     0.060 A 
ATOM      9  C   UNL A   1      33.941  33.518  32.431  1.00  0.00     0.016 A 
ATOM     10  C   UNL A   1      35.437  34.959  31.250  1.00  0.00     0.016 A 
ATOM     11  C   UNL A   1      35.009  32.717  32.825  1.00  0.00     0.010 A 
ATOM     12  C   UNL A   1      36.513  34.128  31.598  1.00  0.00     0.010 A 
ATOM     13  C   UNL A   1      36.307  33.021  32.427  1.00  0.00    -0.014 A 
BRANCH  13  14
ATOM     14  C   UNL A   1      37.418  32.269  33.056  1.00  0.00     0.031 A 
ATOM     15  C   UNL A   1      38.060  31.165  32.264  1.00  0.00     0.074 A 
ATOM     16  C   UNL A   1      37.945  32.671  34.229  1.00  0.00     0.049 A 
ATOM     17  N   UNL A   1      39.110  30.444  32.552  1.00  0.00    -0.248 NA
ATOM     18  C   UNL A   1      37.446  30.837  30.965  1.00  0.00     0.031 C 
ATOM     19  C   UNL A   1      37.435  33.767  35.056  1.00  0.00     0.029 A 
ATOM     20  N   UNL A   1      39.053  32.230  34.911  1.00  0.00    -0.354 N 
ATOM     21  C   UNL A   1      39.264  29.569  31.484  1.00  0.00     0.074 A 
ATOM     22  C   UNL A   1      38.184  29.819  30.561  1.00  0.00     0.031 C 
ATOM     23  C   UNL A   1      38.246  33.931  36.114  1.00  0.00     0.029 A 
ATOM     24  C   UNL A   1      39.306  32.930  36.068  1.00  0.00     0.049 A 
ATOM     25  H   UNL A   1      39.614  31.483  34.599  1.00  0.00     0.167 HD
ATOM     26  C   UNL A   1      40.240  28.658  31.267  1.00  0.00     0.034 A 
ATOM     27  C   UNL A   1      40.282  32.776  36.985  1.00  0.00     0.034 A 
ATOM     28  C   UNL A   1      41.331  28.433  32.168  1.00  0.00     0.049 A 
ATOM     29  C   UNL A   1      41.339  31.730  36.738  1.00  0.00     0.074 A 
ATOM     30  C   UNL A   1      42.349  27.504  32.076  1.00  0.00     0.029 A 
ATOM     31  N   UNL A   1      41.547  29.160  33.330  1.00  0.00    -0.354 N 
ATOM     32  N   UNL A   1      41.492  30.943  35.698  1.00  0.00    -0.248 NA
ATOM     33  C   UNL A   1      42.375  31.569  37.768  1.00  0.00     0.031 C 
ATOM     34  C   UNL A   1      43.183  27.668  33.187  1.00  0.00     0.029 A 
ATOM     35  C   UNL A   1      42.690  28.708  33.962  1.00  0.00     0.049 A 
ATOM     36  H   UNL A   1      40.971  29.888  33.656  1.00  0.00     0.167 HD
ATOM     37  C   UNL A   1      42.654  30.219  35.935  1.00  0.00     0.074 A 
ATOM     38  C   UNL A   1      43.182  30.682  37.202  1.00  0.00     0.031 C 
ATOM     39  C   UNL A   1      43.222  29.239  35.189  1.00  0.00     0.034 A 
BRANCH  26  40
ATOM     40  C   UNL A   1      40.155  27.873  29.990  1.00  0.00     0.023 A 
ATOM     41  C   UNL A   1      39.292  26.760  29.917  1.00  0.00     0.012 A 
ATOM     42  C   UNL A   1      40.962  28.199  28.885  1.00  0.00     0.148 A 
ATOM     43  C   UNL A   1      39.265  25.956  28.777  1.00  0.00     0.002 A 
ATOM     44  C   UNL A   1      40.904  27.414  27.739  1.00  0.00     0.091 A 
ATOM     45  F   UNL A   1      41.795  29.244  28.989  1.00  0.00    -0.205 F 
ATOM     46  C   UNL A   1      40.067  26.286  27.689  1.00  0.00     0.022 A 
BRANCH  44  47
ATOM     47  S   UNL A   1      41.863  27.778  26.265  1.00  0.00     0.127 S 
ATOM     48  O   UNL A   1      41.374  29.110  25.916  1.00  0.00    -0.237 OA
ATOM     49  O   UNL A   1      43.233  27.746  26.778  1.00  0.00    -0.237 OA
ATOM     50  O   UNL A   1      41.546  26.727  25.309  1.00  0.00    -0.744 OA
ENDBRANCH  44  47
ENDBRANCH  26  40
BRANCH  27  51
ATOM     51  C   UNL A   1      40.325  33.637  38.205  1.00  0.00     0.023 A 
ATOM     52  C   UNL A   1      41.217  34.726  38.272  1.00  0.00     0.012 A 
ATOM     53  C   UNL A   1      39.487  33.378  39.307  1.00  0.00     0.148 A 
ATOM     54  C   UNL A   1      41.303  35.510  39.426  1.00  0.00     0.002 A 
ATOM     55  C   UNL A   1      39.531  34.202  40.425  1.00  0.00     0.091 A 
ATOM     56  F   UNL A   1      38.652  32.332  39.242  1.00  0.00    -0.205 F 
ATOM     57  C   UNL A   1      40.453  35.255  40.498  1.00  0.00     0.022 A 
BRANCH  55  58
ATOM     58  S   UNL A   1      38.337  34.050  41.759  1.00  0.00     0.127 S 
ATOM     59  O   UNL A   1      37.458  32.997  41.262  1.00  0.00    -0.237 OA
ATOM     60  O   UNL A   1      39.196  33.674  42.882  1.00  0.00    -0.237 OA
ATOM     61  O   UNL A   1      37.745  35.375  41.895  1.00  0.00    -0.744 OA
ENDBRANCH  55  58
ENDBRANCH  27  51
BRANCH  39  62
ATOM     62  C   UNL A   1      44.492  28.624  35.705  1.00  0.00     0.023 A 
ATOM     63  C   UNL A   1      45.732  29.189  35.351  1.00  0.00     0.012 A 
ATOM     64  C   UNL A   1      44.450  27.550  36.614  1.00  0.00     0.148 A 
ATOM     65  C   UNL A   1      46.916  28.679  35.877  1.00  0.00     0.002 A 
ATOM     66  C   UNL A   1      45.631  27.078  37.172  1.00  0.00     0.091 A 
ATOM     67  F   UNL A   1      43.260  27.012  36.918  1.00  0.00    -0.205 F 
ATOM     68  C   UNL A   1      46.865  27.633  36.798  1.00  0.00     0.022 A 
BRANCH  66  69
ATOM     69  S   UNL A   1      45.642  25.806  38.440  1.00  0.00     0.127 S 
ATOM     70  O   UNL A   1      44.478  26.176  39.243  1.00  0.00    -0.237 OA
ATOM     71  O   UNL A   1      45.478  24.581  37.656  1.00  0.00    -0.237 OA
ATOM     72  O   UNL A   1      46.932  25.924  39.107  1.00  0.00    -0.744 OA
ENDBRANCH  66  69
ENDBRANCH  39  62
ENDBRANCH  13  14
ENDBRANCH   6   8
ENDBRANCH   5   6
ENDBRANCH   4   5
ENDBRANCH   3   4
ENDBRANCH   2   3
ENDBRANCH   1   2
BRANCH   1  73
ATOM     73  C   UNL A   1      34.967  32.599  28.210  1.00  0.00     0.188 C 
BRANCH  73  74
ATOM     74  O   UNL A   1      34.479  31.288  28.451  1.00  0.00    -0.376 OA
BRANCH  74  75
ATOM     75  C   UNL A   1      35.233  30.205  27.907  1.00  0.00     0.202 C 
BRANCH  75  76
ATOM     76  C   UNL A   1      34.569  29.268  26.887  1.00  0.00     0.261 C 
BRANCH  76  77
ATOM     77  O   UNL A   1      33.291  28.731  27.266  1.00  0.00    -0.460 OA
BRANCH  77  78
ATOM     78  C   UNL A   1      32.226  29.324  26.670  1.00  0.00     0.342 C 
ATOM     79  O   UNL A   1      31.991  30.531  26.628  1.00  0.00    -0.246 OA
BRANCH  78  80
ATOM     80  C   UNL A   1      31.404  28.350  25.942  1.00  0.00     0.103 A 
ATOM     81  C   UNL A   1      31.085  27.132  26.574  1.00  0.00     0.045 A 
ATOM     82  C   UNL A   1      31.118  28.545  24.590  1.00  0.00     0.130 A 
ATOM     83  C   UNL A   1      30.465  26.112  25.849  1.00  0.00     0.042 A 
ATOM     84  C   UNL A   1      30.511  27.526  23.866  1.00  0.00     0.049 A 
ATOM     85  C   UNL A   1      30.196  26.318  24.490  1.00  0.00     0.030 A 
BRANCH  82  86
ATOM     86  O   UNL A   1      31.480  29.698  23.954  1.00  0.00    -0.507 OA
ATOM     87  H   UNL A   1      31.418  30.519  24.402  1.00  0.00     0.293 HD
ENDBRANCH  82  86
BRANCH  83  88
ATOM     88  N   UNL A   1      30.143  24.840  26.362  1.00  0.00    -0.322 N 
ATOM     89  C   UNL A   1      30.719  23.601  26.225  1.00  0.00     0.258 C 
ATOM     90  H   UNL A   1      29.343  24.840  26.935  1.00  0.00     0.170 HD
ATOM     91  O   UNL A   1      30.091  22.589  26.541  1.00  0.00    -0.269 OA
BRANCH  89  92
ATOM     92  C   UNL A   1      32.105  23.413  25.781  1.00  0.00     0.077 A 
ATOM     93  C   UNL A   1      33.142  23.603  26.701  1.00  0.00     0.018 A 
ATOM     94  C   UNL A   1      32.452  23.223  24.454  1.00  0.00     0.141 A 
ATOM     95  C   UNL A   1      34.467  23.541  26.274  1.00  0.00     0.021 A 
ATOM     96  N   UNL A   1      33.732  23.131  24.019  1.00  0.00    -0.244 NA
ATOM     97  Cl  UNL A   1      31.311  23.180  23.174  1.00  0.00    -0.061 Cl
ATOM     98  C   UNL A   1      34.710  23.302  24.934  1.00  0.00     0.113 A 
ENDBRANCH  89  92
ENDBRANCH  83  88
ENDBRANCH  78  80
ENDBRANCH  77  78
ENDBRANCH  76  77
ENDBRANCH  75  76
ENDBRANCH  74  75
ENDBRANCH  73  74
ENDBRANCH   1  73
TORSDOF 23
ENDMDL
MODEL 3
REMARK VINA RESULT:      -9.9      1.714      2.115
REMARK SMILES O=C(OCCOCCOCCOC(=O)c1cc(NC(=O)c2cccnc2Cl)ccc1O)c1ccc(-c2c3nc(c(-c4cccc(S(=O)(=O)[O-])c4F)c4ccc([nH]4)c(-c4cccc(S(=O)(=O)[O-])c4F)c4nc(c(-c5cccc(S(=O)(=O)[O-])c5F)c5ccc2[nH]5)C=C4)C=C3)cc1
REMARK SMILES IDX 7 1 6 2 5 3 4 4 3 5 2 6 1 7 32 8 33 9 94 10 34 11 93 12
REMARK SMILES IDX 35 13 36 14 37 15 87 16 38 17 92 18 86 19 88 20 39 21 91 22
REMARK SMILES IDX 85 23 84 24 40 26 72 27 52 28 71 29 53 30 56 31 70 32 89 33
REMARK SMILES IDX 54 34 55 35 69 37 90 38 57 39 41 40 42 41 50 42 43 43 45 44
REMARK SMILES IDX 51 45 44 46 46 47 47 48 48 49 49 50 73 51 74 52 82 53 75 54
REMARK SMILES IDX 77 55 83 56 76 57 78 58 79 59 80 60 81 61 58 62 59 63 67 64
REMARK SMILES IDX 60 65 62 66 68 67 61 68 63 69 64 70 65 71 66 72 8 73 9 74
REMARK SMILES IDX 10 75 11 76 12 77 13 78 14 79 15 80 16 81 30 82 17 83 29 84
REMARK SMILES IDX 28 85 31 86 18 88 19 89 20 91 21 92 22 93 26 94 23 95 25 96
REMARK SMILES IDX 27 97 24 98
REMARK H PARENT 88 25 56 36 31 87 18 90
REMARK Flexibility Score: inf
ROOT
ATOM      1  C   UNL A   1      40.121  21.838  26.994  1.00  0.00     0.188 C 
ENDROOT
BRANCH   1   2
ATOM      2  O   UNL A   1      40.740  20.620  27.393  1.00  0.00    -0.376 OA
BRANCH   2   3
ATOM      3  C   UNL A   1      40.693  19.594  26.401  1.00  0.00     0.202 C 
BRANCH   3   4
ATOM      4  C   UNL A   1      42.017  18.835  26.208  1.00  0.00     0.261 C 
BRANCH   4   5
ATOM      5  O   UNL A   1      42.695  19.229  25.001  1.00  0.00    -0.460 OA
BRANCH   5   6
ATOM      6  C   UNL A   1      43.710  20.121  24.864  1.00  0.00     0.338 C 
ATOM      7  O   UNL A   1      44.716  19.743  24.263  1.00  0.00    -0.246 OA
BRANCH   6   8
ATOM      8  C   UNL A   1      43.691  21.509  25.442  1.00  0.00     0.060 A 
ATOM      9  C   UNL A   1      43.432  22.684  24.737  1.00  0.00     0.016 A 
ATOM     10  C   UNL A   1      43.925  21.632  26.824  1.00  0.00     0.016 A 
ATOM     11  C   UNL A   1      43.485  23.935  25.345  1.00  0.00     0.010 A 
ATOM     12  C   UNL A   1      43.928  22.885  27.456  1.00  0.00     0.010 A 
ATOM     13  C   UNL A   1      43.749  24.051  26.706  1.00  0.00    -0.014 A 
BRANCH  13  14
ATOM     14  C   UNL A   1      44.013  25.404  27.248  1.00  0.00     0.031 A 
ATOM     15  C   UNL A   1      45.403  25.960  27.113  1.00  0.00     0.074 A 
ATOM     16  C   UNL A   1      43.004  26.177  27.694  1.00  0.00     0.049 A 
ATOM     17  N   UNL A   1      45.849  27.151  27.406  1.00  0.00    -0.248 NA
ATOM     18  C   UNL A   1      46.426  25.056  26.558  1.00  0.00     0.031 C 
ATOM     19  C   UNL A   1      41.606  25.757  27.816  1.00  0.00     0.029 A 
ATOM     20  N   UNL A   1      42.990  27.492  28.091  1.00  0.00    -0.354 N 
ATOM     21  C   UNL A   1      47.202  27.129  27.094  1.00  0.00     0.074 A 
ATOM     22  C   UNL A   1      47.515  25.802  26.624  1.00  0.00     0.031 C 
ATOM     23  C   UNL A   1      40.869  26.803  28.226  1.00  0.00     0.029 A 
ATOM     24  C   UNL A   1      41.741  27.953  28.439  1.00  0.00     0.049 A 
ATOM     25  H   UNL A   1      43.799  28.052  28.122  1.00  0.00     0.167 HD
ATOM     26  C   UNL A   1      48.103  28.135  27.155  1.00  0.00     0.034 A 
ATOM     27  C   UNL A   1      41.350  29.164  28.882  1.00  0.00     0.034 A 
ATOM     28  C   UNL A   1      47.785  29.463  27.590  1.00  0.00     0.049 A 
ATOM     29  C   UNL A   1      42.382  30.260  28.974  1.00  0.00     0.074 A 
ATOM     30  C   UNL A   1      48.627  30.547  27.739  1.00  0.00     0.029 A 
ATOM     31  N   UNL A   1      46.510  29.886  27.937  1.00  0.00    -0.354 N 
ATOM     32  N   UNL A   1      43.648  30.230  28.630  1.00  0.00    -0.248 NA
ATOM     33  C   UNL A   1      41.929  31.563  29.483  1.00  0.00     0.031 C 
ATOM     34  C   UNL A   1      47.859  31.630  28.181  1.00  0.00     0.029 A 
ATOM     35  C   UNL A   1      46.538  31.221  28.292  1.00  0.00     0.049 A 
ATOM     36  H   UNL A   1      45.706  29.318  27.932  1.00  0.00     0.167 HD
ATOM     37  C   UNL A   1      44.134  31.513  28.851  1.00  0.00     0.074 A 
ATOM     38  C   UNL A   1      43.018  32.304  29.330  1.00  0.00     0.031 C 
ATOM     39  C   UNL A   1      45.393  31.993  28.700  1.00  0.00     0.034 A 
BRANCH  26  40
ATOM     40  C   UNL A   1      49.503  27.812  26.714  1.00  0.00     0.023 A 
ATOM     41  C   UNL A   1      50.492  27.551  27.685  1.00  0.00     0.012 A 
ATOM     42  C   UNL A   1      49.851  27.818  25.352  1.00  0.00     0.148 A 
ATOM     43  C   UNL A   1      51.819  27.344  27.308  1.00  0.00     0.002 A 
ATOM     44  C   UNL A   1      51.169  27.574  24.980  1.00  0.00     0.091 A 
ATOM     45  F   UNL A   1      48.899  28.095  24.449  1.00  0.00    -0.205 F 
ATOM     46  C   UNL A   1      52.155  27.352  25.957  1.00  0.00     0.022 A 
BRANCH  44  47
ATOM     47  S   UNL A   1      51.699  27.518  23.266  1.00  0.00     0.127 S 
ATOM     48  O   UNL A   1      52.780  26.536  23.324  1.00  0.00    -0.237 OA
ATOM     49  O   UNL A   1      50.489  27.054  22.588  1.00  0.00    -0.237 OA
ATOM     50  O   UNL A   1      52.105  28.874  22.925  1.00  0.00    -0.744 OA
ENDBRANCH  44  47
ENDBRANCH  26  40
BRANCH  27  51
ATOM     51  C   UNL A   1      39.925  29.420  29.248  1.00  0.00     0.023 A 
ATOM     52  C   UNL A   1      38.954  29.593  28.242  1.00  0.00     0.012 A 
ATOM     53  C   UNL A   1      39.525  29.497  30.597  1.00  0.00     0.148 A 
ATOM     54  C   UNL A   1      37.626  29.881  28.571  1.00  0.00     0.002 A 
ATOM     55  C   UNL A   1      38.190  29.718  30.917  1.00  0.00     0.091 A 
ATOM     56  F   UNL A   1      40.456  29.346  31.549  1.00  0.00    -0.205 F 
ATOM     57  C   UNL A   1      37.243  29.933  29.907  1.00  0.00     0.022 A 
BRANCH  55  58
ATOM     58  S   UNL A   1      37.593  29.607  32.608  1.00  0.00     0.127 S 
ATOM     59  O   UNL A   1      38.590  30.386  33.334  1.00  0.00    -0.237 OA
ATOM     60  O   UNL A   1      36.272  30.226  32.494  1.00  0.00    -0.237 OA
ATOM     61  O   UNL A   1      37.546  28.181  32.903  1.00  0.00    -0.744 OA
ENDBRANCH  55  58
ENDBRANCH  27  51
BRANCH  39  62
ATOM     62  C   UNL A   1      45.628  33.440  29.026  1.00  0.00     0.023 A 
ATOM     63  C   UNL A   1      46.047  33.803  30.320  1.00  0.00     0.012 A 
ATOM     64  C   UNL A   1      45.527  34.425  28.025  1.00  0.00     0.148 A 
ATOM     65  C   UNL A   1      46.340  35.131  30.621  1.00  0.00     0.002 A 
ATOM     66  C   UNL A   1      45.868  35.739  28.319  1.00  0.00     0.091 A 
ATOM     67  F   UNL A   1      45.102  34.060  26.806  1.00  0.00    -0.205 F 
ATOM     68  C   UNL A   1      46.264  36.096  29.617  1.00  0.00     0.022 A 
BRANCH  66  69
ATOM     69  S   UNL A   1      45.896  37.019  27.059  1.00  0.00     0.127 S 
ATOM     70  O   UNL A   1      46.522  36.320  25.939  1.00  0.00    -0.237 OA
ATOM     71  O   UNL A   1      44.473  37.310  26.877  1.00  0.00    -0.237 OA
ATOM     72  O   UNL A   1      46.665  38.117  27.628  1.00  0.00    -0.744 OA
ENDBRANCH  66  69
ENDBRANCH  39  62
ENDBRANCH  13  14
ENDBRANCH   6   8
ENDBRANCH   5   6
ENDBRANCH   4   5
ENDBRANCH   3   4
ENDBRANCH   2   3
ENDBRANCH   1   2
BRANCH   1  73
ATOM     73  C   UNL A   1      39.208  21.762  25.765  1.00  0.00     0.188 C 
BRANCH  73  74
ATOM     74  O   UNL A   1      37.829  22.057  25.930  1.00  0.00    -0.376 OA
BRANCH  74  75
ATOM     75  C   UNL A   1      37.388  23.348  25.510  1.00  0.00     0.202 C 
BRANCH  75  76
ATOM     76  C   UNL A   1      35.887  23.673  25.542  1.00  0.00     0.261 C 
BRANCH  76  77
ATOM     77  O   UNL A   1      35.120  23.215  24.416  1.00  0.00    -0.460 OA
BRANCH  77  78
ATOM     78  C   UNL A   1      34.324  22.147  24.668  1.00  0.00     0.342 C 
ATOM     79  O   UNL A   1      34.657  20.962  24.634  1.00  0.00    -0.246 OA
BRANCH  78  80
ATOM     80  C   UNL A   1      32.992  22.562  25.126  1.00  0.00     0.103 A 
ATOM     81  C   UNL A   1      32.282  23.509  24.361  1.00  0.00     0.045 A 
ATOM     82  C   UNL A   1      32.531  22.179  26.386  1.00  0.00     0.130 A 
ATOM     83  C   UNL A   1      31.100  24.062  24.857  1.00  0.00     0.042 A 
ATOM     84  C   UNL A   1      31.361  22.738  26.885  1.00  0.00     0.049 A 
ATOM     85  C   UNL A   1      30.657  23.677  26.129  1.00  0.00     0.030 A 
BRANCH  82  86
ATOM     86  O   UNL A   1      33.246  21.310  27.161  1.00  0.00    -0.507 OA
ATOM     87  H   UNL A   1      34.134  21.108  26.941  1.00  0.00     0.293 HD
ENDBRANCH  82  86
BRANCH  83  88
ATOM     88  N   UNL A   1      30.335  25.047  24.203  1.00  0.00    -0.322 N 
ATOM     89  C   UNL A   1      30.209  26.404  24.376  1.00  0.00     0.258 C 
ATOM     90  H   UNL A   1      29.778  24.691  23.475  1.00  0.00     0.170 HD
ATOM     91  O   UNL A   1      29.263  27.007  23.868  1.00  0.00    -0.269 OA
BRANCH  89  92
ATOM     92  C   UNL A   1      31.205  27.210  25.092  1.00  0.00     0.077 A 
ATOM     93  C   UNL A   1      31.050  27.410  26.469  1.00  0.00     0.018 A 
ATOM     94  C   UNL A   1      32.200  27.925  24.448  1.00  0.00     0.141 A 
ATOM     95  C   UNL A   1      31.919  28.263  27.146  1.00  0.00     0.021 A 
ATOM     96  N   UNL A   1      33.075  28.738  25.089  1.00  0.00    -0.244 NA
ATOM     97  Cl  UNL A   1      32.392  27.954  22.744  1.00  0.00    -0.061 Cl
ATOM     98  C   UNL A   1      32.910  28.898  26.419  1.00  0.00     0.113 A 
ENDBRANCH  89  92
ENDBRANCH  83  88
ENDBRANCH  78  80
ENDBRANCH  77  78
ENDBRANCH  76  77
ENDBRANCH  75  76
ENDBRANCH  74  75
ENDBRANCH  73  74
ENDBRANCH   1  73
TORSDOF 23
ENDMDL
