MODEL 1
REMARK VINA RESULT:      -9.5      0.000      0.000
REMARK SMILES CC(C)[NH+](CCNC(=O)N[C@@H]1C=C[C@H](C(=O)OCCOCCOCCOC(=O)c2ccc(-c3c4nc(c(-c5cccc(S(=O)(=O)[O-])c5F)c5ccc([nH]5)c(-c5cccc(S(=O)(=O)[O-])c5F)c5nc(c(-c6cccc(S(=O)(=O)[O-])c6F)c6ccc3[nH]6)C=C5)C=C4)cc2)C1)C(C)C
REMARK SMILES IDX 21 1 20 2 19 3 18 4 17 5 15 6 16 7 14 8 11 9 12 10 92 11
REMARK SMILES IDX 13 12 10 13 7 14 8 15 9 17 6 19 5 20 4 21 2 23 1 24 3 25
REMARK SMILES IDX 93 26 94 27 95 28 22 29 23 30 24 31 25 32 26 33 27 34 28 35
REMARK SMILES IDX 29 36 30 37 91 38 31 39 90 40 32 41 33 42 34 43 84 44 35 45
REMARK SMILES IDX 89 46 83 47 85 48 36 49 88 50 82 51 81 52 37 54 69 55 49 56
REMARK SMILES IDX 68 57 50 58 53 59 67 60 86 61 51 62 52 63 66 65 87 66 54 67
REMARK SMILES IDX 38 68 39 69 47 70 40 71 42 72 48 73 41 74 43 75 44 76 45 77
REMARK SMILES IDX 46 78 70 79 71 80 79 81 72 82 74 83 80 84 73 85 75 86 76 87
REMARK SMILES IDX 77 88 78 89 55 90 56 91 64 92 57 93 59 94 65 95 58 96 60 97
REMARK SMILES IDX 61 98 62 99 63 100
REMARK H PARENT 7 16 10 18 4 22 85 53 53 64
REMARK Flexibility Score: inf
ROOT
ATOM      1  C   UNL A   1      39.297  20.941  25.943  1.00  0.00     0.188 C 
ENDROOT
BRANCH   1   2
ATOM      2  O   UNL A   1      38.763  22.249  25.830  1.00  0.00    -0.376 OA
BRANCH   2   3
ATOM      3  C   UNL A   1      37.453  22.363  25.295  1.00  0.00     0.202 C 
BRANCH   3   4
ATOM      4  C   UNL A   1      36.612  21.080  25.243  1.00  0.00     0.261 C 
BRANCH   4   5
ATOM      5  O   UNL A   1      35.333  21.189  25.884  1.00  0.00    -0.463 OA
BRANCH   5   6
ATOM      6  C   UNL A   1      34.279  20.479  25.393  1.00  0.00     0.312 C 
ATOM      7  O   UNL A   1      34.371  19.534  24.626  1.00  0.00    -0.252 OA
BRANCH   6   8
ATOM      8  C   UNL A   1      32.977  20.950  26.071  1.00  0.00     0.124 C 
ATOM      9  C   UNL A   1      32.523  23.099  25.088  1.00  0.00     0.107 C 
ATOM     10  C   UNL A   1      33.023  23.232  26.498  1.00  0.00    -0.006 C 
ATOM     11  C   UNL A   1      31.997  21.662  25.132  1.00  0.00     0.048 C 
ATOM     12  C   UNL A   1      33.266  22.044  27.054  1.00  0.00    -0.014 C 
BRANCH   9  13
ATOM     13  N   UNL A   1      33.616  23.159  24.136  1.00  0.00    -0.332 N 
ATOM     14  N   UNL A   1      34.388  25.371  24.037  1.00  0.00    -0.332 N 
ATOM     15  C   UNL A   1      34.411  24.102  23.645  1.00  0.00     0.315 C 
ATOM     16  H   UNL A   1      35.075  25.920  23.594  1.00  0.00     0.165 HD
ATOM     17  O   UNL A   1      35.231  23.791  22.780  1.00  0.00    -0.249 OA
ATOM     18  H   UNL A   1      33.822  22.273  23.759  1.00  0.00     0.165 HD
BRANCH  14  19
ATOM     19  C   UNL A   1      33.580  26.122  24.968  1.00  0.00     0.179 C 
BRANCH  19  20
ATOM     20  C   UNL A   1      33.168  27.506  24.417  1.00  0.00     0.284 C 
BRANCH  20  21
ATOM     21  N   UNL A   1      31.747  27.883  24.550  1.00  0.00    -0.330 N 
ATOM     22  H   UNL A   1      31.171  27.108  24.880  1.00  0.00     0.348 HD
BRANCH  21  23
ATOM     23  C   UNL A   1      31.045  27.998  23.263  1.00  0.00     0.177 C 
ATOM     24  C   UNL A   1      31.294  26.867  22.268  1.00  0.00     0.075 C 
ATOM     25  C   UNL A   1      29.538  28.280  23.339  1.00  0.00     0.075 C 
ENDBRANCH  21  23
BRANCH  21  26
ATOM     26  C   UNL A   1      31.464  28.723  25.722  1.00  0.00     0.177 C 
ATOM     27  C   UNL A   1      31.622  28.070  27.099  1.00  0.00     0.075 C 
ATOM     28  C   UNL A   1      32.221  30.058  25.710  1.00  0.00     0.075 C 
ENDBRANCH  21  26
ENDBRANCH  20  21
ENDBRANCH  19  20
ENDBRANCH  14  19
ENDBRANCH   9  13
ENDBRANCH   6   8
ENDBRANCH   5   6
ENDBRANCH   4   5
ENDBRANCH   3   4
ENDBRANCH   2   3
ENDBRANCH   1   2
BRANCH   1  29
ATOM     29  C   UNL A   1      40.772  20.938  26.412  1.00  0.00     0.188 C 
BRANCH  29  30
ATOM     30  O   UNL A   1      41.764  20.256  25.662  1.00  0.00    -0.376 OA
BRANCH  30  31
ATOM     31  C   UNL A   1      42.261  19.035  26.177  1.00  0.00     0.202 C 
BRANCH  31  32
ATOM     32  C   UNL A   1      43.565  18.456  25.596  1.00  0.00     0.261 C 
BRANCH  32  33
ATOM     33  O   UNL A   1      44.018  18.997  24.336  1.00  0.00    -0.460 OA
BRANCH  33  34
ATOM     34  C   UNL A   1      45.199  19.667  24.346  1.00  0.00     0.338 C 
ATOM     35  O   UNL A   1      46.263  19.271  23.882  1.00  0.00    -0.246 OA
BRANCH  34  36
ATOM     36  C   UNL A   1      45.008  21.062  24.821  1.00  0.00     0.060 A 
ATOM     37  C   UNL A   1      44.629  22.053  23.898  1.00  0.00     0.016 A 
ATOM     38  C   UNL A   1      45.253  21.414  26.148  1.00  0.00     0.016 A 
ATOM     39  C   UNL A   1      44.520  23.392  24.290  1.00  0.00     0.010 A 
ATOM     40  C   UNL A   1      45.171  22.762  26.532  1.00  0.00     0.010 A 
ATOM     41  C   UNL A   1      44.836  23.765  25.601  1.00  0.00    -0.014 A 
BRANCH  41  42
ATOM     42  C   UNL A   1      45.001  25.199  25.962  1.00  0.00     0.031 A 
ATOM     43  C   UNL A   1      46.386  25.794  25.943  1.00  0.00     0.074 A 
ATOM     44  C   UNL A   1      43.957  25.963  26.337  1.00  0.00     0.049 A 
ATOM     45  N   UNL A   1      46.788  26.980  26.318  1.00  0.00    -0.248 NA
ATOM     46  C   UNL A   1      47.463  24.926  25.438  1.00  0.00     0.031 C 
ATOM     47  C   UNL A   1      42.564  25.528  26.387  1.00  0.00     0.029 A 
ATOM     48  N   UNL A   1      43.920  27.263  26.787  1.00  0.00    -0.354 N 
ATOM     49  C   UNL A   1      48.167  26.988  26.141  1.00  0.00     0.074 A 
ATOM     50  C   UNL A   1      48.532  25.686  25.623  1.00  0.00     0.031 C 
ATOM     51  C   UNL A   1      41.813  26.528  26.884  1.00  0.00     0.029 A 
ATOM     52  C   UNL A   1      42.676  27.661  27.216  1.00  0.00     0.049 A 
ATOM     53  H   UNL A   1      44.709  27.852  26.799  1.00  0.00     0.167 HD
ATOM     54  C   UNL A   1      49.052  27.985  26.379  1.00  0.00     0.034 A 
ATOM     55  C   UNL A   1      42.282  28.791  27.841  1.00  0.00     0.034 A 
ATOM     56  C   UNL A   1      48.694  29.284  26.881  1.00  0.00     0.049 A 
ATOM     57  C   UNL A   1      43.291  29.876  28.128  1.00  0.00     0.074 A 
ATOM     58  C   UNL A   1      49.516  30.375  27.105  1.00  0.00     0.029 A 
ATOM     59  N   UNL A   1      47.417  29.663  27.261  1.00  0.00    -0.354 N 
ATOM     60  N   UNL A   1      44.573  29.910  27.852  1.00  0.00    -0.248 NA
ATOM     61  C   UNL A   1      42.793  31.094  28.790  1.00  0.00     0.031 C 
ATOM     62  C   UNL A   1      48.743  31.400  27.659  1.00  0.00     0.029 A 
ATOM     63  C   UNL A   1      47.430  30.964  27.733  1.00  0.00     0.049 A 
ATOM     64  H   UNL A   1      46.618  29.092  27.203  1.00  0.00     0.167 HD
ATOM     65  C   UNL A   1      45.022  31.161  28.264  1.00  0.00     0.074 A 
ATOM     66  C   UNL A   1      43.873  31.863  28.796  1.00  0.00     0.031 C 
ATOM     67  C   UNL A   1      46.274  31.679  28.212  1.00  0.00     0.034 A 
BRANCH  54  68
ATOM     68  C   UNL A   1      50.508  27.713  26.094  1.00  0.00     0.023 A 
ATOM     69  C   UNL A   1      51.370  27.328  27.140  1.00  0.00     0.012 A 
ATOM     70  C   UNL A   1      51.007  27.785  24.778  1.00  0.00     0.148 A 
ATOM     71  C   UNL A   1      52.714  27.056  26.888  1.00  0.00     0.002 A 
ATOM     72  C   UNL A   1      52.335  27.465  24.526  1.00  0.00     0.091 A 
ATOM     73  F   UNL A   1      50.176  28.171  23.799  1.00  0.00    -0.205 F 
ATOM     74  C   UNL A   1      53.193  27.113  25.581  1.00  0.00     0.022 A 
BRANCH  72  75
ATOM     75  S   UNL A   1      53.027  27.426  22.869  1.00  0.00     0.127 S 
ATOM     76  O   UNL A   1      52.003  26.676  22.141  1.00  0.00    -0.237 OA
ATOM     77  O   UNL A   1      53.096  28.848  22.534  1.00  0.00    -0.237 OA
ATOM     78  O   UNL A   1      54.318  26.764  22.988  1.00  0.00    -0.744 OA
ENDBRANCH  72  75
ENDBRANCH  54  68
BRANCH  55  79
ATOM     79  C   UNL A   1      40.854  28.971  28.236  1.00  0.00     0.023 A 
ATOM     80  C   UNL A   1      39.898  29.317  27.260  1.00  0.00     0.012 A 
ATOM     81  C   UNL A   1      40.442  28.807  29.572  1.00  0.00     0.148 A 
ATOM     82  C   UNL A   1      38.565  29.528  27.613  1.00  0.00     0.002 A 
ATOM     83  C   UNL A   1      39.102  28.962  29.908  1.00  0.00     0.091 A 
ATOM     84  F   UNL A   1      41.370  28.497  30.488  1.00  0.00    -0.205 F 
ATOM     85  C   UNL A   1      38.165  29.340  28.934  1.00  0.00     0.022 A 
BRANCH  83  86
ATOM     86  S   UNL A   1      38.474  28.626  31.557  1.00  0.00     0.127 S 
ATOM     87  O   UNL A   1      39.282  29.528  32.373  1.00  0.00    -0.237 OA
ATOM     88  O   UNL A   1      37.068  29.007  31.422  1.00  0.00    -0.237 OA
ATOM     89  O   UNL A   1      38.696  27.205  31.781  1.00  0.00    -0.744 OA
ENDBRANCH  83  86
ENDBRANCH  55  79
BRANCH  67  90
ATOM     90  C   UNL A   1      46.477  33.098  28.685  1.00  0.00     0.023 A 
ATOM     91  C   UNL A   1      46.920  33.355  29.998  1.00  0.00     0.012 A 
ATOM     92  C   UNL A   1      46.305  34.177  27.793  1.00  0.00     0.148 A 
ATOM     93  C   UNL A   1      47.154  34.662  30.425  1.00  0.00     0.002 A 
ATOM     94  C   UNL A   1      46.590  35.471  28.209  1.00  0.00     0.091 A 
ATOM     95  F   UNL A   1      45.868  33.916  26.552  1.00  0.00    -0.205 F 
ATOM     96  C   UNL A   1      47.001  35.719  29.529  1.00  0.00     0.022 A 
BRANCH  94  97
ATOM     97  S   UNL A   1      46.519  36.882  27.098  1.00  0.00     0.127 S 
ATOM     98  O   UNL A   1      45.077  37.048  26.919  1.00  0.00    -0.237 OA
ATOM     99  O   UNL A   1      47.161  37.931  27.889  1.00  0.00    -0.237 OA
ATOM    100  O   UNL A   1      47.253  36.490  25.901  1.00  0.00    -0.744 OA
ENDBRANCH  94  97
ENDBRANCH  67  90
ENDBRANCH  41  42
ENDBRANCH  34  36
ENDBRANCH  33  34
ENDBRANCH  32  33
ENDBRANCH  31  32
ENDBRANCH  30  31
ENDBRANCH  29  30
ENDBRANCH   1  29
TORSDOF 26
ENDMDL
MODEL 2
REMARK VINA RESULT:      -8.9      1.521      2.145
REMARK SMILES CC(C)[NH+](CCNC(=O)N[C@@H]1C=C[C@H](C(=O)OCCOCCOCCOC(=O)c2ccc(-c3c4nc(c(-c5cccc(S(=O)(=O)[O-])c5F)c5ccc([nH]5)c(-c5cccc(S(=O)(=O)[O-])c5F)c5nc(c(-c6cccc(S(=O)(=O)[O-])c6F)c6ccc3[nH]6)C=C5)C=C4)cc2)C1)C(C)C
REMARK SMILES IDX 21 1 20 2 19 3 18 4 17 5 15 6 16 7 14 8 11 9 12 10 92 11
REMARK SMILES IDX 13 12 10 13 7 14 8 15 9 17 6 19 5 20 4 21 2 23 1 24 3 25
REMARK SMILES IDX 93 26 94 27 95 28 22 29 23 30 24 31 25 32 26 33 27 34 28 35
REMARK SMILES IDX 29 36 30 37 91 38 31 39 90 40 32 41 33 42 34 43 84 44 35 45
REMARK SMILES IDX 89 46 83 47 85 48 36 49 88 50 82 51 81 52 37 54 69 55 49 56
REMARK SMILES IDX 68 57 50 58 53 59 67 60 86 61 51 62 52 63 66 65 87 66 54 67
REMARK SMILES IDX 38 68 39 69 47 70 40 71 42 72 48 73 41 74 43 75 44 76 45 77
REMARK SMILES IDX 46 78 70 79 71 80 79 81 72 82 74 83 80 84 73 85 75 86 76 87
REMARK SMILES IDX 77 88 78 89 55 90 56 91 64 92 57 93 59 94 65 95 58 96 60 97
REMARK SMILES IDX 61 98 62 99 63 100
REMARK H PARENT 7 16 10 18 4 22 85 53 53 64
REMARK Flexibility Score: inf
ROOT
ATOM      1  C   UNL A   1      39.249  20.971  25.603  1.00  0.00     0.188 C 
ENDROOT
BRANCH   1   2
ATOM      2  O   UNL A   1      38.579  22.215  25.711  1.00  0.00    -0.376 OA
BRANCH   2   3
ATOM      3  C   UNL A   1      37.161  22.178  25.752  1.00  0.00     0.202 C 
BRANCH   3   4
ATOM      4  C   UNL A   1      36.492  20.848  25.377  1.00  0.00     0.261 C 
BRANCH   4   5
ATOM      5  O   UNL A   1      35.132  20.977  24.941  1.00  0.00    -0.463 OA
BRANCH   5   6
ATOM      6  C   UNL A   1      34.474  22.152  25.147  1.00  0.00     0.312 C 
ATOM      7  O   UNL A   1      34.218  22.626  26.242  1.00  0.00    -0.252 OA
BRANCH   6   8
ATOM      8  C   UNL A   1      34.243  22.860  23.796  1.00  0.00     0.124 C 
ATOM      9  C   UNL A   1      32.050  23.832  23.987  1.00  0.00     0.107 C 
ATOM     10  C   UNL A   1      32.044  22.630  23.087  1.00  0.00    -0.006 C 
ATOM     11  C   UNL A   1      33.531  24.212  23.905  1.00  0.00     0.048 C 
ATOM     12  C   UNL A   1      33.258  22.092  22.967  1.00  0.00    -0.014 C 
BRANCH   9  13
ATOM     13  N   UNL A   1      31.747  23.463  25.357  1.00  0.00    -0.332 N 
ATOM     14  N   UNL A   1      31.632  25.422  26.641  1.00  0.00    -0.332 N 
ATOM     15  C   UNL A   1      31.588  24.101  26.510  1.00  0.00     0.315 C 
ATOM     16  H   UNL A   1      31.454  25.721  27.562  1.00  0.00     0.165 HD
ATOM     17  O   UNL A   1      31.377  23.438  27.527  1.00  0.00    -0.249 OA
ATOM     18  H   UNL A   1      31.626  22.490  25.456  1.00  0.00     0.165 HD
BRANCH  14  19
ATOM     19  C   UNL A   1      31.884  26.515  25.732  1.00  0.00     0.179 C 
BRANCH  19  20
ATOM     20  C   UNL A   1      30.585  27.215  25.269  1.00  0.00     0.284 C 
BRANCH  20  21
ATOM     21  N   UNL A   1      30.570  27.752  23.893  1.00  0.00    -0.330 N 
ATOM     22  H   UNL A   1      30.600  28.772  23.877  1.00  0.00     0.348 HD
BRANCH  21  23
ATOM     23  C   UNL A   1      29.251  27.673  23.246  1.00  0.00     0.177 C 
ATOM     24  C   UNL A   1      28.260  26.695  23.874  1.00  0.00     0.075 C 
ATOM     25  C   UNL A   1      28.544  29.012  22.991  1.00  0.00     0.075 C 
ENDBRANCH  21  23
BRANCH  21  26
ATOM     26  C   UNL A   1      31.848  27.602  23.184  1.00  0.00     0.177 C 
ATOM     27  C   UNL A   1      31.858  26.686  21.957  1.00  0.00     0.075 C 
ATOM     28  C   UNL A   1      32.499  28.943  22.816  1.00  0.00     0.075 C 
ENDBRANCH  21  26
ENDBRANCH  20  21
ENDBRANCH  19  20
ENDBRANCH  14  19
ENDBRANCH   9  13
ENDBRANCH   6   8
ENDBRANCH   5   6
ENDBRANCH   4   5
ENDBRANCH   3   4
ENDBRANCH   2   3
ENDBRANCH   1   2
BRANCH   1  29
ATOM     29  C   UNL A   1      40.626  20.972  26.312  1.00  0.00     0.188 C 
BRANCH  29  30
ATOM     30  O   UNL A   1      41.743  20.333  25.716  1.00  0.00    -0.376 OA
BRANCH  30  31
ATOM     31  C   UNL A   1      42.201  19.125  26.293  1.00  0.00     0.202 C 
BRANCH  31  32
ATOM     32  C   UNL A   1      43.453  18.447  25.707  1.00  0.00     0.261 C 
BRANCH  32  33
ATOM     33  O   UNL A   1      43.906  18.909  24.416  1.00  0.00    -0.460 OA
BRANCH  33  34
ATOM     34  C   UNL A   1      45.089  19.575  24.383  1.00  0.00     0.338 C 
ATOM     35  O   UNL A   1      46.142  19.162  23.910  1.00  0.00    -0.246 OA
BRANCH  34  36
ATOM     36  C   UNL A   1      44.911  20.983  24.822  1.00  0.00     0.060 A 
ATOM     37  C   UNL A   1      44.581  21.961  23.866  1.00  0.00     0.016 A 
ATOM     38  C   UNL A   1      45.122  21.360  26.148  1.00  0.00     0.016 A 
ATOM     39  C   UNL A   1      44.487  23.310  24.226  1.00  0.00     0.010 A 
ATOM     40  C   UNL A   1      45.055  22.717  26.501  1.00  0.00     0.010 A 
ATOM     41  C   UNL A   1      44.770  23.705  25.538  1.00  0.00    -0.014 A 
BRANCH  41  42
ATOM     42  C   UNL A   1      44.952  25.144  25.874  1.00  0.00     0.031 A 
ATOM     43  C   UNL A   1      46.344  25.722  25.841  1.00  0.00     0.074 A 
ATOM     44  C   UNL A   1      43.918  25.927  26.238  1.00  0.00     0.049 A 
ATOM     45  N   UNL A   1      46.761  26.910  26.194  1.00  0.00    -0.248 NA
ATOM     46  C   UNL A   1      47.409  24.833  25.349  1.00  0.00     0.031 C 
ATOM     47  C   UNL A   1      42.520  25.508  26.299  1.00  0.00     0.029 A 
ATOM     48  N   UNL A   1      43.897  27.234  26.664  1.00  0.00    -0.354 N 
ATOM     49  C   UNL A   1      48.139  26.899  26.013  1.00  0.00     0.074 A 
ATOM     50  C   UNL A   1      48.488  25.584  25.517  1.00  0.00     0.031 C 
ATOM     51  C   UNL A   1      41.782  26.525  26.780  1.00  0.00     0.029 A 
ATOM     52  C   UNL A   1      42.659  27.654  27.090  1.00  0.00     0.049 A 
ATOM     53  H   UNL A   1      44.693  27.814  26.665  1.00  0.00     0.167 HD
ATOM     54  C   UNL A   1      49.036  27.890  26.231  1.00  0.00     0.034 A 
ATOM     55  C   UNL A   1      42.280  28.800  27.695  1.00  0.00     0.034 A 
ATOM     56  C   UNL A   1      48.695  29.201  26.712  1.00  0.00     0.049 A 
ATOM     57  C   UNL A   1      43.302  29.878  27.961  1.00  0.00     0.074 A 
ATOM     58  C   UNL A   1      49.529  30.286  26.914  1.00  0.00     0.029 A 
ATOM     59  N   UNL A   1      47.423  29.602  27.087  1.00  0.00    -0.354 N 
ATOM     60  N   UNL A   1      44.583  29.892  27.681  1.00  0.00    -0.248 NA
ATOM     61  C   UNL A   1      42.820  31.112  28.602  1.00  0.00     0.031 C 
ATOM     62  C   UNL A   1      48.769  31.330  27.452  1.00  0.00     0.029 A 
ATOM     63  C   UNL A   1      47.452  30.911  27.537  1.00  0.00     0.049 A 
ATOM     64  H   UNL A   1      46.617  29.039  27.042  1.00  0.00     0.167 HD
ATOM     65  C   UNL A   1      45.048  31.145  28.070  1.00  0.00     0.074 A 
ATOM     66  C   UNL A   1      43.908  31.869  28.592  1.00  0.00     0.031 C 
ATOM     67  C   UNL A   1      46.306  31.648  28.005  1.00  0.00     0.034 A 
BRANCH  54  68
ATOM     68  C   UNL A   1      50.488  27.596  25.947  1.00  0.00     0.023 A 
ATOM     69  C   UNL A   1      51.326  27.125  26.978  1.00  0.00     0.012 A 
ATOM     70  C   UNL A   1      51.006  27.734  24.644  1.00  0.00     0.148 A 
ATOM     71  C   UNL A   1      52.665  26.832  26.726  1.00  0.00     0.002 A 
ATOM     72  C   UNL A   1      52.329  27.393  24.390  1.00  0.00     0.091 A 
ATOM     73  F   UNL A   1      50.199  28.201  23.681  1.00  0.00    -0.205 F 
ATOM     74  C   UNL A   1      53.163  26.955  25.431  1.00  0.00     0.022 A 
BRANCH  72  75
ATOM     75  S   UNL A   1      53.042  27.437  22.742  1.00  0.00     0.127 S 
ATOM     76  O   UNL A   1      54.368  26.867  22.980  1.00  0.00    -0.237 OA
ATOM     77  O   UNL A   1      52.131  26.571  21.992  1.00  0.00    -0.237 OA
ATOM     78  O   UNL A   1      53.028  28.835  22.334  1.00  0.00    -0.744 OA
ENDBRANCH  72  75
ENDBRANCH  54  68
BRANCH  55  79
ATOM     79  C   UNL A   1      40.855  29.003  28.090  1.00  0.00     0.023 A 
ATOM     80  C   UNL A   1      39.897  29.327  27.108  1.00  0.00     0.012 A 
ATOM     81  C   UNL A   1      40.447  28.883  29.433  1.00  0.00     0.148 A 
ATOM     82  C   UNL A   1      38.567  29.559  27.461  1.00  0.00     0.002 A 
ATOM     83  C   UNL A   1      39.110  29.059  29.769  1.00  0.00     0.091 A 
ATOM     84  F   UNL A   1      41.377  28.593  30.354  1.00  0.00    -0.205 F 
ATOM     85  C   UNL A   1      38.172  29.415  28.788  1.00  0.00     0.022 A 
BRANCH  83  86
ATOM     86  S   UNL A   1      38.487  28.778  31.430  1.00  0.00     0.127 S 
ATOM     87  O   UNL A   1      38.966  27.426  31.704  1.00  0.00    -0.237 OA
ATOM     88  O   UNL A   1      39.160  29.836  32.184  1.00  0.00    -0.237 OA
ATOM     89  O   UNL A   1      37.041  28.927  31.339  1.00  0.00    -0.744 OA
ENDBRANCH  83  86
ENDBRANCH  55  79
BRANCH  67  90
ATOM     90  C   UNL A   1      46.526  33.072  28.453  1.00  0.00     0.023 A 
ATOM     91  C   UNL A   1      46.284  34.142  27.569  1.00  0.00     0.012 A 
ATOM     92  C   UNL A   1      46.898  33.349  29.784  1.00  0.00     0.148 A 
ATOM     93  C   UNL A   1      46.442  35.462  27.993  1.00  0.00     0.002 A 
ATOM     94  C   UNL A   1      47.002  34.667  30.214  1.00  0.00     0.091 A 
ATOM     95  F   UNL A   1      47.140  32.318  30.608  1.00  0.00    -0.205 F 
ATOM     96  C   UNL A   1      46.789  35.725  29.317  1.00  0.00     0.022 A 
BRANCH  94  97
ATOM     97  S   UNL A   1      47.345  35.101  31.924  1.00  0.00     0.127 S 
ATOM     98  O   UNL A   1      46.993  36.520  31.947  1.00  0.00    -0.237 OA
ATOM     99  O   UNL A   1      46.424  34.231  32.655  1.00  0.00    -0.237 OA
ATOM    100  O   UNL A   1      48.756  34.807  32.140  1.00  0.00    -0.744 OA
ENDBRANCH  94  97
ENDBRANCH  67  90
ENDBRANCH  41  42
ENDBRANCH  34  36
ENDBRANCH  33  34
ENDBRANCH  32  33
ENDBRANCH  31  32
ENDBRANCH  30  31
ENDBRANCH  29  30
ENDBRANCH   1  29
TORSDOF 26
ENDMDL
MODEL 3
REMARK VINA RESULT:      -8.8      1.531      7.534
REMARK SMILES CC(C)[NH+](CCNC(=O)N[C@@H]1C=C[C@H](C(=O)OCCOCCOCCOC(=O)c2ccc(-c3c4nc(c(-c5cccc(S(=O)(=O)[O-])c5F)c5ccc([nH]5)c(-c5cccc(S(=O)(=O)[O-])c5F)c5nc(c(-c6cccc(S(=O)(=O)[O-])c6F)c6ccc3[nH]6)C=C5)C=C4)cc2)C1)C(C)C
REMARK SMILES IDX 21 1 20 2 19 3 18 4 17 5 15 6 16 7 14 8 11 9 12 10 92 11
REMARK SMILES IDX 13 12 10 13 7 14 8 15 9 17 6 19 5 20 4 21 2 23 1 24 3 25
REMARK SMILES IDX 93 26 94 27 95 28 22 29 23 30 24 31 25 32 26 33 27 34 28 35
REMARK SMILES IDX 29 36 30 37 91 38 31 39 90 40 32 41 33 42 34 43 84 44 35 45
REMARK SMILES IDX 89 46 83 47 85 48 36 49 88 50 82 51 81 52 37 54 69 55 49 56
REMARK SMILES IDX 68 57 50 58 53 59 67 60 86 61 51 62 52 63 66 65 87 66 54 67
REMARK SMILES IDX 38 68 39 69 47 70 40 71 42 72 48 73 41 74 43 75 44 76 45 77
REMARK SMILES IDX 46 78 70 79 71 80 79 81 72 82 74 83 80 84 73 85 75 86 76 87
REMARK SMILES IDX 77 88 78 89 55 90 56 91 64 92 57 93 59 94 65 95 58 96 60 97
REMARK SMILES IDX 61 98 62 99 63 100
REMARK H PARENT 7 16 10 18 4 22 85 53 53 64
REMARK Flexibility Score: inf
ROOT
ATOM      1  C   UNL A   1      38.476  21.560  25.673  1.00  0.00     0.188 C 
ENDROOT
BRANCH   1   2
ATOM      2  O   UNL A   1      37.837  22.823  25.626  1.00  0.00    -0.376 OA
BRANCH   2   3
ATOM      3  C   UNL A   1      36.436  22.843  25.853  1.00  0.00     0.202 C 
BRANCH   3   4
ATOM      4  C   UNL A   1      35.767  21.498  26.172  1.00  0.00     0.261 C 
BRANCH   4   5
ATOM      5  O   UNL A   1      35.092  20.898  25.058  1.00  0.00    -0.463 OA
BRANCH   5   6
ATOM      6  C   UNL A   1      34.587  21.696  24.076  1.00  0.00     0.312 C 
ATOM      7  O   UNL A   1      35.236  22.505  23.433  1.00  0.00    -0.252 OA
BRANCH   6   8
ATOM      8  C   UNL A   1      33.120  21.312  23.799  1.00  0.00     0.124 C 
ATOM      9  C   UNL A   1      31.847  23.226  24.510  1.00  0.00     0.107 C 
ATOM     10  C   UNL A   1      31.713  22.086  25.477  1.00  0.00    -0.006 C 
ATOM     11  C   UNL A   1      32.259  22.455  23.253  1.00  0.00     0.048 C 
ATOM     12  C   UNL A   1      32.406  21.017  25.085  1.00  0.00    -0.014 C 
BRANCH   9  13
ATOM     13  N   UNL A   1      32.936  24.108  24.885  1.00  0.00    -0.332 N 
ATOM     14  N   UNL A   1      32.970  25.916  23.393  1.00  0.00    -0.332 N 
ATOM     15  C   UNL A   1      33.459  25.238  24.424  1.00  0.00     0.315 C 
ATOM     16  H   UNL A   1      33.461  26.751  23.216  1.00  0.00     0.165 HD
ATOM     17  O   UNL A   1      34.452  25.700  24.987  1.00  0.00    -0.249 OA
ATOM     18  H   UNL A   1      33.407  23.787  25.689  1.00  0.00     0.165 HD
BRANCH  14  19
ATOM     19  C   UNL A   1      31.878  25.699  22.473  1.00  0.00     0.179 C 
BRANCH  19  20
ATOM     20  C   UNL A   1      31.074  26.989  22.190  1.00  0.00     0.284 C 
BRANCH  20  21
ATOM     21  N   UNL A   1      30.183  27.470  23.265  1.00  0.00    -0.330 N 
ATOM     22  H   UNL A   1      29.295  27.819  22.903  1.00  0.00     0.348 HD
BRANCH  21  23
ATOM     23  C   UNL A   1      30.588  28.768  23.826  1.00  0.00     0.177 C 
ATOM     24  C   UNL A   1      32.056  29.145  23.638  1.00  0.00     0.075 C 
ATOM     25  C   UNL A   1      29.708  29.969  23.451  1.00  0.00     0.075 C 
ENDBRANCH  21  23
BRANCH  21  26
ATOM     26  C   UNL A   1      29.558  26.393  24.043  1.00  0.00     0.177 C 
ATOM     27  C   UNL A   1      30.025  26.222  25.492  1.00  0.00     0.075 C 
ATOM     28  C   UNL A   1      28.024  26.431  24.011  1.00  0.00     0.075 C 
ENDBRANCH  21  26
ENDBRANCH  20  21
ENDBRANCH  19  20
ENDBRANCH  14  19
ENDBRANCH   9  13
ENDBRANCH   6   8
ENDBRANCH   5   6
ENDBRANCH   4   5
ENDBRANCH   3   4
ENDBRANCH   2   3
ENDBRANCH   1   2
BRANCH   1  29
ATOM     29  C   UNL A   1      39.867  21.620  26.350  1.00  0.00     0.188 C 
BRANCH  29  30
ATOM     30  O   UNL A   1      40.973  20.937  25.783  1.00  0.00    -0.376 OA
BRANCH  30  31
ATOM     31  C   UNL A   1      41.415  19.752  26.417  1.00  0.00     0.202 C 
BRANCH  31  32
ATOM     32  C   UNL A   1      42.638  19.011  25.842  1.00  0.00     0.261 C 
BRANCH  32  33
ATOM     33  O   UNL A   1      43.180  19.506  24.599  1.00  0.00    -0.460 OA
BRANCH  33  34
ATOM     34  C   UNL A   1      44.443  20.004  24.638  1.00  0.00     0.338 C 
ATOM     35  O   UNL A   1      45.438  19.500  24.128  1.00  0.00    -0.246 OA
BRANCH  34  36
ATOM     36  C   UNL A   1      44.451  21.373  25.215  1.00  0.00     0.060 A 
ATOM     37  C   UNL A   1      44.277  22.477  24.360  1.00  0.00     0.016 A 
ATOM     38  C   UNL A   1      44.684  21.584  26.574  1.00  0.00     0.016 A 
ATOM     39  C   UNL A   1      44.361  23.784  24.854  1.00  0.00     0.010 A 
ATOM     40  C   UNL A   1      44.797  22.896  27.061  1.00  0.00     0.010 A 
ATOM     41  C   UNL A   1      44.669  24.004  26.201  1.00  0.00    -0.014 A 
BRANCH  41  42
ATOM     42  C   UNL A   1      45.039  25.364  26.681  1.00  0.00     0.031 A 
ATOM     43  C   UNL A   1      43.952  26.263  27.212  1.00  0.00     0.074 A 
ATOM     44  C   UNL A   1      46.305  25.819  26.622  1.00  0.00     0.049 A 
ATOM     45  N   UNL A   1      44.013  27.515  27.583  1.00  0.00    -0.248 NA
ATOM     46  C   UNL A   1      42.611  25.666  27.329  1.00  0.00     0.031 C 
ATOM     47  C   UNL A   1      47.458  25.058  26.149  1.00  0.00     0.029 A 
ATOM     48  N   UNL A   1      46.822  27.057  26.928  1.00  0.00    -0.354 N 
ATOM     49  C   UNL A   1      42.717  27.872  27.935  1.00  0.00     0.074 A 
ATOM     50  C   UNL A   1      41.888  26.702  27.732  1.00  0.00     0.031 C 
ATOM     51  C   UNL A   1      48.540  25.857  26.155  1.00  0.00     0.029 A 
ATOM     52  C   UNL A   1      48.151  27.195  26.601  1.00  0.00     0.049 A 
ATOM     53  H   UNL A   1      46.291  27.775  27.343  1.00  0.00     0.167 HD
ATOM     54  C   UNL A   1      42.253  29.060  28.391  1.00  0.00     0.034 A 
ATOM     55  C   UNL A   1      48.952  28.281  26.620  1.00  0.00     0.034 A 
ATOM     56  C   UNL A   1      43.073  30.221  28.607  1.00  0.00     0.049 A 
ATOM     57  C   UNL A   1      48.406  29.604  27.099  1.00  0.00     0.074 A 
ATOM     58  C   UNL A   1      42.700  31.453  29.116  1.00  0.00     0.029 A 
ATOM     59  N   UNL A   1      44.422  30.306  28.306  1.00  0.00    -0.354 N 
ATOM     60  N   UNL A   1      47.203  29.896  27.533  1.00  0.00    -0.248 NA
ATOM     61  C   UNL A   1      49.338  30.744  27.119  1.00  0.00     0.031 C 
ATOM     62  C   UNL A   1      43.816  32.297  29.083  1.00  0.00     0.029 A 
ATOM     63  C   UNL A   1      44.894  31.574  28.602  1.00  0.00     0.049 A 
ATOM     64  H   UNL A   1      44.966  29.574  27.937  1.00  0.00     0.167 HD
ATOM     65  C   UNL A   1      47.246  31.233  27.915  1.00  0.00     0.074 A 
ATOM     66  C   UNL A   1      48.598  31.692  27.677  1.00  0.00     0.031 C 
ATOM     67  C   UNL A   1      46.254  32.012  28.414  1.00  0.00     0.034 A 
BRANCH  54  68
ATOM     68  C   UNL A   1      40.780  29.167  28.695  1.00  0.00     0.023 A 
ATOM     69  C   UNL A   1      39.856  29.357  27.648  1.00  0.00     0.012 A 
ATOM     70  C   UNL A   1      40.307  29.023  30.015  1.00  0.00     0.148 A 
ATOM     71  C   UNL A   1      38.490  29.440  27.912  1.00  0.00     0.002 A 
ATOM     72  C   UNL A   1      38.941  29.057  30.265  1.00  0.00     0.091 A 
ATOM     73  F   UNL A   1      41.202  28.861  31.000  1.00  0.00    -0.205 F 
ATOM     74  C   UNL A   1      38.032  29.278  29.217  1.00  0.00     0.022 A 
BRANCH  72  75
ATOM     75  S   UNL A   1      38.246  28.776  31.897  1.00  0.00     0.127 S 
ATOM     76  O   UNL A   1      36.823  29.011  31.655  1.00  0.00    -0.237 OA
ATOM     77  O   UNL A   1      38.601  27.378  32.144  1.00  0.00    -0.237 OA
ATOM     78  O   UNL A   1      38.894  29.735  32.780  1.00  0.00    -0.744 OA
ENDBRANCH  72  75
ENDBRANCH  54  68
BRANCH  55  79
ATOM     79  C   UNL A   1      50.374  28.171  26.179  1.00  0.00     0.023 A 
ATOM     80  C   UNL A   1      50.698  28.344  24.819  1.00  0.00     0.012 A 
ATOM     81  C   UNL A   1      51.402  27.889  27.100  1.00  0.00     0.148 A 
ATOM     82  C   UNL A   1      52.016  28.208  24.379  1.00  0.00     0.002 A 
ATOM     83  C   UNL A   1      52.719  27.811  26.664  1.00  0.00     0.091 A 
ATOM     84  F   UNL A   1      51.070  27.708  28.385  1.00  0.00    -0.205 F 
ATOM     85  C   UNL A   1      53.026  27.952  25.301  1.00  0.00     0.022 A 
BRANCH  83  86
ATOM     86  S   UNL A   1      54.100  27.603  27.794  1.00  0.00     0.127 S 
ATOM     87  O   UNL A   1      53.916  26.224  28.240  1.00  0.00    -0.237 OA
ATOM     88  O   UNL A   1      55.244  27.818  26.908  1.00  0.00    -0.237 OA
ATOM     89  O   UNL A   1      53.928  28.624  28.818  1.00  0.00    -0.744 OA
ENDBRANCH  83  86
ENDBRANCH  55  79
BRANCH  67  90
ATOM     90  C   UNL A   1      46.590  33.432  28.798  1.00  0.00     0.023 A 
ATOM     91  C   UNL A   1      47.230  33.707  30.023  1.00  0.00     0.012 A 
ATOM     92  C   UNL A   1      46.341  34.489  27.899  1.00  0.00     0.148 A 
ATOM     93  C   UNL A   1      47.584  35.013  30.362  1.00  0.00     0.002 A 
ATOM     94  C   UNL A   1      46.744  35.780  28.220  1.00  0.00     0.091 A 
ATOM     95  F   UNL A   1      45.717  34.213  26.744  1.00  0.00    -0.205 F 
ATOM     96  C   UNL A   1      47.352  36.047  29.457  1.00  0.00     0.022 A 
BRANCH  94  97
ATOM     97  S   UNL A   1      46.578  37.157  27.077  1.00  0.00     0.127 S 
ATOM     98  O   UNL A   1      47.414  36.719  25.960  1.00  0.00    -0.237 OA
ATOM     99  O   UNL A   1      45.141  37.157  26.800  1.00  0.00    -0.237 OA
ATOM    100  O   UNL A   1      47.058  38.334  27.790  1.00  0.00    -0.744 OA
ENDBRANCH  94  97
ENDBRANCH  67  90
ENDBRANCH  41  42
ENDBRANCH  34  36
ENDBRANCH  33  34
ENDBRANCH  32  33
ENDBRANCH  31  32
ENDBRANCH  30  31
ENDBRANCH  29  30
ENDBRANCH   1  29
TORSDOF 26
ENDMDL
