MODEL 1
REMARK VINA RESULT:      -6.0      0.000      0.000
REMARK SMILES CSCC[C@H](C(=O)OCCOCCOCCOC(=O)c1ccc(-c2c3nc(c(-c4cccc(S(=O)(=O)[O-])c4F)c4ccc([nH]4)c(-c4cccc(S(=O)(=O)[O-])c4F)c4nc(c(-c5cccc(S(=O)(=O)[O-])c5F)c5ccc2[nH]5)C=C4)C=C3)cc1)N1C(=O)/C(=C/c2ccc3ncccc3c2)SC1=S
REMARK SMILES IDX 12 1 11 2 10 3 9 4 8 5 6 6 7 7 5 8 4 9 3 10 2 11 1 12 83 13
REMARK SMILES IDX 84 14 99 15 85 16 86 17 98 18 100 19 87 20 88 21 89 22 97 23
REMARK SMILES IDX 90 24 96 25 91 26 95 27 92 28 94 29 93 30 13 31 14 32 15 33
REMARK SMILES IDX 16 34 17 35 18 36 19 37 20 38 21 39 82 40 22 41 81 42 23 43
REMARK SMILES IDX 24 44 25 45 75 46 26 47 80 48 74 49 76 50 27 51 79 52 73 53
REMARK SMILES IDX 72 54 28 56 60 57 40 58 59 59 41 60 44 61 58 62 77 63 42 64
REMARK SMILES IDX 43 65 57 67 78 68 45 69 29 70 30 71 38 72 31 73 33 74 39 75
REMARK SMILES IDX 32 76 34 77 35 78 36 79 37 80 61 81 62 82 70 83 63 84 65 85
REMARK SMILES IDX 71 86 64 87 66 88 67 89 68 90 69 91 46 92 47 93 55 94 48 95
REMARK SMILES IDX 50 96 56 97 49 98 51 99 52 100 53 101 54 102
REMARK H PARENT 76 55 44 66
REMARK Flexibility Score: inf
ROOT
ATOM      1  C   UNL A   1      47.877  25.195  24.712  1.00  0.00     0.188 C 
ENDROOT
BRANCH   1   2
ATOM      2  O   UNL A   1      46.820  24.535  25.378  1.00  0.00    -0.376 OA
BRANCH   2   3
ATOM      3  C   UNL A   1      45.517  24.547  24.815  1.00  0.00     0.202 C 
BRANCH   3   4
ATOM      4  C   UNL A   1      44.435  25.474  25.383  1.00  0.00     0.261 C 
BRANCH   4   5
ATOM      5  O   UNL A   1      44.821  26.101  26.618  1.00  0.00    -0.462 OA
BRANCH   5   6
ATOM      6  C   UNL A   1      44.600  25.394  27.755  1.00  0.00     0.329 C 
ATOM      7  O   UNL A   1      45.466  25.182  28.600  1.00  0.00    -0.250 OA
BRANCH   6   8
ATOM      8  C   UNL A   1      43.098  25.101  28.036  1.00  0.00     0.202 C 
BRANCH   8   9
ATOM      9  C   UNL A   1      43.117  23.892  29.042  1.00  0.00     0.048 C 
BRANCH   9  10
ATOM     10  C   UNL A   1      42.666  22.492  28.612  1.00  0.00     0.072 C 
BRANCH  10  11
ATOM     11  S   UNL A   1      42.730  22.081  26.841  1.00  0.00    -0.165 SA
ATOM     12  C   UNL A   1      41.650  20.642  26.734  1.00  0.00     0.085 C 
ENDBRANCH  10  11
ENDBRANCH   9  10
ENDBRANCH   8   9
BRANCH   8  13
ATOM     13  N   UNL A   1      42.179  26.193  28.501  1.00  0.00    -0.278 N 
ATOM     14  C   UNL A   1      42.506  27.071  29.528  1.00  0.00     0.266 C 
ATOM     15  C   UNL A   1      41.113  26.661  27.753  1.00  0.00     0.149 C 
ATOM     16  O   UNL A   1      43.625  27.308  29.961  1.00  0.00    -0.268 OA
ATOM     17  C   UNL A   1      41.337  27.932  29.882  1.00  0.00     0.081 C 
ATOM     18  S   UNL A   1      40.091  27.685  28.732  1.00  0.00    -0.054 SA
ATOM     19  S   UNL A   1      40.786  26.493  26.129  1.00  0.00    -0.052 S 
ATOM     20  C   UNL A   1      41.357  28.846  30.865  1.00  0.00     0.029 C 
BRANCH  20  21
ATOM     21  C   UNL A   1      40.324  29.882  31.034  1.00  0.00    -0.024 A 
ATOM     22  C   UNL A   1      39.393  29.724  32.061  1.00  0.00     0.010 A 
ATOM     23  C   UNL A   1      40.322  31.071  30.300  1.00  0.00     0.018 A 
ATOM     24  C   UNL A   1      38.532  30.775  32.399  1.00  0.00     0.029 A 
ATOM     25  C   UNL A   1      39.492  32.143  30.679  1.00  0.00     0.001 A 
ATOM     26  C   UNL A   1      38.585  31.999  31.749  1.00  0.00     0.070 A 
ATOM     27  C   UNL A   1      39.573  33.393  30.051  1.00  0.00     0.012 A 
ATOM     28  N   UNL A   1      37.803  33.008  32.174  1.00  0.00    -0.256 NA
ATOM     29  C   UNL A   1      38.788  34.446  30.504  1.00  0.00     0.021 A 
ATOM     30  C   UNL A   1      37.927  34.204  31.557  1.00  0.00     0.112 A 
ENDBRANCH  20  21
ENDBRANCH   8  13
ENDBRANCH   6   8
ENDBRANCH   5   6
ENDBRANCH   4   5
ENDBRANCH   3   4
ENDBRANCH   2   3
ENDBRANCH   1   2
BRANCH   1  31
ATOM     31  C   UNL A   1      48.494  26.470  25.328  1.00  0.00     0.188 C 
BRANCH  31  32
ATOM     32  O   UNL A   1      49.767  26.465  25.943  1.00  0.00    -0.376 OA
BRANCH  32  33
ATOM     33  C   UNL A   1      50.870  26.949  25.196  1.00  0.00     0.202 C 
BRANCH  33  34
ATOM     34  C   UNL A   1      51.749  28.063  25.780  1.00  0.00     0.261 C 
BRANCH  34  35
ATOM     35  O   UNL A   1      51.047  29.048  26.558  1.00  0.00    -0.460 OA
BRANCH  35  36
ATOM     36  C   UNL A   1      51.231  28.983  27.901  1.00  0.00     0.338 C 
ATOM     37  O   UNL A   1      52.293  28.822  28.490  1.00  0.00    -0.246 OA
BRANCH  36  38
ATOM     38  C   UNL A   1      49.982  29.356  28.596  1.00  0.00     0.060 A 
ATOM     39  C   UNL A   1      50.054  29.780  29.932  1.00  0.00     0.016 A 
ATOM     40  C   UNL A   1      48.747  29.255  27.957  1.00  0.00     0.016 A 
ATOM     41  C   UNL A   1      48.893  30.120  30.628  1.00  0.00     0.010 A 
ATOM     42  C   UNL A   1      47.582  29.563  28.668  1.00  0.00     0.010 A 
ATOM     43  C   UNL A   1      47.646  29.987  30.009  1.00  0.00    -0.014 A 
BRANCH  43  44
ATOM     44  C   UNL A   1      46.398  30.186  30.788  1.00  0.00     0.031 A 
ATOM     45  C   UNL A   1      45.716  31.524  30.752  1.00  0.00     0.074 A 
ATOM     46  C   UNL A   1      45.894  29.194  31.546  1.00  0.00     0.049 A 
ATOM     47  N   UNL A   1      44.688  31.948  31.439  1.00  0.00    -0.248 NA
ATOM     48  C   UNL A   1      46.265  32.517  29.813  1.00  0.00     0.031 C 
ATOM     49  C   UNL A   1      46.442  27.842  31.646  1.00  0.00     0.029 A 
ATOM     50  N   UNL A   1      44.823  29.187  32.408  1.00  0.00    -0.354 N 
ATOM     51  C   UNL A   1      44.490  33.267  31.050  1.00  0.00     0.074 A 
ATOM     52  C   UNL A   1      45.496  33.571  30.055  1.00  0.00     0.031 C 
ATOM     53  C   UNL A   1      45.734  27.150  32.554  1.00  0.00     0.029 A 
ATOM     54  C   UNL A   1      44.708  28.021  33.128  1.00  0.00     0.049 A 
ATOM     55  H   UNL A   1      44.199  29.943  32.500  1.00  0.00     0.167 HD
ATOM     56  C   UNL A   1      43.555  34.145  31.483  1.00  0.00     0.034 A 
ATOM     57  C   UNL A   1      43.903  27.708  34.164  1.00  0.00     0.034 A 
ATOM     58  C   UNL A   1      42.544  33.839  32.459  1.00  0.00     0.049 A 
ATOM     59  C   UNL A   1      42.905  28.726  34.660  1.00  0.00     0.074 A 
ATOM     60  C   UNL A   1      41.523  34.653  32.920  1.00  0.00     0.029 A 
ATOM     61  N   UNL A   1      42.437  32.639  33.144  1.00  0.00    -0.354 N 
ATOM     62  N   UNL A   1      42.653  29.929  34.204  1.00  0.00    -0.248 NA
ATOM     63  C   UNL A   1      42.065  28.333  35.802  1.00  0.00     0.031 C 
ATOM     64  C   UNL A   1      40.825  33.959  33.913  1.00  0.00     0.029 A 
ATOM     65  C   UNL A   1      41.386  32.699  34.042  1.00  0.00     0.049 A 
ATOM     66  H   UNL A   1      43.024  31.859  33.010  1.00  0.00     0.167 HD
ATOM     67  C   UNL A   1      41.608  30.422  34.980  1.00  0.00     0.074 A 
ATOM     68  C   UNL A   1      41.254  29.376  35.917  1.00  0.00     0.031 C 
ATOM     69  C   UNL A   1      41.007  31.636  34.936  1.00  0.00     0.034 A 
BRANCH  56  70
ATOM     70  C   UNL A   1      43.568  35.534  30.905  1.00  0.00     0.023 A 
ATOM     71  C   UNL A   1      44.239  36.570  31.582  1.00  0.00     0.012 A 
ATOM     72  C   UNL A   1      42.993  35.785  29.643  1.00  0.00     0.148 A 
ATOM     73  C   UNL A   1      44.326  37.843  31.019  1.00  0.00     0.002 A 
ATOM     74  C   UNL A   1      43.120  37.044  29.069  1.00  0.00     0.091 A 
ATOM     75  F   UNL A   1      42.342  34.789  29.028  1.00  0.00    -0.205 F 
ATOM     76  C   UNL A   1      43.778  38.076  29.759  1.00  0.00     0.022 A 
BRANCH  74  77
ATOM     77  S   UNL A   1      42.520  37.424  27.419  1.00  0.00     0.127 S 
ATOM     78  O   UNL A   1      41.987  38.774  27.605  1.00  0.00    -0.237 OA
ATOM     79  O   UNL A   1      43.747  37.357  26.626  1.00  0.00    -0.237 OA
ATOM     80  O   UNL A   1      41.530  36.405  27.104  1.00  0.00    -0.744 OA
ENDBRANCH  74  77
ENDBRANCH  56  70
BRANCH  57  81
ATOM     81  C   UNL A   1      44.010  26.377  34.831  1.00  0.00     0.023 A 
ATOM     82  C   UNL A   1      43.340  25.266  34.285  1.00  0.00     0.012 A 
ATOM     83  C   UNL A   1      44.747  26.217  36.021  1.00  0.00     0.148 A 
ATOM     84  C   UNL A   1      43.364  24.031  34.935  1.00  0.00     0.002 A 
ATOM     85  C   UNL A   1      44.817  24.970  36.631  1.00  0.00     0.091 A 
ATOM     86  F   UNL A   1      45.359  27.291  36.540  1.00  0.00    -0.205 F 
ATOM     87  C   UNL A   1      44.108  23.880  36.103  1.00  0.00     0.022 A 
BRANCH  85  88
ATOM     88  S   UNL A   1      45.851  24.660  38.066  1.00  0.00     0.127 S 
ATOM     89  O   UNL A   1      45.138  25.386  39.113  1.00  0.00    -0.237 OA
ATOM     90  O   UNL A   1      45.789  23.202  38.175  1.00  0.00    -0.237 OA
ATOM     91  O   UNL A   1      47.168  25.179  37.719  1.00  0.00    -0.744 OA
ENDBRANCH  85  88
ENDBRANCH  57  81
BRANCH  69  92
ATOM     92  C   UNL A   1      39.879  31.901  35.902  1.00  0.00     0.023 A 
ATOM     93  C   UNL A   1      38.584  31.424  35.618  1.00  0.00     0.012 A 
ATOM     94  C   UNL A   1      40.120  32.557  37.127  1.00  0.00     0.148 A 
ATOM     95  C   UNL A   1      37.539  31.627  36.520  1.00  0.00     0.002 A 
ATOM     96  C   UNL A   1      39.086  32.709  38.044  1.00  0.00     0.091 A 
ATOM     97  F   UNL A   1      41.356  33.014  37.375  1.00  0.00    -0.205 F 
ATOM     98  C   UNL A   1      37.792  32.257  37.736  1.00  0.00     0.022 A 
BRANCH  96  99
ATOM     99  S   UNL A   1      39.335  33.420  39.675  1.00  0.00     0.127 S 
ATOM    100  O   UNL A   1      40.248  32.454  40.284  1.00  0.00    -0.237 OA
ATOM    101  O   UNL A   1      39.940  34.715  39.358  1.00  0.00    -0.237 OA
ATOM    102  O   UNL A   1      38.016  33.501  40.286  1.00  0.00    -0.744 OA
ENDBRANCH  96  99
ENDBRANCH  69  92
ENDBRANCH  43  44
ENDBRANCH  36  38
ENDBRANCH  35  36
ENDBRANCH  34  35
ENDBRANCH  33  34
ENDBRANCH  32  33
ENDBRANCH  31  32
ENDBRANCH   1  31
TORSDOF 25
ENDMDL
MODEL 2
REMARK VINA RESULT:      -6.0      4.026      7.306
REMARK SMILES CSCC[C@H](C(=O)OCCOCCOCCOC(=O)c1ccc(-c2c3nc(c(-c4cccc(S(=O)(=O)[O-])c4F)c4ccc([nH]4)c(-c4cccc(S(=O)(=O)[O-])c4F)c4nc(c(-c5cccc(S(=O)(=O)[O-])c5F)c5ccc2[nH]5)C=C4)C=C3)cc1)N1C(=O)/C(=C/c2ccc3ncccc3c2)SC1=S
REMARK SMILES IDX 12 1 11 2 10 3 9 4 8 5 6 6 7 7 5 8 4 9 3 10 2 11 1 12 83 13
REMARK SMILES IDX 84 14 99 15 85 16 86 17 98 18 100 19 87 20 88 21 89 22 97 23
REMARK SMILES IDX 90 24 96 25 91 26 95 27 92 28 94 29 93 30 13 31 14 32 15 33
REMARK SMILES IDX 16 34 17 35 18 36 19 37 20 38 21 39 82 40 22 41 81 42 23 43
REMARK SMILES IDX 24 44 25 45 75 46 26 47 80 48 74 49 76 50 27 51 79 52 73 53
REMARK SMILES IDX 72 54 28 56 60 57 40 58 59 59 41 60 44 61 58 62 77 63 42 64
REMARK SMILES IDX 43 65 57 67 78 68 45 69 29 70 30 71 38 72 31 73 33 74 39 75
REMARK SMILES IDX 32 76 34 77 35 78 36 79 37 80 61 81 62 82 70 83 63 84 65 85
REMARK SMILES IDX 71 86 64 87 66 88 67 89 68 90 69 91 46 92 47 93 55 94 48 95
REMARK SMILES IDX 50 96 56 97 49 98 51 99 52 100 53 101 54 102
REMARK H PARENT 76 55 44 66
REMARK Flexibility Score: inf
ROOT
ATOM      1  C   UNL A   1      46.119  26.319  25.579  1.00  0.00     0.188 C 
ENDROOT
BRANCH   1   2
ATOM      2  O   UNL A   1      46.616  26.416  24.261  1.00  0.00    -0.376 OA
BRANCH   2   3
ATOM      3  C   UNL A   1      47.828  27.115  24.015  1.00  0.00     0.202 C 
BRANCH   3   4
ATOM      4  C   UNL A   1      49.146  26.622  24.626  1.00  0.00     0.261 C 
BRANCH   4   5
ATOM      5  O   UNL A   1      49.409  27.181  25.924  1.00  0.00    -0.462 OA
BRANCH   5   6
ATOM      6  C   UNL A   1      49.970  28.417  25.953  1.00  0.00     0.329 C 
ATOM      7  O   UNL A   1      50.513  28.937  24.983  1.00  0.00    -0.250 OA
BRANCH   6   8
ATOM      8  C   UNL A   1      49.636  29.233  27.236  1.00  0.00     0.202 C 
BRANCH   8   9
ATOM      9  C   UNL A   1      50.006  30.715  26.863  1.00  0.00     0.048 C 
BRANCH   9  10
ATOM     10  C   UNL A   1      49.683  31.878  27.807  1.00  0.00     0.072 C 
BRANCH  10  11
ATOM     11  S   UNL A   1      49.227  33.476  27.068  1.00  0.00    -0.165 SA
ATOM     12  C   UNL A   1      47.496  33.228  26.634  1.00  0.00     0.085 C 
ENDBRANCH  10  11
ENDBRANCH   9  10
ENDBRANCH   8   9
BRANCH   8  13
ATOM     13  N   UNL A   1      48.277  29.145  27.867  1.00  0.00    -0.278 N 
ATOM     14  C   UNL A   1      47.116  29.568  27.228  1.00  0.00     0.266 C 
ATOM     15  C   UNL A   1      47.992  28.333  28.950  1.00  0.00     0.149 C 
ATOM     16  O   UNL A   1      46.966  29.751  26.028  1.00  0.00    -0.268 OA
ATOM     17  C   UNL A   1      45.949  29.517  28.160  1.00  0.00     0.081 C 
ATOM     18  S   UNL A   1      46.421  28.728  29.606  1.00  0.00    -0.054 SA
ATOM     19  S   UNL A   1      48.834  27.037  29.572  1.00  0.00    -0.052 S 
ATOM     20  C   UNL A   1      44.709  29.904  27.820  1.00  0.00     0.029 C 
BRANCH  20  21
ATOM     21  C   UNL A   1      43.513  29.596  28.622  1.00  0.00    -0.024 A 
ATOM     22  C   UNL A   1      42.979  30.604  29.425  1.00  0.00     0.010 A 
ATOM     23  C   UNL A   1      42.820  28.388  28.507  1.00  0.00     0.018 A 
ATOM     24  C   UNL A   1      41.730  30.432  30.034  1.00  0.00     0.029 A 
ATOM     25  C   UNL A   1      41.541  28.241  29.077  1.00  0.00     0.001 A 
ATOM     26  C   UNL A   1      40.981  29.281  29.849  1.00  0.00     0.070 A 
ATOM     27  C   UNL A   1      40.765  27.096  28.857  1.00  0.00     0.012 A 
ATOM     28  N   UNL A   1      39.746  29.203  30.377  1.00  0.00    -0.256 NA
ATOM     29  C   UNL A   1      39.479  27.022  29.377  1.00  0.00     0.021 A 
ATOM     30  C   UNL A   1      39.021  28.091  30.123  1.00  0.00     0.112 A 
ENDBRANCH  20  21
ENDBRANCH   8  13
ENDBRANCH   6   8
ENDBRANCH   5   6
ENDBRANCH   4   5
ENDBRANCH   3   4
ENDBRANCH   2   3
ENDBRANCH   1   2
BRANCH   1  31
ATOM     31  C   UNL A   1      44.619  26.571  25.854  1.00  0.00     0.188 C 
BRANCH  31  32
ATOM     32  O   UNL A   1      43.605  26.004  25.050  1.00  0.00    -0.376 OA
BRANCH  32  33
ATOM     33  C   UNL A   1      43.428  24.598  25.093  1.00  0.00     0.202 C 
BRANCH  33  34
ATOM     34  C   UNL A   1      42.724  23.961  26.298  1.00  0.00     0.261 C 
BRANCH  34  35
ATOM     35  O   UNL A   1      43.318  22.740  26.775  1.00  0.00    -0.460 OA
BRANCH  35  36
ATOM     36  C   UNL A   1      44.579  22.847  27.263  1.00  0.00     0.338 C 
ATOM     37  O   UNL A   1      45.624  22.672  26.647  1.00  0.00    -0.246 OA
BRANCH  36  38
ATOM     38  C   UNL A   1      44.544  23.428  28.621  1.00  0.00     0.060 A 
ATOM     39  C   UNL A   1      45.448  24.453  28.940  1.00  0.00     0.016 A 
ATOM     40  C   UNL A   1      43.657  22.947  29.583  1.00  0.00     0.016 A 
ATOM     41  C   UNL A   1      45.458  25.011  30.220  1.00  0.00     0.010 A 
ATOM     42  C   UNL A   1      43.693  23.486  30.876  1.00  0.00     0.010 A 
ATOM     43  C   UNL A   1      44.599  24.512  31.205  1.00  0.00    -0.014 A 
BRANCH  43  44
ATOM     44  C   UNL A   1      44.715  24.982  32.608  1.00  0.00     0.031 A 
ATOM     45  C   UNL A   1      44.310  26.389  32.945  1.00  0.00     0.074 A 
ATOM     46  C   UNL A   1      45.204  24.174  33.567  1.00  0.00     0.049 A 
ATOM     47  N   UNL A   1      44.433  27.037  34.073  1.00  0.00    -0.248 NA
ATOM     48  C   UNL A   1      43.679  27.170  31.867  1.00  0.00     0.031 C 
ATOM     49  C   UNL A   1      45.605  22.781  33.377  1.00  0.00     0.029 A 
ATOM     50  N   UNL A   1      45.483  24.427  34.889  1.00  0.00    -0.354 N 
ATOM     51  C   UNL A   1      43.937  28.313  33.834  1.00  0.00     0.074 A 
ATOM     52  C   UNL A   1      43.496  28.344  32.456  1.00  0.00     0.031 C 
ATOM     53  C   UNL A   1      46.122  22.315  34.527  1.00  0.00     0.029 A 
ATOM     54  C   UNL A   1      46.125  23.388  35.521  1.00  0.00     0.049 A 
ATOM     55  H   UNL A   1      45.246  25.270  35.339  1.00  0.00     0.167 HD
ATOM     56  C   UNL A   1      43.855  29.362  34.685  1.00  0.00     0.034 A 
ATOM     57  C   UNL A   1      46.694  23.325  36.742  1.00  0.00     0.034 A 
ATOM     58  C   UNL A   1      44.277  29.328  36.060  1.00  0.00     0.049 A 
ATOM     59  C   UNL A   1      46.634  24.528  37.651  1.00  0.00     0.074 A 
ATOM     60  C   UNL A   1      44.185  30.330  37.011  1.00  0.00     0.029 A 
ATOM     61  N   UNL A   1      44.893  28.249  36.676  1.00  0.00    -0.354 N 
ATOM     62  N   UNL A   1      46.058  25.689  37.451  1.00  0.00    -0.248 NA
ATOM     63  C   UNL A   1      47.285  24.405  38.964  1.00  0.00     0.031 C 
ATOM     64  C   UNL A   1      44.781  29.871  38.189  1.00  0.00     0.029 A 
ATOM     65  C   UNL A   1      45.210  28.571  37.984  1.00  0.00     0.049 A 
ATOM     66  H   UNL A   1      45.077  27.383  36.244  1.00  0.00     0.167 HD
ATOM     67  C   UNL A   1      46.250  26.419  38.620  1.00  0.00     0.074 A 
ATOM     68  C   UNL A   1      46.970  25.559  39.536  1.00  0.00     0.031 C 
ATOM     69  C   UNL A   1      45.881  27.692  38.906  1.00  0.00     0.034 A 
BRANCH  56  70
ATOM     70  C   UNL A   1      43.283  30.653  34.164  1.00  0.00     0.023 A 
ATOM     71  C   UNL A   1      44.121  31.583  33.520  1.00  0.00     0.012 A 
ATOM     72  C   UNL A   1      41.897  30.896  34.233  1.00  0.00     0.148 A 
ATOM     73  C   UNL A   1      43.590  32.746  32.963  1.00  0.00     0.002 A 
ATOM     74  C   UNL A   1      41.369  32.036  33.639  1.00  0.00     0.091 A 
ATOM     75  F   UNL A   1      41.123  30.006  34.869  1.00  0.00    -0.205 F 
ATOM     76  C   UNL A   1      42.215  32.966  33.012  1.00  0.00     0.022 A 
BRANCH  74  77
ATOM     77  S   UNL A   1      39.606  32.370  33.577  1.00  0.00     0.127 S 
ATOM     78  O   UNL A   1      39.082  31.094  33.089  1.00  0.00    -0.237 OA
ATOM     79  O   UNL A   1      39.301  32.659  34.978  1.00  0.00    -0.237 OA
ATOM     80  O   UNL A   1      39.439  33.496  32.669  1.00  0.00    -0.744 OA
ENDBRANCH  74  77
ENDBRANCH  56  70
BRANCH  57  81
ATOM     81  C   UNL A   1      47.398  22.086  37.186  1.00  0.00     0.023 A 
ATOM     82  C   UNL A   1      48.638  21.744  36.615  1.00  0.00     0.012 A 
ATOM     83  C   UNL A   1      46.826  21.229  38.147  1.00  0.00     0.148 A 
ATOM     84  C   UNL A   1      49.275  20.550  36.958  1.00  0.00     0.002 A 
ATOM     85  C   UNL A   1      47.495  20.072  38.530  1.00  0.00     0.091 A 
ATOM     86  F   UNL A   1      45.634  21.557  38.663  1.00  0.00    -0.205 F 
ATOM     87  C   UNL A   1      48.709  19.718  37.921  1.00  0.00     0.022 A 
BRANCH  85  88
ATOM     88  S   UNL A   1      46.897  19.010  39.849  1.00  0.00     0.127 S 
ATOM     89  O   UNL A   1      47.931  17.981  39.898  1.00  0.00    -0.237 OA
ATOM     90  O   UNL A   1      46.884  19.925  40.991  1.00  0.00    -0.237 OA
ATOM     91  O   UNL A   1      45.577  18.563  39.425  1.00  0.00    -0.744 OA
ENDBRANCH  85  88
ENDBRANCH  57  81
BRANCH  69  92
ATOM     92  C   UNL A   1      46.215  28.233  40.274  1.00  0.00     0.023 A 
ATOM     93  C   UNL A   1      45.362  27.964  41.363  1.00  0.00     0.012 A 
ATOM     94  C   UNL A   1      47.412  28.944  40.494  1.00  0.00     0.148 A 
ATOM     95  C   UNL A   1      45.676  28.424  42.642  1.00  0.00     0.002 A 
ATOM     96  C   UNL A   1      47.745  29.354  41.780  1.00  0.00     0.091 A 
ATOM     97  F   UNL A   1      48.205  29.201  39.444  1.00  0.00    -0.205 F 
ATOM     98  C   UNL A   1      46.872  29.107  42.852  1.00  0.00     0.022 A 
BRANCH  96  99
ATOM     99  S   UNL A   1      49.307  30.154  42.167  1.00  0.00     0.127 S 
ATOM    100  O   UNL A   1      50.272  29.198  41.627  1.00  0.00    -0.237 OA
ATOM    101  O   UNL A   1      49.206  31.407  41.418  1.00  0.00    -0.237 OA
ATOM    102  O   UNL A   1      49.331  30.313  43.615  1.00  0.00    -0.744 OA
ENDBRANCH  96  99
ENDBRANCH  69  92
ENDBRANCH  43  44
ENDBRANCH  36  38
ENDBRANCH  35  36
ENDBRANCH  34  35
ENDBRANCH  33  34
ENDBRANCH  32  33
ENDBRANCH  31  32
ENDBRANCH   1  31
TORSDOF 25
ENDMDL
MODEL 3
REMARK VINA RESULT:      -5.1      3.945      8.460
REMARK SMILES CSCC[C@H](C(=O)OCCOCCOCCOC(=O)c1ccc(-c2c3nc(c(-c4cccc(S(=O)(=O)[O-])c4F)c4ccc([nH]4)c(-c4cccc(S(=O)(=O)[O-])c4F)c4nc(c(-c5cccc(S(=O)(=O)[O-])c5F)c5ccc2[nH]5)C=C4)C=C3)cc1)N1C(=O)/C(=C/c2ccc3ncccc3c2)SC1=S
REMARK SMILES IDX 12 1 11 2 10 3 9 4 8 5 6 6 7 7 5 8 4 9 3 10 2 11 1 12 83 13
REMARK SMILES IDX 84 14 99 15 85 16 86 17 98 18 100 19 87 20 88 21 89 22 97 23
REMARK SMILES IDX 90 24 96 25 91 26 95 27 92 28 94 29 93 30 13 31 14 32 15 33
REMARK SMILES IDX 16 34 17 35 18 36 19 37 20 38 21 39 82 40 22 41 81 42 23 43
REMARK SMILES IDX 24 44 25 45 75 46 26 47 80 48 74 49 76 50 27 51 79 52 73 53
REMARK SMILES IDX 72 54 28 56 60 57 40 58 59 59 41 60 44 61 58 62 77 63 42 64
REMARK SMILES IDX 43 65 57 67 78 68 45 69 29 70 30 71 38 72 31 73 33 74 39 75
REMARK SMILES IDX 32 76 34 77 35 78 36 79 37 80 61 81 62 82 70 83 63 84 65 85
REMARK SMILES IDX 71 86 64 87 66 88 67 89 68 90 69 91 46 92 47 93 55 94 48 95
REMARK SMILES IDX 50 96 56 97 49 98 51 99 52 100 53 101 54 102
REMARK H PARENT 76 55 44 66
REMARK Flexibility Score: inf
ROOT
ATOM      1  C   UNL A   1      50.482  25.986  25.549  1.00  0.00     0.188 C 
ENDROOT
BRANCH   1   2
ATOM      2  O   UNL A   1      49.161  26.116  25.065  1.00  0.00    -0.376 OA
BRANCH   2   3
ATOM      3  C   UNL A   1      48.087  25.533  25.787  1.00  0.00     0.202 C 
BRANCH   3   4
ATOM      4  C   UNL A   1      46.641  25.964  25.511  1.00  0.00     0.261 C 
BRANCH   4   5
ATOM      5  O   UNL A   1      45.906  25.003  24.735  1.00  0.00    -0.462 OA
BRANCH   5   6
ATOM      6  C   UNL A   1      45.475  23.893  25.388  1.00  0.00     0.329 C 
ATOM      7  O   UNL A   1      46.226  23.119  25.975  1.00  0.00    -0.250 OA
BRANCH   6   8
ATOM      8  C   UNL A   1      43.931  23.821  25.563  1.00  0.00     0.202 C 
BRANCH   8   9
ATOM      9  C   UNL A   1      43.651  22.323  25.954  1.00  0.00     0.048 C 
BRANCH   9  10
ATOM     10  C   UNL A   1      42.273  21.690  25.742  1.00  0.00     0.072 C 
BRANCH  10  11
ATOM     11  S   UNL A   1      41.067  21.796  27.100  1.00  0.00    -0.165 SA
ATOM     12  C   UNL A   1      39.491  21.817  26.224  1.00  0.00     0.085 C 
ENDBRANCH  10  11
ENDBRANCH   9  10
ENDBRANCH   8   9
BRANCH   8  13
ATOM     13  N   UNL A   1      43.219  24.773  26.480  1.00  0.00    -0.278 N 
ATOM     14  C   UNL A   1      42.049  25.435  26.125  1.00  0.00     0.266 C 
ATOM     15  C   UNL A   1      43.431  24.814  27.847  1.00  0.00     0.149 C 
ATOM     16  O   UNL A   1      41.279  25.129  25.224  1.00  0.00    -0.268 OA
ATOM     17  C   UNL A   1      41.670  26.438  27.165  1.00  0.00     0.081 C 
ATOM     18  S   UNL A   1      42.686  26.240  28.531  1.00  0.00    -0.054 SA
ATOM     19  S   UNL A   1      44.133  23.694  28.859  1.00  0.00    -0.052 S 
ATOM     20  C   UNL A   1      40.603  27.246  27.066  1.00  0.00     0.029 C 
BRANCH  20  21
ATOM     21  C   UNL A   1      40.064  28.025  28.193  1.00  0.00    -0.024 A 
ATOM     22  C   UNL A   1      39.658  29.339  27.955  1.00  0.00     0.010 A 
ATOM     23  C   UNL A   1      39.818  27.462  29.449  1.00  0.00     0.018 A 
ATOM     24  C   UNL A   1      38.946  30.045  28.931  1.00  0.00     0.029 A 
ATOM     25  C   UNL A   1      39.055  28.156  30.406  1.00  0.00     0.001 A 
ATOM     26  C   UNL A   1      38.604  29.467  30.144  1.00  0.00     0.070 A 
ATOM     27  C   UNL A   1      38.673  27.560  31.615  1.00  0.00     0.012 A 
ATOM     28  N   UNL A   1      37.837  30.153  31.011  1.00  0.00    -0.256 NA
ATOM     29  C   UNL A   1      37.858  28.253  32.501  1.00  0.00     0.021 A 
ATOM     30  C   UNL A   1      37.472  29.534  32.156  1.00  0.00     0.112 A 
ENDBRANCH  20  21
ENDBRANCH   8  13
ENDBRANCH   6   8
ENDBRANCH   5   6
ENDBRANCH   4   5
ENDBRANCH   3   4
ENDBRANCH   2   3
ENDBRANCH   1   2
BRANCH   1  31
ATOM     31  C   UNL A   1      51.047  27.038  26.530  1.00  0.00     0.188 C 
BRANCH  31  32
ATOM     32  O   UNL A   1      50.470  27.264  27.800  1.00  0.00    -0.376 OA
BRANCH  32  33
ATOM     33  C   UNL A   1      50.274  26.148  28.652  1.00  0.00     0.202 C 
BRANCH  33  34
ATOM     34  C   UNL A   1      49.164  26.190  29.711  1.00  0.00     0.261 C 
BRANCH  34  35
ATOM     35  O   UNL A   1      47.857  26.522  29.210  1.00  0.00    -0.460 OA
BRANCH  35  36
ATOM     36  C   UNL A   1      46.860  26.548  30.130  1.00  0.00     0.338 C 
ATOM     37  O   UNL A   1      46.377  25.588  30.718  1.00  0.00    -0.246 OA
BRANCH  36  38
ATOM     38  C   UNL A   1      46.563  27.946  30.506  1.00  0.00     0.060 A 
ATOM     39  C   UNL A   1      45.621  28.662  29.752  1.00  0.00     0.016 A 
ATOM     40  C   UNL A   1      47.229  28.560  31.566  1.00  0.00     0.016 A 
ATOM     41  C   UNL A   1      45.330  29.990  30.064  1.00  0.00     0.010 A 
ATOM     42  C   UNL A   1      46.960  29.903  31.855  1.00  0.00     0.010 A 
ATOM     43  C   UNL A   1      46.018  30.629  31.102  1.00  0.00    -0.014 A 
BRANCH  43  44
ATOM     44  C   UNL A   1      45.838  32.084  31.336  1.00  0.00     0.031 A 
ATOM     45  C   UNL A   1      44.854  32.543  32.374  1.00  0.00     0.074 A 
ATOM     46  C   UNL A   1      46.521  32.988  30.610  1.00  0.00     0.049 A 
ATOM     47  N   UNL A   1      44.459  33.755  32.661  1.00  0.00    -0.248 NA
ATOM     48  C   UNL A   1      44.233  31.495  33.202  1.00  0.00     0.031 C 
ATOM     49  C   UNL A   1      47.525  32.675  29.594  1.00  0.00     0.029 A 
ATOM     50  N   UNL A   1      46.443  34.361  30.592  1.00  0.00    -0.354 N 
ATOM     51  C   UNL A   1      43.515  33.618  33.671  1.00  0.00     0.074 A 
ATOM     52  C   UNL A   1      43.404  32.204  33.958  1.00  0.00     0.031 C 
ATOM     53  C   UNL A   1      47.936  33.817  29.019  1.00  0.00     0.029 A 
ATOM     54  C   UNL A   1      47.195  34.939  29.597  1.00  0.00     0.049 A 
ATOM     55  H   UNL A   1      45.901  34.878  31.230  1.00  0.00     0.167 HD
ATOM     56  C   UNL A   1      42.804  34.582  34.302  1.00  0.00     0.034 A 
ATOM     57  C   UNL A   1      47.245  36.217  29.169  1.00  0.00     0.034 A 
ATOM     58  C   UNL A   1      42.924  35.989  34.029  1.00  0.00     0.049 A 
ATOM     59  C   UNL A   1      46.402  37.262  29.857  1.00  0.00     0.074 A 
ATOM     60  C   UNL A   1      42.280  37.042  34.655  1.00  0.00     0.029 A 
ATOM     61  N   UNL A   1      43.720  36.542  33.037  1.00  0.00    -0.354 N 
ATOM     62  N   UNL A   1      45.600  37.134  30.887  1.00  0.00    -0.248 NA
ATOM     63  C   UNL A   1      46.487  38.636  29.336  1.00  0.00     0.031 C 
ATOM     64  C   UNL A   1      42.654  38.227  34.015  1.00  0.00     0.029 A 
ATOM     65  C   UNL A   1      43.562  37.916  33.017  1.00  0.00     0.049 A 
ATOM     66  H   UNL A   1      44.309  36.030  32.437  1.00  0.00     0.167 HD
ATOM     67  C   UNL A   1      45.113  38.409  31.154  1.00  0.00     0.074 A 
ATOM     68  C   UNL A   1      45.732  39.302  30.197  1.00  0.00     0.031 C 
ATOM     69  C   UNL A   1      44.220  38.805  32.095  1.00  0.00     0.034 A 
BRANCH  56  70
ATOM     70  C   UNL A   1      41.823  34.159  35.361  1.00  0.00     0.023 A 
ATOM     71  C   UNL A   1      42.218  34.126  36.712  1.00  0.00     0.012 A 
ATOM     72  C   UNL A   1      40.483  33.886  35.021  1.00  0.00     0.148 A 
ATOM     73  C   UNL A   1      41.297  33.812  37.711  1.00  0.00     0.002 A 
ATOM     74  C   UNL A   1      39.561  33.615  36.025  1.00  0.00     0.091 A 
ATOM     75  F   UNL A   1      40.136  33.903  33.727  1.00  0.00    -0.205 F 
ATOM     76  C   UNL A   1      39.968  33.569  37.369  1.00  0.00     0.022 A 
BRANCH  74  77
ATOM     77  S   UNL A   1      37.813  33.368  35.697  1.00  0.00     0.127 S 
ATOM     78  O   UNL A   1      37.478  34.587  34.960  1.00  0.00    -0.237 OA
ATOM     79  O   UNL A   1      37.824  32.150  34.887  1.00  0.00    -0.237 OA
ATOM     80  O   UNL A   1      37.171  33.234  36.997  1.00  0.00    -0.744 OA
ENDBRANCH  74  77
ENDBRANCH  56  70
BRANCH  57  81
ATOM     81  C   UNL A   1      48.108  36.593  28.011  1.00  0.00     0.023 A 
ATOM     82  C   UNL A   1      47.627  36.428  26.698  1.00  0.00     0.012 A 
ATOM     83  C   UNL A   1      49.415  37.083  28.205  1.00  0.00     0.148 A 
ATOM     84  C   UNL A   1      48.445  36.701  25.600  1.00  0.00     0.002 A 
ATOM     85  C   UNL A   1      50.203  37.410  27.108  1.00  0.00     0.091 A 
ATOM     86  F   UNL A   1      49.866  37.211  29.461  1.00  0.00    -0.205 F 
ATOM     87  C   UNL A   1      49.729  37.199  25.804  1.00  0.00     0.022 A 
BRANCH  85  88
ATOM     88  S   UNL A   1      51.820  38.172  27.282  1.00  0.00     0.127 S 
ATOM     89  O   UNL A   1      52.510  37.220  28.146  1.00  0.00    -0.237 OA
ATOM     90  O   UNL A   1      52.291  38.201  25.897  1.00  0.00    -0.237 OA
ATOM     91  O   UNL A   1      51.573  39.488  27.857  1.00  0.00    -0.744 OA
ENDBRANCH  85  88
ENDBRANCH  57  81
BRANCH  69  92
ATOM     92  C   UNL A   1      43.874  40.272  32.167  1.00  0.00     0.023 A 
ATOM     93  C   UNL A   1      42.801  40.778  31.407  1.00  0.00     0.012 A 
ATOM     94  C   UNL A   1      44.564  41.132  33.044  1.00  0.00     0.148 A 
ATOM     95  C   UNL A   1      42.442  42.123  31.491  1.00  0.00     0.002 A 
ATOM     96  C   UNL A   1      44.169  42.460  33.163  1.00  0.00     0.091 A 
ATOM     97  F   UNL A   1      45.590  40.636  33.750  1.00  0.00    -0.205 F 
ATOM     98  C   UNL A   1      43.118  42.960  32.377  1.00  0.00     0.022 A 
BRANCH  96  99
ATOM     99  S   UNL A   1      44.912  43.589  34.346  1.00  0.00     0.127 S 
ATOM    100  O   UNL A   1      46.298  43.636  33.882  1.00  0.00    -0.237 OA
ATOM    101  O   UNL A   1      44.152  44.819  34.119  1.00  0.00    -0.237 OA
ATOM    102  O   UNL A   1      44.716  42.987  35.658  1.00  0.00    -0.744 OA
ENDBRANCH  96  99
ENDBRANCH  69  92
ENDBRANCH  43  44
ENDBRANCH  36  38
ENDBRANCH  35  36
ENDBRANCH  34  35
ENDBRANCH  33  34
ENDBRANCH  32  33
ENDBRANCH  31  32
ENDBRANCH   1  31
TORSDOF 25
ENDMDL
