MODEL 1
REMARK VINA RESULT:      -9.6      0.000      0.000
REMARK SMILES Cc1cnc(C)c(N2CCC[C@@](CC3CC3)(C(=O)OCCOCCOCCOC(=O)c3ccc(-c4c5nc(c(-c6cccc(S(=O)(=O)[O-])c6F)c6ccc([nH]6)c(-c6cccc(S(=O)(=O)[O-])c6F)c6nc(c(-c7cccc(S(=O)(=O)[O-])c7F)c7ccc4[nH]7)C=C6)C=C5)cc3)C2)n1
REMARK SMILES IDX 24 1 23 2 22 3 21 4 20 5 19 6 17 7 18 8 12 9 8 10 9 11 94 12
REMARK SMILES IDX 10 13 11 14 7 15 1 16 2 17 3 18 95 19 4 20 5 21 6 22 13 23
REMARK SMILES IDX 14 24 15 25 16 26 25 27 26 28 27 29 28 30 29 31 30 32 31 33
REMARK SMILES IDX 32 34 93 35 33 36 92 37 34 38 35 39 36 40 86 41 37 42 91 43
REMARK SMILES IDX 85 44 87 45 38 46 90 47 84 48 83 49 39 51 71 52 51 53 70 54
REMARK SMILES IDX 52 55 55 56 69 57 88 58 53 59 54 60 68 62 89 63 56 64 40 65
REMARK SMILES IDX 41 66 49 67 42 68 44 69 50 70 43 71 45 72 46 73 47 74 48 75
REMARK SMILES IDX 72 76 73 77 81 78 74 79 76 80 82 81 75 82 77 83 78 84 79 85
REMARK SMILES IDX 80 86 57 87 58 88 66 89 59 90 61 91 67 92 60 93 62 94 63 95
REMARK SMILES IDX 64 96 65 97
REMARK H PARENT 87 50 55 61
REMARK Flexibility Score: inf
ROOT
ATOM      1  C   UNL A   1      41.898  20.221  26.978  1.00  0.00     0.188 C 
ENDROOT
BRANCH   1   2
ATOM      2  C   UNL A   1      40.673  21.105  27.209  1.00  0.00     0.188 C 
BRANCH   2   3
ATOM      3  O   UNL A   1      40.067  21.675  26.060  1.00  0.00    -0.376 OA
BRANCH   3   4
ATOM      4  C   UNL A   1      38.720  21.303  25.769  1.00  0.00     0.202 C 
BRANCH   4   5
ATOM      5  C   UNL A   1      37.769  22.375  25.213  1.00  0.00     0.261 C 
BRANCH   5   6
ATOM      6  O   UNL A   1      36.387  22.267  25.652  1.00  0.00    -0.463 OA
BRANCH   6   7
ATOM      7  C   UNL A   1      35.663  23.409  25.544  1.00  0.00     0.313 C 
ATOM      8  O   UNL A   1      36.155  24.517  25.756  1.00  0.00    -0.252 OA
BRANCH   7   9
ATOM      9  C   UNL A   1      34.168  23.257  25.213  1.00  0.00     0.086 C 
ATOM     10  N   UNL A   1      32.613  21.347  24.965  1.00  0.00    -0.354 N 
ATOM     11  C   UNL A   1      31.571  21.842  25.844  1.00  0.00     0.118 C 
ATOM     12  C   UNL A   1      33.979  21.711  25.328  1.00  0.00     0.137 C 
ATOM     13  C   UNL A   1      31.633  23.372  25.798  1.00  0.00     0.023 C 
ATOM     14  C   UNL A   1      33.053  23.911  26.086  1.00  0.00     0.022 C 
BRANCH  10  15
ATOM     15  C   UNL A   1      32.472  20.042  24.498  1.00  0.00     0.150 A 
ATOM     16  C   UNL A   1      32.903  16.599  25.734  1.00  0.00     0.068 C 
ATOM     17  C   UNL A   1      32.656  17.761  24.823  1.00  0.00     0.058 A 
ATOM     18  C   UNL A   1      32.456  17.550  23.465  1.00  0.00     0.135 A 
ATOM     19  N   UNL A   1      32.671  19.013  25.352  1.00  0.00    -0.233 NA
ATOM     20  N   UNL A   1      32.233  18.555  22.591  1.00  0.00    -0.256 NA
ATOM     21  C   UNL A   1      32.238  19.804  23.129  1.00  0.00     0.080 A 
ATOM     22  C   UNL A   1      32.117  20.939  22.155  1.00  0.00     0.071 C 
ENDBRANCH  10  15
BRANCH   9  23
ATOM     23  C   UNL A   1      34.031  23.697  23.729  1.00  0.00     0.024 C 
BRANCH  23  24
ATOM     24  C   UNL A   1      33.398  25.036  23.417  1.00  0.00    -0.010 C 
ATOM     25  C   UNL A   1      33.374  25.762  22.089  1.00  0.00     0.004 C 
ATOM     26  C   UNL A   1      32.130  25.099  22.595  1.00  0.00     0.004 C 
ENDBRANCH  23  24
ENDBRANCH   9  23
ENDBRANCH   7   9
ENDBRANCH   6   7
ENDBRANCH   5   6
ENDBRANCH   4   5
ENDBRANCH   3   4
ENDBRANCH   2   3
ENDBRANCH   1   2
BRANCH   1  27
ATOM     27  O   UNL A   1      42.066  19.761  25.653  1.00  0.00    -0.376 OA
BRANCH  27  28
ATOM     28  C   UNL A   1      42.788  18.562  25.415  1.00  0.00     0.202 C 
BRANCH  28  29
ATOM     29  C   UNL A   1      44.207  18.451  25.998  1.00  0.00     0.261 C 
BRANCH  29  30
ATOM     30  O   UNL A   1      45.268  18.915  25.144  1.00  0.00    -0.460 OA
BRANCH  30  31
ATOM     31  C   UNL A   1      44.939  19.772  24.145  1.00  0.00     0.338 C 
ATOM     32  O   UNL A   1      44.529  19.477  23.035  1.00  0.00    -0.246 OA
BRANCH  31  33
ATOM     33  C   UNL A   1      44.870  21.131  24.742  1.00  0.00     0.060 A 
ATOM     34  C   UNL A   1      44.229  22.149  24.017  1.00  0.00     0.016 A 
ATOM     35  C   UNL A   1      45.311  21.371  26.046  1.00  0.00     0.016 A 
ATOM     36  C   UNL A   1      44.064  23.416  24.581  1.00  0.00     0.010 A 
ATOM     37  C   UNL A   1      45.163  22.644  26.602  1.00  0.00     0.010 A 
ATOM     38  C   UNL A   1      44.569  23.681  25.861  1.00  0.00    -0.014 A 
BRANCH  38  39
ATOM     39  C   UNL A   1      44.687  25.081  26.338  1.00  0.00     0.031 A 
ATOM     40  C   UNL A   1      46.012  25.772  26.161  1.00  0.00     0.074 A 
ATOM     41  C   UNL A   1      43.668  25.724  26.937  1.00  0.00     0.049 A 
ATOM     42  N   UNL A   1      46.377  26.975  26.521  1.00  0.00    -0.248 NA
ATOM     43  C   UNL A   1      47.071  24.995  25.494  1.00  0.00     0.031 C 
ATOM     44  C   UNL A   1      42.341  25.169  27.183  1.00  0.00     0.029 A 
ATOM     45  N   UNL A   1      43.611  26.988  27.474  1.00  0.00    -0.354 N 
ATOM     46  C   UNL A   1      47.711  27.089  26.150  1.00  0.00     0.074 A 
ATOM     47  C   UNL A   1      48.096  25.831  25.549  1.00  0.00     0.031 C 
ATOM     48  C   UNL A   1      41.607  26.078  27.852  1.00  0.00     0.029 A 
ATOM     49  C   UNL A   1      42.415  27.274  28.089  1.00  0.00     0.049 A 
ATOM     50  H   UNL A   1      44.358  27.629  27.425  1.00  0.00     0.167 HD
ATOM     51  C   UNL A   1      48.542  28.149  26.281  1.00  0.00     0.034 A 
ATOM     52  C   UNL A   1      42.024  28.370  28.771  1.00  0.00     0.034 A 
ATOM     53  C   UNL A   1      48.166  29.404  26.866  1.00  0.00     0.049 A 
ATOM     54  C   UNL A   1      42.974  29.535  28.917  1.00  0.00     0.074 A 
ATOM     55  C   UNL A   1      48.926  30.551  27.002  1.00  0.00     0.029 A 
ATOM     56  N   UNL A   1      46.929  29.675  27.430  1.00  0.00    -0.354 N 
ATOM     57  N   UNL A   1      44.187  29.679  28.440  1.00  0.00    -0.248 NA
ATOM     58  C   UNL A   1      42.488  30.700  29.673  1.00  0.00     0.031 C 
ATOM     59  C   UNL A   1      48.157  31.509  27.673  1.00  0.00     0.029 A 
ATOM     60  C   UNL A   1      46.908  30.967  27.926  1.00  0.00     0.049 A 
ATOM     61  H   UNL A   1      46.176  29.041  27.471  1.00  0.00     0.167 HD
ATOM     62  C   UNL A   1      44.596  30.957  28.810  1.00  0.00     0.074 A 
ATOM     63  C   UNL A   1      43.490  31.557  29.527  1.00  0.00     0.031 C 
ATOM     64  C   UNL A   1      45.784  31.574  28.591  1.00  0.00     0.034 A 
BRANCH  51  65
ATOM     65  C   UNL A   1      49.942  27.996  25.755  1.00  0.00     0.023 A 
ATOM     66  C   UNL A   1      50.192  28.168  24.378  1.00  0.00     0.012 A 
ATOM     67  C   UNL A   1      51.014  27.723  26.626  1.00  0.00     0.148 A 
ATOM     68  C   UNL A   1      51.485  28.039  23.871  1.00  0.00     0.002 A 
ATOM     69  C   UNL A   1      52.305  27.641  26.120  1.00  0.00     0.091 A 
ATOM     70  F   UNL A   1      50.750  27.535  27.926  1.00  0.00    -0.205 F 
ATOM     71  C   UNL A   1      52.541  27.788  24.742  1.00  0.00     0.022 A 
BRANCH  69  72
ATOM     72  S   UNL A   1      53.741  27.396  27.170  1.00  0.00     0.127 S 
ATOM     73  O   UNL A   1      53.639  28.536  28.079  1.00  0.00    -0.237 OA
ATOM     74  O   UNL A   1      53.455  26.100  27.784  1.00  0.00    -0.237 OA
ATOM     75  O   UNL A   1      54.894  27.406  26.282  1.00  0.00    -0.744 OA
ENDBRANCH  69  72
ENDBRANCH  51  65
BRANCH  52  76
ATOM     76  C   UNL A   1      40.650  28.445  29.347  1.00  0.00     0.023 A 
ATOM     77  C   UNL A   1      40.377  27.812  30.577  1.00  0.00     0.012 A 
ATOM     78  C   UNL A   1      39.615  29.129  28.683  1.00  0.00     0.148 A 
ATOM     79  C   UNL A   1      39.090  27.832  31.118  1.00  0.00     0.002 A 
ATOM     80  C   UNL A   1      38.348  29.192  29.254  1.00  0.00     0.091 A 
ATOM     81  F   UNL A   1      39.887  29.703  27.504  1.00  0.00    -0.205 F 
ATOM     82  C   UNL A   1      38.080  28.529  30.462  1.00  0.00     0.022 A 
BRANCH  80  83
ATOM     83  S   UNL A   1      37.016  30.163  28.540  1.00  0.00     0.127 S 
ATOM     84  O   UNL A   1      36.776  29.461  27.283  1.00  0.00    -0.237 OA
ATOM     85  O   UNL A   1      35.963  30.009  29.544  1.00  0.00    -0.237 OA
ATOM     86  O   UNL A   1      37.540  31.516  28.420  1.00  0.00    -0.744 OA
ENDBRANCH  80  83
ENDBRANCH  52  76
BRANCH  64  87
ATOM     87  C   UNL A   1      45.953  32.984  29.100  1.00  0.00     0.023 A 
ATOM     88  C   UNL A   1      46.506  33.208  30.377  1.00  0.00     0.012 A 
ATOM     89  C   UNL A   1      45.638  34.089  28.282  1.00  0.00     0.148 A 
ATOM     90  C   UNL A   1      46.709  34.506  30.845  1.00  0.00     0.002 A 
ATOM     91  C   UNL A   1      45.889  35.378  28.735  1.00  0.00     0.091 A 
ATOM     92  F   UNL A   1      45.098  33.858  27.076  1.00  0.00    -0.205 F 
ATOM     93  C   UNL A   1      46.412  35.590  30.021  1.00  0.00     0.022 A 
BRANCH  91  94
ATOM     94  S   UNL A   1      45.627  36.828  27.706  1.00  0.00     0.127 S 
ATOM     95  O   UNL A   1      44.175  36.819  27.542  1.00  0.00    -0.237 OA
ATOM     96  O   UNL A   1      46.139  37.908  28.552  1.00  0.00    -0.237 OA
ATOM     97  O   UNL A   1      46.398  36.599  26.491  1.00  0.00    -0.744 OA
ENDBRANCH  91  94
ENDBRANCH  64  87
ENDBRANCH  38  39
ENDBRANCH  31  33
ENDBRANCH  30  31
ENDBRANCH  29  30
ENDBRANCH  28  29
ENDBRANCH  27  28
ENDBRANCH   1  27
TORSDOF 23
ENDMDL
MODEL 2
REMARK VINA RESULT:      -9.3      5.439     10.551
REMARK SMILES Cc1cnc(C)c(N2CCC[C@@](CC3CC3)(C(=O)OCCOCCOCCOC(=O)c3ccc(-c4c5nc(c(-c6cccc(S(=O)(=O)[O-])c6F)c6ccc([nH]6)c(-c6cccc(S(=O)(=O)[O-])c6F)c6nc(c(-c7cccc(S(=O)(=O)[O-])c7F)c7ccc4[nH]7)C=C6)C=C5)cc3)C2)n1
REMARK SMILES IDX 24 1 23 2 22 3 21 4 20 5 19 6 17 7 18 8 12 9 8 10 9 11 94 12
REMARK SMILES IDX 10 13 11 14 7 15 1 16 2 17 3 18 95 19 4 20 5 21 6 22 13 23
REMARK SMILES IDX 14 24 15 25 16 26 25 27 26 28 27 29 28 30 29 31 30 32 31 33
REMARK SMILES IDX 32 34 93 35 33 36 92 37 34 38 35 39 36 40 86 41 37 42 91 43
REMARK SMILES IDX 85 44 87 45 38 46 90 47 84 48 83 49 39 51 71 52 51 53 70 54
REMARK SMILES IDX 52 55 55 56 69 57 88 58 53 59 54 60 68 62 89 63 56 64 40 65
REMARK SMILES IDX 41 66 49 67 42 68 44 69 50 70 43 71 45 72 46 73 47 74 48 75
REMARK SMILES IDX 72 76 73 77 81 78 74 79 76 80 82 81 75 82 77 83 78 84 79 85
REMARK SMILES IDX 80 86 57 87 58 88 66 89 59 90 61 91 67 92 60 93 62 94 63 95
REMARK SMILES IDX 64 96 65 97
REMARK H PARENT 87 50 55 61
REMARK Flexibility Score: inf
ROOT
ATOM      1  C   UNL A   1      34.962  33.301  29.528  1.00  0.00     0.188 C 
ENDROOT
BRANCH   1   2
ATOM      2  C   UNL A   1      33.975  33.251  28.362  1.00  0.00     0.188 C 
BRANCH   2   3
ATOM      3  O   UNL A   1      34.299  32.390  27.282  1.00  0.00    -0.376 OA
BRANCH   3   4
ATOM      4  C   UNL A   1      33.810  31.049  27.334  1.00  0.00     0.202 C 
BRANCH   4   5
ATOM      5  C   UNL A   1      34.736  29.955  27.890  1.00  0.00     0.261 C 
BRANCH   5   6
ATOM      6  O   UNL A   1      34.590  28.646  27.273  1.00  0.00    -0.463 OA
BRANCH   6   7
ATOM      7  C   UNL A   1      33.329  28.337  26.881  1.00  0.00     0.313 C 
ATOM      8  O   UNL A   1      32.392  28.281  27.677  1.00  0.00    -0.252 OA
BRANCH   7   9
ATOM      9  C   UNL A   1      33.128  27.984  25.396  1.00  0.00     0.086 C 
ATOM     10  N   UNL A   1      31.437  28.540  23.677  1.00  0.00    -0.354 N 
ATOM     11  C   UNL A   1      32.360  28.976  22.645  1.00  0.00     0.118 C 
ATOM     12  C   UNL A   1      31.846  28.808  25.051  1.00  0.00     0.137 C 
ATOM     13  C   UNL A   1      33.668  28.210  22.859  1.00  0.00     0.023 C 
ATOM     14  C   UNL A   1      34.190  28.333  24.309  1.00  0.00     0.022 C 
BRANCH  10  15
ATOM     15  C   UNL A   1      30.081  28.743  23.431  1.00  0.00     0.150 A 
ATOM     16  C   UNL A   1      27.717  31.551  23.115  1.00  0.00     0.068 C 
ATOM     17  C   UNL A   1      28.270  30.163  23.214  1.00  0.00     0.058 A 
ATOM     18  C   UNL A   1      27.410  29.072  23.236  1.00  0.00     0.135 A 
ATOM     19  N   UNL A   1      29.616  30.008  23.317  1.00  0.00    -0.233 NA
ATOM     20  N   UNL A   1      27.845  27.797  23.328  1.00  0.00    -0.256 NA
ATOM     21  C   UNL A   1      29.194  27.649  23.419  1.00  0.00     0.080 A 
ATOM     22  C   UNL A   1      29.687  26.250  23.647  1.00  0.00     0.071 C 
ENDBRANCH  10  15
BRANCH   9  23
ATOM     23  C   UNL A   1      32.802  26.466  25.377  1.00  0.00     0.024 C 
BRANCH  23  24
ATOM     24  C   UNL A   1      33.902  25.475  25.694  1.00  0.00    -0.010 C 
ATOM     25  C   UNL A   1      33.758  24.004  26.020  1.00  0.00     0.004 C 
ATOM     26  C   UNL A   1      34.283  24.419  24.680  1.00  0.00     0.004 C 
ENDBRANCH  23  24
ENDBRANCH   9  23
ENDBRANCH   7   9
ENDBRANCH   6   7
ENDBRANCH   5   6
ENDBRANCH   4   5
ENDBRANCH   3   4
ENDBRANCH   2   3
ENDBRANCH   1   2
BRANCH   1  27
ATOM     27  O   UNL A   1      34.394  33.086  30.804  1.00  0.00    -0.376 OA
BRANCH  27  28
ATOM     28  C   UNL A   1      35.010  32.171  31.698  1.00  0.00     0.202 C 
BRANCH  28  29
ATOM     29  C   UNL A   1      36.109  32.708  32.631  1.00  0.00     0.261 C 
BRANCH  29  30
ATOM     30  O   UNL A   1      37.354  33.046  31.994  1.00  0.00    -0.460 OA
BRANCH  30  31
ATOM     31  C   UNL A   1      37.689  34.359  31.929  1.00  0.00     0.338 C 
ATOM     32  O   UNL A   1      37.181  35.274  32.557  1.00  0.00    -0.246 OA
BRANCH  31  33
ATOM     33  C   UNL A   1      38.980  34.444  31.199  1.00  0.00     0.060 A 
ATOM     34  C   UNL A   1      40.170  34.223  31.914  1.00  0.00     0.016 A 
ATOM     35  C   UNL A   1      39.016  34.607  29.812  1.00  0.00     0.016 A 
ATOM     36  C   UNL A   1      41.396  34.205  31.246  1.00  0.00     0.010 A 
ATOM     37  C   UNL A   1      40.246  34.607  29.148  1.00  0.00     0.010 A 
ATOM     38  C   UNL A   1      41.444  34.441  29.865  1.00  0.00    -0.014 A 
BRANCH  38  39
ATOM     39  C   UNL A   1      42.739  34.739  29.207  1.00  0.00     0.031 A 
ATOM     40  C   UNL A   1      43.705  33.601  29.013  1.00  0.00     0.074 A 
ATOM     41  C   UNL A   1      43.075  35.980  28.812  1.00  0.00     0.049 A 
ATOM     42  N   UNL A   1      44.905  33.608  28.497  1.00  0.00    -0.248 NA
ATOM     43  C   UNL A   1      43.254  32.276  29.472  1.00  0.00     0.031 C 
ATOM     44  C   UNL A   1      42.242  37.171  28.951  1.00  0.00     0.029 A 
ATOM     45  N   UNL A   1      44.233  36.443  28.233  1.00  0.00    -0.354 N 
ATOM     46  C   UNL A   1      45.364  32.301  28.594  1.00  0.00     0.074 A 
ATOM     47  C   UNL A   1      44.319  31.528  29.229  1.00  0.00     0.031 C 
ATOM     48  C   UNL A   1      42.929  38.237  28.500  1.00  0.00     0.029 A 
ATOM     49  C   UNL A   1      44.251  37.805  28.047  1.00  0.00     0.049 A 
ATOM     50  H   UNL A   1      44.980  35.854  27.977  1.00  0.00     0.167 HD
ATOM     51  C   UNL A   1      46.542  31.779  28.179  1.00  0.00     0.034 A 
ATOM     52  C   UNL A   1      45.228  38.609  27.577  1.00  0.00     0.034 A 
ATOM     53  C   UNL A   1      47.580  32.536  27.538  1.00  0.00     0.049 A 
ATOM     54  C   UNL A   1      46.539  38.006  27.134  1.00  0.00     0.074 A 
ATOM     55  C   UNL A   1      48.790  32.086  27.043  1.00  0.00     0.029 A 
ATOM     56  N   UNL A   1      47.541  33.903  27.319  1.00  0.00    -0.354 N 
ATOM     57  N   UNL A   1      46.905  36.748  27.105  1.00  0.00    -0.248 NA
ATOM     58  C   UNL A   1      47.563  38.936  26.631  1.00  0.00     0.031 C 
ATOM     59  C   UNL A   1      49.496  33.187  26.547  1.00  0.00     0.029 A 
ATOM     60  C   UNL A   1      48.711  34.317  26.706  1.00  0.00     0.049 A 
ATOM     61  H   UNL A   1      46.791  34.494  27.563  1.00  0.00     0.167 HD
ATOM     62  C   UNL A   1      48.184  36.731  26.555  1.00  0.00     0.074 A 
ATOM     63  C   UNL A   1      48.518  38.104  26.239  1.00  0.00     0.031 C 
ATOM     64  C   UNL A   1      49.013  35.678  26.346  1.00  0.00     0.034 A 
BRANCH  51  65
ATOM     65  C   UNL A   1      46.756  30.306  28.389  1.00  0.00     0.023 A 
ATOM     66  C   UNL A   1      47.348  29.851  29.585  1.00  0.00     0.012 A 
ATOM     67  C   UNL A   1      46.337  29.371  27.423  1.00  0.00     0.148 A 
ATOM     68  C   UNL A   1      47.548  28.488  29.803  1.00  0.00     0.002 A 
ATOM     69  C   UNL A   1      46.498  28.013  27.667  1.00  0.00     0.091 A 
ATOM     70  F   UNL A   1      45.802  29.827  26.281  1.00  0.00    -0.205 F 
ATOM     71  C   UNL A   1      47.113  27.571  28.851  1.00  0.00     0.022 A 
BRANCH  69  72
ATOM     72  S   UNL A   1      45.903  26.751  26.537  1.00  0.00     0.127 S 
ATOM     73  O   UNL A   1      46.392  25.530  27.176  1.00  0.00    -0.237 OA
ATOM     74  O   UNL A   1      44.454  26.935  26.607  1.00  0.00    -0.237 OA
ATOM     75  O   UNL A   1      46.494  27.059  25.244  1.00  0.00    -0.744 OA
ENDBRANCH  69  72
ENDBRANCH  51  65
BRANCH  52  76
ATOM     76  C   UNL A   1      44.999  40.078  27.463  1.00  0.00     0.023 A 
ATOM     77  C   UNL A   1      44.491  40.612  26.261  1.00  0.00     0.012 A 
ATOM     78  C   UNL A   1      45.287  40.949  28.531  1.00  0.00     0.148 A 
ATOM     79  C   UNL A   1      44.306  41.987  26.114  1.00  0.00     0.002 A 
ATOM     80  C   UNL A   1      45.049  42.312  28.397  1.00  0.00     0.091 A 
ATOM     81  F   UNL A   1      45.792  40.426  29.657  1.00  0.00    -0.205 F 
ATOM     82  C   UNL A   1      44.575  42.835  27.184  1.00  0.00     0.022 A 
BRANCH  80  83
ATOM     83  S   UNL A   1      45.257  43.465  29.759  1.00  0.00     0.127 S 
ATOM     84  O   UNL A   1      44.940  44.740  29.122  1.00  0.00    -0.237 OA
ATOM     85  O   UNL A   1      44.255  42.986  30.712  1.00  0.00    -0.237 OA
ATOM     86  O   UNL A   1      46.634  43.303  30.202  1.00  0.00    -0.744 OA
ENDBRANCH  80  83
ENDBRANCH  52  76
BRANCH  64  87
ATOM     87  C   UNL A   1      50.356  35.951  25.716  1.00  0.00     0.023 A 
ATOM     88  C   UNL A   1      50.485  35.964  24.312  1.00  0.00     0.012 A 
ATOM     89  C   UNL A   1      51.474  36.273  26.513  1.00  0.00     0.148 A 
ATOM     90  C   UNL A   1      51.710  36.257  23.714  1.00  0.00     0.002 A 
ATOM     91  C   UNL A   1      52.679  36.614  25.909  1.00  0.00     0.091 A 
ATOM     92  F   UNL A   1      51.339  36.242  27.847  1.00  0.00    -0.205 F 
ATOM     93  C   UNL A   1      52.803  36.594  24.510  1.00  0.00     0.022 A 
BRANCH  91  94
ATOM     94  S   UNL A   1      54.111  37.153  26.852  1.00  0.00     0.127 S 
ATOM     95  O   UNL A   1      54.465  35.935  27.578  1.00  0.00    -0.237 OA
ATOM     96  O   UNL A   1      55.054  37.532  25.799  1.00  0.00    -0.237 OA
ATOM     97  O   UNL A   1      53.650  38.263  27.676  1.00  0.00    -0.744 OA
ENDBRANCH  91  94
ENDBRANCH  64  87
ENDBRANCH  38  39
ENDBRANCH  31  33
ENDBRANCH  30  31
ENDBRANCH  29  30
ENDBRANCH  28  29
ENDBRANCH  27  28
ENDBRANCH   1  27
TORSDOF 23
ENDMDL
MODEL 3
REMARK VINA RESULT:      -8.9      3.287      8.723
REMARK SMILES Cc1cnc(C)c(N2CCC[C@@](CC3CC3)(C(=O)OCCOCCOCCOC(=O)c3ccc(-c4c5nc(c(-c6cccc(S(=O)(=O)[O-])c6F)c6ccc([nH]6)c(-c6cccc(S(=O)(=O)[O-])c6F)c6nc(c(-c7cccc(S(=O)(=O)[O-])c7F)c7ccc4[nH]7)C=C6)C=C5)cc3)C2)n1
REMARK SMILES IDX 24 1 23 2 22 3 21 4 20 5 19 6 17 7 18 8 12 9 8 10 9 11 94 12
REMARK SMILES IDX 10 13 11 14 7 15 1 16 2 17 3 18 95 19 4 20 5 21 6 22 13 23
REMARK SMILES IDX 14 24 15 25 16 26 25 27 26 28 27 29 28 30 29 31 30 32 31 33
REMARK SMILES IDX 32 34 93 35 33 36 92 37 34 38 35 39 36 40 86 41 37 42 91 43
REMARK SMILES IDX 85 44 87 45 38 46 90 47 84 48 83 49 39 51 71 52 51 53 70 54
REMARK SMILES IDX 52 55 55 56 69 57 88 58 53 59 54 60 68 62 89 63 56 64 40 65
REMARK SMILES IDX 41 66 49 67 42 68 44 69 50 70 43 71 45 72 46 73 47 74 48 75
REMARK SMILES IDX 72 76 73 77 81 78 74 79 76 80 82 81 75 82 77 83 78 84 79 85
REMARK SMILES IDX 80 86 57 87 58 88 66 89 59 90 61 91 67 92 60 93 62 94 63 95
REMARK SMILES IDX 64 96 65 97
REMARK H PARENT 87 50 55 61
REMARK Flexibility Score: inf
ROOT
ATOM      1  C   UNL A   1      41.773  20.790  26.986  1.00  0.00     0.188 C 
ENDROOT
BRANCH   1   2
ATOM      2  C   UNL A   1      40.325  21.272  27.068  1.00  0.00     0.188 C 
BRANCH   2   3
ATOM      3  O   UNL A   1      39.750  21.786  25.878  1.00  0.00    -0.376 OA
BRANCH   3   4
ATOM      4  C   UNL A   1      38.379  21.482  25.619  1.00  0.00     0.202 C 
BRANCH   4   5
ATOM      5  C   UNL A   1      37.445  22.627  25.194  1.00  0.00     0.261 C 
BRANCH   5   6
ATOM      6  O   UNL A   1      36.103  22.572  25.752  1.00  0.00    -0.463 OA
BRANCH   6   7
ATOM      7  C   UNL A   1      35.345  23.674  25.524  1.00  0.00     0.313 C 
ATOM      8  O   UNL A   1      35.801  24.813  25.619  1.00  0.00    -0.252 OA
BRANCH   7   9
ATOM      9  C   UNL A   1      33.857  23.440  25.206  1.00  0.00     0.086 C 
ATOM     10  N   UNL A   1      32.411  21.448  24.952  1.00  0.00    -0.354 N 
ATOM     11  C   UNL A   1      31.351  21.874  25.847  1.00  0.00     0.118 C 
ATOM     12  C   UNL A   1      33.757  21.884  25.305  1.00  0.00     0.137 C 
ATOM     13  C   UNL A   1      31.327  23.404  25.818  1.00  0.00     0.023 C 
ATOM     14  C   UNL A   1      32.716  24.020  26.098  1.00  0.00     0.022 C 
BRANCH  10  15
ATOM     15  C   UNL A   1      32.338  20.142  24.471  1.00  0.00     0.150 A 
ATOM     16  C   UNL A   1      32.827  16.707  25.708  1.00  0.00     0.068 C 
ATOM     17  C   UNL A   1      32.586  17.867  24.793  1.00  0.00     0.058 A 
ATOM     18  C   UNL A   1      32.461  17.658  23.425  1.00  0.00     0.135 A 
ATOM     19  N   UNL A   1      32.531  19.115  25.329  1.00  0.00    -0.233 NA
ATOM     20  N   UNL A   1      32.247  18.661  22.547  1.00  0.00    -0.256 NA
ATOM     21  C   UNL A   1      32.181  19.906  23.091  1.00  0.00     0.080 A 
ATOM     22  C   UNL A   1      32.069  21.043  22.118  1.00  0.00     0.071 C 
ENDBRANCH  10  15
BRANCH   9  23
ATOM     23  C   UNL A   1      33.679  23.888  23.729  1.00  0.00     0.024 C 
BRANCH  23  24
ATOM     24  C   UNL A   1      33.012  25.215  23.440  1.00  0.00    -0.010 C 
ATOM     25  C   UNL A   1      33.636  26.594  23.479  1.00  0.00     0.004 C 
ATOM     26  C   UNL A   1      33.325  25.956  22.160  1.00  0.00     0.004 C 
ENDBRANCH  23  24
ENDBRANCH   9  23
ENDBRANCH   7   9
ENDBRANCH   6   7
ENDBRANCH   5   6
ENDBRANCH   4   5
ENDBRANCH   3   4
ENDBRANCH   2   3
ENDBRANCH   1   2
BRANCH   1  27
ATOM     27  O   UNL A   1      42.632  21.600  26.209  1.00  0.00    -0.376 OA
BRANCH  27  28
ATOM     28  C   UNL A   1      43.057  22.856  26.717  1.00  0.00     0.202 C 
BRANCH  28  29
ATOM     29  C   UNL A   1      42.354  24.119  26.189  1.00  0.00     0.261 C 
BRANCH  29  30
ATOM     30  O   UNL A   1      43.001  24.773  25.084  1.00  0.00    -0.460 OA
BRANCH  30  31
ATOM     31  C   UNL A   1      44.297  25.142  25.245  1.00  0.00     0.338 C 
ATOM     32  O   UNL A   1      45.264  24.681  24.661  1.00  0.00    -0.246 OA
BRANCH  31  33
ATOM     33  C   UNL A   1      44.297  26.408  26.022  1.00  0.00     0.060 A 
ATOM     34  C   UNL A   1      43.515  27.479  25.556  1.00  0.00     0.016 A 
ATOM     35  C   UNL A   1      44.949  26.500  27.254  1.00  0.00     0.016 A 
ATOM     36  C   UNL A   1      43.417  28.654  26.305  1.00  0.00     0.010 A 
ATOM     37  C   UNL A   1      44.865  27.683  27.993  1.00  0.00     0.010 A 
ATOM     38  C   UNL A   1      44.127  28.777  27.507  1.00  0.00    -0.014 A 
BRANCH  38  39
ATOM     39  C   UNL A   1      44.289  30.108  28.141  1.00  0.00     0.031 A 
ATOM     40  C   UNL A   1      43.266  30.526  29.163  1.00  0.00     0.074 A 
ATOM     41  C   UNL A   1      45.291  30.944  27.813  1.00  0.00     0.049 A 
ATOM     42  N   UNL A   1      43.168  31.645  29.832  1.00  0.00    -0.248 NA
ATOM     43  C   UNL A   1      42.206  29.549  29.464  1.00  0.00     0.031 C 
ATOM     44  C   UNL A   1      46.338  30.671  26.833  1.00  0.00     0.029 A 
ATOM     45  N   UNL A   1      45.567  32.215  28.259  1.00  0.00    -0.354 N 
ATOM     46  C   UNL A   1      42.023  31.519  30.609  1.00  0.00     0.074 A 
ATOM     47  C   UNL A   1      41.454  30.221  30.322  1.00  0.00     0.031 C 
ATOM     48  C   UNL A   1      47.128  31.756  26.728  1.00  0.00     0.029 A 
ATOM     49  C   UNL A   1      46.637  32.801  27.625  1.00  0.00     0.049 A 
ATOM     50  H   UNL A   1      45.048  32.663  28.965  1.00  0.00     0.167 HD
ATOM     51  C   UNL A   1      41.497  32.394  31.497  1.00  0.00     0.034 A 
ATOM     52  C   UNL A   1      47.153  34.042  27.750  1.00  0.00     0.034 A 
ATOM     53  C   UNL A   1      42.062  33.680  31.796  1.00  0.00     0.049 A 
ATOM     54  C   UNL A   1      46.539  35.007  28.736  1.00  0.00     0.074 A 
ATOM     55  C   UNL A   1      41.624  34.617  32.714  1.00  0.00     0.029 A 
ATOM     56  N   UNL A   1      43.176  34.218  31.173  1.00  0.00    -0.354 N 
ATOM     57  N   UNL A   1      45.540  34.822  29.564  1.00  0.00    -0.248 NA
ATOM     58  C   UNL A   1      47.146  36.345  28.825  1.00  0.00     0.031 C 
ATOM     59  C   UNL A   1      42.460  35.736  32.627  1.00  0.00     0.029 A 
ATOM     60  C   UNL A   1      43.435  35.481  31.677  1.00  0.00     0.049 A 
ATOM     61  H   UNL A   1      43.706  33.768  30.475  1.00  0.00     0.167 HD
ATOM     62  C   UNL A   1      45.418  36.004  30.290  1.00  0.00     0.074 A 
ATOM     63  C   UNL A   1      46.465  36.889  29.824  1.00  0.00     0.031 C 
ATOM     64  C   UNL A   1      44.512  36.333  31.245  1.00  0.00     0.034 A 
BRANCH  51  65
ATOM     65  C   UNL A   1      40.253  31.972  32.227  1.00  0.00     0.023 A 
ATOM     66  C   UNL A   1      40.362  31.301  33.463  1.00  0.00     0.012 A 
ATOM     67  C   UNL A   1      38.977  32.272  31.712  1.00  0.00     0.148 A 
ATOM     68  C   UNL A   1      39.221  30.909  34.160  1.00  0.00     0.002 A 
ATOM     69  C   UNL A   1      37.845  31.918  32.434  1.00  0.00     0.091 A 
ATOM     70  F   UNL A   1      38.896  32.885  30.522  1.00  0.00    -0.205 F 
ATOM     71  C   UNL A   1      37.964  31.228  33.652  1.00  0.00     0.022 A 
BRANCH  69  72
ATOM     72  S   UNL A   1      36.185  32.350  31.902  1.00  0.00     0.127 S 
ATOM     73  O   UNL A   1      35.873  31.249  30.992  1.00  0.00    -0.237 OA
ATOM     74  O   UNL A   1      35.443  32.326  33.162  1.00  0.00    -0.237 OA
ATOM     75  O   UNL A   1      36.290  33.663  31.282  1.00  0.00    -0.744 OA
ENDBRANCH  69  72
ENDBRANCH  51  65
BRANCH  52  76
ATOM     76  C   UNL A   1      48.340  34.445  26.944  1.00  0.00     0.023 A 
ATOM     77  C   UNL A   1      48.154  35.022  25.671  1.00  0.00     0.012 A 
ATOM     78  C   UNL A   1      49.650  34.254  27.424  1.00  0.00     0.148 A 
ATOM     79  C   UNL A   1      49.249  35.371  24.880  1.00  0.00     0.002 A 
ATOM     80  C   UNL A   1      50.736  34.654  26.654  1.00  0.00     0.091 A 
ATOM     81  F   UNL A   1      49.808  33.682  28.625  1.00  0.00    -0.205 F 
ATOM     82  C   UNL A   1      50.539  35.197  25.374  1.00  0.00     0.022 A 
BRANCH  80  83
ATOM     83  S   UNL A   1      52.426  34.574  27.256  1.00  0.00     0.127 S 
ATOM     84  O   UNL A   1      52.310  35.225  28.558  1.00  0.00    -0.237 OA
ATOM     85  O   UNL A   1      52.658  33.130  27.308  1.00  0.00    -0.237 OA
ATOM     86  O   UNL A   1      53.229  35.278  26.266  1.00  0.00    -0.744 OA
ENDBRANCH  80  83
ENDBRANCH  52  76
BRANCH  64  87
ATOM     87  C   UNL A   1      44.621  37.696  31.882  1.00  0.00     0.023 A 
ATOM     88  C   UNL A   1      45.388  37.866  33.052  1.00  0.00     0.012 A 
ATOM     89  C   UNL A   1      44.029  38.824  31.277  1.00  0.00     0.148 A 
ATOM     90  C   UNL A   1      45.535  39.127  33.628  1.00  0.00     0.002 A 
ATOM     91  C   UNL A   1      44.221  40.086  31.829  1.00  0.00     0.091 A 
ATOM     92  F   UNL A   1      43.290  38.644  30.173  1.00  0.00    -0.205 F 
ATOM     93  C   UNL A   1      44.962  40.238  33.012  1.00  0.00     0.022 A 
BRANCH  91  94
ATOM     94  S   UNL A   1      43.601  41.582  31.050  1.00  0.00     0.127 S 
ATOM     95  O   UNL A   1      42.155  41.394  31.152  1.00  0.00    -0.237 OA
ATOM     96  O   UNL A   1      44.143  42.631  31.914  1.00  0.00    -0.237 OA
ATOM     97  O   UNL A   1      44.140  41.579  29.696  1.00  0.00    -0.744 OA
ENDBRANCH  91  94
ENDBRANCH  64  87
ENDBRANCH  38  39
ENDBRANCH  31  33
ENDBRANCH  30  31
ENDBRANCH  29  30
ENDBRANCH  28  29
ENDBRANCH  27  28
ENDBRANCH   1  27
TORSDOF 23
ENDMDL
