MODEL 1
REMARK VINA RESULT:      -8.8      0.000      0.000
REMARK SMILES CCOc1cc2c(cc1/C=C1/C(=O)N(c3cccc(C(=O)OCCOCCOCCOC(=O)c4ccc(-c5c6nc(c(-c7cccc(S(=O)(=O)[O-])c7F)c7ccc([nH]7)c(-c7cccc(S(=O)(=O)[O-])c7F)c7nc(c(-c8cccc(S(=O)(=O)[O-])c8F)c8ccc5[nH]8)C=C7)C=C6)cc4)c3)C(=S)N=C1O)OCO2
REMARK SMILES IDX 26 1 25 2 24 3 23 4 22 5 20 6 21 7 19 8 15 9 16 10 97 11
REMARK SMILES IDX 17 12 18 13 14 14 10 15 11 16 12 17 101 18 13 19 100 20
REMARK SMILES IDX 98 21 99 22 9 23 4 24 5 25 6 26 8 27 7 28 105 29 103 30
REMARK SMILES IDX 104 31 3 32 2 33 1 34 102 35 27 37 28 38 29 39 30 40 31 41
REMARK SMILES IDX 32 42 33 43 34 44 35 45 96 46 36 47 95 48 37 49 38 50 39 51
REMARK SMILES IDX 89 52 40 53 94 54 88 55 90 56 41 57 93 58 87 59 86 60 42 62
REMARK SMILES IDX 74 63 54 64 73 65 55 66 58 67 72 68 91 69 56 70 57 71 71 73
REMARK SMILES IDX 92 74 59 75 43 76 44 77 52 78 45 79 47 80 53 81 46 82 48 83
REMARK SMILES IDX 49 84 50 85 51 86 75 87 76 88 84 89 77 90 79 91 85 92 78 93
REMARK SMILES IDX 80 94 81 95 82 96 83 97 60 98 61 99 69 100 62 101 64 102
REMARK SMILES IDX 70 103 63 104 65 105 66 106 67 107 68 108
REMARK H PARENT 102 36 90 61 58 72
REMARK Flexibility Score: inf
ROOT
ATOM      1  C   UNL A   1      41.887  22.461  27.641  1.00  0.00     0.188 C 
ENDROOT
BRANCH   1   2
ATOM      2  O   UNL A   1      42.588  23.599  27.166  1.00  0.00    -0.376 OA
BRANCH   2   3
ATOM      3  C   UNL A   1      42.418  24.040  25.828  1.00  0.00     0.202 C 
BRANCH   3   4
ATOM      4  C   UNL A   1      42.686  25.496  25.414  1.00  0.00     0.261 C 
BRANCH   4   5
ATOM      5  O   UNL A   1      41.514  26.305  25.263  1.00  0.00    -0.460 OA
BRANCH   5   6
ATOM      6  C   UNL A   1      41.590  27.545  25.822  1.00  0.00     0.338 C 
ATOM      7  O   UNL A   1      42.198  28.501  25.405  1.00  0.00    -0.246 OA
BRANCH   6   8
ATOM      8  C   UNL A   1      40.658  27.610  26.972  1.00  0.00     0.062 A 
ATOM      9  C   UNL A   1      39.377  28.873  28.614  1.00  0.00     0.052 A 
ATOM     10  C   UNL A   1      38.938  27.657  29.160  1.00  0.00     0.027 A 
ATOM     11  C   UNL A   1      40.243  28.833  27.507  1.00  0.00     0.042 A 
ATOM     12  C   UNL A   1      39.375  26.433  28.640  1.00  0.00     0.003 A 
ATOM     13  C   UNL A   1      40.229  26.408  27.540  1.00  0.00     0.016 A 
BRANCH   9  14
ATOM     14  N   UNL A   1      38.952  30.155  29.134  1.00  0.00    -0.251 N 
ATOM     15  C   UNL A   1      35.999  32.326  28.907  1.00  0.00     0.031 C 
ATOM     16  C   UNL A   1      37.284  31.965  29.145  1.00  0.00     0.103 C 
ATOM     17  C   UNL A   1      37.721  30.630  28.635  1.00  0.00     0.270 C 
ATOM     18  C   UNL A   1      38.328  32.685  29.856  1.00  0.00     0.226 C 
ATOM     19  O   UNL A   1      36.997  30.012  27.851  1.00  0.00    -0.268 OA
ATOM     20  N   UNL A   1      39.427  32.209  30.292  1.00  0.00    -0.184 NA
ATOM     21  C   UNL A   1      39.760  30.899  30.032  1.00  0.00     0.210 C 
ATOM     22  S   UNL A   1      41.221  30.383  30.733  1.00  0.00    -0.038 S 
BRANCH  15  23
ATOM     23  C   UNL A   1      35.226  33.540  29.280  1.00  0.00     0.021 A 
ATOM     24  C   UNL A   1      34.583  33.634  30.552  1.00  0.00     0.130 A 
ATOM     25  C   UNL A   1      33.800  34.749  30.880  1.00  0.00     0.097 A 
ATOM     26  C   UNL A   1      33.648  35.734  29.932  1.00  0.00     0.169 A 
ATOM     27  C   UNL A   1      35.151  34.642  28.414  1.00  0.00     0.062 A 
ATOM     28  C   UNL A   1      34.317  35.689  28.739  1.00  0.00     0.166 A 
ATOM     29  O   UNL A   1      32.882  36.851  30.057  1.00  0.00    -0.453 OA
ATOM     30  O   UNL A   1      34.056  36.771  27.956  1.00  0.00    -0.454 OA
ATOM     31  C   UNL A   1      33.046  37.429  28.746  1.00  0.00     0.468 C 
BRANCH  24  32
ATOM     32  O   UNL A   1      34.873  32.686  31.505  1.00  0.00    -0.493 OA
BRANCH  32  33
ATOM     33  C   UNL A   1      35.858  33.042  32.482  1.00  0.00     0.226 C 
ATOM     34  C   UNL A   1      36.415  31.839  33.233  1.00  0.00     0.049 C 
ENDBRANCH  32  33
ENDBRANCH  24  32
ENDBRANCH  15  23
BRANCH  18  35
ATOM     35  O   UNL A   1      38.170  33.998  30.028  1.00  0.00    -0.493 OA
ATOM     36  H   UNL A   1      37.747  34.322  30.799  1.00  0.00     0.295 HD
ENDBRANCH  18  35
ENDBRANCH   9  14
ENDBRANCH   6   8
ENDBRANCH   5   6
ENDBRANCH   4   5
ENDBRANCH   3   4
ENDBRANCH   2   3
ENDBRANCH   1   2
BRANCH   1  37
ATOM     37  C   UNL A   1      41.035  21.620  26.669  1.00  0.00     0.188 C 
BRANCH  37  38
ATOM     38  O   UNL A   1      41.417  20.277  26.486  1.00  0.00    -0.376 OA
BRANCH  38  39
ATOM     39  C   UNL A   1      42.785  19.908  26.452  1.00  0.00     0.202 C 
BRANCH  39  40
ATOM     40  C   UNL A   1      43.818  20.283  25.370  1.00  0.00     0.261 C 
BRANCH  40  41
ATOM     41  O   UNL A   1      44.768  21.307  25.652  1.00  0.00    -0.460 OA
BRANCH  41  42
ATOM     42  C   UNL A   1      44.918  22.248  24.690  1.00  0.00     0.338 C 
ATOM     43  O   UNL A   1      44.245  22.384  23.683  1.00  0.00    -0.246 OA
BRANCH  42  44
ATOM     44  C   UNL A   1      45.938  23.216  25.132  1.00  0.00     0.060 A 
ATOM     45  C   UNL A   1      46.072  23.462  26.503  1.00  0.00     0.016 A 
ATOM     46  C   UNL A   1      46.720  23.906  24.202  1.00  0.00     0.016 A 
ATOM     47  C   UNL A   1      46.962  24.440  26.948  1.00  0.00     0.010 A 
ATOM     48  C   UNL A   1      47.601  24.895  24.650  1.00  0.00     0.010 A 
ATOM     49  C   UNL A   1      47.695  25.193  26.022  1.00  0.00    -0.014 A 
BRANCH  49  50
ATOM     50  C   UNL A   1      48.410  26.410  26.476  1.00  0.00     0.031 A 
ATOM     51  C   UNL A   1      49.909  26.362  26.596  1.00  0.00     0.074 A 
ATOM     52  C   UNL A   1      47.744  27.543  26.761  1.00  0.00     0.049 A 
ATOM     53  N   UNL A   1      50.742  27.303  26.958  1.00  0.00    -0.248 NA
ATOM     54  C   UNL A   1      50.555  25.081  26.266  1.00  0.00     0.031 C 
ATOM     55  C   UNL A   1      46.295  27.715  26.687  1.00  0.00     0.029 A 
ATOM     56  N   UNL A   1      48.207  28.761  27.193  1.00  0.00    -0.354 N 
ATOM     57  C   UNL A   1      52.004  26.724  26.920  1.00  0.00     0.074 A 
ATOM     58  C   UNL A   1      51.828  25.345  26.519  1.00  0.00     0.031 C 
ATOM     59  C   UNL A   1      45.983  28.962  27.083  1.00  0.00     0.029 A 
ATOM     60  C   UNL A   1      47.208  29.669  27.454  1.00  0.00     0.049 A 
ATOM     61  H   UNL A   1      49.164  28.965  27.306  1.00  0.00     0.167 HD
ATOM     62  C   UNL A   1      53.207  27.292  27.176  1.00  0.00     0.034 A 
ATOM     63  C   UNL A   1      47.278  30.922  27.949  1.00  0.00     0.034 A 
ATOM     64  C   UNL A   1      53.385  28.665  27.560  1.00  0.00     0.049 A 
ATOM     65  C   UNL A   1      48.628  31.525  28.246  1.00  0.00     0.074 A 
ATOM     66  C   UNL A   1      54.565  29.345  27.799  1.00  0.00     0.029 A 
ATOM     67  N   UNL A   1      52.354  29.566  27.773  1.00  0.00    -0.354 N 
ATOM     68  N   UNL A   1      49.820  31.006  28.083  1.00  0.00    -0.248 NA
ATOM     69  C   UNL A   1      48.642  32.903  28.761  1.00  0.00     0.031 C 
ATOM     70  C   UNL A   1      54.247  30.652  28.181  1.00  0.00     0.029 A 
ATOM     71  C   UNL A   1      52.869  30.794  28.150  1.00  0.00     0.049 A 
ATOM     72  H   UNL A   1      51.395  29.362  27.671  1.00  0.00     0.167 HD
ATOM     73  C   UNL A   1      50.725  32.004  28.434  1.00  0.00     0.074 A 
ATOM     74  C   UNL A   1      49.942  33.164  28.805  1.00  0.00     0.031 C 
ATOM     75  C   UNL A   1      52.081  31.960  28.458  1.00  0.00     0.034 A 
BRANCH  62  76
ATOM     76  C   UNL A   1      54.430  26.428  27.021  1.00  0.00     0.023 A 
ATOM     77  C   UNL A   1      55.052  26.322  25.760  1.00  0.00     0.012 A 
ATOM     78  C   UNL A   1      54.990  25.760  28.127  1.00  0.00     0.148 A 
ATOM     79  C   UNL A   1      56.193  25.538  25.595  1.00  0.00     0.002 A 
ATOM     80  C   UNL A   1      56.154  25.015  27.964  1.00  0.00     0.091 A 
ATOM     81  F   UNL A   1      54.371  25.852  29.312  1.00  0.00    -0.205 F 
ATOM     82  C   UNL A   1      56.749  24.894  26.697  1.00  0.00     0.022 A 
BRANCH  80  83
ATOM     83  S   UNL A   1      56.987  24.212  29.337  1.00  0.00     0.127 S 
ATOM     84  O   UNL A   1      58.334  24.028  28.797  1.00  0.00    -0.237 OA
ATOM     85  O   UNL A   1      56.886  25.220  30.392  1.00  0.00    -0.237 OA
ATOM     86  O   UNL A   1      56.244  22.987  29.597  1.00  0.00    -0.744 OA
ENDBRANCH  80  83
ENDBRANCH  62  76
BRANCH  63  87
ATOM     87  C   UNL A   1      46.031  31.714  28.148  1.00  0.00     0.023 A 
ATOM     88  C   UNL A   1      45.315  31.589  29.356  1.00  0.00     0.012 A 
ATOM     89  C   UNL A   1      45.558  32.595  27.157  1.00  0.00     0.148 A 
ATOM     90  C   UNL A   1      44.135  32.305  29.558  1.00  0.00     0.002 A 
ATOM     91  C   UNL A   1      44.411  33.344  27.387  1.00  0.00     0.091 A 
ATOM     92  F   UNL A   1      46.244  32.685  26.009  1.00  0.00    -0.205 F 
ATOM     93  C   UNL A   1      43.688  33.189  28.580  1.00  0.00     0.022 A 
BRANCH  91  94
ATOM     94  S   UNL A   1      43.828  34.593  26.235  1.00  0.00     0.127 S 
ATOM     95  O   UNL A   1      44.983  35.484  26.150  1.00  0.00    -0.237 OA
ATOM     96  O   UNL A   1      43.574  33.798  25.033  1.00  0.00    -0.237 OA
ATOM     97  O   UNL A   1      42.633  35.163  26.843  1.00  0.00    -0.744 OA
ENDBRANCH  91  94
ENDBRANCH  63  87
BRANCH  75  98
ATOM     98  C   UNL A   1      52.820  33.213  28.853  1.00  0.00     0.023 A 
ATOM     99  C   UNL A   1      53.219  33.403  30.191  1.00  0.00     0.012 A 
ATOM    100  C   UNL A   1      53.195  34.160  27.879  1.00  0.00     0.148 A 
ATOM    101  C   UNL A   1      53.951  34.531  30.559  1.00  0.00     0.002 A 
ATOM    102  C   UNL A   1      53.967  35.257  28.245  1.00  0.00     0.091 A 
ATOM    103  F   UNL A   1      52.792  33.972  26.614  1.00  0.00    -0.205 F 
ATOM    104  C   UNL A   1      54.335  35.450  29.585  1.00  0.00     0.022 A 
BRANCH 102 105
ATOM    105  S   UNL A   1      54.590  36.439  27.042  1.00  0.00     0.127 S 
ATOM    106  O   UNL A   1      55.374  37.339  27.887  1.00  0.00    -0.237 OA
ATOM    107  O   UNL A   1      55.385  35.590  26.154  1.00  0.00    -0.237 OA
ATOM    108  O   UNL A   1      53.414  37.032  26.417  1.00  0.00    -0.744 OA
ENDBRANCH 102 105
ENDBRANCH  75  98
ENDBRANCH  49  50
ENDBRANCH  42  44
ENDBRANCH  41  42
ENDBRANCH  40  41
ENDBRANCH  39  40
ENDBRANCH  38  39
ENDBRANCH  37  38
ENDBRANCH   1  37
TORSDOF 25
ENDMDL
MODEL 2
REMARK VINA RESULT:      -7.8      4.971      7.528
REMARK SMILES CCOc1cc2c(cc1/C=C1/C(=O)N(c3cccc(C(=O)OCCOCCOCCOC(=O)c4ccc(-c5c6nc(c(-c7cccc(S(=O)(=O)[O-])c7F)c7ccc([nH]7)c(-c7cccc(S(=O)(=O)[O-])c7F)c7nc(c(-c8cccc(S(=O)(=O)[O-])c8F)c8ccc5[nH]8)C=C7)C=C6)cc4)c3)C(=S)N=C1O)OCO2
REMARK SMILES IDX 26 1 25 2 24 3 23 4 22 5 20 6 21 7 19 8 15 9 16 10 97 11
REMARK SMILES IDX 17 12 18 13 14 14 10 15 11 16 12 17 101 18 13 19 100 20
REMARK SMILES IDX 98 21 99 22 9 23 4 24 5 25 6 26 8 27 7 28 105 29 103 30
REMARK SMILES IDX 104 31 3 32 2 33 1 34 102 35 27 37 28 38 29 39 30 40 31 41
REMARK SMILES IDX 32 42 33 43 34 44 35 45 96 46 36 47 95 48 37 49 38 50 39 51
REMARK SMILES IDX 89 52 40 53 94 54 88 55 90 56 41 57 93 58 87 59 86 60 42 62
REMARK SMILES IDX 74 63 54 64 73 65 55 66 58 67 72 68 91 69 56 70 57 71 71 73
REMARK SMILES IDX 92 74 59 75 43 76 44 77 52 78 45 79 47 80 53 81 46 82 48 83
REMARK SMILES IDX 49 84 50 85 51 86 75 87 76 88 84 89 77 90 79 91 85 92 78 93
REMARK SMILES IDX 80 94 81 95 82 96 83 97 60 98 61 99 69 100 62 101 64 102
REMARK SMILES IDX 70 103 63 104 65 105 66 106 67 107 68 108
REMARK H PARENT 102 36 90 61 58 72
REMARK Flexibility Score: inf
ROOT
ATOM      1  C   UNL A   1      40.556  25.148  28.354  1.00  0.00     0.188 C 
ENDROOT
BRANCH   1   2
ATOM      2  O   UNL A   1      40.207  26.119  27.380  1.00  0.00    -0.376 OA
BRANCH   2   3
ATOM      3  C   UNL A   1      40.282  27.502  27.688  1.00  0.00     0.202 C 
BRANCH   3   4
ATOM      4  C   UNL A   1      40.417  28.005  29.134  1.00  0.00     0.261 C 
BRANCH   4   5
ATOM      5  O   UNL A   1      40.662  29.410  29.264  1.00  0.00    -0.460 OA
BRANCH   5   6
ATOM      6  C   UNL A   1      40.121  29.992  30.370  1.00  0.00     0.338 C 
ATOM      7  O   UNL A   1      40.427  29.799  31.524  1.00  0.00    -0.246 OA
BRANCH   6   8
ATOM      8  C   UNL A   1      39.181  31.053  29.942  1.00  0.00     0.062 A 
ATOM      9  C   UNL A   1      37.039  31.768  29.031  1.00  0.00     0.052 A 
ATOM     10  C   UNL A   1      37.482  33.097  29.114  1.00  0.00     0.027 A 
ATOM     11  C   UNL A   1      37.907  30.747  29.455  1.00  0.00     0.042 A 
ATOM     12  C   UNL A   1      38.768  33.401  29.577  1.00  0.00     0.003 A 
ATOM     13  C   UNL A   1      39.616  32.380  30.000  1.00  0.00     0.016 A 
BRANCH   9  14
ATOM     14  N   UNL A   1      35.720  31.421  28.547  1.00  0.00    -0.251 N 
ATOM     15  C   UNL A   1      34.150  28.661  26.702  1.00  0.00     0.031 C 
ATOM     16  C   UNL A   1      34.302  29.901  27.228  1.00  0.00     0.103 C 
ATOM     17  C   UNL A   1      35.655  30.256  27.755  1.00  0.00     0.270 C 
ATOM     18  C   UNL A   1      33.322  30.964  27.383  1.00  0.00     0.226 C 
ATOM     19  O   UNL A   1      36.615  29.522  27.508  1.00  0.00    -0.268 OA
ATOM     20  N   UNL A   1      33.426  32.001  28.116  1.00  0.00    -0.184 NA
ATOM     21  C   UNL A   1      34.592  32.243  28.806  1.00  0.00     0.210 C 
ATOM     22  S   UNL A   1      34.560  33.624  29.796  1.00  0.00    -0.038 S 
BRANCH  15  23
ATOM     23  C   UNL A   1      32.969  27.969  26.123  1.00  0.00     0.021 A 
ATOM     24  C   UNL A   1      32.384  28.421  24.901  1.00  0.00     0.130 A 
ATOM     25  C   UNL A   1      31.231  27.811  24.388  1.00  0.00     0.097 A 
ATOM     26  C   UNL A   1      30.666  26.785  25.109  1.00  0.00     0.169 A 
ATOM     27  C   UNL A   1      32.430  26.827  26.736  1.00  0.00     0.062 A 
ATOM     28  C   UNL A   1      31.258  26.297  26.243  1.00  0.00     0.166 A 
ATOM     29  O   UNL A   1      29.522  26.122  24.792  1.00  0.00    -0.453 OA
ATOM     30  O   UNL A   1      30.560  25.264  26.788  1.00  0.00    -0.454 OA
ATOM     31  C   UNL A   1      29.397  25.253  25.937  1.00  0.00     0.468 C 
BRANCH  24  32
ATOM     32  O   UNL A   1      33.061  29.360  24.159  1.00  0.00    -0.493 OA
BRANCH  32  33
ATOM     33  C   UNL A   1      33.146  29.121  22.750  1.00  0.00     0.226 C 
ATOM     34  C   UNL A   1      34.410  28.372  22.346  1.00  0.00     0.049 C 
ENDBRANCH  32  33
ENDBRANCH  24  32
ENDBRANCH  15  23
BRANCH  18  35
ATOM     35  O   UNL A   1      32.217  30.901  26.640  1.00  0.00    -0.493 OA
ATOM     36  H   UNL A   1      32.169  30.302  25.921  1.00  0.00     0.295 HD
ENDBRANCH  18  35
ENDBRANCH   9  14
ENDBRANCH   6   8
ENDBRANCH   5   6
ENDBRANCH   4   5
ENDBRANCH   3   4
ENDBRANCH   2   3
ENDBRANCH   1   2
BRANCH   1  37
ATOM     37  C   UNL A   1      42.036  24.771  28.569  1.00  0.00     0.188 C 
BRANCH  37  38
ATOM     38  O   UNL A   1      42.401  23.441  28.287  1.00  0.00    -0.376 OA
BRANCH  38  39
ATOM     39  C   UNL A   1      41.693  22.681  27.323  1.00  0.00     0.202 C 
BRANCH  39  40
ATOM     40  C   UNL A   1      41.848  22.756  25.789  1.00  0.00     0.261 C 
BRANCH  40  41
ATOM     41  O   UNL A   1      43.061  23.270  25.246  1.00  0.00    -0.460 OA
BRANCH  41  42
ATOM     42  C   UNL A   1      43.105  24.613  25.080  1.00  0.00     0.338 C 
ATOM     43  O   UNL A   1      42.159  25.377  25.008  1.00  0.00    -0.246 OA
BRANCH  42  44
ATOM     44  C   UNL A   1      44.509  25.053  25.169  1.00  0.00     0.060 A 
ATOM     45  C   UNL A   1      45.517  24.085  25.075  1.00  0.00     0.016 A 
ATOM     46  C   UNL A   1      44.826  26.396  25.390  1.00  0.00     0.016 A 
ATOM     47  C   UNL A   1      46.850  24.455  25.250  1.00  0.00     0.010 A 
ATOM     48  C   UNL A   1      46.163  26.760  25.577  1.00  0.00     0.010 A 
ATOM     49  C   UNL A   1      47.175  25.784  25.548  1.00  0.00    -0.014 A 
BRANCH  49  50
ATOM     50  C   UNL A   1      48.544  26.112  26.015  1.00  0.00     0.031 A 
ATOM     51  C   UNL A   1      48.876  25.914  27.469  1.00  0.00     0.074 A 
ATOM     52  C   UNL A   1      49.481  26.564  25.163  1.00  0.00     0.049 A 
ATOM     53  N   UNL A   1      50.004  26.119  28.098  1.00  0.00    -0.248 NA
ATOM     54  C   UNL A   1      47.789  25.419  28.330  1.00  0.00     0.031 C 
ATOM     55  C   UNL A   1      49.283  26.800  23.735  1.00  0.00     0.029 A 
ATOM     56  N   UNL A   1      50.787  26.924  25.388  1.00  0.00    -0.354 N 
ATOM     57  C   UNL A   1      49.759  25.800  29.428  1.00  0.00     0.074 A 
ATOM     58  C   UNL A   1      48.370  25.406  29.521  1.00  0.00     0.031 C 
ATOM     59  C   UNL A   1      50.423  27.289  23.212  1.00  0.00     0.029 A 
ATOM     60  C   UNL A   1      51.423  27.415  24.272  1.00  0.00     0.049 A 
ATOM     61  H   UNL A   1      51.227  26.839  26.264  1.00  0.00     0.167 HD
ATOM     62  C   UNL A   1      50.615  25.815  30.476  1.00  0.00     0.034 A 
ATOM     63  C   UNL A   1      52.665  27.919  24.129  1.00  0.00     0.034 A 
ATOM     64  C   UNL A   1      51.999  26.191  30.382  1.00  0.00     0.049 A 
ATOM     65  C   UNL A   1      53.594  27.944  25.316  1.00  0.00     0.074 A 
ATOM     66  C   UNL A   1      52.959  26.196  31.378  1.00  0.00     0.029 A 
ATOM     67  N   UNL A   1      52.618  26.642  29.227  1.00  0.00    -0.354 N 
ATOM     68  N   UNL A   1      53.386  27.519  26.539  1.00  0.00    -0.248 NA
ATOM     69  C   UNL A   1      54.945  28.484  25.094  1.00  0.00     0.031 C 
ATOM     70  C   UNL A   1      54.154  26.674  30.831  1.00  0.00     0.029 A 
ATOM     71  C   UNL A   1      53.945  26.938  29.487  1.00  0.00     0.049 A 
ATOM     72  H   UNL A   1      52.179  26.738  28.351  1.00  0.00     0.167 HD
ATOM     73  C   UNL A   1      54.587  27.701  27.218  1.00  0.00     0.074 A 
ATOM     74  C   UNL A   1      55.524  28.261  26.266  1.00  0.00     0.031 C 
ATOM     75  C   UNL A   1      54.884  27.438  28.516  1.00  0.00     0.034 A 
BRANCH  62  76
ATOM     76  C   UNL A   1      50.082  25.381  31.816  1.00  0.00     0.023 A 
ATOM     77  C   UNL A   1      49.156  26.199  32.494  1.00  0.00     0.012 A 
ATOM     78  C   UNL A   1      50.459  24.147  32.381  1.00  0.00     0.148 A 
ATOM     79  C   UNL A   1      48.638  25.813  33.730  1.00  0.00     0.002 A 
ATOM     80  C   UNL A   1      49.905  23.748  33.593  1.00  0.00     0.091 A 
ATOM     81  F   UNL A   1      51.360  23.395  31.734  1.00  0.00    -0.205 F 
ATOM     82  C   UNL A   1      49.004  24.584  34.274  1.00  0.00     0.022 A 
BRANCH  80  83
ATOM     83  S   UNL A   1      50.256  22.152  34.336  1.00  0.00     0.127 S 
ATOM     84  O   UNL A   1      49.952  21.240  33.233  1.00  0.00    -0.237 OA
ATOM     85  O   UNL A   1      51.679  22.266  34.656  1.00  0.00    -0.237 OA
ATOM     86  O   UNL A   1      49.381  22.047  35.495  1.00  0.00    -0.744 OA
ENDBRANCH  80  83
ENDBRANCH  62  76
BRANCH  63  87
ATOM     87  C   UNL A   1      53.124  28.399  22.794  1.00  0.00     0.023 A 
ATOM     88  C   UNL A   1      53.096  29.778  22.504  1.00  0.00     0.012 A 
ATOM     89  C   UNL A   1      53.598  27.502  21.818  1.00  0.00     0.148 A 
ATOM     90  C   UNL A   1      53.503  30.250  21.256  1.00  0.00     0.002 A 
ATOM     91  C   UNL A   1      54.051  27.983  20.596  1.00  0.00     0.091 A 
ATOM     92  F   UNL A   1      53.599  26.192  22.107  1.00  0.00    -0.205 F 
ATOM     93  C   UNL A   1      53.989  29.356  20.306  1.00  0.00     0.022 A 
BRANCH  91  94
ATOM     94  S   UNL A   1      54.802  26.920  19.359  1.00  0.00     0.127 S 
ATOM     95  O   UNL A   1      55.335  27.896  18.410  1.00  0.00    -0.237 OA
ATOM     96  O   UNL A   1      55.812  26.212  20.145  1.00  0.00    -0.237 OA
ATOM     97  O   UNL A   1      53.727  26.075  18.859  1.00  0.00    -0.744 OA
ENDBRANCH  91  94
ENDBRANCH  63  87
BRANCH  75  98
ATOM     98  C   UNL A   1      56.292  27.704  28.985  1.00  0.00     0.023 A 
ATOM     99  C   UNL A   1      57.272  26.699  28.876  1.00  0.00     0.012 A 
ATOM    100  C   UNL A   1      56.661  28.981  29.453  1.00  0.00     0.148 A 
ATOM    101  C   UNL A   1      58.591  26.950  29.255  1.00  0.00     0.002 A 
ATOM    102  C   UNL A   1      57.987  29.238  29.783  1.00  0.00     0.091 A 
ATOM    103  F   UNL A   1      55.711  29.921  29.567  1.00  0.00    -0.205 F 
ATOM    104  C   UNL A   1      58.950  28.221  29.695  1.00  0.00     0.022 A 
BRANCH 102 105
ATOM    105  S   UNL A   1      58.559  30.872  30.266  1.00  0.00     0.127 S 
ATOM    106  O   UNL A   1      58.175  31.677  29.107  1.00  0.00    -0.237 OA
ATOM    107  O   UNL A   1      57.776  31.132  31.475  1.00  0.00    -0.237 OA
ATOM    108  O   UNL A   1      59.993  30.744  30.492  1.00  0.00    -0.744 OA
ENDBRANCH 102 105
ENDBRANCH  75  98
ENDBRANCH  49  50
ENDBRANCH  42  44
ENDBRANCH  41  42
ENDBRANCH  40  41
ENDBRANCH  39  40
ENDBRANCH  38  39
ENDBRANCH  37  38
ENDBRANCH   1  37
TORSDOF 25
ENDMDL
MODEL 3
REMARK VINA RESULT:      -7.6      3.653      6.571
REMARK SMILES CCOc1cc2c(cc1/C=C1/C(=O)N(c3cccc(C(=O)OCCOCCOCCOC(=O)c4ccc(-c5c6nc(c(-c7cccc(S(=O)(=O)[O-])c7F)c7ccc([nH]7)c(-c7cccc(S(=O)(=O)[O-])c7F)c7nc(c(-c8cccc(S(=O)(=O)[O-])c8F)c8ccc5[nH]8)C=C7)C=C6)cc4)c3)C(=S)N=C1O)OCO2
REMARK SMILES IDX 26 1 25 2 24 3 23 4 22 5 20 6 21 7 19 8 15 9 16 10 97 11
REMARK SMILES IDX 17 12 18 13 14 14 10 15 11 16 12 17 101 18 13 19 100 20
REMARK SMILES IDX 98 21 99 22 9 23 4 24 5 25 6 26 8 27 7 28 105 29 103 30
REMARK SMILES IDX 104 31 3 32 2 33 1 34 102 35 27 37 28 38 29 39 30 40 31 41
REMARK SMILES IDX 32 42 33 43 34 44 35 45 96 46 36 47 95 48 37 49 38 50 39 51
REMARK SMILES IDX 89 52 40 53 94 54 88 55 90 56 41 57 93 58 87 59 86 60 42 62
REMARK SMILES IDX 74 63 54 64 73 65 55 66 58 67 72 68 91 69 56 70 57 71 71 73
REMARK SMILES IDX 92 74 59 75 43 76 44 77 52 78 45 79 47 80 53 81 46 82 48 83
REMARK SMILES IDX 49 84 50 85 51 86 75 87 76 88 84 89 77 90 79 91 85 92 78 93
REMARK SMILES IDX 80 94 81 95 82 96 83 97 60 98 61 99 69 100 62 101 64 102
REMARK SMILES IDX 70 103 63 104 65 105 66 106 67 107 68 108
REMARK H PARENT 102 36 90 61 58 72
REMARK Flexibility Score: inf
ROOT
ATOM      1  C   UNL A   1      41.526  23.458  27.494  1.00  0.00     0.188 C 
ENDROOT
BRANCH   1   2
ATOM      2  O   UNL A   1      42.366  24.503  27.031  1.00  0.00    -0.376 OA
BRANCH   2   3
ATOM      3  C   UNL A   1      42.389  24.850  25.655  1.00  0.00     0.202 C 
BRANCH   3   4
ATOM      4  C   UNL A   1      43.009  26.167  25.162  1.00  0.00     0.261 C 
BRANCH   4   5
ATOM      5  O   UNL A   1      42.069  27.210  24.882  1.00  0.00    -0.460 OA
BRANCH   5   6
ATOM      6  C   UNL A   1      42.133  28.286  25.714  1.00  0.00     0.338 C 
ATOM      7  O   UNL A   1      42.423  29.422  25.423  1.00  0.00    -0.246 OA
BRANCH   6   8
ATOM      8  C   UNL A   1      41.619  27.892  27.047  1.00  0.00     0.062 A 
ATOM      9  C   UNL A   1      41.943  27.497  29.429  1.00  0.00     0.052 A 
ATOM     10  C   UNL A   1      40.600  27.099  29.513  1.00  0.00     0.027 A 
ATOM     11  C   UNL A   1      42.443  27.898  28.177  1.00  0.00     0.042 A 
ATOM     12  C   UNL A   1      39.784  27.068  28.376  1.00  0.00     0.003 A 
ATOM     13  C   UNL A   1      40.291  27.473  27.143  1.00  0.00     0.016 A 
BRANCH   9  14
ATOM     14  N   UNL A   1      42.815  27.530  30.583  1.00  0.00    -0.251 N 
ATOM     15  C   UNL A   1      45.592  25.545  31.938  1.00  0.00     0.031 C 
ATOM     16  C   UNL A   1      44.569  26.435  31.919  1.00  0.00     0.103 C 
ATOM     17  C   UNL A   1      43.681  26.424  30.716  1.00  0.00     0.270 C 
ATOM     18  C   UNL A   1      44.200  27.439  32.904  1.00  0.00     0.226 C 
ATOM     19  O   UNL A   1      43.766  25.499  29.907  1.00  0.00    -0.268 OA
ATOM     20  N   UNL A   1      43.411  28.425  32.735  1.00  0.00    -0.184 NA
ATOM     21  C   UNL A   1      42.744  28.576  31.540  1.00  0.00     0.210 C 
ATOM     22  S   UNL A   1      41.781  29.972  31.434  1.00  0.00    -0.038 S 
BRANCH  15  23
ATOM     23  C   UNL A   1      46.666  25.294  32.934  1.00  0.00     0.021 A 
ATOM     24  C   UNL A   1      47.891  26.027  32.890  1.00  0.00     0.130 A 
ATOM     25  C   UNL A   1      48.930  25.745  33.786  1.00  0.00     0.097 A 
ATOM     26  C   UNL A   1      48.745  24.725  34.691  1.00  0.00     0.169 A 
ATOM     27  C   UNL A   1      46.484  24.365  33.972  1.00  0.00     0.062 A 
ATOM     28  C   UNL A   1      47.550  24.065  34.791  1.00  0.00     0.166 A 
ATOM     29  O   UNL A   1      49.662  24.281  35.591  1.00  0.00    -0.453 OA
ATOM     30  O   UNL A   1      47.562  23.116  35.766  1.00  0.00    -0.454 OA
ATOM     31  C   UNL A   1      48.944  23.173  36.172  1.00  0.00     0.468 C 
BRANCH  24  32
ATOM     32  O   UNL A   1      47.972  27.116  32.054  1.00  0.00    -0.493 OA
BRANCH  32  33
ATOM     33  C   UNL A   1      47.857  28.404  32.670  1.00  0.00     0.226 C 
ATOM     34  C   UNL A   1      48.150  29.552  31.712  1.00  0.00     0.049 C 
ENDBRANCH  32  33
ENDBRANCH  24  32
ENDBRANCH  15  23
BRANCH  18  35
ATOM     35  O   UNL A   1      44.676  27.298  34.141  1.00  0.00    -0.493 OA
ATOM     36  H   UNL A   1      45.006  26.467  34.424  1.00  0.00     0.295 HD
ENDBRANCH  18  35
ENDBRANCH   9  14
ENDBRANCH   6   8
ENDBRANCH   5   6
ENDBRANCH   4   5
ENDBRANCH   3   4
ENDBRANCH   2   3
ENDBRANCH   1   2
BRANCH   1  37
ATOM     37  C   UNL A   1      40.868  22.494  26.485  1.00  0.00     0.188 C 
BRANCH  37  38
ATOM     38  O   UNL A   1      41.023  21.116  26.728  1.00  0.00    -0.376 OA
BRANCH  38  39
ATOM     39  C   UNL A   1      42.304  20.511  26.700  1.00  0.00     0.202 C 
BRANCH  39  40
ATOM     40  C   UNL A   1      43.418  20.752  25.660  1.00  0.00     0.261 C 
BRANCH  40  41
ATOM     41  O   UNL A   1      44.451  21.686  25.964  1.00  0.00    -0.460 OA
BRANCH  41  42
ATOM     42  C   UNL A   1      44.875  22.447  24.928  1.00  0.00     0.338 C 
ATOM     43  O   UNL A   1      44.442  22.446  23.789  1.00  0.00    -0.246 OA
BRANCH  42  44
ATOM     44  C   UNL A   1      45.852  23.428  25.433  1.00  0.00     0.060 A 
ATOM     45  C   UNL A   1      45.922  23.648  26.814  1.00  0.00     0.016 A 
ATOM     46  C   UNL A   1      46.656  24.157  24.551  1.00  0.00     0.016 A 
ATOM     47  C   UNL A   1      46.769  24.636  27.316  1.00  0.00     0.010 A 
ATOM     48  C   UNL A   1      47.494  25.155  25.057  1.00  0.00     0.010 A 
ATOM     49  C   UNL A   1      47.522  25.425  26.438  1.00  0.00    -0.014 A 
BRANCH  49  50
ATOM     50  C   UNL A   1      48.188  26.649  26.947  1.00  0.00     0.031 A 
ATOM     51  C   UNL A   1      49.667  26.602  27.222  1.00  0.00     0.074 A 
ATOM     52  C   UNL A   1      47.498  27.785  27.147  1.00  0.00     0.049 A 
ATOM     53  N   UNL A   1      50.460  27.547  27.655  1.00  0.00    -0.248 NA
ATOM     54  C   UNL A   1      50.341  25.316  26.978  1.00  0.00     0.031 C 
ATOM     55  C   UNL A   1      46.065  27.956  26.921  1.00  0.00     0.029 A 
ATOM     56  N   UNL A   1      47.916  29.009  27.609  1.00  0.00    -0.354 N 
ATOM     57  C   UNL A   1      51.718  26.968  27.756  1.00  0.00     0.074 A 
ATOM     58  C   UNL A   1      51.582  25.584  27.357  1.00  0.00     0.031 C 
ATOM     59  C   UNL A   1      45.716  29.209  27.266  1.00  0.00     0.029 A 
ATOM     60  C   UNL A   1      46.897  29.921  27.753  1.00  0.00     0.049 A 
ATOM     61  H   UNL A   1      48.857  29.214  27.817  1.00  0.00     0.167 HD
ATOM     62  C   UNL A   1      52.889  27.539  28.128  1.00  0.00     0.034 A 
ATOM     63  C   UNL A   1      46.917  31.180  28.235  1.00  0.00     0.034 A 
ATOM     64  C   UNL A   1      53.028  28.917  28.509  1.00  0.00     0.049 A 
ATOM     65  C   UNL A   1      48.230  31.787  28.662  1.00  0.00     0.074 A 
ATOM     66  C   UNL A   1      54.179  29.600  28.860  1.00  0.00     0.029 A 
ATOM     67  N   UNL A   1      51.982  29.821  28.602  1.00  0.00    -0.354 N 
ATOM     68  N   UNL A   1      49.432  31.265  28.630  1.00  0.00    -0.248 NA
ATOM     69  C   UNL A   1      48.193  33.172  29.158  1.00  0.00     0.031 C 
ATOM     70  C   UNL A   1      53.825  30.912  29.190  1.00  0.00     0.029 A 
ATOM     71  C   UNL A   1      52.457  31.054  29.015  1.00  0.00     0.049 A 
ATOM     72  H   UNL A   1      51.039  29.616  28.405  1.00  0.00     0.167 HD
ATOM     73  C   UNL A   1      50.297  32.268  29.060  1.00  0.00     0.074 A 
ATOM     74  C   UNL A   1      49.482  33.433  29.333  1.00  0.00     0.031 C 
ATOM     75  C   UNL A   1      51.643  32.224  29.224  1.00  0.00     0.034 A 
BRANCH  62  76
ATOM     76  C   UNL A   1      54.120  26.673  28.111  1.00  0.00     0.023 A 
ATOM     77  C   UNL A   1      54.563  26.070  29.306  1.00  0.00     0.012 A 
ATOM     78  C   UNL A   1      54.811  26.419  26.910  1.00  0.00     0.148 A 
ATOM     79  C   UNL A   1      55.694  25.254  29.313  1.00  0.00     0.002 A 
ATOM     80  C   UNL A   1      55.912  25.569  26.917  1.00  0.00     0.091 A 
ATOM     81  F   UNL A   1      54.390  27.021  25.789  1.00  0.00    -0.205 F 
ATOM     82  C   UNL A   1      56.361  24.996  28.118  1.00  0.00     0.022 A 
BRANCH  80  83
ATOM     83  S   UNL A   1      56.791  25.115  25.418  1.00  0.00     0.127 S 
ATOM     84  O   UNL A   1      58.185  25.224  25.848  1.00  0.00    -0.237 OA
ATOM     85  O   UNL A   1      56.328  23.746  25.192  1.00  0.00    -0.237 OA
ATOM     86  O   UNL A   1      56.372  26.071  24.402  1.00  0.00    -0.744 OA
ENDBRANCH  80  83
ENDBRANCH  62  76
BRANCH  63  87
ATOM     87  C   UNL A   1      45.658  31.974  28.295  1.00  0.00     0.023 A 
ATOM     88  C   UNL A   1      44.799  31.834  29.404  1.00  0.00     0.012 A 
ATOM     89  C   UNL A   1      45.311  32.873  27.268  1.00  0.00     0.148 A 
ATOM     90  C   UNL A   1      43.605  32.552  29.473  1.00  0.00     0.002 A 
ATOM     91  C   UNL A   1      44.147  33.625  27.368  1.00  0.00     0.091 A 
ATOM     92  F   UNL A   1      46.132  32.978  26.213  1.00  0.00    -0.205 F 
ATOM     93  C   UNL A   1      43.284  33.454  28.462  1.00  0.00     0.022 A 
BRANCH  91  94
ATOM     94  S   UNL A   1      43.712  34.894  26.174  1.00  0.00     0.127 S 
ATOM     95  O   UNL A   1      42.658  35.619  26.881  1.00  0.00    -0.237 OA
ATOM     96  O   UNL A   1      44.973  35.622  26.037  1.00  0.00    -0.237 OA
ATOM     97  O   UNL A   1      43.295  34.181  24.975  1.00  0.00    -0.744 OA
ENDBRANCH  91  94
ENDBRANCH  63  87
BRANCH  75  98
ATOM     98  C   UNL A   1      52.340  33.482  29.677  1.00  0.00     0.023 A 
ATOM     99  C   UNL A   1      52.578  33.700  31.048  1.00  0.00     0.012 A 
ATOM    100  C   UNL A   1      52.835  34.404  28.734  1.00  0.00     0.148 A 
ATOM    101  C   UNL A   1      53.270  34.833  31.476  1.00  0.00     0.002 A 
ATOM    102  C   UNL A   1      53.566  35.506  29.165  1.00  0.00     0.091 A 
ATOM    103  F   UNL A   1      52.584  34.190  27.434  1.00  0.00    -0.205 F 
ATOM    104  C   UNL A   1      53.774  35.728  30.535  1.00  0.00     0.022 A 
BRANCH 102 105
ATOM    105  S   UNL A   1      54.336  36.657  28.020  1.00  0.00     0.127 S 
ATOM    106  O   UNL A   1      55.337  35.810  27.373  1.00  0.00    -0.237 OA
ATOM    107  O   UNL A   1      53.215  37.041  27.161  1.00  0.00    -0.237 OA
ATOM    108  O   UNL A   1      54.867  37.740  28.837  1.00  0.00    -0.744 OA
ENDBRANCH 102 105
ENDBRANCH  75  98
ENDBRANCH  49  50
ENDBRANCH  42  44
ENDBRANCH  41  42
ENDBRANCH  40  41
ENDBRANCH  39  40
ENDBRANCH  38  39
ENDBRANCH  37  38
ENDBRANCH   1  37
TORSDOF 25
ENDMDL
