MODEL 1
REMARK VINA RESULT:      -9.1      0.000      0.000
REMARK SMILES CN1C(=O)C[C@H](C(=O)Nc2ccc(C(=O)OCCOCCOCCOC(=O)c3ccc(-c4c5nc(c(-c6cccc(S(=O)(=O)[O-])c6F)c6ccc([nH]6)c(-c6cccc(S(=O)(=O)[O-])c6F)c6nc(c(-c7cccc(S(=O)(=O)[O-])c7F)c7ccc4[nH]7)C=C6)C=C5)cc3)cc2)S/C1=[NH+]\c1cccc(C(F)(F)F)c1
REMARK SMILES IDX 20 1 19 2 18 3 17 4 16 5 14 6 15 7 13 8 10 9 11 10 92 11
REMARK SMILES IDX 12 12 91 13 9 14 7 15 8 16 6 18 1 19 2 20 3 21 94 22 4 23
REMARK SMILES IDX 5 24 93 25 95 26 96 28 97 29 105 30 98 31 100 32 99 33
REMARK SMILES IDX 101 34 102 35 103 36 104 37 21 38 22 39 23 40 24 41 25 42
REMARK SMILES IDX 26 43 27 44 28 45 29 46 90 47 30 48 89 49 31 50 32 51 33 52
REMARK SMILES IDX 83 53 34 54 88 55 82 56 84 57 35 58 87 59 81 60 80 61 36 63
REMARK SMILES IDX 68 64 48 65 67 66 49 67 52 68 66 69 85 70 50 71 51 72 65 74
REMARK SMILES IDX 86 75 53 76 37 77 38 78 46 79 39 80 41 81 47 82 40 83 42 84
REMARK SMILES IDX 43 85 44 86 45 87 69 88 70 89 78 90 71 91 73 92 79 93 72 94
REMARK SMILES IDX 74 95 75 96 76 97 77 98 54 99 55 100 63 101 56 102 58 103
REMARK SMILES IDX 64 104 57 105 59 106 60 107 61 108 62 109
REMARK H PARENT 9 17 95 27 84 62 52 73
REMARK Flexibility Score: inf
ROOT
ATOM      1  C   UNL A   1      31.862  28.639  25.253  1.00  0.00     0.188 C 
ENDROOT
BRANCH   1   2
ATOM      2  O   UNL A   1      32.299  27.357  24.857  1.00  0.00    -0.376 OA
BRANCH   2   3
ATOM      3  C   UNL A   1      32.607  27.070  23.503  1.00  0.00     0.202 C 
BRANCH   3   4
ATOM      4  C   UNL A   1      32.543  25.674  22.860  1.00  0.00     0.261 C 
BRANCH   4   5
ATOM      5  O   UNL A   1      32.983  24.581  23.667  1.00  0.00    -0.460 OA
BRANCH   5   6
ATOM      6  C   UNL A   1      33.874  23.750  23.077  1.00  0.00     0.338 C 
ATOM      7  O   UNL A   1      33.782  23.232  21.975  1.00  0.00    -0.246 OA
BRANCH   6   8
ATOM      8  C   UNL A   1      35.098  23.666  23.898  1.00  0.00     0.060 A 
ATOM      9  C   UNL A   1      37.333  23.233  25.486  1.00  0.00     0.041 A 
ATOM     10  C   UNL A   1      37.314  22.726  24.189  1.00  0.00     0.027 A 
ATOM     11  C   UNL A   1      36.333  24.117  25.911  1.00  0.00     0.027 A 
ATOM     12  C   UNL A   1      36.177  22.919  23.404  1.00  0.00     0.018 A 
ATOM     13  C   UNL A   1      35.200  24.322  25.126  1.00  0.00     0.018 A 
BRANCH   9  14
ATOM     14  N   UNL A   1      38.278  22.711  26.381  1.00  0.00    -0.325 N 
ATOM     15  C   UNL A   1      39.399  23.370  26.847  1.00  0.00     0.238 C 
ATOM     16  O   UNL A   1      40.114  22.823  27.690  1.00  0.00    -0.273 OA
ATOM     17  H   UNL A   1      38.129  21.794  26.707  1.00  0.00     0.169 HD
BRANCH  15  18
ATOM     18  C   UNL A   1      39.688  24.799  26.373  1.00  0.00     0.160 C 
ATOM     19  C   UNL A   1      42.592  26.188  29.359  1.00  0.00     0.301 C 
ATOM     20  N   UNL A   1      41.688  25.739  28.314  1.00  0.00    -0.194 N 
ATOM     21  C   UNL A   1      40.375  26.177  28.452  1.00  0.00     0.311 C 
ATOM     22  C   UNL A   1      42.187  24.880  27.339  1.00  0.00     0.319 C 
ATOM     23  O   UNL A   1      40.015  26.870  29.412  1.00  0.00    -0.247 OA
ATOM     24  C   UNL A   1      39.351  25.852  27.396  1.00  0.00     0.153 C 
ATOM     25  S   UNL A   1      41.375  24.951  25.801  1.00  0.00    -0.024 SA
ATOM     26  N   UNL A   1      43.235  24.160  27.592  1.00  0.00    -0.235 N 
ATOM     27  H   UNL A   1      43.719  24.307  28.437  1.00  0.00     0.313 HD
BRANCH  26  28
ATOM     28  C   UNL A   1      43.705  23.183  26.706  1.00  0.00     0.126 A 
ATOM     29  C   UNL A   1      44.769  23.511  25.860  1.00  0.00     0.052 A 
ATOM     30  C   UNL A   1      43.122  21.919  26.602  1.00  0.00     0.064 A 
ATOM     31  C   UNL A   1      45.268  22.584  24.945  1.00  0.00     0.005 A 
ATOM     32  C   UNL A   1      43.639  20.958  25.717  1.00  0.00     0.060 A 
ATOM     33  C   UNL A   1      44.711  21.309  24.880  1.00  0.00     0.013 A 
BRANCH  32  34
ATOM     34  C   UNL A   1      43.059  19.570  25.664  1.00  0.00     0.416 C 
ATOM     35  F   UNL A   1      43.275  18.869  26.812  1.00  0.00    -0.166 F 
ATOM     36  F   UNL A   1      41.709  19.573  25.478  1.00  0.00    -0.166 F 
ATOM     37  F   UNL A   1      43.567  18.803  24.659  1.00  0.00    -0.166 F 
ENDBRANCH  32  34
ENDBRANCH  26  28
ENDBRANCH  15  18
ENDBRANCH   9  14
ENDBRANCH   6   8
ENDBRANCH   5   6
ENDBRANCH   4   5
ENDBRANCH   3   4
ENDBRANCH   2   3
ENDBRANCH   1   2
BRANCH   1  38
ATOM     38  C   UNL A   1      32.911  29.689  25.668  1.00  0.00     0.188 C 
BRANCH  38  39
ATOM     39  O   UNL A   1      32.804  30.289  26.938  1.00  0.00    -0.376 OA
BRANCH  39  40
ATOM     40  C   UNL A   1      33.931  30.923  27.520  1.00  0.00     0.202 C 
BRANCH  40  41
ATOM     41  C   UNL A   1      34.139  32.444  27.681  1.00  0.00     0.261 C 
BRANCH  41  42
ATOM     42  O   UNL A   1      35.472  32.958  27.678  1.00  0.00    -0.460 OA
BRANCH  42  43
ATOM     43  C   UNL A   1      35.803  33.717  28.751  1.00  0.00     0.338 C 
ATOM     44  O   UNL A   1      35.107  34.553  29.302  1.00  0.00    -0.246 OA
BRANCH  43  45
ATOM     45  C   UNL A   1      37.086  33.242  29.304  1.00  0.00     0.060 A 
ATOM     46  C   UNL A   1      37.193  31.897  29.686  1.00  0.00     0.016 A 
ATOM     47  C   UNL A   1      38.146  34.124  29.503  1.00  0.00     0.016 A 
ATOM     48  C   UNL A   1      38.349  31.439  30.314  1.00  0.00     0.010 A 
ATOM     49  C   UNL A   1      39.297  33.668  30.152  1.00  0.00     0.010 A 
ATOM     50  C   UNL A   1      39.385  32.337  30.600  1.00  0.00    -0.014 A 
BRANCH  50  51
ATOM     51  C   UNL A   1      40.448  31.943  31.556  1.00  0.00     0.031 A 
ATOM     52  C   UNL A   1      40.234  32.239  33.018  1.00  0.00     0.074 A 
ATOM     53  C   UNL A   1      41.574  31.333  31.146  1.00  0.00     0.049 A 
ATOM     54  N   UNL A   1      41.034  32.038  34.031  1.00  0.00    -0.248 NA
ATOM     55  C   UNL A   1      38.943  32.848  33.385  1.00  0.00     0.031 C 
ATOM     56  C   UNL A   1      41.890  30.976  29.765  1.00  0.00     0.029 A 
ATOM     57  N   UNL A   1      42.676  30.930  31.859  1.00  0.00    -0.354 N 
ATOM     58  C   UNL A   1      40.365  32.531  35.144  1.00  0.00     0.074 A 
ATOM     59  C   UNL A   1      39.094  33.046  34.686  1.00  0.00     0.031 C 
ATOM     60  C   UNL A   1      43.121  30.435  29.726  1.00  0.00     0.029 A 
ATOM     61  C   UNL A   1      43.689  30.435  31.073  1.00  0.00     0.049 A 
ATOM     62  H   UNL A   1      42.734  30.989  32.841  1.00  0.00     0.167 HD
ATOM     63  C   UNL A   1      40.767  32.549  36.437  1.00  0.00     0.034 A 
ATOM     64  C   UNL A   1      44.940  30.055  31.403  1.00  0.00     0.034 A 
ATOM     65  C   UNL A   1      42.021  32.020  36.896  1.00  0.00     0.049 A 
ATOM     66  C   UNL A   1      45.372  30.111  32.848  1.00  0.00     0.074 A 
ATOM     67  C   UNL A   1      42.500  31.947  38.192  1.00  0.00     0.029 A 
ATOM     68  N   UNL A   1      43.004  31.488  36.076  1.00  0.00    -0.354 N 
ATOM     69  N   UNL A   1      44.687  30.479  33.904  1.00  0.00    -0.248 NA
ATOM     70  C   UNL A   1      46.742  29.666  33.151  1.00  0.00     0.031 C 
ATOM     71  C   UNL A   1      43.788  31.407  38.151  1.00  0.00     0.029 A 
ATOM     72  C   UNL A   1      44.091  31.096  36.836  1.00  0.00     0.049 A 
ATOM     73  H   UNL A   1      42.938  31.402  35.097  1.00  0.00     0.167 HD
ATOM     74  C   UNL A   1      45.522  30.259  34.996  1.00  0.00     0.074 A 
ATOM     75  C   UNL A   1      46.757  29.715  34.475  1.00  0.00     0.031 C 
ATOM     76  C   UNL A   1      45.289  30.494  36.312  1.00  0.00     0.034 A 
BRANCH  63  77
ATOM     77  C   UNL A   1      39.840  33.157  37.455  1.00  0.00     0.023 A 
ATOM     78  C   UNL A   1      38.764  32.404  37.967  1.00  0.00     0.012 A 
ATOM     79  C   UNL A   1      40.081  34.451  37.957  1.00  0.00     0.148 A 
ATOM     80  C   UNL A   1      37.926  32.941  38.943  1.00  0.00     0.002 A 
ATOM     81  C   UNL A   1      39.272  34.960  38.965  1.00  0.00     0.091 A 
ATOM     82  F   UNL A   1      41.097  35.157  37.440  1.00  0.00    -0.205 F 
ATOM     83  C   UNL A   1      38.187  34.212  39.451  1.00  0.00     0.022 A 
BRANCH  81  84
ATOM     84  S   UNL A   1      39.576  36.549  39.742  1.00  0.00     0.127 S 
ATOM     85  O   UNL A   1      39.390  37.467  38.618  1.00  0.00    -0.237 OA
ATOM     86  O   UNL A   1      38.519  36.602  40.752  1.00  0.00    -0.237 OA
ATOM     87  O   UNL A   1      40.928  36.487  40.275  1.00  0.00    -0.744 OA
ENDBRANCH  81  84
ENDBRANCH  63  77
BRANCH  64  88
ATOM     88  C   UNL A   1      45.883  29.566  30.356  1.00  0.00     0.023 A 
ATOM     89  C   UNL A   1      46.608  30.495  29.581  1.00  0.00     0.012 A 
ATOM     90  C   UNL A   1      46.044  28.191  30.104  1.00  0.00     0.148 A 
ATOM     91  C   UNL A   1      47.438  30.063  28.545  1.00  0.00     0.002 A 
ATOM     92  C   UNL A   1      46.917  27.766  29.109  1.00  0.00     0.091 A 
ATOM     93  F   UNL A   1      45.335  27.324  30.839  1.00  0.00    -0.205 F 
ATOM     94  C   UNL A   1      47.599  28.701  28.314  1.00  0.00     0.022 A 
BRANCH  92  95
ATOM     95  S   UNL A   1      47.278  26.031  28.821  1.00  0.00     0.127 S 
ATOM     96  O   UNL A   1      45.937  25.461  28.710  1.00  0.00    -0.237 OA
ATOM     97  O   UNL A   1      48.031  26.085  27.568  1.00  0.00    -0.237 OA
ATOM     98  O   UNL A   1      48.057  25.595  29.972  1.00  0.00    -0.744 OA
ENDBRANCH  92  95
ENDBRANCH  64  88
BRANCH  76  99
ATOM     99  C   UNL A   1      46.355  30.094  37.300  1.00  0.00     0.023 A 
ATOM    100  C   UNL A   1      47.493  30.902  37.490  1.00  0.00     0.012 A 
ATOM    101  C   UNL A   1      46.183  28.945  38.098  1.00  0.00     0.148 A 
ATOM    102  C   UNL A   1      48.462  30.551  38.429  1.00  0.00     0.002 A 
ATOM    103  C   UNL A   1      47.125  28.632  39.072  1.00  0.00     0.091 A 
ATOM    104  F   UNL A   1      45.102  28.179  37.893  1.00  0.00    -0.205 F 
ATOM    105  C   UNL A   1      48.273  29.426  39.229  1.00  0.00     0.022 A 
BRANCH 103 106
ATOM    106  S   UNL A   1      46.910  27.263  40.215  1.00  0.00     0.127 S 
ATOM    107  O   UNL A   1      46.742  26.136  39.299  1.00  0.00    -0.237 OA
ATOM    108  O   UNL A   1      48.174  27.271  40.949  1.00  0.00    -0.237 OA
ATOM    109  O   UNL A   1      45.741  27.591  41.020  1.00  0.00    -0.744 OA
ENDBRANCH 103 106
ENDBRANCH  76  99
ENDBRANCH  50  51
ENDBRANCH  43  45
ENDBRANCH  42  43
ENDBRANCH  41  42
ENDBRANCH  40  41
ENDBRANCH  39  40
ENDBRANCH  38  39
ENDBRANCH   1  38
TORSDOF 24
ENDMDL
MODEL 2
REMARK VINA RESULT:      -8.6      4.832     10.054
REMARK SMILES CN1C(=O)C[C@H](C(=O)Nc2ccc(C(=O)OCCOCCOCCOC(=O)c3ccc(-c4c5nc(c(-c6cccc(S(=O)(=O)[O-])c6F)c6ccc([nH]6)c(-c6cccc(S(=O)(=O)[O-])c6F)c6nc(c(-c7cccc(S(=O)(=O)[O-])c7F)c7ccc4[nH]7)C=C6)C=C5)cc3)cc2)S/C1=[NH+]\c1cccc(C(F)(F)F)c1
REMARK SMILES IDX 20 1 19 2 18 3 17 4 16 5 14 6 15 7 13 8 10 9 11 10 92 11
REMARK SMILES IDX 12 12 91 13 9 14 7 15 8 16 6 18 1 19 2 20 3 21 94 22 4 23
REMARK SMILES IDX 5 24 93 25 95 26 96 28 97 29 105 30 98 31 100 32 99 33
REMARK SMILES IDX 101 34 102 35 103 36 104 37 21 38 22 39 23 40 24 41 25 42
REMARK SMILES IDX 26 43 27 44 28 45 29 46 90 47 30 48 89 49 31 50 32 51 33 52
REMARK SMILES IDX 83 53 34 54 88 55 82 56 84 57 35 58 87 59 81 60 80 61 36 63
REMARK SMILES IDX 68 64 48 65 67 66 49 67 52 68 66 69 85 70 50 71 51 72 65 74
REMARK SMILES IDX 86 75 53 76 37 77 38 78 46 79 39 80 41 81 47 82 40 83 42 84
REMARK SMILES IDX 43 85 44 86 45 87 69 88 70 89 78 90 71 91 73 92 79 93 72 94
REMARK SMILES IDX 74 95 75 96 76 97 77 98 54 99 55 100 63 101 56 102 58 103
REMARK SMILES IDX 64 104 57 105 59 106 60 107 61 108 62 109
REMARK H PARENT 9 17 95 27 84 62 52 73
REMARK Flexibility Score: inf
ROOT
ATOM      1  C   UNL A   1      46.477  25.425  24.929  1.00  0.00     0.188 C 
ENDROOT
BRANCH   1   2
ATOM      2  O   UNL A   1      46.677  24.923  26.233  1.00  0.00    -0.376 OA
BRANCH   2   3
ATOM      3  C   UNL A   1      45.828  23.927  26.778  1.00  0.00     0.202 C 
BRANCH   3   4
ATOM      4  C   UNL A   1      44.389  23.642  26.314  1.00  0.00     0.261 C 
BRANCH   4   5
ATOM      5  O   UNL A   1      43.392  24.578  26.723  1.00  0.00    -0.460 OA
BRANCH   5   6
ATOM      6  C   UNL A   1      42.961  25.422  25.756  1.00  0.00     0.338 C 
ATOM      7  O   UNL A   1      42.617  25.130  24.621  1.00  0.00    -0.246 OA
BRANCH   6   8
ATOM      8  C   UNL A   1      42.804  26.780  26.312  1.00  0.00     0.060 A 
ATOM      9  C   UNL A   1      42.468  29.210  27.612  1.00  0.00     0.041 A 
ATOM     10  C   UNL A   1      43.659  28.509  27.783  1.00  0.00     0.027 A 
ATOM     11  C   UNL A   1      41.542  28.800  26.645  1.00  0.00     0.027 A 
ATOM     12  C   UNL A   1      43.813  27.274  27.153  1.00  0.00     0.018 A 
ATOM     13  C   UNL A   1      41.696  27.572  26.005  1.00  0.00     0.018 A 
BRANCH   9  14
ATOM     14  N   UNL A   1      42.164  30.222  28.534  1.00  0.00    -0.325 N 
ATOM     15  C   UNL A   1      41.506  30.048  29.736  1.00  0.00     0.238 C 
ATOM     16  O   UNL A   1      41.364  31.013  30.491  1.00  0.00    -0.273 OA
ATOM     17  H   UNL A   1      42.444  31.138  28.304  1.00  0.00     0.169 HD
BRANCH  15  18
ATOM     18  C   UNL A   1      41.041  28.647  30.148  1.00  0.00     0.160 C 
ATOM     19  C   UNL A   1      41.171  28.885  34.530  1.00  0.00     0.301 C 
ATOM     20  N   UNL A   1      41.048  28.792  33.085  1.00  0.00    -0.194 N 
ATOM     21  C   UNL A   1      42.095  28.129  32.452  1.00  0.00     0.311 C 
ATOM     22  C   UNL A   1      39.963  29.418  32.478  1.00  0.00     0.319 C 
ATOM     23  O   UNL A   1      43.063  27.685  33.083  1.00  0.00    -0.247 OA
ATOM     24  C   UNL A   1      42.055  27.891  30.966  1.00  0.00     0.153 C 
ATOM     25  S   UNL A   1      39.454  28.718  30.968  1.00  0.00    -0.024 SA
ATOM     26  N   UNL A   1      39.365  30.397  33.081  1.00  0.00    -0.235 N 
ATOM     27  H   UNL A   1      39.628  30.617  34.004  1.00  0.00     0.313 HD
BRANCH  26  28
ATOM     28  C   UNL A   1      38.358  31.152  32.469  1.00  0.00     0.126 A 
ATOM     29  C   UNL A   1      37.027  30.875  32.799  1.00  0.00     0.052 A 
ATOM     30  C   UNL A   1      38.628  32.129  31.509  1.00  0.00     0.064 A 
ATOM     31  C   UNL A   1      35.981  31.582  32.208  1.00  0.00     0.005 A 
ATOM     32  C   UNL A   1      37.589  32.881  30.936  1.00  0.00     0.060 A 
ATOM     33  C   UNL A   1      36.262  32.588  31.286  1.00  0.00     0.013 A 
BRANCH  32  34
ATOM     34  C   UNL A   1      37.889  33.989  29.961  1.00  0.00     0.416 C 
ATOM     35  F   UNL A   1      36.785  34.392  29.273  1.00  0.00    -0.166 F 
ATOM     36  F   UNL A   1      38.376  35.106  30.571  1.00  0.00    -0.166 F 
ATOM     37  F   UNL A   1      38.813  33.652  29.018  1.00  0.00    -0.166 F 
ENDBRANCH  32  34
ENDBRANCH  26  28
ENDBRANCH  15  18
ENDBRANCH   9  14
ENDBRANCH   6   8
ENDBRANCH   5   6
ENDBRANCH   4   5
ENDBRANCH   3   4
ENDBRANCH   2   3
ENDBRANCH   1   2
BRANCH   1  38
ATOM     38  C   UNL A   1      46.811  26.902  24.640  1.00  0.00     0.188 C 
BRANCH  38  39
ATOM     39  O   UNL A   1      47.612  27.209  23.525  1.00  0.00    -0.376 OA
BRANCH  39  40
ATOM     40  C   UNL A   1      49.011  27.382  23.681  1.00  0.00     0.202 C 
BRANCH  40  41
ATOM     41  C   UNL A   1      49.837  27.037  24.939  1.00  0.00     0.261 C 
BRANCH  41  42
ATOM     42  O   UNL A   1      50.227  28.096  25.814  1.00  0.00    -0.460 OA
BRANCH  42  43
ATOM     43  C   UNL A   1      50.270  27.774  27.131  1.00  0.00     0.338 C 
ATOM     44  O   UNL A   1      51.137  27.134  27.703  1.00  0.00    -0.246 OA
BRANCH  43  45
ATOM     45  C   UNL A   1      49.195  28.492  27.841  1.00  0.00     0.060 A 
ATOM     46  C   UNL A   1      49.518  29.668  28.533  1.00  0.00     0.016 A 
ATOM     47  C   UNL A   1      47.899  27.978  27.877  1.00  0.00     0.016 A 
ATOM     48  C   UNL A   1      48.553  30.310  29.306  1.00  0.00     0.010 A 
ATOM     49  C   UNL A   1      46.938  28.612  28.670  1.00  0.00     0.010 A 
ATOM     50  C   UNL A   1      47.273  29.754  29.422  1.00  0.00    -0.014 A 
BRANCH  50  51
ATOM     51  C   UNL A   1      46.366  30.229  30.494  1.00  0.00     0.031 A 
ATOM     52  C   UNL A   1      45.472  31.405  30.198  1.00  0.00     0.074 A 
ATOM     53  C   UNL A   1      46.324  29.633  31.699  1.00  0.00     0.049 A 
ATOM     54  N   UNL A   1      44.635  32.030  30.984  1.00  0.00    -0.248 NA
ATOM     55  C   UNL A   1      45.535  31.954  28.832  1.00  0.00     0.031 C 
ATOM     56  C   UNL A   1      47.124  28.477  32.100  1.00  0.00     0.029 A 
ATOM     57  N   UNL A   1      45.592  29.942  32.818  1.00  0.00    -0.354 N 
ATOM     58  C   UNL A   1      44.105  33.066  30.224  1.00  0.00     0.074 A 
ATOM     59  C   UNL A   1      44.715  32.991  28.915  1.00  0.00     0.031 C 
ATOM     60  C   UNL A   1      46.861  28.194  33.389  1.00  0.00     0.029 A 
ATOM     61  C   UNL A   1      45.899  29.164  33.909  1.00  0.00     0.049 A 
ATOM     62  H   UNL A   1      44.910  30.652  32.837  1.00  0.00     0.167 HD
ATOM     63  C   UNL A   1      43.187  33.994  30.580  1.00  0.00     0.034 A 
ATOM     64  C   UNL A   1      45.474  29.249  35.186  1.00  0.00     0.034 A 
ATOM     65  C   UNL A   1      42.566  34.057  31.873  1.00  0.00     0.049 A 
ATOM     66  C   UNL A   1      44.470  30.311  35.561  1.00  0.00     0.074 A 
ATOM     67  C   UNL A   1      41.587  34.930  32.315  1.00  0.00     0.029 A 
ATOM     68  N   UNL A   1      42.872  33.227  32.940  1.00  0.00    -0.354 N 
ATOM     69  N   UNL A   1      43.897  31.214  34.803  1.00  0.00    -0.248 NA
ATOM     70  C   UNL A   1      44.027  30.343  36.964  1.00  0.00     0.031 C 
ATOM     71  C   UNL A   1      41.331  34.653  33.661  1.00  0.00     0.029 A 
ATOM     72  C   UNL A   1      42.111  33.573  34.041  1.00  0.00     0.049 A 
ATOM     73  H   UNL A   1      43.533  32.497  32.916  1.00  0.00     0.167 HD
ATOM     74  C   UNL A   1      42.991  31.883  35.622  1.00  0.00     0.074 A 
ATOM     75  C   UNL A   1      43.083  31.273  36.931  1.00  0.00     0.031 C 
ATOM     76  C   UNL A   1      42.164  32.915  35.320  1.00  0.00     0.034 A 
BRANCH  63  77
ATOM     77  C   UNL A   1      42.789  35.021  29.553  1.00  0.00     0.023 A 
ATOM     78  C   UNL A   1      41.719  34.760  28.673  1.00  0.00     0.012 A 
ATOM     79  C   UNL A   1      43.430  36.274  29.510  1.00  0.00     0.148 A 
ATOM     80  C   UNL A   1      41.312  35.720  27.748  1.00  0.00     0.002 A 
ATOM     81  C   UNL A   1      42.987  37.244  28.621  1.00  0.00     0.091 A 
ATOM     82  F   UNL A   1      44.459  36.493  30.342  1.00  0.00    -0.205 F 
ATOM     83  C   UNL A   1      41.938  36.965  27.731  1.00  0.00     0.022 A 
BRANCH  81  84
ATOM     84  S   UNL A   1      43.669  38.904  28.578  1.00  0.00     0.127 S 
ATOM     85  O   UNL A   1      44.900  38.698  27.816  1.00  0.00    -0.237 OA
ATOM     86  O   UNL A   1      42.628  39.644  27.866  1.00  0.00    -0.237 OA
ATOM     87  O   UNL A   1      43.858  39.300  29.966  1.00  0.00    -0.744 OA
ENDBRANCH  81  84
ENDBRANCH  63  77
BRANCH  64  88
ATOM     88  C   UNL A   1      45.974  28.292  36.215  1.00  0.00     0.023 A 
ATOM     89  C   UNL A   1      47.170  28.573  36.906  1.00  0.00     0.012 A 
ATOM     90  C   UNL A   1      45.289  27.093  36.491  1.00  0.00     0.148 A 
ATOM     91  C   UNL A   1      47.698  27.656  37.817  1.00  0.00     0.002 A 
ATOM     92  C   UNL A   1      45.789  26.212  37.443  1.00  0.00     0.091 A 
ATOM     93  F   UNL A   1      44.163  26.836  35.813  1.00  0.00    -0.205 F 
ATOM     94  C   UNL A   1      47.005  26.481  38.092  1.00  0.00     0.022 A 
BRANCH  92  95
ATOM     95  S   UNL A   1      44.903  24.735  37.948  1.00  0.00     0.127 S 
ATOM     96  O   UNL A   1      45.024  23.893  36.759  1.00  0.00    -0.237 OA
ATOM     97  O   UNL A   1      45.689  24.292  39.100  1.00  0.00    -0.237 OA
ATOM     98  O   UNL A   1      43.555  25.177  38.274  1.00  0.00    -0.744 OA
ENDBRANCH  92  95
ENDBRANCH  64  88
BRANCH  76  99
ATOM     99  C   UNL A   1      41.228  33.407  36.395  1.00  0.00     0.023 A 
ATOM    100  C   UNL A   1      41.554  34.544  37.159  1.00  0.00     0.012 A 
ATOM    101  C   UNL A   1      39.983  32.776  36.590  1.00  0.00     0.148 A 
ATOM    102  C   UNL A   1      40.672  35.021  38.129  1.00  0.00     0.002 A 
ATOM    103  C   UNL A   1      39.085  33.291  37.519  1.00  0.00     0.091 A 
ATOM    104  F   UNL A   1      39.696  31.686  35.865  1.00  0.00    -0.205 F 
ATOM    105  C   UNL A   1      39.434  34.405  38.300  1.00  0.00     0.022 A 
BRANCH 103 106
ATOM    106  S   UNL A   1      37.431  32.625  37.731  1.00  0.00     0.127 S 
ATOM    107  O   UNL A   1      36.685  33.349  36.703  1.00  0.00    -0.237 OA
ATOM    108  O   UNL A   1      37.632  31.203  37.452  1.00  0.00    -0.237 OA
ATOM    109  O   UNL A   1      37.050  32.923  39.104  1.00  0.00    -0.744 OA
ENDBRANCH 103 106
ENDBRANCH  76  99
ENDBRANCH  50  51
ENDBRANCH  43  45
ENDBRANCH  42  43
ENDBRANCH  41  42
ENDBRANCH  40  41
ENDBRANCH  39  40
ENDBRANCH  38  39
ENDBRANCH   1  38
TORSDOF 24
ENDMDL
MODEL 3
REMARK VINA RESULT:      -8.6      6.210     11.912
REMARK SMILES CN1C(=O)C[C@H](C(=O)Nc2ccc(C(=O)OCCOCCOCCOC(=O)c3ccc(-c4c5nc(c(-c6cccc(S(=O)(=O)[O-])c6F)c6ccc([nH]6)c(-c6cccc(S(=O)(=O)[O-])c6F)c6nc(c(-c7cccc(S(=O)(=O)[O-])c7F)c7ccc4[nH]7)C=C6)C=C5)cc3)cc2)S/C1=[NH+]\c1cccc(C(F)(F)F)c1
REMARK SMILES IDX 20 1 19 2 18 3 17 4 16 5 14 6 15 7 13 8 10 9 11 10 92 11
REMARK SMILES IDX 12 12 91 13 9 14 7 15 8 16 6 18 1 19 2 20 3 21 94 22 4 23
REMARK SMILES IDX 5 24 93 25 95 26 96 28 97 29 105 30 98 31 100 32 99 33
REMARK SMILES IDX 101 34 102 35 103 36 104 37 21 38 22 39 23 40 24 41 25 42
REMARK SMILES IDX 26 43 27 44 28 45 29 46 90 47 30 48 89 49 31 50 32 51 33 52
REMARK SMILES IDX 83 53 34 54 88 55 82 56 84 57 35 58 87 59 81 60 80 61 36 63
REMARK SMILES IDX 68 64 48 65 67 66 49 67 52 68 66 69 85 70 50 71 51 72 65 74
REMARK SMILES IDX 86 75 53 76 37 77 38 78 46 79 39 80 41 81 47 82 40 83 42 84
REMARK SMILES IDX 43 85 44 86 45 87 69 88 70 89 78 90 71 91 73 92 79 93 72 94
REMARK SMILES IDX 74 95 75 96 76 97 77 98 54 99 55 100 63 101 56 102 58 103
REMARK SMILES IDX 64 104 57 105 59 106 60 107 61 108 62 109
REMARK H PARENT 9 17 95 27 84 62 52 73
REMARK Flexibility Score: inf
ROOT
ATOM      1  C   UNL A   1      38.738  35.699  41.590  1.00  0.00     0.188 C 
ENDROOT
BRANCH   1   2
ATOM      2  O   UNL A   1      38.928  37.071  41.317  1.00  0.00    -0.376 OA
BRANCH   2   3
ATOM      3  C   UNL A   1      38.825  37.581  39.998  1.00  0.00     0.202 C 
BRANCH   3   4
ATOM      4  C   UNL A   1      39.741  37.190  38.826  1.00  0.00     0.261 C 
BRANCH   4   5
ATOM      5  O   UNL A   1      39.370  36.024  38.090  1.00  0.00    -0.460 OA
BRANCH   5   6
ATOM      6  C   UNL A   1      39.637  36.071  36.764  1.00  0.00     0.338 C 
ATOM      7  O   UNL A   1      40.416  36.819  36.193  1.00  0.00    -0.246 OA
BRANCH   6   8
ATOM      8  C   UNL A   1      38.959  34.953  36.079  1.00  0.00     0.060 A 
ATOM      9  C   UNL A   1      37.887  32.680  34.899  1.00  0.00     0.041 A 
ATOM     10  C   UNL A   1      37.727  32.873  36.269  1.00  0.00     0.027 A 
ATOM     11  C   UNL A   1      38.400  33.709  34.098  1.00  0.00     0.027 A 
ATOM     12  C   UNL A   1      38.293  34.000  36.864  1.00  0.00     0.018 A 
ATOM     13  C   UNL A   1      38.957  34.842  34.687  1.00  0.00     0.018 A 
BRANCH   9  14
ATOM     14  N   UNL A   1      37.674  31.392  34.388  1.00  0.00    -0.325 N 
ATOM     15  C   UNL A   1      38.653  30.451  34.136  1.00  0.00     0.238 C 
ATOM     16  O   UNL A   1      38.324  29.326  33.752  1.00  0.00    -0.273 OA
ATOM     17  H   UNL A   1      36.743  31.135  34.191  1.00  0.00     0.169 HD
BRANCH  15  18
ATOM     18  C   UNL A   1      40.121  30.793  34.417  1.00  0.00     0.160 C 
ATOM     19  C   UNL A   1      42.012  26.830  34.375  1.00  0.00     0.301 C 
ATOM     20  N   UNL A   1      41.433  28.163  34.326  1.00  0.00    -0.194 N 
ATOM     21  C   UNL A   1      41.185  28.736  35.569  1.00  0.00     0.311 C 
ATOM     22  C   UNL A   1      41.124  28.698  33.079  1.00  0.00     0.319 C 
ATOM     23  O   UNL A   1      41.417  28.133  36.624  1.00  0.00    -0.247 OA
ATOM     24  C   UNL A   1      40.662  30.144  35.665  1.00  0.00     0.153 C 
ATOM     25  S   UNL A   1      41.141  30.436  32.993  1.00  0.00    -0.024 SA
ATOM     26  N   UNL A   1      40.925  27.907  32.071  1.00  0.00    -0.235 N 
ATOM     27  H   UNL A   1      41.093  26.944  32.183  1.00  0.00     0.313 HD
BRANCH  26  28
ATOM     28  C   UNL A   1      40.482  28.374  30.828  1.00  0.00     0.126 A 
ATOM     29  C   UNL A   1      41.375  28.349  29.752  1.00  0.00     0.052 A 
ATOM     30  C   UNL A   1      39.206  28.908  30.636  1.00  0.00     0.064 A 
ATOM     31  C   UNL A   1      40.994  28.816  28.495  1.00  0.00     0.005 A 
ATOM     32  C   UNL A   1      38.791  29.344  29.367  1.00  0.00     0.060 A 
ATOM     33  C   UNL A   1      39.704  29.304  28.301  1.00  0.00     0.013 A 
BRANCH  32  34
ATOM     34  C   UNL A   1      37.389  29.845  29.146  1.00  0.00     0.416 C 
ATOM     35  F   UNL A   1      37.046  29.875  27.828  1.00  0.00    -0.166 F 
ATOM     36  F   UNL A   1      36.452  29.065  29.755  1.00  0.00    -0.166 F 
ATOM     37  F   UNL A   1      37.178  31.106  29.614  1.00  0.00    -0.166 F 
ENDBRANCH  32  34
ENDBRANCH  26  28
ENDBRANCH  15  18
ENDBRANCH   9  14
ENDBRANCH   6   8
ENDBRANCH   5   6
ENDBRANCH   4   5
ENDBRANCH   3   4
ENDBRANCH   2   3
ENDBRANCH   1   2
BRANCH   1  38
ATOM     38  C   UNL A   1      38.664  35.235  43.058  1.00  0.00     0.188 C 
BRANCH  38  39
ATOM     39  O   UNL A   1      38.566  33.857  43.329  1.00  0.00    -0.376 OA
BRANCH  39  40
ATOM     40  C   UNL A   1      39.474  33.245  44.230  1.00  0.00     0.202 C 
BRANCH  40  41
ATOM     41  C   UNL A   1      41.001  33.120  44.041  1.00  0.00     0.261 C 
BRANCH  41  42
ATOM     42  O   UNL A   1      41.544  31.852  43.665  1.00  0.00    -0.460 OA
BRANCH  42  43
ATOM     43  C   UNL A   1      40.963  31.270  42.587  1.00  0.00     0.338 C 
ATOM     44  O   UNL A   1      40.117  30.391  42.593  1.00  0.00    -0.246 OA
BRANCH  43  45
ATOM     45  C   UNL A   1      41.358  32.003  41.369  1.00  0.00     0.060 A 
ATOM     46  C   UNL A   1      42.723  32.122  41.072  1.00  0.00     0.016 A 
ATOM     47  C   UNL A   1      40.399  32.621  40.568  1.00  0.00     0.016 A 
ATOM     48  C   UNL A   1      43.138  32.901  39.994  1.00  0.00     0.010 A 
ATOM     49  C   UNL A   1      40.818  33.420  39.499  1.00  0.00     0.010 A 
ATOM     50  C   UNL A   1      42.189  33.599  39.237  1.00  0.00    -0.014 A 
BRANCH  50  51
ATOM     51  C   UNL A   1      42.635  34.681  38.326  1.00  0.00     0.031 A 
ATOM     52  C   UNL A   1      43.014  36.007  38.930  1.00  0.00     0.074 A 
ATOM     53  C   UNL A   1      42.710  34.496  36.996  1.00  0.00     0.049 A 
ATOM     54  N   UNL A   1      43.384  37.113  38.340  1.00  0.00    -0.248 NA
ATOM     55  C   UNL A   1      42.966  36.100  40.401  1.00  0.00     0.031 C 
ATOM     56  C   UNL A   1      42.390  33.255  36.293  1.00  0.00     0.029 A 
ATOM     57  N   UNL A   1      43.058  35.370  35.996  1.00  0.00    -0.354 N 
ATOM     58  C   UNL A   1      43.570  38.040  39.358  1.00  0.00     0.074 A 
ATOM     59  C   UNL A   1      43.271  37.372  40.605  1.00  0.00     0.031 C 
ATOM     60  C   UNL A   1      42.525  33.458  34.970  1.00  0.00     0.029 A 
ATOM     61  C   UNL A   1      42.912  34.847  34.733  1.00  0.00     0.049 A 
ATOM     62  H   UNL A   1      43.382  36.284  36.167  1.00  0.00     0.167 HD
ATOM     63  C   UNL A   1      43.963  39.332  39.266  1.00  0.00     0.034 A 
ATOM     64  C   UNL A   1      43.046  35.436  33.527  1.00  0.00     0.034 A 
ATOM     65  C   UNL A   1      44.281  39.991  38.030  1.00  0.00     0.049 A 
ATOM     66  C   UNL A   1      43.459  36.885  33.454  1.00  0.00     0.074 A 
ATOM     67  C   UNL A   1      44.735  41.284  37.837  1.00  0.00     0.029 A 
ATOM     68  N   UNL A   1      44.161  39.417  36.774  1.00  0.00    -0.354 N 
ATOM     69  N   UNL A   1      43.738  37.717  34.428  1.00  0.00    -0.248 NA
ATOM     70  C   UNL A   1      43.610  37.468  32.111  1.00  0.00     0.031 C 
ATOM     71  C   UNL A   1      44.853  41.504  36.462  1.00  0.00     0.029 A 
ATOM     72  C   UNL A   1      44.521  40.332  35.801  1.00  0.00     0.049 A 
ATOM     73  H   UNL A   1      43.864  38.494  36.600  1.00  0.00     0.167 HD
ATOM     74  C   UNL A   1      44.146  38.900  33.817  1.00  0.00     0.074 A 
ATOM     75  C   UNL A   1      44.090  38.672  32.388  1.00  0.00     0.031 C 
ATOM     76  C   UNL A   1      44.526  40.071  34.385  1.00  0.00     0.034 A 
BRANCH  63  77
ATOM     77  C   UNL A   1      44.080  40.126  40.541  1.00  0.00     0.023 A 
ATOM     78  C   UNL A   1      45.303  40.162  41.239  1.00  0.00     0.012 A 
ATOM     79  C   UNL A   1      42.994  40.893  41.006  1.00  0.00     0.148 A 
ATOM     80  C   UNL A   1      45.436  40.929  42.396  1.00  0.00     0.002 A 
ATOM     81  C   UNL A   1      43.149  41.694  42.130  1.00  0.00     0.091 A 
ATOM     82  F   UNL A   1      41.833  40.827  40.338  1.00  0.00    -0.205 F 
ATOM     83  C   UNL A   1      44.364  41.703  42.833  1.00  0.00     0.022 A 
BRANCH  81  84
ATOM     84  S   UNL A   1      41.857  42.790  42.724  1.00  0.00     0.127 S 
ATOM     85  O   UNL A   1      40.651  42.045  42.367  1.00  0.00    -0.237 OA
ATOM     86  O   UNL A   1      42.139  42.843  44.158  1.00  0.00    -0.237 OA
ATOM     87  O   UNL A   1      42.039  44.050  42.019  1.00  0.00    -0.744 OA
ENDBRANCH  81  84
ENDBRANCH  63  77
BRANCH  64  88
ATOM     88  C   UNL A   1      42.810  34.659  32.275  1.00  0.00     0.023 A 
ATOM     89  C   UNL A   1      41.494  34.485  31.801  1.00  0.00     0.012 A 
ATOM     90  C   UNL A   1      43.876  34.068  31.571  1.00  0.00     0.148 A 
ATOM     91  C   UNL A   1      41.241  33.698  30.676  1.00  0.00     0.002 A 
ATOM     92  C   UNL A   1      43.622  33.334  30.418  1.00  0.00     0.091 A 
ATOM     93  F   UNL A   1      45.118  34.230  32.046  1.00  0.00    -0.205 F 
ATOM     94  C   UNL A   1      42.304  33.130  29.980  1.00  0.00     0.022 A 
BRANCH  92  95
ATOM     95  S   UNL A   1      44.937  32.668  29.392  1.00  0.00     0.127 S 
ATOM     96  O   UNL A   1      45.412  31.550  30.205  1.00  0.00    -0.237 OA
ATOM     97  O   UNL A   1      44.208  32.285  28.182  1.00  0.00    -0.237 OA
ATOM     98  O   UNL A   1      45.881  33.760  29.204  1.00  0.00    -0.744 OA
ENDBRANCH  92  95
ENDBRANCH  64  88
BRANCH  76  99
ATOM     99  C   UNL A   1      44.989  41.181  33.476  1.00  0.00     0.023 A 
ATOM    100  C   UNL A   1      46.298  41.180  32.958  1.00  0.00     0.012 A 
ATOM    101  C   UNL A   1      44.089  42.190  33.078  1.00  0.00     0.148 A 
ATOM    102  C   UNL A   1      46.716  42.187  32.088  1.00  0.00     0.002 A 
ATOM    103  C   UNL A   1      44.495  43.158  32.167  1.00  0.00     0.091 A 
ATOM    104  F   UNL A   1      42.852  42.184  33.594  1.00  0.00    -0.205 F 
ATOM    105  C   UNL A   1      45.813  43.167  31.682  1.00  0.00     0.022 A 
BRANCH 103 106
ATOM    106  S   UNL A   1      43.369  44.395  31.510  1.00  0.00     0.127 S 
ATOM    107  O   UNL A   1      44.030  44.763  30.259  1.00  0.00    -0.237 OA
ATOM    108  O   UNL A   1      42.132  43.632  31.347  1.00  0.00    -0.237 OA
ATOM    109  O   UNL A   1      43.301  45.449  32.513  1.00  0.00    -0.744 OA
ENDBRANCH 103 106
ENDBRANCH  76  99
ENDBRANCH  50  51
ENDBRANCH  43  45
ENDBRANCH  42  43
ENDBRANCH  41  42
ENDBRANCH  40  41
ENDBRANCH  39  40
ENDBRANCH  38  39
ENDBRANCH   1  38
TORSDOF 24
ENDMDL
