MODEL 1
REMARK VINA RESULT:     -10.5      0.000      0.000
REMARK SMILES C[NH2+]C[C@H](C)C(=O)N[C@H](Cc1ccccc1)C(=O)OCCOCCOCCOC(=O)c1ccc(-c2c3nc(c(-c4cccc(S(=O)(=O)[O-])c4F)c4ccc([nH]4)c(-c4cccc(S(=O)(=O)[O-])c4F)c4nc(c(-c5cccc(S(=O)(=O)[O-])c5F)c5ccc2[nH]5)C=C4)C=C3)cc1
REMARK SMILES IDX 23 1 22 2 21 3 20 4 19 5 17 6 18 7 9 8 8 9 6 10 7 11 4 13
REMARK SMILES IDX 5 14 3 15 2 16 1 17 10 20 11 21 12 22 16 23 13 24 15 25
REMARK SMILES IDX 14 26 24 27 25 28 26 29 27 30 28 31 29 32 30 33 31 34 32 35
REMARK SMILES IDX 93 36 33 37 92 38 34 39 35 40 36 41 86 42 37 43 91 44 85 45
REMARK SMILES IDX 87 46 38 47 90 48 84 49 83 50 39 52 71 53 51 54 70 55 52 56
REMARK SMILES IDX 55 57 69 58 88 59 53 60 54 61 68 63 89 64 56 65 40 66 41 67
REMARK SMILES IDX 49 68 42 69 44 70 50 71 43 72 45 73 46 74 47 75 48 76 72 77
REMARK SMILES IDX 73 78 81 79 74 80 76 81 82 82 75 83 77 84 78 85 79 86 80 87
REMARK SMILES IDX 57 88 58 89 66 90 59 91 61 92 67 93 60 94 62 95 63 96 64 97
REMARK SMILES IDX 65 98
REMARK H PARENT 8 12 2 18 2 19 87 51 55 62
REMARK Flexibility Score: inf
ROOT
ATOM      1  C   UNL A   1      33.158  22.267  26.645  1.00  0.00     0.188 C 
ENDROOT
BRANCH   1   2
ATOM      2  O   UNL A   1      33.928  23.447  26.778  1.00  0.00    -0.376 OA
BRANCH   2   3
ATOM      3  C   UNL A   1      34.139  24.238  25.616  1.00  0.00     0.202 C 
BRANCH   3   4
ATOM      4  C   UNL A   1      34.070  25.767  25.713  1.00  0.00     0.261 C 
BRANCH   4   5
ATOM      5  O   UNL A   1      33.629  26.507  24.528  1.00  0.00    -0.462 OA
BRANCH   5   6
ATOM      6  C   UNL A   1      33.315  27.815  24.723  1.00  0.00     0.329 C 
ATOM      7  O   UNL A   1      34.084  28.594  25.289  1.00  0.00    -0.250 OA
BRANCH   6   8
ATOM      8  C   UNL A   1      31.865  28.274  24.440  1.00  0.00     0.196 C 
BRANCH   8   9
ATOM      9  N   UNL A   1      30.980  27.339  25.181  1.00  0.00    -0.342 N 
ATOM     10  C   UNL A   1      30.347  26.183  24.860  1.00  0.00     0.229 C 
ATOM     11  O   UNL A   1      29.555  25.751  25.708  1.00  0.00    -0.275 OA
ATOM     12  H   UNL A   1      30.817  27.619  26.111  1.00  0.00     0.164 HD
BRANCH  10  13
ATOM     13  C   UNL A   1      30.573  25.369  23.586  1.00  0.00     0.130 C 
ATOM     14  C   UNL A   1      31.079  26.147  22.377  1.00  0.00     0.024 C 
BRANCH  13  15
ATOM     15  C   UNL A   1      31.300  24.014  23.742  1.00  0.00     0.273 C 
BRANCH  15  16
ATOM     16  N   UNL A   1      31.806  23.303  22.577  1.00  0.00    -0.348 N 
ATOM     17  C   UNL A   1      32.226  21.938  22.818  1.00  0.00     0.330 C 
ATOM     18  H   UNL A   1      31.068  23.285  21.873  1.00  0.00     0.346 HD
ATOM     19  H   UNL A   1      32.642  23.807  22.280  1.00  0.00     0.346 HD
ENDBRANCH  15  16
ENDBRANCH  13  15
ENDBRANCH  10  13
ENDBRANCH   8   9
BRANCH   8  20
ATOM     20  C   UNL A   1      31.112  28.841  23.213  1.00  0.00     0.072 C 
BRANCH  20  21
ATOM     21  C   UNL A   1      29.820  29.618  23.196  1.00  0.00    -0.045 A 
ATOM     22  C   UNL A   1      29.739  30.919  23.721  1.00  0.00     0.004 A 
ATOM     23  C   UNL A   1      28.624  28.980  22.843  1.00  0.00     0.004 A 
ATOM     24  C   UNL A   1      28.501  31.559  23.870  1.00  0.00     0.000 A 
ATOM     25  C   UNL A   1      27.390  29.625  22.979  1.00  0.00     0.000 A 
ATOM     26  C   UNL A   1      27.328  30.916  23.487  1.00  0.00     0.000 A 
ENDBRANCH  20  21
ENDBRANCH   8  20
ENDBRANCH   6   8
ENDBRANCH   5   6
ENDBRANCH   4   5
ENDBRANCH   3   4
ENDBRANCH   2   3
ENDBRANCH   1   2
BRANCH   1  27
ATOM     27  C   UNL A   1      33.923  20.943  26.555  1.00  0.00     0.188 C 
BRANCH  27  28
ATOM     28  O   UNL A   1      34.375  20.537  25.286  1.00  0.00    -0.376 OA
BRANCH  28  29
ATOM     29  C   UNL A   1      35.717  20.757  24.894  1.00  0.00     0.202 C 
BRANCH  29  30
ATOM     30  C   UNL A   1      36.761  21.587  25.668  1.00  0.00     0.261 C 
BRANCH  30  31
ATOM     31  O   UNL A   1      38.077  21.682  25.125  1.00  0.00    -0.460 OA
BRANCH  31  32
ATOM     32  C   UNL A   1      39.091  21.272  25.935  1.00  0.00     0.338 C 
ATOM     33  O   UNL A   1      39.580  20.166  26.004  1.00  0.00    -0.246 OA
BRANCH  32  34
ATOM     34  C   UNL A   1      39.659  22.480  26.577  1.00  0.00     0.060 A 
ATOM     35  C   UNL A   1      39.213  23.746  26.165  1.00  0.00     0.016 A 
ATOM     36  C   UNL A   1      40.605  22.358  27.588  1.00  0.00     0.016 A 
ATOM     37  C   UNL A   1      39.718  24.902  26.751  1.00  0.00     0.010 A 
ATOM     38  C   UNL A   1      41.142  23.516  28.148  1.00  0.00     0.010 A 
ATOM     39  C   UNL A   1      40.722  24.788  27.711  1.00  0.00    -0.014 A 
BRANCH  39  40
ATOM     40  C   UNL A   1      41.504  25.973  28.112  1.00  0.00     0.031 A 
ATOM     41  C   UNL A   1      40.782  27.054  28.864  1.00  0.00     0.074 A 
ATOM     42  C   UNL A   1      42.793  26.110  27.760  1.00  0.00     0.049 A 
ATOM     43  N   UNL A   1      41.160  28.273  29.132  1.00  0.00    -0.248 NA
ATOM     44  C   UNL A   1      39.439  26.712  29.367  1.00  0.00     0.031 C 
ATOM     45  C   UNL A   1      43.595  25.101  27.071  1.00  0.00     0.029 A 
ATOM     46  N   UNL A   1      43.635  27.185  27.891  1.00  0.00    -0.354 N 
ATOM     47  C   UNL A   1      40.080  28.865  29.774  1.00  0.00     0.074 A 
ATOM     48  C   UNL A   1      39.039  27.868  29.873  1.00  0.00     0.031 C 
ATOM     49  C   UNL A   1      44.799  25.626  26.786  1.00  0.00     0.029 A 
ATOM     50  C   UNL A   1      44.829  27.017  27.230  1.00  0.00     0.049 A 
ATOM     51  H   UNL A   1      43.407  27.993  28.405  1.00  0.00     0.167 HD
ATOM     52  C   UNL A   1      39.969  30.132  30.235  1.00  0.00     0.034 A 
ATOM     53  C   UNL A   1      45.806  27.908  26.970  1.00  0.00     0.034 A 
ATOM     54  C   UNL A   1      41.023  31.104  30.137  1.00  0.00     0.049 A 
ATOM     55  C   UNL A   1      45.649  29.323  27.468  1.00  0.00     0.074 A 
ATOM     56  C   UNL A   1      41.039  32.406  30.601  1.00  0.00     0.029 A 
ATOM     57  N   UNL A   1      42.246  30.880  29.522  1.00  0.00    -0.354 N 
ATOM     58  N   UNL A   1      44.657  29.857  28.141  1.00  0.00    -0.248 NA
ATOM     59  C   UNL A   1      46.756  30.250  27.193  1.00  0.00     0.031 C 
ATOM     60  C   UNL A   1      42.261  32.980  30.236  1.00  0.00     0.029 A 
ATOM     61  C   UNL A   1      43.022  32.022  29.583  1.00  0.00     0.049 A 
ATOM     62  H   UNL A   1      42.520  30.033  29.102  1.00  0.00     0.167 HD
ATOM     63  C   UNL A   1      45.036  31.170  28.404  1.00  0.00     0.074 A 
ATOM     64  C   UNL A   1      46.356  31.342  27.831  1.00  0.00     0.031 C 
ATOM     65  C   UNL A   1      44.355  32.149  29.050  1.00  0.00     0.034 A 
BRANCH  52  66
ATOM     66  C   UNL A   1      38.667  30.534  30.873  1.00  0.00     0.023 A 
ATOM     67  C   UNL A   1      38.445  30.281  32.243  1.00  0.00     0.012 A 
ATOM     68  C   UNL A   1      37.674  31.195  30.123  1.00  0.00     0.148 A 
ATOM     69  C   UNL A   1      37.242  30.649  32.847  1.00  0.00     0.002 A 
ATOM     70  C   UNL A   1      36.499  31.602  30.744  1.00  0.00     0.091 A 
ATOM     71  F   UNL A   1      37.892  31.402  28.817  1.00  0.00    -0.205 F 
ATOM     72  C   UNL A   1      36.276  31.318  32.101  1.00  0.00     0.022 A 
BRANCH  70  73
ATOM     73  S   UNL A   1      35.227  32.539  29.890  1.00  0.00     0.127 S 
ATOM     74  O   UNL A   1      35.999  33.653  29.341  1.00  0.00    -0.237 OA
ATOM     75  O   UNL A   1      34.754  31.576  28.895  1.00  0.00    -0.237 OA
ATOM     76  O   UNL A   1      34.244  32.902  30.902  1.00  0.00    -0.744 OA
ENDBRANCH  70  73
ENDBRANCH  52  66
BRANCH  53  77
ATOM     77  C   UNL A   1      47.018  27.491  26.209  1.00  0.00     0.023 A 
ATOM     78  C   UNL A   1      48.042  26.786  26.871  1.00  0.00     0.012 A 
ATOM     79  C   UNL A   1      47.156  27.771  24.835  1.00  0.00     0.148 A 
ATOM     80  C   UNL A   1      49.192  26.392  26.186  1.00  0.00     0.002 A 
ATOM     81  C   UNL A   1      48.278  27.327  24.146  1.00  0.00     0.091 A 
ATOM     82  F   UNL A   1      46.178  28.456  24.226  1.00  0.00    -0.205 F 
ATOM     83  C   UNL A   1      49.306  26.653  24.824  1.00  0.00     0.022 A 
BRANCH  81  84
ATOM     84  S   UNL A   1      48.457  27.509  22.368  1.00  0.00     0.127 S 
ATOM     85  O   UNL A   1      49.666  28.323  22.271  1.00  0.00    -0.237 OA
ATOM     86  O   UNL A   1      48.615  26.118  21.939  1.00  0.00    -0.237 OA
ATOM     87  O   UNL A   1      47.229  28.145  21.912  1.00  0.00    -0.744 OA
ENDBRANCH  81  84
ENDBRANCH  53  77
BRANCH  65  88
ATOM     88  C   UNL A   1      45.043  33.477  29.228  1.00  0.00     0.023 A 
ATOM     89  C   UNL A   1      45.860  33.706  30.353  1.00  0.00     0.012 A 
ATOM     90  C   UNL A   1      44.938  34.470  28.235  1.00  0.00     0.148 A 
ATOM     91  C   UNL A   1      46.533  34.917  30.502  1.00  0.00     0.002 A 
ATOM     92  C   UNL A   1      45.654  35.652  28.364  1.00  0.00     0.091 A 
ATOM     93  F   UNL A   1      44.143  34.237  27.180  1.00  0.00    -0.205 F 
ATOM     94  C   UNL A   1      46.441  35.884  29.503  1.00  0.00     0.022 A 
BRANCH  92  95
ATOM     95  S   UNL A   1      45.678  36.908  27.079  1.00  0.00     0.127 S 
ATOM     96  O   UNL A   1      46.325  36.194  25.978  1.00  0.00    -0.237 OA
ATOM     97  O   UNL A   1      44.254  37.174  26.881  1.00  0.00    -0.237 OA
ATOM     98  O   UNL A   1      46.433  38.028  27.624  1.00  0.00    -0.744 OA
ENDBRANCH  92  95
ENDBRANCH  65  88
ENDBRANCH  39  40
ENDBRANCH  32  34
ENDBRANCH  31  32
ENDBRANCH  30  31
ENDBRANCH  29  30
ENDBRANCH  28  29
ENDBRANCH  27  28
ENDBRANCH   1  27
TORSDOF 26
ENDMDL
MODEL 2
REMARK VINA RESULT:     -10.1      6.214     10.150
REMARK SMILES C[NH2+]C[C@H](C)C(=O)N[C@H](Cc1ccccc1)C(=O)OCCOCCOCCOC(=O)c1ccc(-c2c3nc(c(-c4cccc(S(=O)(=O)[O-])c4F)c4ccc([nH]4)c(-c4cccc(S(=O)(=O)[O-])c4F)c4nc(c(-c5cccc(S(=O)(=O)[O-])c5F)c5ccc2[nH]5)C=C4)C=C3)cc1
REMARK SMILES IDX 23 1 22 2 21 3 20 4 19 5 17 6 18 7 9 8 8 9 6 10 7 11 4 13
REMARK SMILES IDX 5 14 3 15 2 16 1 17 10 20 11 21 12 22 16 23 13 24 15 25
REMARK SMILES IDX 14 26 24 27 25 28 26 29 27 30 28 31 29 32 30 33 31 34 32 35
REMARK SMILES IDX 93 36 33 37 92 38 34 39 35 40 36 41 86 42 37 43 91 44 85 45
REMARK SMILES IDX 87 46 38 47 90 48 84 49 83 50 39 52 71 53 51 54 70 55 52 56
REMARK SMILES IDX 55 57 69 58 88 59 53 60 54 61 68 63 89 64 56 65 40 66 41 67
REMARK SMILES IDX 49 68 42 69 44 70 50 71 43 72 45 73 46 74 47 75 48 76 72 77
REMARK SMILES IDX 73 78 81 79 74 80 76 81 82 82 75 83 77 84 78 85 79 86 80 87
REMARK SMILES IDX 57 88 58 89 66 90 59 91 61 92 67 93 60 94 62 95 63 96 64 97
REMARK SMILES IDX 65 98
REMARK H PARENT 8 12 2 18 2 19 87 51 55 62
REMARK Flexibility Score: inf
ROOT
ATOM      1  C   UNL A   1      33.603  32.081  28.000  1.00  0.00     0.188 C 
ENDROOT
BRANCH   1   2
ATOM      2  O   UNL A   1      33.746  31.484  26.725  1.00  0.00    -0.376 OA
BRANCH   2   3
ATOM      3  C   UNL A   1      33.959  30.080  26.668  1.00  0.00     0.202 C 
BRANCH   3   4
ATOM      4  C   UNL A   1      32.929  29.128  27.290  1.00  0.00     0.261 C 
BRANCH   4   5
ATOM      5  O   UNL A   1      32.894  27.747  26.801  1.00  0.00    -0.462 OA
BRANCH   5   6
ATOM      6  C   UNL A   1      31.690  27.120  26.868  1.00  0.00     0.329 C 
ATOM      7  O   UNL A   1      30.796  27.500  27.627  1.00  0.00    -0.250 OA
BRANCH   6   8
ATOM      8  C   UNL A   1      31.528  25.759  26.151  1.00  0.00     0.196 C 
BRANCH   8   9
ATOM      9  N   UNL A   1      30.386  25.915  25.213  1.00  0.00    -0.342 N 
ATOM     10  C   UNL A   1      30.133  26.732  24.161  1.00  0.00     0.229 C 
ATOM     11  O   UNL A   1      28.985  26.676  23.701  1.00  0.00    -0.275 OA
ATOM     12  H   UNL A   1      29.650  25.287  25.396  1.00  0.00     0.164 HD
BRANCH  10  13
ATOM     13  C   UNL A   1      31.149  27.653  23.485  1.00  0.00     0.130 C 
ATOM     14  C   UNL A   1      31.809  27.109  22.224  1.00  0.00     0.024 C 
BRANCH  13  15
ATOM     15  C   UNL A   1      30.750  29.139  23.329  1.00  0.00     0.273 C 
BRANCH  15  16
ATOM     16  N   UNL A   1      30.833  29.798  22.034  1.00  0.00    -0.348 N 
ATOM     17  C   UNL A   1      29.585  30.335  21.531  1.00  0.00     0.330 C 
ATOM     18  H   UNL A   1      31.496  30.569  22.113  1.00  0.00     0.346 HD
ATOM     19  H   UNL A   1      31.119  29.080  21.368  1.00  0.00     0.346 HD
ENDBRANCH  15  16
ENDBRANCH  13  15
ENDBRANCH  10  13
ENDBRANCH   8   9
BRANCH   8  20
ATOM     20  C   UNL A   1      31.659  24.275  26.568  1.00  0.00     0.072 C 
BRANCH  20  21
ATOM     21  C   UNL A   1      32.486  23.197  25.915  1.00  0.00    -0.045 A 
ATOM     22  C   UNL A   1      32.297  22.842  24.568  1.00  0.00     0.004 A 
ATOM     23  C   UNL A   1      33.320  22.385  26.694  1.00  0.00     0.004 A 
ATOM     24  C   UNL A   1      32.937  21.719  24.024  1.00  0.00     0.000 A 
ATOM     25  C   UNL A   1      33.969  21.274  26.146  1.00  0.00     0.000 A 
ATOM     26  C   UNL A   1      33.783  20.943  24.810  1.00  0.00     0.000 A 
ENDBRANCH  20  21
ENDBRANCH   8  20
ENDBRANCH   6   8
ENDBRANCH   5   6
ENDBRANCH   4   5
ENDBRANCH   3   4
ENDBRANCH   2   3
ENDBRANCH   1   2
BRANCH   1  27
ATOM     27  C   UNL A   1      34.720  33.022  28.459  1.00  0.00     0.188 C 
BRANCH  27  28
ATOM     28  O   UNL A   1      34.369  34.078  29.322  1.00  0.00    -0.376 OA
BRANCH  28  29
ATOM     29  C   UNL A   1      33.228  34.873  29.060  1.00  0.00     0.202 C 
BRANCH  29  30
ATOM     30  C   UNL A   1      32.759  36.084  29.893  1.00  0.00     0.261 C 
BRANCH  30  31
ATOM     31  O   UNL A   1      31.991  35.831  31.069  1.00  0.00    -0.460 OA
BRANCH  31  32
ATOM     32  C   UNL A   1      32.581  36.156  32.251  1.00  0.00     0.338 C 
ATOM     33  O   UNL A   1      32.194  36.955  33.074  1.00  0.00    -0.246 OA
BRANCH  32  34
ATOM     34  C   UNL A   1      33.683  35.192  32.475  1.00  0.00     0.060 A 
ATOM     35  C   UNL A   1      33.373  33.885  32.887  1.00  0.00     0.016 A 
ATOM     36  C   UNL A   1      35.002  35.571  32.260  1.00  0.00     0.016 A 
ATOM     37  C   UNL A   1      34.380  32.950  33.099  1.00  0.00     0.010 A 
ATOM     38  C   UNL A   1      36.016  34.648  32.512  1.00  0.00     0.010 A 
ATOM     39  C   UNL A   1      35.709  33.347  32.960  1.00  0.00    -0.014 A 
BRANCH  39  40
ATOM     40  C   UNL A   1      36.797  32.499  33.484  1.00  0.00     0.031 A 
ATOM     41  C   UNL A   1      37.441  32.922  34.773  1.00  0.00     0.074 A 
ATOM     42  C   UNL A   1      37.239  31.430  32.801  1.00  0.00     0.049 A 
ATOM     43  N   UNL A   1      38.544  32.500  35.327  1.00  0.00    -0.248 NA
ATOM     44  C   UNL A   1      36.751  33.983  35.529  1.00  0.00     0.031 C 
ATOM     45  C   UNL A   1      36.652  30.912  31.568  1.00  0.00     0.029 A 
ATOM     46  N   UNL A   1      38.323  30.623  33.030  1.00  0.00    -0.354 N 
ATOM     47  C   UNL A   1      38.716  33.286  36.460  1.00  0.00     0.074 A 
ATOM     48  C   UNL A   1      37.597  34.197  36.525  1.00  0.00     0.031 C 
ATOM     49  C   UNL A   1      37.418  29.906  31.113  1.00  0.00     0.029 A 
ATOM     50  C   UNL A   1      38.569  29.747  31.999  1.00  0.00     0.049 A 
ATOM     51  H   UNL A   1      38.868  30.665  33.848  1.00  0.00     0.167 HD
ATOM     52  C   UNL A   1      39.724  33.250  37.361  1.00  0.00     0.034 A 
ATOM     53  C   UNL A   1      39.634  28.952  31.775  1.00  0.00     0.034 A 
ATOM     54  C   UNL A   1      40.821  32.324  37.283  1.00  0.00     0.049 A 
ATOM     55  C   UNL A   1      40.760  28.948  32.778  1.00  0.00     0.074 A 
ATOM     56  C   UNL A   1      41.881  32.171  38.157  1.00  0.00     0.029 A 
ATOM     57  N   UNL A   1      41.005  31.405  36.260  1.00  0.00    -0.354 N 
ATOM     58  N   UNL A   1      40.882  29.639  33.887  1.00  0.00    -0.248 NA
ATOM     59  C   UNL A   1      41.882  28.038  32.512  1.00  0.00     0.031 C 
ATOM     60  C   UNL A   1      42.723  31.177  37.646  1.00  0.00     0.029 A 
ATOM     61  C   UNL A   1      42.165  30.685  36.476  1.00  0.00     0.049 A 
ATOM     62  H   UNL A   1      40.399  31.284  35.495  1.00  0.00     0.167 HD
ATOM     63  C   UNL A   1      42.073  29.219  34.471  1.00  0.00     0.074 A 
ATOM     64  C   UNL A   1      42.625  28.202  33.599  1.00  0.00     0.031 C 
ATOM     65  C   UNL A   1      42.664  29.640  35.617  1.00  0.00     0.034 A 
BRANCH  52  66
ATOM     66  C   UNL A   1      39.687  34.239  38.494  1.00  0.00     0.023 A 
ATOM     67  C   UNL A   1      40.294  35.503  38.348  1.00  0.00     0.012 A 
ATOM     68  C   UNL A   1      39.017  33.929  39.695  1.00  0.00     0.148 A 
ATOM     69  C   UNL A   1      40.265  36.429  39.391  1.00  0.00     0.002 A 
ATOM     70  C   UNL A   1      38.951  34.875  40.710  1.00  0.00     0.091 A 
ATOM     71  F   UNL A   1      38.469  32.712  39.825  1.00  0.00    -0.205 F 
ATOM     72  C   UNL A   1      39.585  36.119  40.566  1.00  0.00     0.022 A 
BRANCH  70  73
ATOM     73  S   UNL A   1      38.034  34.603  42.230  1.00  0.00     0.127 S 
ATOM     74  O   UNL A   1      38.568  33.314  42.670  1.00  0.00    -0.237 OA
ATOM     75  O   UNL A   1      38.448  35.745  43.046  1.00  0.00    -0.237 OA
ATOM     76  O   UNL A   1      36.626  34.598  41.858  1.00  0.00    -0.744 OA
ENDBRANCH  70  73
ENDBRANCH  52  66
BRANCH  53  77
ATOM     77  C   UNL A   1      39.684  28.090  30.560  1.00  0.00     0.023 A 
ATOM     78  C   UNL A   1      38.973  26.875  30.543  1.00  0.00     0.012 A 
ATOM     79  C   UNL A   1      40.414  28.474  29.417  1.00  0.00     0.148 A 
ATOM     80  C   UNL A   1      39.011  26.043  29.423  1.00  0.00     0.002 A 
ATOM     81  C   UNL A   1      40.402  27.668  28.285  1.00  0.00     0.091 A 
ATOM     82  F   UNL A   1      41.097  29.626  29.458  1.00  0.00    -0.205 F 
ATOM     83  C   UNL A   1      39.715  26.444  28.291  1.00  0.00     0.022 A 
BRANCH  81  84
ATOM     84  S   UNL A   1      41.179  28.158  26.740  1.00  0.00     0.127 S 
ATOM     85  O   UNL A   1      41.145  26.911  25.980  1.00  0.00    -0.237 OA
ATOM     86  O   UNL A   1      40.266  29.197  26.262  1.00  0.00    -0.237 OA
ATOM     87  O   UNL A   1      42.504  28.641  27.103  1.00  0.00    -0.744 OA
ENDBRANCH  81  84
ENDBRANCH  53  77
BRANCH  65  88
ATOM     88  C   UNL A   1      43.945  28.964  36.030  1.00  0.00     0.023 A 
ATOM     89  C   UNL A   1      45.188  29.519  35.667  1.00  0.00     0.012 A 
ATOM     90  C   UNL A   1      43.911  27.818  36.849  1.00  0.00     0.148 A 
ATOM     91  C   UNL A   1      46.377  28.923  36.082  1.00  0.00     0.002 A 
ATOM     92  C   UNL A   1      45.098  27.261  37.303  1.00  0.00     0.091 A 
ATOM     93  F   UNL A   1      42.717  27.297  37.170  1.00  0.00    -0.205 F 
ATOM     94  C   UNL A   1      46.333  27.803  36.910  1.00  0.00     0.022 A 
BRANCH  92  95
ATOM     95  S   UNL A   1      45.136  25.883  38.455  1.00  0.00     0.127 S 
ATOM     96  O   UNL A   1      46.561  25.797  38.770  1.00  0.00    -0.237 OA
ATOM     97  O   UNL A   1      44.297  26.372  39.550  1.00  0.00    -0.237 OA
ATOM     98  O   UNL A   1      44.586  24.741  37.736  1.00  0.00    -0.744 OA
ENDBRANCH  92  95
ENDBRANCH  65  88
ENDBRANCH  39  40
ENDBRANCH  32  34
ENDBRANCH  31  32
ENDBRANCH  30  31
ENDBRANCH  29  30
ENDBRANCH  28  29
ENDBRANCH  27  28
ENDBRANCH   1  27
TORSDOF 26
ENDMDL
MODEL 3
REMARK VINA RESULT:      -9.8      5.038      7.351
REMARK SMILES C[NH2+]C[C@H](C)C(=O)N[C@H](Cc1ccccc1)C(=O)OCCOCCOCCOC(=O)c1ccc(-c2c3nc(c(-c4cccc(S(=O)(=O)[O-])c4F)c4ccc([nH]4)c(-c4cccc(S(=O)(=O)[O-])c4F)c4nc(c(-c5cccc(S(=O)(=O)[O-])c5F)c5ccc2[nH]5)C=C4)C=C3)cc1
REMARK SMILES IDX 23 1 22 2 21 3 20 4 19 5 17 6 18 7 9 8 8 9 6 10 7 11 4 13
REMARK SMILES IDX 5 14 3 15 2 16 1 17 10 20 11 21 12 22 16 23 13 24 15 25
REMARK SMILES IDX 14 26 24 27 25 28 26 29 27 30 28 31 29 32 30 33 31 34 32 35
REMARK SMILES IDX 93 36 33 37 92 38 34 39 35 40 36 41 86 42 37 43 91 44 85 45
REMARK SMILES IDX 87 46 38 47 90 48 84 49 83 50 39 52 71 53 51 54 70 55 52 56
REMARK SMILES IDX 55 57 69 58 88 59 53 60 54 61 68 63 89 64 56 65 40 66 41 67
REMARK SMILES IDX 49 68 42 69 44 70 50 71 43 72 45 73 46 74 47 75 48 76 72 77
REMARK SMILES IDX 73 78 81 79 74 80 76 81 82 82 75 83 77 84 78 85 79 86 80 87
REMARK SMILES IDX 57 88 58 89 66 90 59 91 61 92 67 93 60 94 62 95 63 96 64 97
REMARK SMILES IDX 65 98
REMARK H PARENT 8 12 2 18 2 19 87 51 55 62
REMARK Flexibility Score: inf
ROOT
ATOM      1  C   UNL A   1      40.092  22.132  26.568  1.00  0.00     0.188 C 
ENDROOT
BRANCH   1   2
ATOM      2  O   UNL A   1      38.793  22.306  26.035  1.00  0.00    -0.376 OA
BRANCH   2   3
ATOM      3  C   UNL A   1      38.184  21.196  25.389  1.00  0.00     0.202 C 
BRANCH   3   4
ATOM      4  C   UNL A   1      36.697  21.254  25.017  1.00  0.00     0.261 C 
BRANCH   4   5
ATOM      5  O   UNL A   1      35.948  22.459  25.382  1.00  0.00    -0.462 OA
BRANCH   5   6
ATOM      6  C   UNL A   1      35.463  23.197  24.349  1.00  0.00     0.329 C 
ATOM      7  O   UNL A   1      35.900  23.082  23.202  1.00  0.00    -0.250 OA
BRANCH   6   8
ATOM      8  C   UNL A   1      34.509  24.372  24.668  1.00  0.00     0.196 C 
BRANCH   8   9
ATOM      9  N   UNL A   1      34.251  25.061  23.377  1.00  0.00    -0.342 N 
ATOM     10  C   UNL A   1      33.246  25.017  22.467  1.00  0.00     0.229 C 
ATOM     11  O   UNL A   1      33.449  25.633  21.413  1.00  0.00    -0.275 OA
ATOM     12  H   UNL A   1      34.968  25.688  23.126  1.00  0.00     0.164 HD
BRANCH  10  13
ATOM     13  C   UNL A   1      31.898  24.326  22.664  1.00  0.00     0.130 C 
ATOM     14  C   UNL A   1      31.950  22.887  23.166  1.00  0.00     0.024 C 
BRANCH  13  15
ATOM     15  C   UNL A   1      30.792  25.140  23.375  1.00  0.00     0.273 C 
BRANCH  15  16
ATOM     16  N   UNL A   1      30.886  26.589  23.478  1.00  0.00    -0.348 N 
ATOM     17  C   UNL A   1      29.671  27.312  23.165  1.00  0.00     0.330 C 
ATOM     18  H   UNL A   1      31.152  26.822  24.434  1.00  0.00     0.346 HD
ATOM     19  H   UNL A   1      31.573  26.878  22.781  1.00  0.00     0.346 HD
ENDBRANCH  15  16
ENDBRANCH  13  15
ENDBRANCH  10  13
ENDBRANCH   8   9
BRANCH   8  20
ATOM     20  C   UNL A   1      34.357  25.378  25.833  1.00  0.00     0.072 C 
BRANCH  20  21
ATOM     21  C   UNL A   1      33.679  26.724  25.813  1.00  0.00    -0.045 A 
ATOM     22  C   UNL A   1      32.523  26.976  26.574  1.00  0.00     0.004 A 
ATOM     23  C   UNL A   1      34.067  27.691  24.875  1.00  0.00     0.004 A 
ATOM     24  C   UNL A   1      31.796  28.163  26.407  1.00  0.00     0.000 A 
ATOM     25  C   UNL A   1      33.348  28.880  24.720  1.00  0.00     0.000 A 
ATOM     26  C   UNL A   1      32.216  29.120  25.489  1.00  0.00     0.000 A 
ENDBRANCH  20  21
ENDBRANCH   8  20
ENDBRANCH   6   8
ENDBRANCH   5   6
ENDBRANCH   4   5
ENDBRANCH   3   4
ENDBRANCH   2   3
ENDBRANCH   1   2
BRANCH   1  27
ATOM     27  C   UNL A   1      40.767  20.778  26.332  1.00  0.00     0.188 C 
BRANCH  27  28
ATOM     28  O   UNL A   1      41.808  20.725  25.386  1.00  0.00    -0.376 OA
BRANCH  28  29
ATOM     29  C   UNL A   1      43.151  20.931  25.780  1.00  0.00     0.202 C 
BRANCH  29  30
ATOM     30  C   UNL A   1      43.932  22.256  25.676  1.00  0.00     0.261 C 
BRANCH  30  31
ATOM     31  O   UNL A   1      43.235  23.409  25.203  1.00  0.00    -0.460 OA
BRANCH  31  32
ATOM     32  C   UNL A   1      43.876  24.600  25.352  1.00  0.00     0.338 C 
ATOM     33  O   UNL A   1      44.756  25.057  24.656  1.00  0.00    -0.246 OA
BRANCH  32  34
ATOM     34  C   UNL A   1      43.156  25.361  26.398  1.00  0.00     0.060 A 
ATOM     35  C   UNL A   1      43.494  26.707  26.616  1.00  0.00     0.016 A 
ATOM     36  C   UNL A   1      42.147  24.757  27.138  1.00  0.00     0.016 A 
ATOM     37  C   UNL A   1      42.834  27.457  27.584  1.00  0.00     0.010 A 
ATOM     38  C   UNL A   1      41.513  25.494  28.137  1.00  0.00     0.010 A 
ATOM     39  C   UNL A   1      41.875  26.834  28.381  1.00  0.00    -0.014 A 
BRANCH  39  40
ATOM     40  C   UNL A   1      41.395  27.488  29.614  1.00  0.00     0.031 A 
ATOM     41  C   UNL A   1      40.091  28.228  29.540  1.00  0.00     0.074 A 
ATOM     42  C   UNL A   1      42.129  27.479  30.739  1.00  0.00     0.049 A 
ATOM     43  N   UNL A   1      39.562  29.065  30.389  1.00  0.00    -0.248 NA
ATOM     44  C   UNL A   1      39.283  28.005  28.327  1.00  0.00     0.031 C 
ATOM     45  C   UNL A   1      43.383  26.753  30.927  1.00  0.00     0.029 A 
ATOM     46  N   UNL A   1      41.943  28.150  31.920  1.00  0.00    -0.354 N 
ATOM     47  C   UNL A   1      38.394  29.517  29.788  1.00  0.00     0.074 A 
ATOM     48  C   UNL A   1      38.282  28.851  28.510  1.00  0.00     0.031 C 
ATOM     49  C   UNL A   1      43.887  27.063  32.133  1.00  0.00     0.029 A 
ATOM     50  C   UNL A   1      43.014  28.043  32.775  1.00  0.00     0.049 A 
ATOM     51  H   UNL A   1      41.126  28.655  32.134  1.00  0.00     0.167 HD
ATOM     52  C   UNL A   1      37.500  30.415  30.261  1.00  0.00     0.034 A 
ATOM     53  C   UNL A   1      43.279  28.708  33.917  1.00  0.00     0.034 A 
ATOM     54  C   UNL A   1      37.625  31.055  31.542  1.00  0.00     0.049 A 
ATOM     55  C   UNL A   1      42.282  29.725  34.412  1.00  0.00     0.074 A 
ATOM     56  C   UNL A   1      36.763  31.954  32.142  1.00  0.00     0.029 A 
ATOM     57  N   UNL A   1      38.690  30.874  32.412  1.00  0.00    -0.354 N 
ATOM     58  N   UNL A   1      41.142  30.095  33.877  1.00  0.00    -0.248 NA
ATOM     59  C   UNL A   1      42.595  30.398  35.681  1.00  0.00     0.031 C 
ATOM     60  C   UNL A   1      37.324  32.340  33.365  1.00  0.00     0.029 A 
ATOM     61  C   UNL A   1      38.514  31.650  33.542  1.00  0.00     0.049 A 
ATOM     62  H   UNL A   1      39.458  30.281  32.248  1.00  0.00     0.167 HD
ATOM     63  C   UNL A   1      40.584  31.012  34.760  1.00  0.00     0.074 A 
ATOM     64  C   UNL A   1      41.504  31.128  35.873  1.00  0.00     0.031 C 
ATOM     65  C   UNL A   1      39.422  31.705  34.660  1.00  0.00     0.034 A 
BRANCH  52  66
ATOM     66  C   UNL A   1      36.321  30.756  29.390  1.00  0.00     0.023 A 
ATOM     67  C   UNL A   1      35.576  29.728  28.776  1.00  0.00     0.012 A 
ATOM     68  C   UNL A   1      35.930  32.098  29.207  1.00  0.00     0.148 A 
ATOM     69  C   UNL A   1      34.481  30.032  27.967  1.00  0.00     0.002 A 
ATOM     70  C   UNL A   1      34.809  32.389  28.439  1.00  0.00     0.091 A 
ATOM     71  F   UNL A   1      36.667  33.062  29.776  1.00  0.00    -0.205 F 
ATOM     72  C   UNL A   1      34.092  31.359  27.807  1.00  0.00     0.022 A 
BRANCH  70  73
ATOM     73  S   UNL A   1      34.180  34.058  28.236  1.00  0.00     0.127 S 
ATOM     74  O   UNL A   1      32.764  33.809  27.963  1.00  0.00    -0.237 OA
ATOM     75  O   UNL A   1      34.452  34.649  29.547  1.00  0.00    -0.237 OA
ATOM     76  O   UNL A   1      34.932  34.644  27.135  1.00  0.00    -0.744 OA
ENDBRANCH  70  73
ENDBRANCH  52  66
BRANCH  53  77
ATOM     77  C   UNL A   1      44.534  28.430  34.673  1.00  0.00     0.023 A 
ATOM     78  C   UNL A   1      45.688  29.187  34.401  1.00  0.00     0.012 A 
ATOM     79  C   UNL A   1      44.585  27.434  35.669  1.00  0.00     0.148 A 
ATOM     80  C   UNL A   1      46.879  28.941  35.086  1.00  0.00     0.002 A 
ATOM     81  C   UNL A   1      45.758  27.231  36.386  1.00  0.00     0.091 A 
ATOM     82  F   UNL A   1      43.480  26.712  35.903  1.00  0.00    -0.205 F 
ATOM     83  C   UNL A   1      46.911  27.972  36.084  1.00  0.00     0.022 A 
BRANCH  81  84
ATOM     84  S   UNL A   1      45.861  26.091  37.771  1.00  0.00     0.127 S 
ATOM     85  O   UNL A   1      47.287  26.133  38.087  1.00  0.00    -0.237 OA
ATOM     86  O   UNL A   1      44.992  26.737  38.756  1.00  0.00    -0.237 OA
ATOM     87  O   UNL A   1      45.363  24.818  37.270  1.00  0.00    -0.744 OA
ENDBRANCH  81  84
ENDBRANCH  53  77
BRANCH  65  88
ATOM     88  C   UNL A   1      39.046  32.606  35.807  1.00  0.00     0.023 A 
ATOM     89  C   UNL A   1      38.204  32.133  36.833  1.00  0.00     0.012 A 
ATOM     90  C   UNL A   1      39.594  33.901  35.903  1.00  0.00     0.148 A 
ATOM     91  C   UNL A   1      37.887  32.947  37.919  1.00  0.00     0.002 A 
ATOM     92  C   UNL A   1      39.317  34.685  37.014  1.00  0.00     0.091 A 
ATOM     93  F   UNL A   1      40.380  34.337  34.907  1.00  0.00    -0.205 F 
ATOM     94  C   UNL A   1      38.453  34.217  38.016  1.00  0.00     0.022 A 
BRANCH  92  95
ATOM     95  S   UNL A   1      40.082  36.290  37.273  1.00  0.00     0.127 S 
ATOM     96  O   UNL A   1      41.414  35.911  37.743  1.00  0.00    -0.237 OA
ATOM     97  O   UNL A   1      40.050  36.869  35.930  1.00  0.00    -0.237 OA
ATOM     98  O   UNL A   1      39.250  36.981  38.249  1.00  0.00    -0.744 OA
ENDBRANCH  92  95
ENDBRANCH  65  88
ENDBRANCH  39  40
ENDBRANCH  32  34
ENDBRANCH  31  32
ENDBRANCH  30  31
ENDBRANCH  29  30
ENDBRANCH  28  29
ENDBRANCH  27  28
ENDBRANCH   1  27
TORSDOF 26
ENDMDL
