MODEL 1
REMARK VINA RESULT:     -10.3      0.000      0.000
REMARK SMILES CCOc1ccc(C[N@H+]2CC[NH2+][C@H](C(=O)OCCOCCOCCOC(=O)c3ccc(-c4c5nc(c(-c6cccc(S(=O)(=O)[O-])c6F)c6ccc([nH]6)c(-c6cccc(S(=O)(=O)[O-])c6F)c6nc(c(-c7cccc(S(=O)(=O)[O-])c7F)c7ccc4[nH]7)C=C6)C=C5)cc3)C2)c(OCC)c1C
REMARK SMILES IDX 20 1 19 2 18 3 17 4 16 5 14 6 15 7 13 8 9 9 10 10 91 11
REMARK SMILES IDX 11 13 12 14 8 17 7 18 4 19 5 20 96 21 6 22 92 23 97 24 3 25
REMARK SMILES IDX 2 26 1 27 93 28 94 29 95 30 21 31 22 32 23 33 24 34 25 35
REMARK SMILES IDX 26 36 27 37 28 38 29 39 90 40 30 41 89 42 31 43 32 44 33 45
REMARK SMILES IDX 83 46 34 47 88 48 82 49 84 50 35 51 87 52 81 53 80 54 36 56
REMARK SMILES IDX 68 57 48 58 67 59 49 60 52 61 66 62 85 63 50 64 51 65 65 67
REMARK SMILES IDX 86 68 53 69 37 70 38 71 46 72 39 73 41 74 47 75 40 76 42 77
REMARK SMILES IDX 43 78 44 79 45 80 69 81 70 82 78 83 71 84 73 85 79 86 72 87
REMARK SMILES IDX 74 88 75 89 76 90 77 91 54 92 55 93 63 94 56 95 58 96 64 97
REMARK SMILES IDX 57 98 59 99 60 100 61 101 62 102
REMARK H PARENT 9 12 12 15 12 16 84 55 52 66
REMARK Flexibility Score: inf
ROOT
ATOM      1  C   UNL A   1      34.388  19.645  24.728  1.00  0.00     0.188 C 
ENDROOT
BRANCH   1   2
ATOM      2  O   UNL A   1      33.281  20.202  25.390  1.00  0.00    -0.376 OA
BRANCH   2   3
ATOM      3  C   UNL A   1      33.350  20.357  26.800  1.00  0.00     0.202 C 
BRANCH   3   4
ATOM      4  C   UNL A   1      33.829  21.734  27.532  1.00  0.00     0.261 C 
BRANCH   4   5
ATOM      5  O   UNL A   1      34.471  23.008  26.971  1.00  0.00    -0.459 OA
BRANCH   5   6
ATOM      6  C   UNL A   1      34.459  23.789  25.800  1.00  0.00     0.371 C 
ATOM      7  O   UNL A   1      35.568  24.041  25.309  1.00  0.00    -0.245 OA
BRANCH   6   8
ATOM      8  C   UNL A   1      33.201  24.417  25.057  1.00  0.00     0.348 C 
ATOM      9  N   UNL A   1      30.612  24.543  24.841  1.00  0.00    -0.321 N 
ATOM     10  C   UNL A   1      30.683  24.247  23.410  1.00  0.00     0.324 C 
ATOM     11  C   UNL A   1      31.789  23.972  25.584  1.00  0.00     0.341 C 
ATOM     12  H   UNL A   1      29.858  24.009  25.273  1.00  0.00     0.348 HD
ATOM     13  C   UNL A   1      32.079  24.496  22.832  1.00  0.00     0.323 C 
ATOM     14  N   UNL A   1      33.172  23.906  23.624  1.00  0.00    -0.325 N 
ATOM     15  H   UNL A   1      34.060  24.134  23.178  1.00  0.00     0.347 HD
ATOM     16  H   UNL A   1      33.016  22.898  23.660  1.00  0.00     0.347 HD
BRANCH   9  17
ATOM     17  C   UNL A   1      29.978  25.821  25.217  1.00  0.00     0.303 C 
BRANCH  17  18
ATOM     18  C   UNL A   1      30.777  27.119  25.406  1.00  0.00     0.049 A 
ATOM     19  C   UNL A   1      32.413  29.463  25.986  1.00  0.00     0.125 A 
ATOM     20  C   UNL A   1      32.524  28.304  26.742  1.00  0.00     0.047 A 
ATOM     21  C   UNL A   1      31.450  29.447  24.986  1.00  0.00     0.034 A 
ATOM     22  C   UNL A   1      31.681  27.189  26.501  1.00  0.00     0.017 A 
ATOM     23  C   UNL A   1      30.794  28.238  24.567  1.00  0.00     0.134 A 
ATOM     24  C   UNL A   1      30.765  30.700  24.533  1.00  0.00     0.052 C 
BRANCH  19  25
ATOM     25  O   UNL A   1      33.245  30.503  26.324  1.00  0.00    -0.493 OA
BRANCH  25  26
ATOM     26  C   UNL A   1      33.348  30.864  27.710  1.00  0.00     0.226 C 
ATOM     27  C   UNL A   1      33.837  32.288  27.882  1.00  0.00     0.049 C 
ENDBRANCH  25  26
ENDBRANCH  19  25
BRANCH  23  28
ATOM     28  O   UNL A   1      30.351  28.401  23.282  1.00  0.00    -0.493 OA
BRANCH  28  29
ATOM     29  C   UNL A   1      29.070  28.033  22.833  1.00  0.00     0.226 C 
ATOM     30  C   UNL A   1      27.984  29.007  23.223  1.00  0.00     0.049 C 
ENDBRANCH  28  29
ENDBRANCH  23  28
ENDBRANCH  17  18
ENDBRANCH   9  17
ENDBRANCH   6   8
ENDBRANCH   5   6
ENDBRANCH   4   5
ENDBRANCH   3   4
ENDBRANCH   2   3
ENDBRANCH   1   2
BRANCH   1  31
ATOM     31  C   UNL A   1      35.673  20.456  24.790  1.00  0.00     0.188 C 
BRANCH  31  32
ATOM     32  O   UNL A   1      36.862  19.671  24.935  1.00  0.00    -0.376 OA
BRANCH  32  33
ATOM     33  C   UNL A   1      38.007  20.473  25.248  1.00  0.00     0.202 C 
BRANCH  33  34
ATOM     34  C   UNL A   1      39.297  19.677  25.530  1.00  0.00     0.261 C 
BRANCH  34  35
ATOM     35  O   UNL A   1      40.261  20.553  26.133  1.00  0.00    -0.460 OA
BRANCH  35  36
ATOM     36  C   UNL A   1      41.533  20.130  25.975  1.00  0.00     0.338 C 
ATOM     37  O   UNL A   1      41.871  18.996  25.650  1.00  0.00    -0.246 OA
BRANCH  36  38
ATOM     38  C   UNL A   1      42.441  21.159  26.534  1.00  0.00     0.060 A 
ATOM     39  C   UNL A   1      42.358  21.428  27.868  1.00  0.00     0.016 A 
ATOM     40  C   UNL A   1      43.223  22.025  25.771  1.00  0.00     0.016 A 
ATOM     41  C   UNL A   1      43.035  22.518  28.382  1.00  0.00     0.010 A 
ATOM     42  C   UNL A   1      43.565  23.296  26.283  1.00  0.00     0.010 A 
ATOM     43  C   UNL A   1      43.297  23.621  27.605  1.00  0.00    -0.014 A 
BRANCH  43  44
ATOM     44  C   UNL A   1      43.284  25.034  28.108  1.00  0.00     0.031 A 
ATOM     45  C   UNL A   1      42.053  25.830  27.888  1.00  0.00     0.074 A 
ATOM     46  C   UNL A   1      44.322  25.855  28.471  1.00  0.00     0.049 A 
ATOM     47  N   UNL A   1      42.036  27.103  27.653  1.00  0.00    -0.248 NA
ATOM     48  C   UNL A   1      40.746  25.190  27.819  1.00  0.00     0.031 C 
ATOM     49  C   UNL A   1      44.304  26.811  29.581  1.00  0.00     0.029 A 
ATOM     50  N   UNL A   1      45.586  26.073  27.947  1.00  0.00    -0.354 N 
ATOM     51  C   UNL A   1      40.722  27.482  27.746  1.00  0.00     0.074 A 
ATOM     52  C   UNL A   1      39.959  26.254  27.643  1.00  0.00     0.031 C 
ATOM     53  C   UNL A   1      45.490  27.453  29.667  1.00  0.00     0.029 A 
ATOM     54  C   UNL A   1      46.358  27.058  28.563  1.00  0.00     0.049 A 
ATOM     55  H   UNL A   1      45.923  25.560  27.178  1.00  0.00     0.167 HD
ATOM     56  C   UNL A   1      40.392  28.718  28.218  1.00  0.00     0.034 A 
ATOM     57  C   UNL A   1      47.454  27.691  28.030  1.00  0.00     0.034 A 
ATOM     58  C   UNL A   1      41.577  29.487  28.630  1.00  0.00     0.049 A 
ATOM     59  C   UNL A   1      47.134  29.145  27.856  1.00  0.00     0.074 A 
ATOM     60  C   UNL A   1      42.213  29.585  29.860  1.00  0.00     0.029 A 
ATOM     61  N   UNL A   1      42.443  30.065  27.707  1.00  0.00    -0.354 N 
ATOM     62  N   UNL A   1      46.060  29.694  28.329  1.00  0.00    -0.248 NA
ATOM     63  C   UNL A   1      47.905  30.056  27.013  1.00  0.00     0.031 C 
ATOM     64  C   UNL A   1      43.434  30.273  29.688  1.00  0.00     0.029 A 
ATOM     65  C   UNL A   1      43.555  30.607  28.353  1.00  0.00     0.049 A 
ATOM     66  H   UNL A   1      42.292  30.089  26.735  1.00  0.00     0.167 HD
ATOM     67  C   UNL A   1      45.816  30.837  27.622  1.00  0.00     0.074 A 
ATOM     68  C   UNL A   1      47.064  31.099  26.928  1.00  0.00     0.031 C 
ATOM     69  C   UNL A   1      44.558  31.374  27.608  1.00  0.00     0.034 A 
BRANCH  56  70
ATOM     70  C   UNL A   1      39.008  28.914  28.814  1.00  0.00     0.023 A 
ATOM     71  C   UNL A   1      37.980  29.380  27.970  1.00  0.00     0.012 A 
ATOM     72  C   UNL A   1      38.706  28.827  30.190  1.00  0.00     0.148 A 
ATOM     73  C   UNL A   1      36.786  29.900  28.475  1.00  0.00     0.002 A 
ATOM     74  C   UNL A   1      37.557  29.432  30.704  1.00  0.00     0.091 A 
ATOM     75  F   UNL A   1      39.543  28.165  31.005  1.00  0.00    -0.205 F 
ATOM     76  C   UNL A   1      36.598  29.978  29.846  1.00  0.00     0.022 A 
BRANCH  74  77
ATOM     77  S   UNL A   1      37.360  29.735  32.470  1.00  0.00     0.127 S 
ATOM     78  O   UNL A   1      37.255  28.379  33.017  1.00  0.00    -0.237 OA
ATOM     79  O   UNL A   1      38.594  30.434  32.816  1.00  0.00    -0.237 OA
ATOM     80  O   UNL A   1      36.128  30.508  32.591  1.00  0.00    -0.744 OA
ENDBRANCH  74  77
ENDBRANCH  56  70
BRANCH  57  81
ATOM     81  C   UNL A   1      48.460  27.033  27.112  1.00  0.00     0.023 A 
ATOM     82  C   UNL A   1      48.007  26.431  25.918  1.00  0.00     0.012 A 
ATOM     83  C   UNL A   1      49.849  26.996  27.347  1.00  0.00     0.148 A 
ATOM     84  C   UNL A   1      48.905  25.921  24.959  1.00  0.00     0.002 A 
ATOM     85  C   UNL A   1      50.744  26.569  26.359  1.00  0.00     0.091 A 
ATOM     86  F   UNL A   1      50.315  27.362  28.546  1.00  0.00    -0.205 F 
ATOM     87  C   UNL A   1      50.276  26.039  25.154  1.00  0.00     0.022 A 
BRANCH  85  88
ATOM     88  S   UNL A   1      52.516  26.821  26.571  1.00  0.00     0.127 S 
ATOM     89  O   UNL A   1      52.614  28.251  26.875  1.00  0.00    -0.237 OA
ATOM     90  O   UNL A   1      52.887  25.962  27.689  1.00  0.00    -0.237 OA
ATOM     91  O   UNL A   1      53.047  26.439  25.267  1.00  0.00    -0.744 OA
ENDBRANCH  85  88
ENDBRANCH  57  81
BRANCH  69  92
ATOM     92  C   UNL A   1      44.140  32.660  26.936  1.00  0.00     0.023 A 
ATOM     93  C   UNL A   1      44.116  32.856  25.545  1.00  0.00     0.012 A 
ATOM     94  C   UNL A   1      43.732  33.761  27.734  1.00  0.00     0.148 A 
ATOM     95  C   UNL A   1      43.753  34.081  24.974  1.00  0.00     0.002 A 
ATOM     96  C   UNL A   1      43.273  34.938  27.163  1.00  0.00     0.091 A 
ATOM     97  F   UNL A   1      43.845  33.706  29.068  1.00  0.00    -0.205 F 
ATOM     98  C   UNL A   1      43.306  35.116  25.781  1.00  0.00     0.022 A 
BRANCH  96  99
ATOM     99  S   UNL A   1      42.541  36.218  28.184  1.00  0.00     0.127 S 
ATOM    100  O   UNL A   1      43.652  36.576  29.062  1.00  0.00    -0.237 OA
ATOM    101  O   UNL A   1      42.188  37.241  27.197  1.00  0.00    -0.237 OA
ATOM    102  O   UNL A   1      41.391  35.589  28.821  1.00  0.00    -0.744 OA
ENDBRANCH  96  99
ENDBRANCH  69  92
ENDBRANCH  43  44
ENDBRANCH  36  38
ENDBRANCH  35  36
ENDBRANCH  34  35
ENDBRANCH  33  34
ENDBRANCH  32  33
ENDBRANCH  31  32
ENDBRANCH   1  31
TORSDOF 26
ENDMDL
MODEL 2
REMARK VINA RESULT:      -9.3      5.286     11.371
REMARK SMILES CCOc1ccc(C[N@H+]2CC[NH2+][C@H](C(=O)OCCOCCOCCOC(=O)c3ccc(-c4c5nc(c(-c6cccc(S(=O)(=O)[O-])c6F)c6ccc([nH]6)c(-c6cccc(S(=O)(=O)[O-])c6F)c6nc(c(-c7cccc(S(=O)(=O)[O-])c7F)c7ccc4[nH]7)C=C6)C=C5)cc3)C2)c(OCC)c1C
REMARK SMILES IDX 20 1 19 2 18 3 17 4 16 5 14 6 15 7 13 8 9 9 10 10 91 11
REMARK SMILES IDX 11 13 12 14 8 17 7 18 4 19 5 20 96 21 6 22 92 23 97 24 3 25
REMARK SMILES IDX 2 26 1 27 93 28 94 29 95 30 21 31 22 32 23 33 24 34 25 35
REMARK SMILES IDX 26 36 27 37 28 38 29 39 90 40 30 41 89 42 31 43 32 44 33 45
REMARK SMILES IDX 83 46 34 47 88 48 82 49 84 50 35 51 87 52 81 53 80 54 36 56
REMARK SMILES IDX 68 57 48 58 67 59 49 60 52 61 66 62 85 63 50 64 51 65 65 67
REMARK SMILES IDX 86 68 53 69 37 70 38 71 46 72 39 73 41 74 47 75 40 76 42 77
REMARK SMILES IDX 43 78 44 79 45 80 69 81 70 82 78 83 71 84 73 85 79 86 72 87
REMARK SMILES IDX 74 88 75 89 76 90 77 91 54 92 55 93 63 94 56 95 58 96 64 97
REMARK SMILES IDX 57 98 59 99 60 100 61 101 62 102
REMARK H PARENT 9 12 12 15 12 16 84 55 52 66
REMARK Flexibility Score: inf
ROOT
ATOM      1  C   UNL A   1      34.991  31.329  27.594  1.00  0.00     0.188 C 
ENDROOT
BRANCH   1   2
ATOM      2  O   UNL A   1      34.379  30.100  27.897  1.00  0.00    -0.376 OA
BRANCH   2   3
ATOM      3  C   UNL A   1      33.219  29.729  27.167  1.00  0.00     0.202 C 
BRANCH   3   4
ATOM      4  C   UNL A   1      33.150  29.703  25.537  1.00  0.00     0.261 C 
BRANCH   4   5
ATOM      5  O   UNL A   1      33.685  28.690  24.517  1.00  0.00    -0.459 OA
BRANCH   5   6
ATOM      6  C   UNL A   1      33.215  27.860  23.481  1.00  0.00     0.371 C 
ATOM      7  O   UNL A   1      33.319  28.318  22.335  1.00  0.00    -0.245 OA
BRANCH   6   8
ATOM      8  C   UNL A   1      32.535  26.429  23.610  1.00  0.00     0.348 C 
ATOM      9  N   UNL A   1      31.641  24.303  22.408  1.00  0.00    -0.321 N 
ATOM     10  C   UNL A   1      30.346  24.428  23.075  1.00  0.00     0.324 C 
ATOM     11  C   UNL A   1      32.325  25.635  22.270  1.00  0.00     0.341 C 
ATOM     12  H   UNL A   1      31.507  24.073  21.423  1.00  0.00     0.348 HD
ATOM     13  C   UNL A   1      30.413  25.325  24.315  1.00  0.00     0.323 C 
ATOM     14  N   UNL A   1      31.103  26.608  24.091  1.00  0.00    -0.325 N 
ATOM     15  H   UNL A   1      31.116  27.130  24.968  1.00  0.00     0.347 HD
ATOM     16  H   UNL A   1      30.593  27.108  23.363  1.00  0.00     0.347 HD
BRANCH   9  17
ATOM     17  C   UNL A   1      32.383  23.048  22.642  1.00  0.00     0.303 C 
BRANCH  17  18
ATOM     18  C   UNL A   1      33.582  22.961  23.598  1.00  0.00     0.049 A 
ATOM     19  C   UNL A   1      36.018  22.875  25.200  1.00  0.00     0.125 A 
ATOM     20  C   UNL A   1      36.041  23.297  23.878  1.00  0.00     0.047 A 
ATOM     21  C   UNL A   1      34.785  22.455  25.683  1.00  0.00     0.034 A 
ATOM     22  C   UNL A   1      34.869  23.275  23.081  1.00  0.00     0.017 A 
ATOM     23  C   UNL A   1      33.559  22.689  24.970  1.00  0.00     0.134 A 
ATOM     24  C   UNL A   1      34.674  21.428  26.768  1.00  0.00     0.052 C 
BRANCH  19  25
ATOM     25  O   UNL A   1      37.214  22.894  25.875  1.00  0.00    -0.493 OA
BRANCH  25  26
ATOM     26  C   UNL A   1      38.161  21.849  25.606  1.00  0.00     0.226 C 
ATOM     27  C   UNL A   1      39.462  22.066  26.351  1.00  0.00     0.049 C 
ENDBRANCH  25  26
ENDBRANCH  19  25
BRANCH  23  28
ATOM     28  O   UNL A   1      32.523  22.686  25.865  1.00  0.00    -0.493 OA
BRANCH  28  29
ATOM     29  C   UNL A   1      32.267  23.721  26.783  1.00  0.00     0.226 C 
ATOM     30  C   UNL A   1      33.107  24.956  26.559  1.00  0.00     0.049 C 
ENDBRANCH  28  29
ENDBRANCH  23  28
ENDBRANCH  17  18
ENDBRANCH   9  17
ENDBRANCH   6   8
ENDBRANCH   5   6
ENDBRANCH   4   5
ENDBRANCH   3   4
ENDBRANCH   2   3
ENDBRANCH   1   2
BRANCH   1  31
ATOM     31  C   UNL A   1      34.695  32.468  28.556  1.00  0.00     0.188 C 
BRANCH  31  32
ATOM     32  O   UNL A   1      33.861  33.499  28.013  1.00  0.00    -0.376 OA
BRANCH  32  33
ATOM     33  C   UNL A   1      34.245  34.802  28.467  1.00  0.00     0.202 C 
BRANCH  33  34
ATOM     34  C   UNL A   1      33.132  35.589  29.190  1.00  0.00     0.261 C 
BRANCH  34  35
ATOM     35  O   UNL A   1      32.761  34.879  30.380  1.00  0.00    -0.460 OA
BRANCH  35  36
ATOM     36  C   UNL A   1      33.084  35.539  31.513  1.00  0.00     0.338 C 
ATOM     37  O   UNL A   1      32.762  36.692  31.781  1.00  0.00    -0.246 OA
BRANCH  36  38
ATOM     38  C   UNL A   1      34.117  34.757  32.231  1.00  0.00     0.060 A 
ATOM     39  C   UNL A   1      35.109  35.442  32.870  1.00  0.00     0.016 A 
ATOM     40  C   UNL A   1      34.281  33.376  32.129  1.00  0.00     0.016 A 
ATOM     41  C   UNL A   1      36.196  34.751  33.369  1.00  0.00     0.010 A 
ATOM     42  C   UNL A   1      35.559  32.805  32.321  1.00  0.00     0.010 A 
ATOM     43  C   UNL A   1      36.611  33.573  32.796  1.00  0.00    -0.014 A 
BRANCH  43  44
ATOM     44  C   UNL A   1      38.045  33.151  32.672  1.00  0.00     0.031 A 
ATOM     45  C   UNL A   1      38.334  31.914  31.909  1.00  0.00     0.074 A 
ATOM     46  C   UNL A   1      39.146  33.526  33.403  1.00  0.00     0.049 A 
ATOM     47  N   UNL A   1      39.287  31.084  32.191  1.00  0.00    -0.248 NA
ATOM     48  C   UNL A   1      37.473  31.487  30.814  1.00  0.00     0.031 C 
ATOM     49  C   UNL A   1      40.493  33.737  32.866  1.00  0.00     0.029 A 
ATOM     50  N   UNL A   1      39.352  33.765  34.752  1.00  0.00    -0.354 N 
ATOM     51  C   UNL A   1      39.360  30.224  31.126  1.00  0.00     0.074 A 
ATOM     52  C   UNL A   1      38.106  30.383  30.416  1.00  0.00     0.031 C 
ATOM     53  C   UNL A   1      41.338  34.107  33.853  1.00  0.00     0.029 A 
ATOM     54  C   UNL A   1      40.655  34.073  35.141  1.00  0.00     0.049 A 
ATOM     55  H   UNL A   1      38.615  33.720  35.404  1.00  0.00     0.167 HD
ATOM     56  C   UNL A   1      40.560  29.701  30.743  1.00  0.00     0.034 A 
ATOM     57  C   UNL A   1      41.169  33.995  36.413  1.00  0.00     0.034 A 
ATOM     58  C   UNL A   1      41.672  30.216  31.557  1.00  0.00     0.049 A 
ATOM     59  C   UNL A   1      42.235  32.943  36.439  1.00  0.00     0.074 A 
ATOM     60  C   UNL A   1      42.501  31.313  31.370  1.00  0.00     0.029 A 
ATOM     61  N   UNL A   1      41.897  29.788  32.861  1.00  0.00    -0.354 N 
ATOM     62  N   UNL A   1      42.693  32.373  35.369  1.00  0.00    -0.248 NA
ATOM     63  C   UNL A   1      42.759  32.340  37.663  1.00  0.00     0.031 C 
ATOM     64  C   UNL A   1      43.266  31.511  32.540  1.00  0.00     0.029 A 
ATOM     65  C   UNL A   1      42.917  30.534  33.452  1.00  0.00     0.049 A 
ATOM     66  H   UNL A   1      41.405  29.060  33.305  1.00  0.00     0.167 HD
ATOM     67  C   UNL A   1      43.253  31.179  35.726  1.00  0.00     0.074 A 
ATOM     68  C   UNL A   1      43.408  31.276  37.166  1.00  0.00     0.031 C 
ATOM     69  C   UNL A   1      43.419  30.198  34.788  1.00  0.00     0.034 A 
BRANCH  56  70
ATOM     70  C   UNL A   1      40.711  29.226  29.308  1.00  0.00     0.023 A 
ATOM     71  C   UNL A   1      39.818  29.731  28.342  1.00  0.00     0.012 A 
ATOM     72  C   UNL A   1      41.571  28.186  28.892  1.00  0.00     0.148 A 
ATOM     73  C   UNL A   1      39.658  29.126  27.093  1.00  0.00     0.002 A 
ATOM     74  C   UNL A   1      41.346  27.520  27.685  1.00  0.00     0.091 A 
ATOM     75  F   UNL A   1      42.601  27.834  29.678  1.00  0.00    -0.205 F 
ATOM     76  C   UNL A   1      40.382  27.984  26.786  1.00  0.00     0.022 A 
BRANCH  74  77
ATOM     77  S   UNL A   1      42.116  25.929  27.329  1.00  0.00     0.127 S 
ATOM     78  O   UNL A   1      41.332  25.444  26.189  1.00  0.00    -0.237 OA
ATOM     79  O   UNL A   1      43.489  26.302  27.005  1.00  0.00    -0.237 OA
ATOM     80  O   UNL A   1      41.934  25.135  28.540  1.00  0.00    -0.744 OA
ENDBRANCH  74  77
ENDBRANCH  56  70
BRANCH  57  81
ATOM     81  C   UNL A   1      40.386  34.296  37.672  1.00  0.00     0.023 A 
ATOM     82  C   UNL A   1      40.569  35.541  38.312  1.00  0.00     0.012 A 
ATOM     83  C   UNL A   1      39.446  33.423  38.254  1.00  0.00     0.148 A 
ATOM     84  C   UNL A   1      39.775  35.935  39.408  1.00  0.00     0.002 A 
ATOM     85  C   UNL A   1      38.599  33.846  39.285  1.00  0.00     0.091 A 
ATOM     86  F   UNL A   1      39.377  32.160  37.820  1.00  0.00    -0.205 F 
ATOM     87  C   UNL A   1      38.752  35.110  39.860  1.00  0.00     0.022 A 
BRANCH  85  88
ATOM     88  S   UNL A   1      37.209  32.818  39.797  1.00  0.00     0.127 S 
ATOM     89  O   UNL A   1      36.588  33.607  40.862  1.00  0.00    -0.237 OA
ATOM     90  O   UNL A   1      36.378  32.691  38.606  1.00  0.00    -0.237 OA
ATOM     91  O   UNL A   1      37.870  31.598  40.248  1.00  0.00    -0.744 OA
ENDBRANCH  85  88
ENDBRANCH  57  81
BRANCH  69  92
ATOM     92  C   UNL A   1      44.078  28.855  35.002  1.00  0.00     0.023 A 
ATOM     93  C   UNL A   1      45.280  28.457  34.394  1.00  0.00     0.012 A 
ATOM     94  C   UNL A   1      43.470  27.913  35.872  1.00  0.00     0.148 A 
ATOM     95  C   UNL A   1      45.830  27.186  34.599  1.00  0.00     0.002 A 
ATOM     96  C   UNL A   1      44.071  26.696  36.155  1.00  0.00     0.091 A 
ATOM     97  F   UNL A   1      42.259  28.159  36.393  1.00  0.00    -0.205 F 
ATOM     98  C   UNL A   1      45.240  26.313  35.501  1.00  0.00     0.022 A 
BRANCH  96  99
ATOM     99  S   UNL A   1      43.407  25.631  37.437  1.00  0.00     0.127 S 
ATOM    100  O   UNL A   1      42.123  25.235  36.864  1.00  0.00    -0.237 OA
ATOM    101  O   UNL A   1      44.404  24.561  37.500  1.00  0.00    -0.237 OA
ATOM    102  O   UNL A   1      43.353  26.461  38.633  1.00  0.00    -0.744 OA
ENDBRANCH  96  99
ENDBRANCH  69  92
ENDBRANCH  43  44
ENDBRANCH  36  38
ENDBRANCH  35  36
ENDBRANCH  34  35
ENDBRANCH  33  34
ENDBRANCH  32  33
ENDBRANCH  31  32
ENDBRANCH   1  31
TORSDOF 26
ENDMDL
MODEL 3
REMARK VINA RESULT:      -9.1      2.922      7.847
REMARK SMILES CCOc1ccc(C[N@H+]2CC[NH2+][C@H](C(=O)OCCOCCOCCOC(=O)c3ccc(-c4c5nc(c(-c6cccc(S(=O)(=O)[O-])c6F)c6ccc([nH]6)c(-c6cccc(S(=O)(=O)[O-])c6F)c6nc(c(-c7cccc(S(=O)(=O)[O-])c7F)c7ccc4[nH]7)C=C6)C=C5)cc3)C2)c(OCC)c1C
REMARK SMILES IDX 20 1 19 2 18 3 17 4 16 5 14 6 15 7 13 8 9 9 10 10 91 11
REMARK SMILES IDX 11 13 12 14 8 17 7 18 4 19 5 20 96 21 6 22 92 23 97 24 3 25
REMARK SMILES IDX 2 26 1 27 93 28 94 29 95 30 21 31 22 32 23 33 24 34 25 35
REMARK SMILES IDX 26 36 27 37 28 38 29 39 90 40 30 41 89 42 31 43 32 44 33 45
REMARK SMILES IDX 83 46 34 47 88 48 82 49 84 50 35 51 87 52 81 53 80 54 36 56
REMARK SMILES IDX 68 57 48 58 67 59 49 60 52 61 66 62 85 63 50 64 51 65 65 67
REMARK SMILES IDX 86 68 53 69 37 70 38 71 46 72 39 73 41 74 47 75 40 76 42 77
REMARK SMILES IDX 43 78 44 79 45 80 69 81 70 82 78 83 71 84 73 85 79 86 72 87
REMARK SMILES IDX 74 88 75 89 76 90 77 91 54 92 55 93 63 94 56 95 58 96 64 97
REMARK SMILES IDX 57 98 59 99 60 100 61 101 62 102
REMARK H PARENT 9 12 12 15 12 16 84 55 52 66
REMARK Flexibility Score: inf
ROOT
ATOM      1  C   UNL A   1      33.603  20.140  25.909  1.00  0.00     0.188 C 
ENDROOT
BRANCH   1   2
ATOM      2  O   UNL A   1      33.038  21.337  26.382  1.00  0.00    -0.376 OA
BRANCH   2   3
ATOM      3  C   UNL A   1      33.808  22.141  27.263  1.00  0.00     0.202 C 
BRANCH   3   4
ATOM      4  C   UNL A   1      34.631  23.467  26.785  1.00  0.00     0.261 C 
BRANCH   4   5
ATOM      5  O   UNL A   1      35.158  23.889  25.408  1.00  0.00    -0.459 OA
BRANCH   5   6
ATOM      6  C   UNL A   1      34.679  24.400  24.187  1.00  0.00     0.371 C 
ATOM      7  O   UNL A   1      35.180  23.911  23.165  1.00  0.00    -0.245 OA
BRANCH   6   8
ATOM      8  C   UNL A   1      33.606  25.551  23.964  1.00  0.00     0.348 C 
ATOM      9  N   UNL A   1      31.098  26.211  23.755  1.00  0.00    -0.321 N 
ATOM     10  C   UNL A   1      31.344  26.876  22.476  1.00  0.00     0.324 C 
ATOM     11  C   UNL A   1      32.097  25.115  24.011  1.00  0.00     0.341 C 
ATOM     12  H   UNL A   1      30.243  25.658  23.704  1.00  0.00     0.348 HD
ATOM     13  C   UNL A   1      32.826  27.200  22.262  1.00  0.00     0.323 C 
ATOM     14  N   UNL A   1      33.733  26.071  22.539  1.00  0.00    -0.325 N 
ATOM     15  H   UNL A   1      34.694  26.380  22.389  1.00  0.00     0.347 HD
ATOM     16  H   UNL A   1      33.478  25.310  21.910  1.00  0.00     0.347 HD
BRANCH   9  17
ATOM     17  C   UNL A   1      30.542  27.048  24.836  1.00  0.00     0.303 C 
BRANCH  17  18
ATOM     18  C   UNL A   1      31.322  28.210  25.469  1.00  0.00     0.049 A 
ATOM     19  C   UNL A   1      32.943  30.226  26.817  1.00  0.00     0.125 A 
ATOM     20  C   UNL A   1      33.149  28.870  27.039  1.00  0.00     0.047 A 
ATOM     21  C   UNL A   1      31.896  30.550  25.964  1.00  0.00     0.034 A 
ATOM     22  C   UNL A   1      32.317  27.894  26.434  1.00  0.00     0.017 A 
ATOM     23  C   UNL A   1      31.237  29.568  25.146  1.00  0.00     0.134 A 
ATOM     24  C   UNL A   1      31.143  31.838  26.097  1.00  0.00     0.052 C 
BRANCH  19  25
ATOM     25  O   UNL A   1      33.775  31.093  27.482  1.00  0.00    -0.493 OA
BRANCH  25  26
ATOM     26  C   UNL A   1      35.121  30.672  27.748  1.00  0.00     0.226 C 
ATOM     27  C   UNL A   1      35.632  31.226  29.063  1.00  0.00     0.049 C 
ENDBRANCH  25  26
ENDBRANCH  19  25
BRANCH  23  28
ATOM     28  O   UNL A   1      30.679  30.199  24.067  1.00  0.00    -0.493 OA
BRANCH  28  29
ATOM     29  C   UNL A   1      29.378  29.954  23.592  1.00  0.00     0.226 C 
ATOM     30  C   UNL A   1      28.527  31.197  23.476  1.00  0.00     0.049 C 
ENDBRANCH  28  29
ENDBRANCH  23  28
ENDBRANCH  17  18
ENDBRANCH   9  17
ENDBRANCH   6   8
ENDBRANCH   5   6
ENDBRANCH   4   5
ENDBRANCH   3   4
ENDBRANCH   2   3
ENDBRANCH   1   2
BRANCH   1  31
ATOM     31  C   UNL A   1      34.467  20.264  24.664  1.00  0.00     0.188 C 
BRANCH  31  32
ATOM     32  O   UNL A   1      35.838  19.893  24.856  1.00  0.00    -0.376 OA
BRANCH  32  33
ATOM     33  C   UNL A   1      36.667  21.021  25.156  1.00  0.00     0.202 C 
BRANCH  33  34
ATOM     34  C   UNL A   1      38.161  20.691  25.355  1.00  0.00     0.261 C 
BRANCH  34  35
ATOM     35  O   UNL A   1      38.818  21.836  25.918  1.00  0.00    -0.460 OA
BRANCH  35  36
ATOM     36  C   UNL A   1      39.945  21.521  26.592  1.00  0.00     0.338 C 
ATOM     37  O   UNL A   1      40.371  20.385  26.775  1.00  0.00    -0.246 OA
BRANCH  36  38
ATOM     38  C   UNL A   1      40.414  22.730  27.309  1.00  0.00     0.060 A 
ATOM     39  C   UNL A   1      39.889  23.934  26.942  1.00  0.00     0.016 A 
ATOM     40  C   UNL A   1      41.502  22.764  28.180  1.00  0.00     0.016 A 
ATOM     41  C   UNL A   1      40.449  25.096  27.439  1.00  0.00     0.010 A 
ATOM     42  C   UNL A   1      42.236  23.960  28.339  1.00  0.00     0.010 A 
ATOM     43  C   UNL A   1      41.777  25.149  27.792  1.00  0.00    -0.014 A 
BRANCH  43  44
ATOM     44  C   UNL A   1      42.657  26.347  27.598  1.00  0.00     0.031 A 
ATOM     45  C   UNL A   1      44.091  26.108  27.311  1.00  0.00     0.074 A 
ATOM     46  C   UNL A   1      42.455  27.661  27.943  1.00  0.00     0.049 A 
ATOM     47  N   UNL A   1      45.057  26.868  27.720  1.00  0.00    -0.248 NA
ATOM     48  C   UNL A   1      44.528  24.907  26.612  1.00  0.00     0.031 C 
ATOM     49  C   UNL A   1      42.867  28.823  27.152  1.00  0.00     0.029 A 
ATOM     50  N   UNL A   1      41.895  28.274  29.053  1.00  0.00    -0.354 N 
ATOM     51  C   UNL A   1      46.176  26.439  27.055  1.00  0.00     0.074 A 
ATOM     52  C   UNL A   1      45.844  25.119  26.554  1.00  0.00     0.031 C 
ATOM     53  C   UNL A   1      42.508  29.967  27.776  1.00  0.00     0.029 A 
ATOM     54  C   UNL A   1      41.924  29.668  29.079  1.00  0.00     0.049 A 
ATOM     55  H   UNL A   1      41.499  27.752  29.787  1.00  0.00     0.167 HD
ATOM     56  C   UNL A   1      47.149  27.325  26.700  1.00  0.00     0.034 A 
ATOM     57  C   UNL A   1      41.771  30.469  30.184  1.00  0.00     0.034 A 
ATOM     58  C   UNL A   1      46.801  28.705  27.067  1.00  0.00     0.049 A 
ATOM     59  C   UNL A   1      43.051  31.211  30.422  1.00  0.00     0.074 A 
ATOM     60  C   UNL A   1      46.144  29.697  26.352  1.00  0.00     0.029 A 
ATOM     61  N   UNL A   1      46.859  29.160  28.381  1.00  0.00    -0.354 N 
ATOM     62  N   UNL A   1      44.037  31.210  29.580  1.00  0.00    -0.248 NA
ATOM     63  C   UNL A   1      43.387  31.879  31.677  1.00  0.00     0.031 C 
ATOM     64  C   UNL A   1      45.857  30.773  27.221  1.00  0.00     0.029 A 
ATOM     65  C   UNL A   1      46.341  30.453  28.475  1.00  0.00     0.049 A 
ATOM     66  H   UNL A   1      47.216  28.643  29.138  1.00  0.00     0.167 HD
ATOM     67  C   UNL A   1      45.178  31.534  30.257  1.00  0.00     0.074 A 
ATOM     68  C   UNL A   1      44.702  32.090  31.511  1.00  0.00     0.031 C 
ATOM     69  C   UNL A   1      46.397  31.196  29.737  1.00  0.00     0.034 A 
BRANCH  56  70
ATOM     70  C   UNL A   1      48.063  26.963  25.540  1.00  0.00     0.023 A 
ATOM     71  C   UNL A   1      49.364  26.509  25.834  1.00  0.00     0.012 A 
ATOM     72  C   UNL A   1      47.769  27.206  24.181  1.00  0.00     0.148 A 
ATOM     73  C   UNL A   1      50.371  26.469  24.867  1.00  0.00     0.002 A 
ATOM     74  C   UNL A   1      48.794  27.260  23.233  1.00  0.00     0.091 A 
ATOM     75  F   UNL A   1      46.494  27.399  23.809  1.00  0.00    -0.205 F 
ATOM     76  C   UNL A   1      50.100  26.900  23.576  1.00  0.00     0.022 A 
BRANCH  74  77
ATOM     77  S   UNL A   1      48.537  27.996  21.607  1.00  0.00     0.127 S 
ATOM     78  O   UNL A   1      47.368  28.854  21.826  1.00  0.00    -0.237 OA
ATOM     79  O   UNL A   1      49.785  28.720  21.382  1.00  0.00    -0.237 OA
ATOM     80  O   UNL A   1      48.275  26.873  20.714  1.00  0.00    -0.744 OA
ENDBRANCH  74  77
ENDBRANCH  56  70
BRANCH  57  81
ATOM     81  C   UNL A   1      40.863  30.152  31.352  1.00  0.00     0.023 A 
ATOM     82  C   UNL A   1      41.365  29.374  32.418  1.00  0.00     0.012 A 
ATOM     83  C   UNL A   1      39.535  30.605  31.475  1.00  0.00     0.148 A 
ATOM     84  C   UNL A   1      40.617  29.156  33.592  1.00  0.00     0.002 A 
ATOM     85  C   UNL A   1      38.825  30.463  32.673  1.00  0.00     0.091 A 
ATOM     86  F   UNL A   1      38.939  31.166  30.417  1.00  0.00    -0.205 F 
ATOM     87  C   UNL A   1      39.368  29.747  33.743  1.00  0.00     0.022 A 
BRANCH  85  88
ATOM     88  S   UNL A   1      37.254  31.317  32.903  1.00  0.00     0.127 S 
ATOM     89  O   UNL A   1      36.278  30.366  32.367  1.00  0.00    -0.237 OA
ATOM     90  O   UNL A   1      37.143  31.517  34.343  1.00  0.00    -0.237 OA
ATOM     91  O   UNL A   1      37.432  32.523  32.102  1.00  0.00    -0.744 OA
ENDBRANCH  85  88
ENDBRANCH  57  81
BRANCH  69  92
ATOM     92  C   UNL A   1      47.747  31.538  30.322  1.00  0.00     0.023 A 
ATOM     93  C   UNL A   1      48.499  32.672  29.972  1.00  0.00     0.012 A 
ATOM     94  C   UNL A   1      48.320  30.679  31.296  1.00  0.00     0.148 A 
ATOM     95  C   UNL A   1      49.762  32.923  30.519  1.00  0.00     0.002 A 
ATOM     96  C   UNL A   1      49.524  30.986  31.913  1.00  0.00     0.091 A 
ATOM     97  F   UNL A   1      47.734  29.512  31.594  1.00  0.00    -0.205 F 
ATOM     98  C   UNL A   1      50.265  32.094  31.509  1.00  0.00     0.022 A 
BRANCH  96  99
ATOM     99  S   UNL A   1      50.104  30.014  33.305  1.00  0.00     0.127 S 
ATOM    100  O   UNL A   1      50.789  28.910  32.637  1.00  0.00    -0.237 OA
ATOM    101  O   UNL A   1      50.990  30.956  33.993  1.00  0.00    -0.237 OA
ATOM    102  O   UNL A   1      48.905  29.671  34.058  1.00  0.00    -0.744 OA
ENDBRANCH  96  99
ENDBRANCH  69  92
ENDBRANCH  43  44
ENDBRANCH  36  38
ENDBRANCH  35  36
ENDBRANCH  34  35
ENDBRANCH  33  34
ENDBRANCH  32  33
ENDBRANCH  31  32
ENDBRANCH   1  31
TORSDOF 26
ENDMDL
