MODEL 1
REMARK VINA RESULT:     -13.0      0.000      0.000
REMARK SMILES Cc1ccc(-c2cc(Cl)cc3c2O[C@@H](C(F)(F)F)C(C(=O)OCCOCCOCCOC(=O)c2ccc(-c4c5nc(c(-c6cccc(S(=O)(=O)[O-])c6F)c6ccc([nH]6)c(-c6cccc(S(=O)(=O)[O-])c6F)c6nc(c(-c7cccc(S(=O)(=O)[O-])c7F)c7ccc4[nH]7)C=C6)C=C5)cc2)=C3)cc1
REMARK SMILES IDX 27 1 26 2 25 3 24 4 23 5 22 6 20 7 21 8 19 9 6 10 7 11 12 12
REMARK SMILES IDX 8 13 11 14 13 15 9 16 10 17 97 18 14 19 5 20 1 21 2 22 3 23
REMARK SMILES IDX 99 24 4 25 98 26 15 27 16 28 17 29 18 30 28 31 29 32 30 33
REMARK SMILES IDX 31 34 32 35 33 36 34 37 35 38 96 39 36 40 95 41 37 42 38 43
REMARK SMILES IDX 39 44 89 45 40 46 94 47 88 48 90 49 41 50 93 51 87 52 86 53
REMARK SMILES IDX 42 55 74 56 54 57 73 58 55 59 58 60 72 61 91 62 56 63 57 64
REMARK SMILES IDX 71 66 92 67 59 68 43 69 44 70 52 71 45 72 47 73 53 74 46 75
REMARK SMILES IDX 48 76 49 77 50 78 51 79 75 80 76 81 84 82 77 83 79 84 85 85
REMARK SMILES IDX 78 86 80 87 81 88 82 89 83 90 60 91 61 92 69 93 62 94 64 95
REMARK SMILES IDX 70 96 63 97 65 98 66 99 67 100 68 101
REMARK H PARENT 90 54 58 65
REMARK Flexibility Score: inf
ROOT
ATOM      1  C   UNL A   1      45.486  42.094  30.866  1.00  0.00     0.188 C 
ENDROOT
BRANCH   1   2
ATOM      2  C   UNL A   1      45.623  43.532  30.466  1.00  0.00     0.188 C 
BRANCH   2   3
ATOM      3  O   UNL A   1      45.877  43.674  29.059  1.00  0.00    -0.376 OA
BRANCH   3   4
ATOM      4  C   UNL A   1      46.991  43.132  28.280  1.00  0.00     0.202 C 
BRANCH   4   5
ATOM      5  C   UNL A   1      48.119  43.546  26.841  1.00  0.00     0.261 C 
BRANCH   5   6
ATOM      6  O   UNL A   1      47.777  43.795  24.929  1.00  0.00    -0.460 OA
BRANCH   6   7
ATOM      7  C   UNL A   1      46.848  44.431  23.631  1.00  0.00     0.338 C 
ATOM      8  O   UNL A   1      47.097  45.538  23.131  1.00  0.00    -0.246 OA
BRANCH   7   9
ATOM      9  C   UNL A   1      45.568  43.575  22.611  1.00  0.00     0.087 C 
ATOM     10  C   UNL A   1      43.688  45.400  18.966  1.00  0.00     0.026 A 
ATOM     11  C   UNL A   1      42.403  45.077  18.599  1.00  0.00     0.033 A 
ATOM     12  C   UNL A   1      44.327  44.243  20.058  1.00  0.00     0.135 A 
ATOM     13  C   UNL A   1      41.748  44.038  19.311  1.00  0.00     0.042 A 
ATOM     14  C   UNL A   1      43.550  43.511  20.981  1.00  0.00     0.019 A 
ATOM     15  O   UNL A   1      45.719  43.592  20.150  1.00  0.00    -0.475 OA
ATOM     16  Cl  UNL A   1      40.196  43.561  18.684  1.00  0.00    -0.084 Cl
ATOM     17  C   UNL A   1      42.236  43.379  20.522  1.00  0.00     0.032 A 
ATOM     18  C   UNL A   1      44.197  43.333  22.501  1.00  0.00     0.027 C 
ATOM     19  C   UNL A   1      46.063  42.813  21.476  1.00  0.00     0.316 C 
BRANCH  10  20
ATOM     20  C   UNL A   1      44.160  47.184  18.493  1.00  0.00    -0.015 A 
ATOM     21  C   UNL A   1      45.572  52.009  17.108  1.00  0.00     0.044 C 
ATOM     22  C   UNL A   1      45.121  50.663  17.611  1.00  0.00    -0.051 A 
ATOM     23  C   UNL A   1      44.252  49.804  16.381  1.00  0.00     0.004 A 
ATOM     24  C   UNL A   1      45.507  49.922  19.200  1.00  0.00     0.004 A 
ATOM     25  C   UNL A   1      43.864  48.081  16.694  1.00  0.00     0.009 A 
ATOM     26  C   UNL A   1      45.039  48.237  19.685  1.00  0.00     0.009 A 
ENDBRANCH  10  20
BRANCH  19  27
ATOM     27  C   UNL A   1      47.276  42.111  22.229  1.00  0.00     0.430 C 
ATOM     28  F   UNL A   1      47.641  40.920  21.612  1.00  0.00    -0.167 F 
ATOM     29  F   UNL A   1      48.426  42.828  22.121  1.00  0.00    -0.167 F 
ATOM     30  F   UNL A   1      47.111  41.805  23.517  1.00  0.00    -0.167 F 
ENDBRANCH  19  27
ENDBRANCH   7   9
ENDBRANCH   6   7
ENDBRANCH   5   6
ENDBRANCH   4   5
ENDBRANCH   3   4
ENDBRANCH   2   3
ENDBRANCH   1   2
BRANCH   1  31
ATOM     31  O   UNL A   1      44.421  41.669  30.076  1.00  0.00    -0.376 OA
BRANCH  31  32
ATOM     32  C   UNL A   1      44.585  40.528  29.301  1.00  0.00     0.202 C 
BRANCH  32  33
ATOM     33  C   UNL A   1      43.890  40.921  28.013  1.00  0.00     0.261 C 
BRANCH  33  34
ATOM     34  O   UNL A   1      43.834  39.778  27.091  1.00  0.00    -0.460 OA
BRANCH  34  35
ATOM     35  C   UNL A   1      42.946  38.763  27.381  1.00  0.00     0.338 C 
ATOM     36  O   UNL A   1      41.777  38.949  27.681  1.00  0.00    -0.246 OA
BRANCH  35  37
ATOM     37  C   UNL A   1      43.585  37.420  27.388  1.00  0.00     0.060 A 
ATOM     38  C   UNL A   1      43.243  36.394  26.531  1.00  0.00     0.016 A 
ATOM     39  C   UNL A   1      44.307  37.007  28.445  1.00  0.00     0.016 A 
ATOM     40  C   UNL A   1      43.123  35.016  27.018  1.00  0.00     0.010 A 
ATOM     41  C   UNL A   1      44.145  35.649  28.794  1.00  0.00     0.010 A 
ATOM     42  C   UNL A   1      43.276  34.529  28.281  1.00  0.00    -0.014 A 
BRANCH  42  43
ATOM     43  C   UNL A   1      43.012  32.747  28.874  1.00  0.00     0.031 A 
ATOM     44  C   UNL A   1      44.108  31.323  28.350  1.00  0.00     0.074 A 
ATOM     45  C   UNL A   1      42.154  32.344  29.927  1.00  0.00     0.049 A 
ATOM     46  N   UNL A   1      43.932  30.048  28.508  1.00  0.00    -0.248 NA
ATOM     47  C   UNL A   1      45.604  31.371  27.580  1.00  0.00     0.031 C 
ATOM     48  C   UNL A   1      42.251  31.148  30.801  1.00  0.00     0.029 A 
ATOM     49  N   UNL A   1      41.036  32.944  30.578  1.00  0.00    -0.354 N 
ATOM     50  C   UNL A   1      45.120  29.370  28.097  1.00  0.00     0.074 A 
ATOM     51  C   UNL A   1      45.888  30.147  27.234  1.00  0.00     0.031 C 
ATOM     52  C   UNL A   1      41.152  31.026  31.593  1.00  0.00     0.029 A 
ATOM     53  C   UNL A   1      40.154  31.976  31.125  1.00  0.00     0.049 A 
ATOM     54  H   UNL A   1      40.893  33.916  30.641  1.00  0.00     0.167 HD
ATOM     55  C   UNL A   1      45.589  28.295  28.771  1.00  0.00     0.034 A 
ATOM     56  C   UNL A   1      38.818  31.754  30.771  1.00  0.00     0.034 A 
ATOM     57  C   UNL A   1      44.482  27.834  29.598  1.00  0.00     0.049 A 
ATOM     58  C   UNL A   1      38.882  30.084  30.241  1.00  0.00     0.074 A 
ATOM     59  C   UNL A   1      44.145  27.959  30.928  1.00  0.00     0.029 A 
ATOM     60  N   UNL A   1      43.271  27.667  28.941  1.00  0.00    -0.354 N 
ATOM     61  N   UNL A   1      39.893  29.233  30.402  1.00  0.00    -0.248 NA
ATOM     62  C   UNL A   1      37.857  29.435  29.397  1.00  0.00     0.031 C 
ATOM     63  C   UNL A   1      42.717  27.803  31.031  1.00  0.00     0.029 A 
ATOM     64  C   UNL A   1      42.188  27.561  29.776  1.00  0.00     0.049 A 
ATOM     65  H   UNL A   1      43.196  27.627  27.959  1.00  0.00     0.167 HD
ATOM     66  C   UNL A   1      39.846  28.196  29.455  1.00  0.00     0.074 A 
ATOM     67  C   UNL A   1      38.509  28.364  28.892  1.00  0.00     0.031 C 
ATOM     68  C   UNL A   1      40.892  27.323  29.132  1.00  0.00     0.034 A 
BRANCH  55  69
ATOM     69  C   UNL A   1      47.076  27.839  28.828  1.00  0.00     0.023 A 
ATOM     70  C   UNL A   1      47.823  28.513  29.807  1.00  0.00     0.012 A 
ATOM     71  C   UNL A   1      47.850  26.938  27.999  1.00  0.00     0.148 A 
ATOM     72  C   UNL A   1      49.212  28.377  29.937  1.00  0.00     0.002 A 
ATOM     73  C   UNL A   1      49.239  26.773  28.157  1.00  0.00     0.091 A 
ATOM     74  F   UNL A   1      47.304  26.255  26.991  1.00  0.00    -0.205 F 
ATOM     75  C   UNL A   1      49.923  27.513  29.116  1.00  0.00     0.022 A 
BRANCH  73  76
ATOM     76  S   UNL A   1      50.268  25.670  27.137  1.00  0.00     0.127 S 
ATOM     77  O   UNL A   1      49.953  24.352  27.692  1.00  0.00    -0.237 OA
ATOM     78  O   UNL A   1      49.736  25.892  25.790  1.00  0.00    -0.237 OA
ATOM     79  O   UNL A   1      51.654  26.083  27.318  1.00  0.00    -0.744 OA
ENDBRANCH  73  76
ENDBRANCH  55  69
BRANCH  56  80
ATOM     80  C   UNL A   1      37.927  33.017  29.769  1.00  0.00     0.023 A 
ATOM     81  C   UNL A   1      36.688  33.260  28.186  1.00  0.00     0.012 A 
ATOM     82  C   UNL A   1      37.453  33.357  31.226  1.00  0.00     0.148 A 
ATOM     83  C   UNL A   1      34.928  33.550  28.484  1.00  0.00     0.002 A 
ATOM     84  C   UNL A   1      35.875  33.460  31.525  1.00  0.00     0.091 A 
ATOM     85  F   UNL A   1      38.229  34.317  31.772  1.00  0.00    -0.205 F 
ATOM     86  C   UNL A   1      34.523  33.578  30.232  1.00  0.00     0.022 A 
BRANCH  84  87
ATOM     87  S   UNL A   1      36.209  33.711  33.249  1.00  0.00     0.127 S 
ATOM     88  O   UNL A   1      34.897  33.265  33.537  1.00  0.00    -0.237 OA
ATOM     89  O   UNL A   1      37.238  32.804  33.705  1.00  0.00    -0.237 OA
ATOM     90  O   UNL A   1      36.600  35.110  33.354  1.00  0.00    -0.744 OA
ENDBRANCH  84  87
ENDBRANCH  56  80
BRANCH  68  91
ATOM     91  C   UNL A   1      40.859  26.060  28.154  1.00  0.00     0.023 A 
ATOM     92  C   UNL A   1      39.842  25.104  28.283  1.00  0.00     0.012 A 
ATOM     93  C   UNL A   1      41.922  25.664  27.244  1.00  0.00     0.148 A 
ATOM     94  C   UNL A   1      39.856  23.883  27.573  1.00  0.00     0.002 A 
ATOM     95  C   UNL A   1      41.960  24.434  26.582  1.00  0.00     0.091 A 
ATOM     96  F   UNL A   1      42.956  26.456  26.975  1.00  0.00    -0.205 F 
ATOM     97  C   UNL A   1      40.913  23.542  26.734  1.00  0.00     0.022 A 
BRANCH  95  98
ATOM     98  S   UNL A   1      43.381  23.887  25.588  1.00  0.00     0.127 S 
ATOM     99  O   UNL A   1      44.359  23.560  26.629  1.00  0.00    -0.237 OA
ATOM    100  O   UNL A   1      42.837  22.722  24.889  1.00  0.00    -0.237 OA
ATOM    101  O   UNL A   1      43.761  24.995  24.725  1.00  0.00    -0.744 OA
ENDBRANCH  95  98
ENDBRANCH  68  91
ENDBRANCH  42  43
ENDBRANCH  35  37
ENDBRANCH  34  35
ENDBRANCH  33  34
ENDBRANCH  32  33
ENDBRANCH  31  32
ENDBRANCH   1  31
TORSDOF 22
ENDMDL
MODEL 2
REMARK VINA RESULT:     -12.5      7.753     12.413
REMARK SMILES Cc1ccc(-c2cc(Cl)cc3c2O[C@@H](C(F)(F)F)C(C(=O)OCCOCCOCCOC(=O)c2ccc(-c4c5nc(c(-c6cccc(S(=O)(=O)[O-])c6F)c6ccc([nH]6)c(-c6cccc(S(=O)(=O)[O-])c6F)c6nc(c(-c7cccc(S(=O)(=O)[O-])c7F)c7ccc4[nH]7)C=C6)C=C5)cc2)=C3)cc1
REMARK SMILES IDX 27 1 26 2 25 3 24 4 23 5 22 6 20 7 21 8 19 9 6 10 7 11 12 12
REMARK SMILES IDX 8 13 11 14 13 15 9 16 10 17 97 18 14 19 5 20 1 21 2 22 3 23
REMARK SMILES IDX 99 24 4 25 98 26 15 27 16 28 17 29 18 30 28 31 29 32 30 33
REMARK SMILES IDX 31 34 32 35 33 36 34 37 35 38 96 39 36 40 95 41 37 42 38 43
REMARK SMILES IDX 39 44 89 45 40 46 94 47 88 48 90 49 41 50 93 51 87 52 86 53
REMARK SMILES IDX 42 55 74 56 54 57 73 58 55 59 58 60 72 61 91 62 56 63 57 64
REMARK SMILES IDX 71 66 92 67 59 68 43 69 44 70 52 71 45 72 47 73 53 74 46 75
REMARK SMILES IDX 48 76 49 77 50 78 51 79 75 80 76 81 84 82 77 83 79 84 85 85
REMARK SMILES IDX 78 86 80 87 81 88 82 89 83 90 60 91 61 92 69 93 62 94 64 95
REMARK SMILES IDX 70 96 63 97 65 98 66 99 67 100 68 101
REMARK H PARENT 90 54 58 65
REMARK Flexibility Score: inf
ROOT
ATOM      1  C   UNL A   1      49.685  33.281  29.251  1.00  0.00     0.188 C 
ENDROOT
BRANCH   1   2
ATOM      2  C   UNL A   1      49.859  33.933  30.590  1.00  0.00     0.188 C 
BRANCH   2   3
ATOM      3  O   UNL A   1      50.007  32.965  31.641  1.00  0.00    -0.376 OA
BRANCH   3   4
ATOM      4  C   UNL A   1      49.186  32.798  32.842  1.00  0.00     0.202 C 
BRANCH   4   5
ATOM      5  C   UNL A   1      48.441  33.769  34.262  1.00  0.00     0.261 C 
BRANCH   5   6
ATOM      6  O   UNL A   1      46.707  34.649  34.489  1.00  0.00    -0.460 OA
BRANCH   6   7
ATOM      7  C   UNL A   1      45.001  34.700  34.292  1.00  0.00     0.338 C 
ATOM      8  O   UNL A   1      44.248  35.064  35.207  1.00  0.00    -0.246 OA
BRANCH   7   9
ATOM      9  C   UNL A   1      44.022  34.502  32.738  1.00  0.00     0.087 C 
ATOM     10  C   UNL A   1      45.551  35.687  28.687  1.00  0.00     0.026 A 
ATOM     11  C   UNL A   1      44.687  36.102  27.701  1.00  0.00     0.033 A 
ATOM     12  C   UNL A   1      44.716  34.848  29.926  1.00  0.00     0.135 A 
ATOM     13  C   UNL A   1      43.294  35.995  27.949  1.00  0.00     0.042 A 
ATOM     14  C   UNL A   1      43.379  35.108  30.298  1.00  0.00     0.019 A 
ATOM     15  O   UNL A   1      45.075  33.573  30.711  1.00  0.00    -0.475 OA
ATOM     16  Cl  UNL A   1      42.261  36.370  26.598  1.00  0.00    -0.084 Cl
ATOM     17  C   UNL A   1      42.665  35.645  29.222  1.00  0.00     0.032 A 
ATOM     18  C   UNL A   1      43.063  35.116  31.929  1.00  0.00     0.027 C 
ATOM     19  C   UNL A   1      44.232  33.264  32.007  1.00  0.00     0.316 C 
BRANCH  10  20
ATOM     20  C   UNL A   1      47.259  36.523  28.567  1.00  0.00    -0.015 A 
ATOM     21  C   UNL A   1      51.862  38.943  28.179  1.00  0.00     0.044 C 
ATOM     22  C   UNL A   1      50.592  38.139  28.279  1.00  0.00    -0.051 A 
ATOM     23  C   UNL A   1      49.626  38.678  29.613  1.00  0.00     0.004 A 
ATOM     24  C   UNL A   1      50.023  36.877  27.136  1.00  0.00     0.004 A 
ATOM     25  C   UNL A   1      47.958  38.028  29.741  1.00  0.00     0.009 A 
ATOM     26  C   UNL A   1      48.415  36.043  27.249  1.00  0.00     0.009 A 
ENDBRANCH  10  20
BRANCH  19  27
ATOM     27  C   UNL A   1      44.191  32.288  33.262  1.00  0.00     0.430 C 
ATOM     28  F   UNL A   1      43.104  32.556  34.084  1.00  0.00    -0.167 F 
ATOM     29  F   UNL A   1      43.938  31.002  32.899  1.00  0.00    -0.167 F 
ATOM     30  F   UNL A   1      45.252  32.277  34.072  1.00  0.00    -0.167 F 
ENDBRANCH  19  27
ENDBRANCH   7   9
ENDBRANCH   6   7
ENDBRANCH   5   6
ENDBRANCH   4   5
ENDBRANCH   3   4
ENDBRANCH   2   3
ENDBRANCH   1   2
BRANCH   1  31
ATOM     31  O   UNL A   1      48.309  33.072  29.203  1.00  0.00    -0.376 OA
BRANCH  31  32
ATOM     32  C   UNL A   1      47.838  31.876  28.679  1.00  0.00     0.202 C 
BRANCH  32  33
ATOM     33  C   UNL A   1      48.227  31.997  27.220  1.00  0.00     0.261 C 
BRANCH  33  34
ATOM     34  O   UNL A   1      47.029  32.121  26.377  1.00  0.00    -0.460 OA
BRANCH  34  35
ATOM     35  C   UNL A   1      46.304  30.976  26.122  1.00  0.00     0.338 C 
ATOM     36  O   UNL A   1      46.757  30.000  25.543  1.00  0.00    -0.246 OA
BRANCH  35  37
ATOM     37  C   UNL A   1      44.879  31.089  26.535  1.00  0.00     0.060 A 
ATOM     38  C   UNL A   1      44.334  32.202  27.142  1.00  0.00     0.016 A 
ATOM     39  C   UNL A   1      44.106  29.995  26.646  1.00  0.00     0.016 A 
ATOM     40  C   UNL A   1      43.401  32.064  28.264  1.00  0.00     0.010 A 
ATOM     41  C   UNL A   1      43.213  29.994  27.739  1.00  0.00     0.010 A 
ATOM     42  C   UNL A   1      42.958  30.937  28.887  1.00  0.00    -0.014 A 
BRANCH  42  43
ATOM     43  C   UNL A   1      41.823  30.822  30.402  1.00  0.00     0.031 A 
ATOM     44  C   UNL A   1      40.545  32.123  30.823  1.00  0.00     0.074 A 
ATOM     45  C   UNL A   1      41.640  29.674  31.213  1.00  0.00     0.049 A 
ATOM     46  N   UNL A   1      39.855  32.277  31.911  1.00  0.00    -0.248 NA
ATOM     47  C   UNL A   1      39.965  33.382  29.867  1.00  0.00     0.031 C 
ATOM     48  C   UNL A   1      40.465  29.292  32.035  1.00  0.00     0.029 A 
ATOM     49  N   UNL A   1      42.399  28.488  31.436  1.00  0.00    -0.354 N 
ATOM     50  C   UNL A   1      38.887  33.305  31.694  1.00  0.00     0.074 A 
ATOM     51  C   UNL A   1      39.249  34.145  30.643  1.00  0.00     0.031 C 
ATOM     52  C   UNL A   1      40.729  28.196  32.795  1.00  0.00     0.029 A 
ATOM     53  C   UNL A   1      42.158  27.932  32.719  1.00  0.00     0.049 A 
ATOM     54  H   UNL A   1      43.018  28.099  30.776  1.00  0.00     0.167 HD
ATOM     55  C   UNL A   1      37.635  33.213  32.194  1.00  0.00     0.034 A 
ATOM     56  C   UNL A   1      43.085  27.766  33.756  1.00  0.00     0.034 A 
ATOM     57  C   UNL A   1      37.694  32.179  33.218  1.00  0.00     0.049 A 
ATOM     58  C   UNL A   1      42.348  28.727  35.024  1.00  0.00     0.074 A 
ATOM     59  C   UNL A   1      37.335  30.851  33.280  1.00  0.00     0.029 A 
ATOM     60  N   UNL A   1      38.718  32.311  34.146  1.00  0.00    -0.354 N 
ATOM     61  N   UNL A   1      41.118  29.236  35.028  1.00  0.00    -0.248 NA
ATOM     62  C   UNL A   1      43.066  29.234  36.212  1.00  0.00     0.031 C 
ATOM     63  C   UNL A   1      38.135  30.231  34.305  1.00  0.00     0.029 A 
ATOM     64  C   UNL A   1      38.960  31.179  34.882  1.00  0.00     0.049 A 
ATOM     65  H   UNL A   1      39.226  33.146  34.266  1.00  0.00     0.167 HD
ATOM     66  C   UNL A   1      41.021  30.336  35.897  1.00  0.00     0.074 A 
ATOM     67  C   UNL A   1      42.273  30.240  36.642  1.00  0.00     0.031 C 
ATOM     68  C   UNL A   1      39.993  31.286  35.917  1.00  0.00     0.034 A 
BRANCH  55  69
ATOM     69  C   UNL A   1      36.367  33.891  31.597  1.00  0.00     0.023 A 
ATOM     70  C   UNL A   1      35.655  34.654  32.535  1.00  0.00     0.012 A 
ATOM     71  C   UNL A   1      35.732  33.793  30.298  1.00  0.00     0.148 A 
ATOM     72  C   UNL A   1      34.404  35.227  32.264  1.00  0.00     0.002 A 
ATOM     73  C   UNL A   1      34.495  34.403  30.016  1.00  0.00     0.091 A 
ATOM     74  F   UNL A   1      36.251  33.068  29.306  1.00  0.00    -0.205 F 
ATOM     75  C   UNL A   1      33.821  35.102  31.012  1.00  0.00     0.022 A 
BRANCH  73  76
ATOM     76  S   UNL A   1      33.640  34.304  28.411  1.00  0.00     0.127 S 
ATOM     77  O   UNL A   1      33.538  32.858  28.203  1.00  0.00    -0.237 OA
ATOM     78  O   UNL A   1      32.360  34.958  28.690  1.00  0.00    -0.237 OA
ATOM     79  O   UNL A   1      34.475  34.994  27.435  1.00  0.00    -0.744 OA
ENDBRANCH  73  76
ENDBRANCH  55  69
BRANCH  56  80
ATOM     80  C   UNL A   1      44.884  27.921  33.393  1.00  0.00     0.023 A 
ATOM     81  C   UNL A   1      46.552  28.970  33.856  1.00  0.00     0.012 A 
ATOM     82  C   UNL A   1      44.752  26.403  33.771  1.00  0.00     0.148 A 
ATOM     83  C   UNL A   1      47.755  28.250  35.000  1.00  0.00     0.002 A 
ATOM     84  C   UNL A   1      45.721  25.799  34.906  1.00  0.00     0.091 A 
ATOM     85  F   UNL A   1      44.581  25.646  32.666  1.00  0.00    -0.205 F 
ATOM     86  C   UNL A   1      47.258  26.628  35.585  1.00  0.00     0.022 A 
BRANCH  84  87
ATOM     87  S   UNL A   1      44.884  24.239  34.801  1.00  0.00     0.127 S 
ATOM     88  O   UNL A   1      44.719  24.267  36.207  1.00  0.00    -0.237 OA
ATOM     89  O   UNL A   1      43.644  24.374  34.073  1.00  0.00    -0.237 OA
ATOM     90  O   UNL A   1      45.832  23.350  34.144  1.00  0.00    -0.744 OA
ENDBRANCH  84  87
ENDBRANCH  56  80
BRANCH  68  91
ATOM     91  C   UNL A   1      39.773  32.483  36.952  1.00  0.00     0.023 A 
ATOM     92  C   UNL A   1      38.766  32.390  37.923  1.00  0.00     0.012 A 
ATOM     93  C   UNL A   1      40.385  33.799  36.870  1.00  0.00     0.148 A 
ATOM     94  C   UNL A   1      38.406  33.479  38.748  1.00  0.00     0.002 A 
ATOM     95  C   UNL A   1      39.993  34.889  37.651  1.00  0.00     0.091 A 
ATOM     96  F   UNL A   1      41.378  34.067  36.026  1.00  0.00    -0.205 F 
ATOM     97  C   UNL A   1      39.006  34.726  38.608  1.00  0.00     0.022 A 
BRANCH  95  98
ATOM     98  S   UNL A   1      40.649  36.568  37.410  1.00  0.00     0.127 S 
ATOM     99  O   UNL A   1      40.185  36.874  36.054  1.00  0.00    -0.237 OA
ATOM    100  O   UNL A   1      39.963  37.320  38.462  1.00  0.00    -0.237 OA
ATOM    101  O   UNL A   1      42.095  36.496  37.555  1.00  0.00    -0.744 OA
ENDBRANCH  95  98
ENDBRANCH  68  91
ENDBRANCH  42  43
ENDBRANCH  35  37
ENDBRANCH  34  35
ENDBRANCH  33  34
ENDBRANCH  32  33
ENDBRANCH  31  32
ENDBRANCH   1  31
TORSDOF 22
ENDMDL
MODEL 3
REMARK VINA RESULT:     -12.4      7.987     15.967
REMARK SMILES Cc1ccc(-c2cc(Cl)cc3c2O[C@@H](C(F)(F)F)C(C(=O)OCCOCCOCCOC(=O)c2ccc(-c4c5nc(c(-c6cccc(S(=O)(=O)[O-])c6F)c6ccc([nH]6)c(-c6cccc(S(=O)(=O)[O-])c6F)c6nc(c(-c7cccc(S(=O)(=O)[O-])c7F)c7ccc4[nH]7)C=C6)C=C5)cc2)=C3)cc1
REMARK SMILES IDX 27 1 26 2 25 3 24 4 23 5 22 6 20 7 21 8 19 9 6 10 7 11 12 12
REMARK SMILES IDX 8 13 11 14 13 15 9 16 10 17 97 18 14 19 5 20 1 21 2 22 3 23
REMARK SMILES IDX 99 24 4 25 98 26 15 27 16 28 17 29 18 30 28 31 29 32 30 33
REMARK SMILES IDX 31 34 32 35 33 36 34 37 35 38 96 39 36 40 95 41 37 42 38 43
REMARK SMILES IDX 39 44 89 45 40 46 94 47 88 48 90 49 41 50 93 51 87 52 86 53
REMARK SMILES IDX 42 55 74 56 54 57 73 58 55 59 58 60 72 61 91 62 56 63 57 64
REMARK SMILES IDX 71 66 92 67 59 68 43 69 44 70 52 71 45 72 47 73 53 74 46 75
REMARK SMILES IDX 48 76 49 77 50 78 51 79 75 80 76 81 84 82 77 83 79 84 85 85
REMARK SMILES IDX 78 86 80 87 81 88 82 89 83 90 60 91 61 92 69 93 62 94 64 95
REMARK SMILES IDX 70 96 63 97 65 98 66 99 67 100 68 101
REMARK H PARENT 90 54 58 65
REMARK Flexibility Score: inf
ROOT
ATOM      1  C   UNL A   1      43.155  28.628  35.797  1.00  0.00     0.188 C 
ENDROOT
BRANCH   1   2
ATOM      2  C   UNL A   1      42.856  27.176  36.025  1.00  0.00     0.188 C 
BRANCH   2   3
ATOM      3  O   UNL A   1      44.017  26.353  35.824  1.00  0.00    -0.376 OA
BRANCH   3   4
ATOM      4  C   UNL A   1      44.111  25.077  35.115  1.00  0.00     0.202 C 
BRANCH   4   5
ATOM      5  C   UNL A   1      43.642  23.269  35.270  1.00  0.00     0.261 C 
BRANCH   5   6
ATOM      6  O   UNL A   1      44.537  21.622  34.702  1.00  0.00    -0.460 OA
BRANCH   6   7
ATOM      7  C   UNL A   1      45.704  20.382  34.929  1.00  0.00     0.338 C 
ATOM      8  O   UNL A   1      45.398  19.181  34.882  1.00  0.00    -0.246 OA
BRANCH   7   9
ATOM      9  C   UNL A   1      47.542  20.540  35.017  1.00  0.00     0.087 C 
ATOM     10  C   UNL A   1      49.788  24.115  33.490  1.00  0.00     0.026 A 
ATOM     11  C   UNL A   1      51.070  23.989  33.011  1.00  0.00     0.033 A 
ATOM     12  C   UNL A   1      49.348  22.756  34.438  1.00  0.00     0.135 A 
ATOM     13  C   UNL A   1      51.716  22.734  33.158  1.00  0.00     0.042 A 
ATOM     14  C   UNL A   1      49.840  21.450  34.228  1.00  0.00     0.019 A 
ATOM     15  O   UNL A   1      48.576  22.650  35.766  1.00  0.00    -0.475 OA
ATOM     16  Cl  UNL A   1      53.393  22.694  32.692  1.00  0.00    -0.084 Cl
ATOM     17  C   UNL A   1      51.098  21.491  33.618  1.00  0.00     0.032 A 
ATOM     18  C   UNL A   1      48.730  20.221  34.355  1.00  0.00     0.027 C 
ATOM     19  C   UNL A   1      48.066  21.220  36.190  1.00  0.00     0.316 C 
BRANCH  10  20
ATOM     20  C   UNL A   1      48.812  25.501  32.621  1.00  0.00    -0.015 A 
ATOM     21  C   UNL A   1      46.137  29.378  30.382  1.00  0.00     0.044 C 
ATOM     22  C   UNL A   1      46.861  28.183  30.947  1.00  0.00    -0.051 A 
ATOM     23  C   UNL A   1      48.537  28.541  31.201  1.00  0.00     0.004 A 
ATOM     24  C   UNL A   1      46.133  26.619  31.443  1.00  0.00     0.004 A 
ATOM     25  C   UNL A   1      49.510  27.341  32.112  1.00  0.00     0.009 A 
ATOM     26  C   UNL A   1      47.049  25.271  32.241  1.00  0.00     0.009 A 
ENDBRANCH  10  20
BRANCH  19  27
ATOM     27  C   UNL A   1      47.143  20.495  37.264  1.00  0.00     0.430 C 
ATOM     28  F   UNL A   1      47.622  20.673  38.555  1.00  0.00    -0.167 F 
ATOM     29  F   UNL A   1      45.917  21.074  37.354  1.00  0.00    -0.167 F 
ATOM     30  F   UNL A   1      46.959  19.179  37.133  1.00  0.00    -0.167 F 
ENDBRANCH  19  27
ENDBRANCH   7   9
ENDBRANCH   6   7
ENDBRANCH   5   6
ENDBRANCH   4   5
ENDBRANCH   3   4
ENDBRANCH   2   3
ENDBRANCH   1   2
BRANCH   1  31
ATOM     31  O   UNL A   1      42.246  29.252  36.648  1.00  0.00    -0.376 OA
BRANCH  31  32
ATOM     32  C   UNL A   1      41.000  29.602  36.144  1.00  0.00     0.202 C 
BRANCH  32  33
ATOM     33  C   UNL A   1      41.371  30.318  34.860  1.00  0.00     0.261 C 
BRANCH  33  34
ATOM     34  O   UNL A   1      40.219  31.067  34.339  1.00  0.00    -0.460 OA
BRANCH  34  35
ATOM     35  C   UNL A   1      39.153  30.343  33.847  1.00  0.00     0.338 C 
ATOM     36  O   UNL A   1      38.178  30.031  34.513  1.00  0.00    -0.246 OA
BRANCH  35  37
ATOM     37  C   UNL A   1      39.358  29.893  32.444  1.00  0.00     0.060 A 
ATOM     38  C   UNL A   1      39.614  28.587  32.078  1.00  0.00     0.016 A 
ATOM     39  C   UNL A   1      39.635  30.778  31.471  1.00  0.00     0.016 A 
ATOM     40  C   UNL A   1      40.619  28.277  31.057  1.00  0.00     0.010 A 
ATOM     41  C   UNL A   1      40.584  30.352  30.517  1.00  0.00     0.010 A 
ATOM     42  C   UNL A   1      41.436  29.118  30.364  1.00  0.00    -0.014 A 
BRANCH  42  43
ATOM     43  C   UNL A   1      42.791  28.652  29.121  1.00  0.00     0.031 A 
ATOM     44  C   UNL A   1      43.404  26.900  28.885  1.00  0.00     0.074 A 
ATOM     45  C   UNL A   1      43.297  29.490  28.096  1.00  0.00     0.049 A 
ATOM     46  N   UNL A   1      44.441  26.470  28.235  1.00  0.00    -0.248 NA
ATOM     47  C   UNL A   1      42.725  25.461  29.437  1.00  0.00     0.031 C 
ATOM     48  C   UNL A   1      43.914  29.109  26.801  1.00  0.00     0.029 A 
ATOM     49  N   UNL A   1      43.295  30.900  27.878  1.00  0.00    -0.354 N 
ATOM     50  C   UNL A   1      44.395  25.043  28.196  1.00  0.00     0.074 A 
ATOM     51  C   UNL A   1      43.600  24.522  29.214  1.00  0.00     0.031 C 
ATOM     52  C   UNL A   1      44.416  30.195  26.155  1.00  0.00     0.029 A 
ATOM     53  C   UNL A   1      44.391  31.318  27.080  1.00  0.00     0.049 A 
ATOM     54  H   UNL A   1      42.612  31.511  28.238  1.00  0.00     0.167 HD
ATOM     55  C   UNL A   1      44.762  24.355  27.092  1.00  0.00     0.034 A 
ATOM     56  C   UNL A   1      45.429  32.180  27.456  1.00  0.00     0.034 A 
ATOM     57  C   UNL A   1      45.520  25.294  26.275  1.00  0.00     0.049 A 
ATOM     58  C   UNL A   1      46.825  31.143  27.237  1.00  0.00     0.074 A 
ATOM     59  C   UNL A   1      45.243  26.056  25.162  1.00  0.00     0.029 A 
ATOM     60  N   UNL A   1      46.528  25.983  26.933  1.00  0.00    -0.354 N 
ATOM     61  N   UNL A   1      46.853  29.959  26.630  1.00  0.00    -0.248 NA
ATOM     62  C   UNL A   1      48.150  31.386  27.845  1.00  0.00     0.031 C 
ATOM     63  C   UNL A   1      46.153  27.172  25.161  1.00  0.00     0.029 A 
ATOM     64  C   UNL A   1      46.997  27.079  26.253  1.00  0.00     0.049 A 
ATOM     65  H   UNL A   1      46.878  25.710  27.812  1.00  0.00     0.167 HD
ATOM     66  C   UNL A   1      47.943  29.186  27.063  1.00  0.00     0.074 A 
ATOM     67  C   UNL A   1      48.741  30.171  27.787  1.00  0.00     0.031 C 
ATOM     68  C   UNL A   1      48.105  27.807  26.879  1.00  0.00     0.034 A 
BRANCH  55  69
ATOM     69  C   UNL A   1      44.243  22.944  26.688  1.00  0.00     0.023 A 
ATOM     70  C   UNL A   1      45.177  22.204  25.945  1.00  0.00     0.012 A 
ATOM     71  C   UNL A   1      42.954  22.302  26.839  1.00  0.00     0.148 A 
ATOM     72  C   UNL A   1      44.874  20.974  25.345  1.00  0.00     0.002 A 
ATOM     73  C   UNL A   1      42.665  21.047  26.268  1.00  0.00     0.091 A 
ATOM     74  F   UNL A   1      41.939  22.887  27.476  1.00  0.00    -0.205 F 
ATOM     75  C   UNL A   1      43.623  20.395  25.501  1.00  0.00     0.022 A 
BRANCH  73  76
ATOM     76  S   UNL A   1      41.060  20.197  26.410  1.00  0.00     0.127 S 
ATOM     77  O   UNL A   1      41.311  18.942  25.698  1.00  0.00    -0.237 OA
ATOM     78  O   UNL A   1      40.909  20.040  27.858  1.00  0.00    -0.237 OA
ATOM     79  O   UNL A   1      40.062  21.054  25.783  1.00  0.00    -0.744 OA
ENDBRANCH  73  76
ENDBRANCH  55  69
BRANCH  56  80
ATOM     80  C   UNL A   1      45.252  33.197  28.981  1.00  0.00     0.023 A 
ATOM     81  C   UNL A   1      45.857  33.363  30.906  1.00  0.00     0.012 A 
ATOM     82  C   UNL A   1      45.654  34.273  27.911  1.00  0.00     0.148 A 
ATOM     83  C   UNL A   1      47.139  34.569  31.323  1.00  0.00     0.002 A 
ATOM     84  C   UNL A   1      46.900  35.245  28.219  1.00  0.00     0.091 A 
ATOM     85  F   UNL A   1      44.559  34.855  27.379  1.00  0.00    -0.205 F 
ATOM     86  C   UNL A   1      47.713  35.484  29.890  1.00  0.00     0.022 A 
BRANCH  84  87
ATOM     87  S   UNL A   1      46.751  35.962  26.603  1.00  0.00     0.127 S 
ATOM     88  O   UNL A   1      48.154  36.143  26.587  1.00  0.00    -0.237 OA
ATOM     89  O   UNL A   1      46.286  34.979  25.652  1.00  0.00    -0.237 OA
ATOM     90  O   UNL A   1      45.821  37.071  26.771  1.00  0.00    -0.744 OA
ENDBRANCH  84  87
ENDBRANCH  56  80
BRANCH  68  91
ATOM     91  C   UNL A   1      49.370  26.903  27.245  1.00  0.00     0.023 A 
ATOM     92  C   UNL A   1      49.487  26.352  28.529  1.00  0.00     0.012 A 
ATOM     93  C   UNL A   1      50.566  26.748  26.432  1.00  0.00     0.148 A 
ATOM     94  C   UNL A   1      50.658  25.695  28.968  1.00  0.00     0.002 A 
ATOM     95  C   UNL A   1      51.742  26.144  26.886  1.00  0.00     0.091 A 
ATOM     96  F   UNL A   1      50.631  27.183  25.177  1.00  0.00    -0.205 F 
ATOM     97  C   UNL A   1      51.785  25.600  28.158  1.00  0.00     0.022 A 
BRANCH  95  98
ATOM     98  S   UNL A   1      53.280  26.118  25.917  1.00  0.00     0.127 S 
ATOM     99  O   UNL A   1      54.225  25.546  26.880  1.00  0.00    -0.237 OA
ATOM    100  O   UNL A   1      52.932  25.222  24.813  1.00  0.00    -0.237 OA
ATOM    101  O   UNL A   1      53.570  27.488  25.523  1.00  0.00    -0.744 OA
ENDBRANCH  95  98
ENDBRANCH  68  91
ENDBRANCH  42  43
ENDBRANCH  35  37
ENDBRANCH  34  35
ENDBRANCH  33  34
ENDBRANCH  32  33
ENDBRANCH  31  32
ENDBRANCH   1  31
TORSDOF 22
ENDMDL
