MODEL 1
REMARK VINA RESULT:     -10.3      0.000      0.000
REMARK SMILES C[C@@H](Sc1nnc(Cc2cccc3ccccc23)n1-c1ccccc1)C(=O)OCCOCCOCCOC(=O)c1ccc(-c2c3nc(c(-c4cccc(S(=O)(=O)[O-])c4F)c4ccc([nH]4)c(-c4cccc(S(=O)(=O)[O-])c4F)c4nc(c(-c5cccc(S(=O)(=O)[O-])c5F)c5ccc2[nH]5)C=C4)C=C3)cc1
REMARK SMILES IDX 32 1 31 2 30 3 29 4 28 5 26 6 27 7 2 8 1 9 3 10 4 11 5 12
REMARK SMILES IDX 19 13 6 14 7 15 20 16 21 17 25 18 22 19 24 20 23 21 8 22
REMARK SMILES IDX 9 23 10 24 18 25 11 26 13 27 17 28 12 29 14 30 16 31 15 32
REMARK SMILES IDX 33 33 34 34 35 35 36 36 37 37 38 38 39 39 40 40 41 41 102 42
REMARK SMILES IDX 42 43 101 44 43 45 44 46 45 47 95 48 46 49 100 50 94 51
REMARK SMILES IDX 96 52 47 53 99 54 93 55 92 56 48 58 80 59 60 60 79 61 61 62
REMARK SMILES IDX 64 63 78 64 97 65 62 66 63 67 77 69 98 70 65 71 49 72 50 73
REMARK SMILES IDX 58 74 51 75 53 76 59 77 52 78 54 79 55 80 56 81 57 82 81 83
REMARK SMILES IDX 82 84 90 85 83 86 85 87 91 88 84 89 86 90 87 91 88 92 89 93
REMARK SMILES IDX 66 94 67 95 75 96 68 97 70 98 76 99 69 100 71 101 72 102
REMARK SMILES IDX 73 103 74 104
REMARK H PARENT 96 57 64 68
REMARK Flexibility Score: inf
ROOT
ATOM      1  C   UNL A   1      34.124  33.446  29.288  1.00  0.00     0.188 C 
ENDROOT
BRANCH   1   2
ATOM      2  O   UNL A   1      33.114  33.497  28.285  1.00  0.00    -0.376 OA
BRANCH   2   3
ATOM      3  C   UNL A   1      33.013  32.402  27.378  1.00  0.00     0.202 C 
BRANCH   3   4
ATOM      4  C   UNL A   1      31.613  32.012  26.863  1.00  0.00     0.261 C 
BRANCH   4   5
ATOM      5  O   UNL A   1      31.581  30.985  25.848  1.00  0.00    -0.462 OA
BRANCH   5   6
ATOM      6  C   UNL A   1      31.862  29.713  26.242  1.00  0.00     0.319 C 
ATOM      7  O   UNL A   1      31.536  29.252  27.332  1.00  0.00    -0.251 OA
BRANCH   6   8
ATOM      8  C   UNL A   1      32.608  28.889  25.179  1.00  0.00     0.161 C 
ATOM      9  C   UNL A   1      33.819  28.100  25.679  1.00  0.00     0.032 C 
BRANCH   8  10
ATOM     10  S   UNL A   1      31.347  27.788  24.432  1.00  0.00    -0.071 SA
BRANCH  10  11
ATOM     11  C   UNL A   1      32.304  26.800  23.385  1.00  0.00     0.196 A 
ATOM     12  N   UNL A   1      33.016  27.250  22.378  1.00  0.00    -0.123 NA
ATOM     13  N   UNL A   1      32.540  25.449  23.568  1.00  0.00    -0.274 N 
ATOM     14  N   UNL A   1      33.647  26.178  21.803  1.00  0.00    -0.134 NA
ATOM     15  C   UNL A   1      33.304  25.090  22.469  1.00  0.00     0.142 A 
BRANCH  13  16
ATOM     16  C   UNL A   1      32.187  24.635  24.674  1.00  0.00     0.049 A 
ATOM     17  C   UNL A   1      33.089  24.494  25.738  1.00  0.00     0.027 A 
ATOM     18  C   UNL A   1      30.935  24.015  24.736  1.00  0.00     0.027 A 
ATOM     19  C   UNL A   1      32.742  23.723  26.847  1.00  0.00     0.002 A 
ATOM     20  C   UNL A   1      30.593  23.250  25.851  1.00  0.00     0.002 A 
ATOM     21  C   UNL A   1      31.496  23.102  26.902  1.00  0.00     0.000 A 
ENDBRANCH  13  16
BRANCH  15  22
ATOM     22  C   UNL A   1      33.553  23.691  22.005  1.00  0.00     0.114 C 
BRANCH  22  23
ATOM     23  C   UNL A   1      34.394  22.896  22.994  1.00  0.00    -0.033 A 
ATOM     24  C   UNL A   1      35.722  23.330  23.185  1.00  0.00     0.005 A 
ATOM     25  C   UNL A   1      33.922  21.748  23.700  1.00  0.00    -0.015 A 
ATOM     26  C   UNL A   1      36.573  22.675  24.063  1.00  0.00     0.001 A 
ATOM     27  C   UNL A   1      34.806  21.097  24.601  1.00  0.00    -0.018 A 
ATOM     28  C   UNL A   1      32.623  21.200  23.569  1.00  0.00     0.009 A 
ATOM     29  C   UNL A   1      36.115  21.570  24.771  1.00  0.00     0.009 A 
ATOM     30  C   UNL A   1      34.379  19.972  25.328  1.00  0.00     0.009 A 
ATOM     31  C   UNL A   1      32.217  20.073  24.292  1.00  0.00     0.001 A 
ATOM     32  C   UNL A   1      33.093  19.463  25.176  1.00  0.00     0.001 A 
ENDBRANCH  22  23
ENDBRANCH  15  22
ENDBRANCH  10  11
ENDBRANCH   8  10
ENDBRANCH   6   8
ENDBRANCH   5   6
ENDBRANCH   4   5
ENDBRANCH   3   4
ENDBRANCH   2   3
ENDBRANCH   1   2
BRANCH   1  33
ATOM     33  C   UNL A   1      35.413  34.242  29.031  1.00  0.00     0.188 C 
BRANCH  33  34
ATOM     34  O   UNL A   1      36.566  33.604  29.561  1.00  0.00    -0.376 OA
BRANCH  34  35
ATOM     35  C   UNL A   1      36.444  32.529  30.486  1.00  0.00     0.202 C 
BRANCH  35  36
ATOM     36  C   UNL A   1      36.270  32.885  31.967  1.00  0.00     0.261 C 
BRANCH  36  37
ATOM     37  O   UNL A   1      36.154  31.770  32.835  1.00  0.00    -0.460 OA
BRANCH  37  38
ATOM     38  C   UNL A   1      37.214  31.457  33.593  1.00  0.00     0.338 C 
ATOM     39  O   UNL A   1      37.351  31.648  34.806  1.00  0.00    -0.246 OA
BRANCH  38  40
ATOM     40  C   UNL A   1      38.189  30.779  32.743  1.00  0.00     0.060 A 
ATOM     41  C   UNL A   1      38.016  29.411  32.513  1.00  0.00     0.016 A 
ATOM     42  C   UNL A   1      39.341  31.468  32.331  1.00  0.00     0.016 A 
ATOM     43  C   UNL A   1      39.103  28.682  32.099  1.00  0.00     0.010 A 
ATOM     44  C   UNL A   1      40.430  30.740  31.942  1.00  0.00     0.010 A 
ATOM     45  C   UNL A   1      40.316  29.351  31.933  1.00  0.00    -0.014 A 
BRANCH  45  46
ATOM     46  C   UNL A   1      41.520  28.565  31.831  1.00  0.00     0.031 A 
ATOM     47  C   UNL A   1      42.226  28.389  33.110  1.00  0.00     0.074 A 
ATOM     48  C   UNL A   1      41.827  27.967  30.665  1.00  0.00     0.049 A 
ATOM     49  N   UNL A   1      43.381  28.859  33.444  1.00  0.00    -0.248 NA
ATOM     50  C   UNL A   1      41.480  27.769  34.215  1.00  0.00     0.031 C 
ATOM     51  C   UNL A   1      40.969  27.876  29.475  1.00  0.00     0.029 A 
ATOM     52  N   UNL A   1      42.883  27.168  30.352  1.00  0.00    -0.354 N 
ATOM     53  C   UNL A   1      43.612  28.334  34.712  1.00  0.00     0.074 A 
ATOM     54  C   UNL A   1      42.332  27.940  35.225  1.00  0.00     0.031 C 
ATOM     55  C   UNL A   1      41.414  26.872  28.691  1.00  0.00     0.029 A 
ATOM     56  C   UNL A   1      42.632  26.333  29.268  1.00  0.00     0.049 A 
ATOM     57  H   UNL A   1      43.737  27.181  30.841  1.00  0.00     0.167 HD
ATOM     58  C   UNL A   1      44.859  27.917  35.061  1.00  0.00     0.034 A 
ATOM     59  C   UNL A   1      43.318  25.211  28.943  1.00  0.00     0.034 A 
ATOM     60  C   UNL A   1      45.865  28.504  34.203  1.00  0.00     0.049 A 
ATOM     61  C   UNL A   1      44.622  25.270  29.645  1.00  0.00     0.074 A 
ATOM     62  C   UNL A   1      46.213  29.788  33.832  1.00  0.00     0.029 A 
ATOM     63  N   UNL A   1      46.463  27.665  33.295  1.00  0.00    -0.354 N 
ATOM     64  N   UNL A   1      45.570  26.117  29.355  1.00  0.00    -0.248 NA
ATOM     65  C   UNL A   1      44.742  24.620  30.939  1.00  0.00     0.031 C 
ATOM     66  C   UNL A   1      46.684  29.681  32.491  1.00  0.00     0.029 A 
ATOM     67  C   UNL A   1      46.639  28.337  32.117  1.00  0.00     0.049 A 
ATOM     68  H   UNL A   1      46.723  26.732  33.464  1.00  0.00     0.167 HD
ATOM     69  C   UNL A   1      46.131  26.440  30.584  1.00  0.00     0.074 A 
ATOM     70  C   UNL A   1      45.693  25.381  31.486  1.00  0.00     0.031 C 
ATOM     71  C   UNL A   1      46.629  27.692  30.819  1.00  0.00     0.034 A 
BRANCH  58  72
ATOM     72  C   UNL A   1      45.138  26.635  35.836  1.00  0.00     0.023 A 
ATOM     73  C   UNL A   1      44.804  25.426  35.186  1.00  0.00     0.012 A 
ATOM     74  C   UNL A   1      45.389  26.555  37.229  1.00  0.00     0.148 A 
ATOM     75  C   UNL A   1      44.606  24.238  35.898  1.00  0.00     0.002 A 
ATOM     76  C   UNL A   1      45.252  25.359  37.923  1.00  0.00     0.091 A 
ATOM     77  F   UNL A   1      45.654  27.648  37.942  1.00  0.00    -0.205 F 
ATOM     78  C   UNL A   1      44.820  24.206  37.269  1.00  0.00     0.022 A 
BRANCH  76  79
ATOM     79  S   UNL A   1      45.542  25.260  39.696  1.00  0.00     0.127 S 
ATOM     80  O   UNL A   1      44.492  26.135  40.208  1.00  0.00    -0.237 OA
ATOM     81  O   UNL A   1      45.343  23.833  39.948  1.00  0.00    -0.237 OA
ATOM     82  O   UNL A   1      46.911  25.717  39.905  1.00  0.00    -0.744 OA
ENDBRANCH  76  79
ENDBRANCH  58  72
BRANCH  59  83
ATOM     83  C   UNL A   1      42.852  23.985  28.253  1.00  0.00     0.023 A 
ATOM     84  C   UNL A   1      41.520  23.561  28.431  1.00  0.00     0.012 A 
ATOM     85  C   UNL A   1      43.616  23.363  27.238  1.00  0.00     0.148 A 
ATOM     86  C   UNL A   1      40.957  22.580  27.608  1.00  0.00     0.002 A 
ATOM     87  C   UNL A   1      43.060  22.367  26.439  1.00  0.00     0.091 A 
ATOM     88  F   UNL A   1      44.853  23.807  26.987  1.00  0.00    -0.205 F 
ATOM     89  C   UNL A   1      41.725  21.984  26.612  1.00  0.00     0.022 A 
BRANCH  87  90
ATOM     90  S   UNL A   1      44.003  21.546  25.147  1.00  0.00     0.127 S 
ATOM     91  O   UNL A   1      43.843  22.465  24.018  1.00  0.00    -0.237 OA
ATOM     92  O   UNL A   1      45.344  21.513  25.721  1.00  0.00    -0.237 OA
ATOM     93  O   UNL A   1      43.360  20.252  24.953  1.00  0.00    -0.744 OA
ENDBRANCH  87  90
ENDBRANCH  59  83
BRANCH  71  94
ATOM     94  C   UNL A   1      46.929  28.573  29.633  1.00  0.00     0.023 A 
ATOM     95  C   UNL A   1      45.987  29.479  29.107  1.00  0.00     0.012 A 
ATOM     96  C   UNL A   1      48.243  28.593  29.132  1.00  0.00     0.148 A 
ATOM     97  C   UNL A   1      46.336  30.359  28.080  1.00  0.00     0.002 A 
ATOM     98  C   UNL A   1      48.601  29.503  28.146  1.00  0.00     0.091 A 
ATOM     99  F   UNL A   1      49.134  27.727  29.642  1.00  0.00    -0.205 F 
ATOM    100  C   UNL A   1      47.647  30.380  27.608  1.00  0.00     0.022 A 
BRANCH  98 101
ATOM    101  S   UNL A   1      50.303  29.662  27.599  1.00  0.00     0.127 S 
ATOM    102  O   UNL A   1      50.188  30.631  26.512  1.00  0.00    -0.237 OA
ATOM    103  O   UNL A   1      50.978  30.165  28.797  1.00  0.00    -0.237 OA
ATOM    104  O   UNL A   1      50.716  28.319  27.210  1.00  0.00    -0.744 OA
ENDBRANCH  98 101
ENDBRANCH  71  94
ENDBRANCH  45  46
ENDBRANCH  38  40
ENDBRANCH  37  38
ENDBRANCH  36  37
ENDBRANCH  35  36
ENDBRANCH  34  35
ENDBRANCH  33  34
ENDBRANCH   1  33
TORSDOF 25
ENDMDL
MODEL 2
REMARK VINA RESULT:     -10.0      1.848      2.203
REMARK SMILES C[C@@H](Sc1nnc(Cc2cccc3ccccc23)n1-c1ccccc1)C(=O)OCCOCCOCCOC(=O)c1ccc(-c2c3nc(c(-c4cccc(S(=O)(=O)[O-])c4F)c4ccc([nH]4)c(-c4cccc(S(=O)(=O)[O-])c4F)c4nc(c(-c5cccc(S(=O)(=O)[O-])c5F)c5ccc2[nH]5)C=C4)C=C3)cc1
REMARK SMILES IDX 32 1 31 2 30 3 29 4 28 5 26 6 27 7 2 8 1 9 3 10 4 11 5 12
REMARK SMILES IDX 19 13 6 14 7 15 20 16 21 17 25 18 22 19 24 20 23 21 8 22
REMARK SMILES IDX 9 23 10 24 18 25 11 26 13 27 17 28 12 29 14 30 16 31 15 32
REMARK SMILES IDX 33 33 34 34 35 35 36 36 37 37 38 38 39 39 40 40 41 41 102 42
REMARK SMILES IDX 42 43 101 44 43 45 44 46 45 47 95 48 46 49 100 50 94 51
REMARK SMILES IDX 96 52 47 53 99 54 93 55 92 56 48 58 80 59 60 60 79 61 61 62
REMARK SMILES IDX 64 63 78 64 97 65 62 66 63 67 77 69 98 70 65 71 49 72 50 73
REMARK SMILES IDX 58 74 51 75 53 76 59 77 52 78 54 79 55 80 56 81 57 82 81 83
REMARK SMILES IDX 82 84 90 85 83 86 85 87 91 88 84 89 86 90 87 91 88 92 89 93
REMARK SMILES IDX 66 94 67 95 75 96 68 97 70 98 76 99 69 100 71 101 72 102
REMARK SMILES IDX 73 103 74 104
REMARK H PARENT 96 57 64 68
REMARK Flexibility Score: inf
ROOT
ATOM      1  C   UNL A   1      34.559  33.065  30.005  1.00  0.00     0.188 C 
ENDROOT
BRANCH   1   2
ATOM      2  O   UNL A   1      33.471  33.138  29.087  1.00  0.00    -0.376 OA
BRANCH   2   3
ATOM      3  C   UNL A   1      33.482  32.261  27.963  1.00  0.00     0.202 C 
BRANCH   3   4
ATOM      4  C   UNL A   1      32.154  32.017  27.218  1.00  0.00     0.261 C 
BRANCH   4   5
ATOM      5  O   UNL A   1      32.218  31.099  26.106  1.00  0.00    -0.462 OA
BRANCH   5   6
ATOM      6  C   UNL A   1      32.155  29.770  26.392  1.00  0.00     0.319 C 
ATOM      7  O   UNL A   1      31.585  29.314  27.379  1.00  0.00    -0.251 OA
BRANCH   6   8
ATOM      8  C   UNL A   1      32.845  28.881  25.343  1.00  0.00     0.161 C 
ATOM      9  C   UNL A   1      33.994  28.014  25.860  1.00  0.00     0.032 C 
BRANCH   8  10
ATOM     10  S   UNL A   1      31.512  27.863  24.604  1.00  0.00    -0.071 SA
BRANCH  10  11
ATOM     11  C   UNL A   1      32.393  26.839  23.525  1.00  0.00     0.196 A 
ATOM     12  N   UNL A   1      33.081  27.263  22.490  1.00  0.00    -0.123 NA
ATOM     13  N   UNL A   1      32.588  25.481  23.703  1.00  0.00    -0.274 N 
ATOM     14  N   UNL A   1      33.653  26.169  21.895  1.00  0.00    -0.134 NA
ATOM     15  C   UNL A   1      33.298  25.094  22.577  1.00  0.00     0.142 A 
BRANCH  13  16
ATOM     16  C   UNL A   1      32.249  24.682  24.824  1.00  0.00     0.049 A 
ATOM     17  C   UNL A   1      30.974  24.102  24.892  1.00  0.00     0.027 A 
ATOM     18  C   UNL A   1      33.185  24.429  25.832  1.00  0.00     0.027 A 
ATOM     19  C   UNL A   1      30.639  23.286  25.972  1.00  0.00     0.002 A 
ATOM     20  C   UNL A   1      32.843  23.607  26.906  1.00  0.00     0.002 A 
ATOM     21  C   UNL A   1      31.571  23.040  26.978  1.00  0.00     0.000 A 
ENDBRANCH  13  16
BRANCH  15  22
ATOM     22  C   UNL A   1      33.480  23.686  22.108  1.00  0.00     0.114 C 
BRANCH  22  23
ATOM     23  C   UNL A   1      34.332  22.865  23.066  1.00  0.00    -0.033 A 
ATOM     24  C   UNL A   1      35.663  23.291  23.250  1.00  0.00     0.005 A 
ATOM     25  C   UNL A   1      33.866  21.701  23.749  1.00  0.00    -0.015 A 
ATOM     26  C   UNL A   1      36.525  22.612  24.100  1.00  0.00     0.001 A 
ATOM     27  C   UNL A   1      34.760  21.026  24.622  1.00  0.00    -0.018 A 
ATOM     28  C   UNL A   1      32.564  21.160  23.622  1.00  0.00     0.009 A 
ATOM     29  C   UNL A   1      36.072  21.491  24.786  1.00  0.00     0.009 A 
ATOM     30  C   UNL A   1      34.340  19.884  25.326  1.00  0.00     0.009 A 
ATOM     31  C   UNL A   1      32.164  20.016  24.321  1.00  0.00     0.001 A 
ATOM     32  C   UNL A   1      33.050  19.382  25.178  1.00  0.00     0.001 A 
ENDBRANCH  22  23
ENDBRANCH  15  22
ENDBRANCH  10  11
ENDBRANCH   8  10
ENDBRANCH   6   8
ENDBRANCH   5   6
ENDBRANCH   4   5
ENDBRANCH   3   4
ENDBRANCH   2   3
ENDBRANCH   1   2
BRANCH   1  33
ATOM     33  C   UNL A   1      35.793  33.929  29.703  1.00  0.00     0.188 C 
BRANCH  33  34
ATOM     34  O   UNL A   1      37.013  33.266  30.002  1.00  0.00    -0.376 OA
BRANCH  34  35
ATOM     35  C   UNL A   1      37.043  32.171  30.912  1.00  0.00     0.202 C 
BRANCH  35  36
ATOM     36  C   UNL A   1      36.913  32.488  32.407  1.00  0.00     0.261 C 
BRANCH  36  37
ATOM     37  O   UNL A   1      36.765  31.353  33.243  1.00  0.00    -0.460 OA
BRANCH  37  38
ATOM     38  C   UNL A   1      37.830  30.960  33.955  1.00  0.00     0.338 C 
ATOM     39  O   UNL A   1      37.962  30.987  35.184  1.00  0.00    -0.246 OA
BRANCH  38  40
ATOM     40  C   UNL A   1      38.818  30.421  33.026  1.00  0.00     0.060 A 
ATOM     41  C   UNL A   1      38.654  29.104  32.587  1.00  0.00     0.016 A 
ATOM     42  C   UNL A   1      39.973  31.167  32.738  1.00  0.00     0.016 A 
ATOM     43  C   UNL A   1      39.750  28.449  32.081  1.00  0.00     0.010 A 
ATOM     44  C   UNL A   1      41.070  30.509  32.258  1.00  0.00     0.010 A 
ATOM     45  C   UNL A   1      40.962  29.138  32.036  1.00  0.00    -0.014 A 
BRANCH  45  46
ATOM     46  C   UNL A   1      42.171  28.380  31.832  1.00  0.00     0.031 A 
ATOM     47  C   UNL A   1      42.945  28.151  33.061  1.00  0.00     0.074 A 
ATOM     48  C   UNL A   1      42.424  27.847  30.621  1.00  0.00     0.049 A 
ATOM     49  N   UNL A   1      44.109  28.623  33.359  1.00  0.00    -0.248 NA
ATOM     50  C   UNL A   1      42.267  27.463  34.170  1.00  0.00     0.031 C 
ATOM     51  C   UNL A   1      41.507  27.802  29.474  1.00  0.00     0.029 A 
ATOM     52  N   UNL A   1      43.474  27.084  30.214  1.00  0.00    -0.354 N 
ATOM     53  C   UNL A   1      44.414  28.039  34.585  1.00  0.00     0.074 A 
ATOM     54  C   UNL A   1      43.168  27.597  35.143  1.00  0.00     0.031 C 
ATOM     55  C   UNL A   1      41.925  26.847  28.618  1.00  0.00     0.029 A 
ATOM     56  C   UNL A   1      43.180  26.300  29.102  1.00  0.00     0.049 A 
ATOM     57  H   UNL A   1      44.352  27.086  30.658  1.00  0.00     0.167 HD
ATOM     58  C   UNL A   1      45.682  27.626  34.847  1.00  0.00     0.034 A 
ATOM     59  C   UNL A   1      43.864  25.209  28.685  1.00  0.00     0.034 A 
ATOM     60  C   UNL A   1      46.634  28.274  33.970  1.00  0.00     0.049 A 
ATOM     61  C   UNL A   1      45.202  25.255  29.321  1.00  0.00     0.074 A 
ATOM     62  C   UNL A   1      46.943  29.580  33.648  1.00  0.00     0.029 A 
ATOM     63  N   UNL A   1      47.196  27.492  32.990  1.00  0.00    -0.354 N 
ATOM     64  N   UNL A   1      46.121  26.132  29.027  1.00  0.00    -0.248 NA
ATOM     65  C   UNL A   1      45.399  24.541  30.572  1.00  0.00     0.031 C 
ATOM     66  C   UNL A   1      47.345  29.550  32.282  1.00  0.00     0.029 A 
ATOM     67  C   UNL A   1      47.301  28.226  31.841  1.00  0.00     0.049 A 
ATOM     68  H   UNL A   1      47.478  26.556  33.097  1.00  0.00     0.167 HD
ATOM     69  C   UNL A   1      46.740  26.401  30.240  1.00  0.00     0.074 A 
ATOM     70  C   UNL A   1      46.367  25.290  31.108  1.00  0.00     0.031 C 
ATOM     71  C   UNL A   1      47.231  27.648  30.514  1.00  0.00     0.034 A 
BRANCH  58  72
ATOM     72  C   UNL A   1      46.021  26.311  35.540  1.00  0.00     0.023 A 
ATOM     73  C   UNL A   1      47.035  26.365  36.521  1.00  0.00     0.012 A 
ATOM     74  C   UNL A   1      45.657  25.021  35.078  1.00  0.00     0.148 A 
ATOM     75  C   UNL A   1      47.732  25.221  36.924  1.00  0.00     0.002 A 
ATOM     76  C   UNL A   1      46.309  23.880  35.528  1.00  0.00     0.091 A 
ATOM     77  F   UNL A   1      44.752  24.869  34.112  1.00  0.00    -0.205 F 
ATOM     78  C   UNL A   1      47.376  23.978  36.419  1.00  0.00     0.022 A 
BRANCH  76  79
ATOM     79  S   UNL A   1      45.869  22.243  34.922  1.00  0.00     0.127 S 
ATOM     80  O   UNL A   1      45.346  22.559  33.597  1.00  0.00    -0.237 OA
ATOM     81  O   UNL A   1      47.165  21.565  34.937  1.00  0.00    -0.237 OA
ATOM     82  O   UNL A   1      44.905  21.709  35.877  1.00  0.00    -0.744 OA
ENDBRANCH  76  79
ENDBRANCH  58  72
BRANCH  59  83
ATOM     83  C   UNL A   1      43.381  24.011  27.957  1.00  0.00     0.023 A 
ATOM     84  C   UNL A   1      42.022  23.652  28.053  1.00  0.00     0.012 A 
ATOM     85  C   UNL A   1      44.172  23.359  26.983  1.00  0.00     0.148 A 
ATOM     86  C   UNL A   1      41.462  22.705  27.189  1.00  0.00     0.002 A 
ATOM     87  C   UNL A   1      43.616  22.397  26.144  1.00  0.00     0.091 A 
ATOM     88  F   UNL A   1      45.442  23.743  26.809  1.00  0.00    -0.205 F 
ATOM     89  C   UNL A   1      42.257  22.079  26.234  1.00  0.00     0.022 A 
BRANCH  87  90
ATOM     90  S   UNL A   1      44.594  21.539  24.902  1.00  0.00     0.127 S 
ATOM     91  O   UNL A   1      45.838  21.268  25.623  1.00  0.00    -0.237 OA
ATOM     92  O   UNL A   1      43.777  20.361  24.629  1.00  0.00    -0.237 OA
ATOM     93  O   UNL A   1      44.743  22.482  23.799  1.00  0.00    -0.744 OA
ENDBRANCH  87  90
ENDBRANCH  59  83
BRANCH  71  94
ATOM     94  C   UNL A   1      47.456  28.593  29.361  1.00  0.00     0.023 A 
ATOM     95  C   UNL A   1      48.677  28.656  28.662  1.00  0.00     0.012 A 
ATOM     96  C   UNL A   1      46.359  29.329  28.878  1.00  0.00     0.148 A 
ATOM     97  C   UNL A   1      48.814  29.462  27.529  1.00  0.00     0.002 A 
ATOM     98  C   UNL A   1      46.483  30.091  27.723  1.00  0.00     0.091 A 
ATOM     99  F   UNL A   1      45.199  29.261  29.550  1.00  0.00    -0.205 F 
ATOM    100  C   UNL A   1      47.713  30.170  27.052  1.00  0.00     0.022 A 
BRANCH  98 101
ATOM    101  S   UNL A   1      45.064  30.913  26.994  1.00  0.00     0.127 S 
ATOM    102  O   UNL A   1      45.622  31.445  25.752  1.00  0.00    -0.237 OA
ATOM    103  O   UNL A   1      44.114  29.812  26.814  1.00  0.00    -0.237 OA
ATOM    104  O   UNL A   1      44.639  31.905  27.974  1.00  0.00    -0.744 OA
ENDBRANCH  98 101
ENDBRANCH  71  94
ENDBRANCH  45  46
ENDBRANCH  38  40
ENDBRANCH  37  38
ENDBRANCH  36  37
ENDBRANCH  35  36
ENDBRANCH  34  35
ENDBRANCH  33  34
ENDBRANCH   1  33
TORSDOF 25
ENDMDL
MODEL 3
REMARK VINA RESULT:      -9.9      6.943     15.936
REMARK SMILES C[C@@H](Sc1nnc(Cc2cccc3ccccc23)n1-c1ccccc1)C(=O)OCCOCCOCCOC(=O)c1ccc(-c2c3nc(c(-c4cccc(S(=O)(=O)[O-])c4F)c4ccc([nH]4)c(-c4cccc(S(=O)(=O)[O-])c4F)c4nc(c(-c5cccc(S(=O)(=O)[O-])c5F)c5ccc2[nH]5)C=C4)C=C3)cc1
REMARK SMILES IDX 32 1 31 2 30 3 29 4 28 5 26 6 27 7 2 8 1 9 3 10 4 11 5 12
REMARK SMILES IDX 19 13 6 14 7 15 20 16 21 17 25 18 22 19 24 20 23 21 8 22
REMARK SMILES IDX 9 23 10 24 18 25 11 26 13 27 17 28 12 29 14 30 16 31 15 32
REMARK SMILES IDX 33 33 34 34 35 35 36 36 37 37 38 38 39 39 40 40 41 41 102 42
REMARK SMILES IDX 42 43 101 44 43 45 44 46 45 47 95 48 46 49 100 50 94 51
REMARK SMILES IDX 96 52 47 53 99 54 93 55 92 56 48 58 80 59 60 60 79 61 61 62
REMARK SMILES IDX 64 63 78 64 97 65 62 66 63 67 77 69 98 70 65 71 49 72 50 73
REMARK SMILES IDX 58 74 51 75 53 76 59 77 52 78 54 79 55 80 56 81 57 82 81 83
REMARK SMILES IDX 82 84 90 85 83 86 85 87 91 88 84 89 86 90 87 91 88 92 89 93
REMARK SMILES IDX 66 94 67 95 75 96 68 97 70 98 76 99 69 100 71 101 72 102
REMARK SMILES IDX 73 103 74 104
REMARK H PARENT 96 57 64 68
REMARK Flexibility Score: inf
ROOT
ATOM      1  C   UNL A   1      50.267  22.409  40.338  1.00  0.00     0.188 C 
ENDROOT
BRANCH   1   2
ATOM      2  O   UNL A   1      49.911  21.491  41.368  1.00  0.00    -0.376 OA
BRANCH   2   3
ATOM      3  C   UNL A   1      50.547  20.215  41.379  1.00  0.00     0.202 C 
BRANCH   3   4
ATOM      4  C   UNL A   1      49.758  19.005  40.840  1.00  0.00     0.261 C 
BRANCH   4   5
ATOM      5  O   UNL A   1      48.325  19.066  41.006  1.00  0.00    -0.462 OA
BRANCH   5   6
ATOM      6  C   UNL A   1      47.560  18.731  39.931  1.00  0.00     0.319 C 
ATOM      7  O   UNL A   1      47.717  19.208  38.811  1.00  0.00    -0.251 OA
BRANCH   6   8
ATOM      8  C   UNL A   1      46.490  17.671  40.243  1.00  0.00     0.161 C 
ATOM      9  C   UNL A   1      47.015  16.323  40.741  1.00  0.00     0.032 C 
BRANCH   8  10
ATOM     10  S   UNL A   1      45.365  18.448  41.464  1.00  0.00    -0.071 SA
BRANCH  10  11
ATOM     11  C   UNL A   1      44.367  17.119  41.936  1.00  0.00     0.196 A 
ATOM     12  N   UNL A   1      43.509  16.513  41.148  1.00  0.00    -0.123 NA
ATOM     13  N   UNL A   1      44.454  16.453  43.146  1.00  0.00    -0.274 N 
ATOM     14  N   UNL A   1      42.926  15.503  41.867  1.00  0.00    -0.134 NA
ATOM     15  C   UNL A   1      43.437  15.513  43.085  1.00  0.00     0.142 A 
BRANCH  13  16
ATOM     16  C   UNL A   1      45.422  16.608  44.169  1.00  0.00     0.049 A 
ATOM     17  C   UNL A   1      46.605  15.857  44.114  1.00  0.00     0.027 A 
ATOM     18  C   UNL A   1      45.233  17.534  45.200  1.00  0.00     0.027 A 
ATOM     19  C   UNL A   1      47.581  16.023  45.096  1.00  0.00     0.002 A 
ATOM     20  C   UNL A   1      46.217  17.699  46.175  1.00  0.00     0.002 A 
ATOM     21  C   UNL A   1      47.386  16.942  46.125  1.00  0.00     0.000 A 
ENDBRANCH  13  16
BRANCH  15  22
ATOM     22  C   UNL A   1      42.882  14.759  44.251  1.00  0.00     0.114 C 
BRANCH  22  23
ATOM     23  C   UNL A   1      42.840  13.258  43.999  1.00  0.00    -0.033 A 
ATOM     24  C   UNL A   1      41.598  12.718  43.606  1.00  0.00     0.005 A 
ATOM     25  C   UNL A   1      43.963  12.392  44.163  1.00  0.00    -0.015 A 
ATOM     26  C   UNL A   1      41.452  11.362  43.354  1.00  0.00     0.001 A 
ATOM     27  C   UNL A   1      43.795  11.008  43.891  1.00  0.00    -0.018 A 
ATOM     28  C   UNL A   1      45.249  12.810  44.582  1.00  0.00     0.009 A 
ATOM     29  C   UNL A   1      42.546  10.514  43.489  1.00  0.00     0.009 A 
ATOM     30  C   UNL A   1      44.876  10.120  44.024  1.00  0.00     0.009 A 
ATOM     31  C   UNL A   1      46.313  11.912  44.720  1.00  0.00     0.001 A 
ATOM     32  C   UNL A   1      46.128  10.568  44.435  1.00  0.00     0.001 A 
ENDBRANCH  22  23
ENDBRANCH  15  22
ENDBRANCH  10  11
ENDBRANCH   8  10
ENDBRANCH   6   8
ENDBRANCH   5   6
ENDBRANCH   4   5
ENDBRANCH   3   4
ENDBRANCH   2   3
ENDBRANCH   1   2
BRANCH   1  33
ATOM     33  C   UNL A   1      50.629  23.840  40.765  1.00  0.00     0.188 C 
BRANCH  33  34
ATOM     34  O   UNL A   1      50.189  24.818  39.834  1.00  0.00    -0.376 OA
BRANCH  34  35
ATOM     35  C   UNL A   1      49.233  24.491  38.832  1.00  0.00     0.202 C 
BRANCH  35  36
ATOM     36  C   UNL A   1      48.657  25.643  37.999  1.00  0.00     0.261 C 
BRANCH  36  37
ATOM     37  O   UNL A   1      47.961  25.241  36.830  1.00  0.00    -0.460 OA
BRANCH  37  38
ATOM     38  C   UNL A   1      46.650  25.508  36.764  1.00  0.00     0.338 C 
ATOM     39  O   UNL A   1      45.932  25.967  37.659  1.00  0.00    -0.246 OA
BRANCH  38  40
ATOM     40  C   UNL A   1      46.201  25.219  35.405  1.00  0.00     0.060 A 
ATOM     41  C   UNL A   1      46.987  25.679  34.345  1.00  0.00     0.016 A 
ATOM     42  C   UNL A   1      44.933  24.649  35.205  1.00  0.00     0.016 A 
ATOM     43  C   UNL A   1      46.399  25.802  33.110  1.00  0.00     0.010 A 
ATOM     44  C   UNL A   1      44.340  24.795  33.982  1.00  0.00     0.010 A 
ATOM     45  C   UNL A   1      45.052  25.462  32.988  1.00  0.00    -0.014 A 
BRANCH  45  46
ATOM     46  C   UNL A   1      44.342  25.896  31.811  1.00  0.00     0.031 A 
ATOM     47  C   UNL A   1      44.382  24.930  30.702  1.00  0.00     0.074 A 
ATOM     48  C   UNL A   1      43.618  27.031  31.851  1.00  0.00     0.049 A 
ATOM     49  N   UNL A   1      44.968  25.065  29.559  1.00  0.00    -0.248 NA
ATOM     50  C   UNL A   1      43.863  23.579  30.962  1.00  0.00     0.031 C 
ATOM     51  C   UNL A   1      43.316  27.835  33.043  1.00  0.00     0.029 A 
ATOM     52  N   UNL A   1      42.859  27.609  30.881  1.00  0.00    -0.354 N 
ATOM     53  C   UNL A   1      44.631  23.910  28.861  1.00  0.00     0.074 A 
ATOM     54  C   UNL A   1      44.222  22.948  29.844  1.00  0.00     0.031 C 
ATOM     55  C   UNL A   1      42.250  28.620  32.781  1.00  0.00     0.029 A 
ATOM     56  C   UNL A   1      41.874  28.450  31.389  1.00  0.00     0.049 A 
ATOM     57  H   UNL A   1      42.993  27.449  29.920  1.00  0.00     0.167 HD
ATOM     58  C   UNL A   1      44.347  23.974  27.532  1.00  0.00     0.034 A 
ATOM     59  C   UNL A   1      40.769  28.879  30.736  1.00  0.00     0.034 A 
ATOM     60  C   UNL A   1      44.884  25.181  26.942  1.00  0.00     0.049 A 
ATOM     61  C   UNL A   1      41.006  28.682  29.286  1.00  0.00     0.074 A 
ATOM     62  C   UNL A   1      46.129  25.776  26.880  1.00  0.00     0.029 A 
ATOM     63  N   UNL A   1      43.976  26.152  26.597  1.00  0.00    -0.354 N 
ATOM     64  N   UNL A   1      41.871  29.364  28.587  1.00  0.00    -0.248 NA
ATOM     65  C   UNL A   1      40.540  27.451  28.669  1.00  0.00     0.031 C 
ATOM     66  C   UNL A   1      45.880  27.179  26.877  1.00  0.00     0.029 A 
ATOM     67  C   UNL A   1      44.498  27.379  26.900  1.00  0.00     0.049 A 
ATOM     68  H   UNL A   1      43.092  25.992  26.196  1.00  0.00     0.167 HD
ATOM     69  C   UNL A   1      42.388  28.444  27.685  1.00  0.00     0.074 A 
ATOM     70  C   UNL A   1      41.428  27.346  27.677  1.00  0.00     0.031 C 
ATOM     71  C   UNL A   1      43.690  28.522  27.276  1.00  0.00     0.034 A 
BRANCH  58  72
ATOM     72  C   UNL A   1      43.199  23.220  26.872  1.00  0.00     0.023 A 
ATOM     73  C   UNL A   1      41.940  23.859  26.890  1.00  0.00     0.012 A 
ATOM     74  C   UNL A   1      43.204  21.842  26.541  1.00  0.00     0.148 A 
ATOM     75  C   UNL A   1      40.749  23.145  26.717  1.00  0.00     0.002 A 
ATOM     76  C   UNL A   1      42.022  21.148  26.308  1.00  0.00     0.091 A 
ATOM     77  F   UNL A   1      44.334  21.137  26.553  1.00  0.00    -0.205 F 
ATOM     78  C   UNL A   1      40.790  21.786  26.436  1.00  0.00     0.022 A 
BRANCH  76  79
ATOM     79  S   UNL A   1      42.023  19.392  25.915  1.00  0.00     0.127 S 
ATOM     80  O   UNL A   1      42.452  18.814  27.185  1.00  0.00    -0.237 OA
ATOM     81  O   UNL A   1      40.620  19.167  25.569  1.00  0.00    -0.237 OA
ATOM     82  O   UNL A   1      42.946  19.231  24.798  1.00  0.00    -0.744 OA
ENDBRANCH  76  79
ENDBRANCH  58  72
BRANCH  59  83
ATOM     83  C   UNL A   1      39.434  29.240  31.270  1.00  0.00     0.023 A 
ATOM     84  C   UNL A   1      38.710  28.283  32.010  1.00  0.00     0.012 A 
ATOM     85  C   UNL A   1      38.966  30.574  31.275  1.00  0.00     0.148 A 
ATOM     86  C   UNL A   1      37.583  28.648  32.755  1.00  0.00     0.002 A 
ATOM     87  C   UNL A   1      37.829  30.926  31.996  1.00  0.00     0.091 A 
ATOM     88  F   UNL A   1      39.684  31.520  30.656  1.00  0.00    -0.205 F 
ATOM     89  C   UNL A   1      37.142  29.967  32.750  1.00  0.00     0.022 A 
BRANCH  87  90
ATOM     90  S   UNL A   1      37.198  32.611  32.016  1.00  0.00     0.127 S 
ATOM     91  O   UNL A   1      36.496  32.691  30.734  1.00  0.00    -0.237 OA
ATOM     92  O   UNL A   1      36.330  32.599  33.189  1.00  0.00    -0.237 OA
ATOM     93  O   UNL A   1      38.374  33.469  32.101  1.00  0.00    -0.744 OA
ENDBRANCH  87  90
ENDBRANCH  59  83
BRANCH  71  94
ATOM     94  C   UNL A   1      44.427  29.820  27.489  1.00  0.00     0.023 A 
ATOM     95  C   UNL A   1      44.344  30.894  26.581  1.00  0.00     0.012 A 
ATOM     96  C   UNL A   1      45.100  30.013  28.709  1.00  0.00     0.148 A 
ATOM     97  C   UNL A   1      44.949  32.121  26.865  1.00  0.00     0.002 A 
ATOM     98  C   UNL A   1      45.658  31.249  29.010  1.00  0.00     0.091 A 
ATOM     99  F   UNL A   1      45.172  28.984  29.568  1.00  0.00    -0.205 F 
ATOM    100  C   UNL A   1      45.595  32.302  28.085  1.00  0.00     0.022 A 
BRANCH  98 101
ATOM    101  S   UNL A   1      46.383  31.575  30.619  1.00  0.00     0.127 S 
ATOM    102  O   UNL A   1      46.559  33.025  30.589  1.00  0.00    -0.237 OA
ATOM    103  O   UNL A   1      45.345  31.104  31.539  1.00  0.00    -0.237 OA
ATOM    104  O   UNL A   1      47.610  30.788  30.663  1.00  0.00    -0.744 OA
ENDBRANCH  98 101
ENDBRANCH  71  94
ENDBRANCH  45  46
ENDBRANCH  38  40
ENDBRANCH  37  38
ENDBRANCH  36  37
ENDBRANCH  35  36
ENDBRANCH  34  35
ENDBRANCH  33  34
ENDBRANCH   1  33
TORSDOF 25
ENDMDL
