MODEL 1
REMARK VINA RESULT:      -9.2      0.000      0.000
REMARK SMILES Cc1nc(CCNc2nccc(-c3cc(C(=O)OCCOCCOCCOC(=O)c4ccc(-c5c6nc(c(-c7cccc(S(=O)(=O)[O-])c7F)c7ccc([nH]7)c(-c7cccc(S(=O)(=O)[O-])c7F)c7nc(c(-c8cccc(S(=O)(=O)[O-])c8F)c8ccc5[nH]8)C=C7)C=C6)cc4)ccn3)n2)cc(=O)[nH]1
REMARK SMILES IDX 22 1 21 2 20 3 19 4 18 5 16 6 17 7 15 8 13 9 14 10 95 11
REMARK SMILES IDX 94 12 93 13 12 14 8 15 9 16 96 17 10 18 11 19 7 20 6 22 5 23
REMARK SMILES IDX 4 24 1 25 2 26 3 27 100 28 98 29 97 31 99 32 23 33 24 34
REMARK SMILES IDX 25 35 26 36 27 37 28 38 29 39 30 40 31 41 92 42 32 43 91 44
REMARK SMILES IDX 33 45 34 46 35 47 85 48 36 49 90 50 84 51 86 52 37 53 89 54
REMARK SMILES IDX 83 55 82 56 38 58 70 59 50 60 69 61 51 62 54 63 68 64 87 65
REMARK SMILES IDX 52 66 53 67 67 69 88 70 55 71 39 72 40 73 48 74 41 75 43 76
REMARK SMILES IDX 49 77 42 78 44 79 45 80 46 81 47 82 71 83 72 84 80 85 73 86
REMARK SMILES IDX 75 87 81 88 74 89 76 90 77 91 78 92 79 93 56 94 57 95 65 96
REMARK SMILES IDX 58 97 60 98 66 99 59 100 61 101 62 102 63 103 64 104
REMARK H PARENT 7 21 100 30 86 57 54 68
REMARK Flexibility Score: inf
ROOT
ATOM      1  C   UNL A   1      33.542  29.372  26.056  1.00  0.00     0.188 C 
ENDROOT
BRANCH   1   2
ATOM      2  O   UNL A   1      32.131  29.525  26.045  1.00  0.00    -0.376 OA
BRANCH   2   3
ATOM      3  C   UNL A   1      31.429  29.561  24.812  1.00  0.00     0.202 C 
BRANCH   3   4
ATOM      4  C   UNL A   1      30.803  28.287  24.231  1.00  0.00     0.261 C 
BRANCH   4   5
ATOM      5  O   UNL A   1      31.764  27.315  23.796  1.00  0.00    -0.460 OA
BRANCH   5   6
ATOM      6  C   UNL A   1      32.032  26.326  24.684  1.00  0.00     0.338 C 
ATOM      7  O   UNL A   1      31.568  26.186  25.801  1.00  0.00    -0.246 OA
BRANCH   6   8
ATOM      8  C   UNL A   1      32.877  25.308  24.033  1.00  0.00     0.063 A 
ATOM      9  C   UNL A   1      34.763  23.838  23.991  1.00  0.00     0.090 A 
ATOM     10  C   UNL A   1      34.015  24.801  24.661  1.00  0.00     0.046 A 
ATOM     11  N   UNL A   1      34.432  23.430  22.736  1.00  0.00    -0.255 NA
ATOM     12  C   UNL A   1      33.334  23.952  22.148  1.00  0.00     0.112 A 
ATOM     13  C   UNL A   1      32.515  24.874  22.761  1.00  0.00     0.036 A 
BRANCH   9  14
ATOM     14  C   UNL A   1      35.859  23.089  24.643  1.00  0.00     0.094 A 
ATOM     15  C   UNL A   1      37.890  23.172  25.721  1.00  0.00     0.223 A 
ATOM     16  N   UNL A   1      38.121  21.867  25.525  1.00  0.00    -0.222 NA
ATOM     17  N   UNL A   1      36.775  23.802  25.343  1.00  0.00    -0.211 NA
ATOM     18  C   UNL A   1      37.159  21.165  24.906  1.00  0.00     0.117 A 
ATOM     19  C   UNL A   1      36.005  21.730  24.430  1.00  0.00     0.051 A 
BRANCH  15  20
ATOM     20  N   UNL A   1      38.940  23.870  26.253  1.00  0.00    -0.354 N 
ATOM     21  H   UNL A   1      38.832  24.829  26.447  1.00  0.00     0.163 HD
BRANCH  20  22
ATOM     22  C   UNL A   1      40.208  23.228  26.538  1.00  0.00     0.122 C 
BRANCH  22  23
ATOM     23  C   UNL A   1      41.126  24.157  27.359  1.00  0.00     0.077 C 
BRANCH  23  24
ATOM     24  C   UNL A   1      41.092  25.611  26.913  1.00  0.00     0.050 A 
ATOM     25  C   UNL A   1      39.247  28.643  27.925  1.00  0.00     0.087 C 
ATOM     26  C   UNL A   1      40.152  27.670  27.226  1.00  0.00     0.105 A 
ATOM     27  N   UNL A   1      40.206  26.428  27.584  1.00  0.00    -0.240 NA
ATOM     28  N   UNL A   1      40.898  28.198  26.211  1.00  0.00    -0.311 N 
ATOM     29  C   UNL A   1      41.802  27.453  25.520  1.00  0.00     0.251 A 
ATOM     30  H   UNL A   1      40.777  29.146  25.972  1.00  0.00     0.171 HD
ATOM     31  C   UNL A   1      41.921  26.057  25.954  1.00  0.00     0.095 A 
ATOM     32  O   UNL A   1      42.473  27.904  24.599  1.00  0.00    -0.270 OA
ENDBRANCH  23  24
ENDBRANCH  22  23
ENDBRANCH  20  22
ENDBRANCH  15  20
ENDBRANCH   9  14
ENDBRANCH   6   8
ENDBRANCH   5   6
ENDBRANCH   4   5
ENDBRANCH   3   4
ENDBRANCH   2   3
ENDBRANCH   1   2
BRANCH   1  33
ATOM     33  C   UNL A   1      34.335  29.608  27.358  1.00  0.00     0.188 C 
BRANCH  33  34
ATOM     34  O   UNL A   1      35.133  30.764  27.447  1.00  0.00    -0.376 OA
BRANCH  34  35
ATOM     35  C   UNL A   1      36.253  30.814  28.313  1.00  0.00     0.202 C 
BRANCH  35  36
ATOM     36  C   UNL A   1      36.227  30.843  29.854  1.00  0.00     0.261 C 
BRANCH  36  37
ATOM     37  O   UNL A   1      37.467  30.907  30.555  1.00  0.00    -0.460 OA
BRANCH  37  38
ATOM     38  C   UNL A   1      37.488  30.281  31.757  1.00  0.00     0.338 C 
ATOM     39  O   UNL A   1      36.534  30.011  32.466  1.00  0.00    -0.246 OA
BRANCH  38  40
ATOM     40  C   UNL A   1      38.862  29.812  32.015  1.00  0.00     0.060 A 
ATOM     41  C   UNL A   1      39.932  30.630  31.632  1.00  0.00     0.016 A 
ATOM     42  C   UNL A   1      39.087  28.566  32.601  1.00  0.00     0.016 A 
ATOM     43  C   UNL A   1      41.242  30.187  31.814  1.00  0.00     0.010 A 
ATOM     44  C   UNL A   1      40.400  28.119  32.765  1.00  0.00     0.010 A 
ATOM     45  C   UNL A   1      41.482  28.914  32.347  1.00  0.00    -0.014 A 
BRANCH  45  46
ATOM     46  C   UNL A   1      42.850  28.345  32.321  1.00  0.00     0.031 A 
ATOM     47  C   UNL A   1      43.722  28.507  33.536  1.00  0.00     0.074 A 
ATOM     48  C   UNL A   1      43.319  27.714  31.231  1.00  0.00     0.049 A 
ATOM     49  N   UNL A   1      44.961  28.136  33.722  1.00  0.00    -0.248 NA
ATOM     50  C   UNL A   1      43.116  29.186  34.694  1.00  0.00     0.031 C 
ATOM     51  C   UNL A   1      42.574  27.496  29.992  1.00  0.00     0.029 A 
ATOM     52  N   UNL A   1      44.554  27.168  30.982  1.00  0.00    -0.354 N 
ATOM     53  C   UNL A   1      45.293  28.558  35.004  1.00  0.00     0.074 A 
ATOM     54  C   UNL A   1      44.129  29.223  35.547  1.00  0.00     0.031 C 
ATOM     55  C   UNL A   1      43.378  26.891  29.101  1.00  0.00     0.029 A 
ATOM     56  C   UNL A   1      44.700  26.700  29.697  1.00  0.00     0.049 A 
ATOM     57  H   UNL A   1      45.268  27.116  31.659  1.00  0.00     0.167 HD
ATOM     58  C   UNL A   1      46.458  28.395  35.674  1.00  0.00     0.034 A 
ATOM     59  C   UNL A   1      45.782  26.198  29.070  1.00  0.00     0.034 A 
ATOM     60  C   UNL A   1      47.611  27.723  35.139  1.00  0.00     0.049 A 
ATOM     61  C   UNL A   1      47.076  26.050  29.832  1.00  0.00     0.074 A 
ATOM     62  C   UNL A   1      48.819  27.464  35.761  1.00  0.00     0.029 A 
ATOM     63  N   UNL A   1      47.706  27.216  33.854  1.00  0.00    -0.354 N 
ATOM     64  N   UNL A   1      47.335  26.335  31.085  1.00  0.00    -0.248 NA
ATOM     65  C   UNL A   1      48.218  25.479  29.101  1.00  0.00     0.031 C 
ATOM     66  C   UNL A   1      49.655  26.825  34.839  1.00  0.00     0.029 A 
ATOM     67  C   UNL A   1      48.956  26.658  33.656  1.00  0.00     0.049 A 
ATOM     68  H   UNL A   1      46.988  27.249  33.180  1.00  0.00     0.167 HD
ATOM     69  C   UNL A   1      48.654  25.945  31.302  1.00  0.00     0.074 A 
ATOM     70  C   UNL A   1      49.133  25.385  30.056  1.00  0.00     0.031 C 
ATOM     71  C   UNL A   1      49.404  26.051  32.427  1.00  0.00     0.034 A 
BRANCH  58  72
ATOM     72  C   UNL A   1      46.534  28.935  37.078  1.00  0.00     0.023 A 
ATOM     73  C   UNL A   1      46.964  30.260  37.292  1.00  0.00     0.012 A 
ATOM     74  C   UNL A   1      46.133  28.150  38.175  1.00  0.00     0.148 A 
ATOM     75  C   UNL A   1      47.022  30.786  38.583  1.00  0.00     0.002 A 
ATOM     76  C   UNL A   1      46.153  28.695  39.454  1.00  0.00     0.091 A 
ATOM     77  F   UNL A   1      45.751  26.884  37.952  1.00  0.00    -0.205 F 
ATOM     78  C   UNL A   1      46.606  30.008  39.660  1.00  0.00     0.022 A 
BRANCH  76  79
ATOM     79  S   UNL A   1      45.566  27.801  40.896  1.00  0.00     0.127 S 
ATOM     80  O   UNL A   1      46.746  27.016  41.257  1.00  0.00    -0.237 OA
ATOM     81  O   UNL A   1      45.249  28.886  41.824  1.00  0.00    -0.237 OA
ATOM     82  O   UNL A   1      44.415  27.028  40.449  1.00  0.00    -0.744 OA
ENDBRANCH  76  79
ENDBRANCH  58  72
BRANCH  59  83
ATOM     83  C   UNL A   1      45.688  25.765  27.646  1.00  0.00     0.023 A 
ATOM     84  C   UNL A   1      46.060  26.658  26.623  1.00  0.00     0.012 A 
ATOM     85  C   UNL A   1      45.238  24.475  27.303  1.00  0.00     0.148 A 
ATOM     86  C   UNL A   1      45.956  26.286  25.282  1.00  0.00     0.002 A 
ATOM     87  C   UNL A   1      45.188  24.093  25.968  1.00  0.00     0.091 A 
ATOM     88  F   UNL A   1      44.870  23.648  28.291  1.00  0.00    -0.205 F 
ATOM     89  C   UNL A   1      45.531  25.002  24.955  1.00  0.00     0.022 A 
BRANCH  87  90
ATOM     90  S   UNL A   1      44.767  22.423  25.459  1.00  0.00     0.127 S 
ATOM     91  O   UNL A   1      46.087  21.824  25.275  1.00  0.00    -0.237 OA
ATOM     92  O   UNL A   1      44.025  21.931  26.621  1.00  0.00    -0.237 OA
ATOM     93  O   UNL A   1      43.965  22.570  24.252  1.00  0.00    -0.744 OA
ENDBRANCH  87  90
ENDBRANCH  59  83
BRANCH  71  94
ATOM     94  C   UNL A   1      50.813  25.518  32.389  1.00  0.00     0.023 A 
ATOM     95  C   UNL A   1      51.891  26.398  32.170  1.00  0.00     0.012 A 
ATOM     96  C   UNL A   1      51.073  24.158  32.655  1.00  0.00     0.148 A 
ATOM     97  C   UNL A   1      53.205  25.927  32.183  1.00  0.00     0.002 A 
ATOM     98  C   UNL A   1      52.387  23.705  32.715  1.00  0.00     0.091 A 
ATOM     99  F   UNL A   1      50.034  23.333  32.844  1.00  0.00    -0.205 F 
ATOM    100  C   UNL A   1      53.453  24.586  32.468  1.00  0.00     0.022 A 
BRANCH  98 101
ATOM    101  S   UNL A   1      52.805  22.019  33.171  1.00  0.00     0.127 S 
ATOM    102  O   UNL A   1      52.211  21.257  32.075  1.00  0.00    -0.237 OA
ATOM    103  O   UNL A   1      54.268  22.049  33.170  1.00  0.00    -0.237 OA
ATOM    104  O   UNL A   1      52.208  21.799  34.483  1.00  0.00    -0.744 OA
ENDBRANCH  98 101
ENDBRANCH  71  94
ENDBRANCH  45  46
ENDBRANCH  38  40
ENDBRANCH  37  38
ENDBRANCH  36  37
ENDBRANCH  35  36
ENDBRANCH  34  35
ENDBRANCH  33  34
ENDBRANCH   1  33
TORSDOF 25
ENDMDL
MODEL 2
REMARK VINA RESULT:      -8.6      9.101     12.914
REMARK SMILES Cc1nc(CCNc2nccc(-c3cc(C(=O)OCCOCCOCCOC(=O)c4ccc(-c5c6nc(c(-c7cccc(S(=O)(=O)[O-])c7F)c7ccc([nH]7)c(-c7cccc(S(=O)(=O)[O-])c7F)c7nc(c(-c8cccc(S(=O)(=O)[O-])c8F)c8ccc5[nH]8)C=C7)C=C6)cc4)ccn3)n2)cc(=O)[nH]1
REMARK SMILES IDX 22 1 21 2 20 3 19 4 18 5 16 6 17 7 15 8 13 9 14 10 95 11
REMARK SMILES IDX 94 12 93 13 12 14 8 15 9 16 96 17 10 18 11 19 7 20 6 22 5 23
REMARK SMILES IDX 4 24 1 25 2 26 3 27 100 28 98 29 97 31 99 32 23 33 24 34
REMARK SMILES IDX 25 35 26 36 27 37 28 38 29 39 30 40 31 41 92 42 32 43 91 44
REMARK SMILES IDX 33 45 34 46 35 47 85 48 36 49 90 50 84 51 86 52 37 53 89 54
REMARK SMILES IDX 83 55 82 56 38 58 70 59 50 60 69 61 51 62 54 63 68 64 87 65
REMARK SMILES IDX 52 66 53 67 67 69 88 70 55 71 39 72 40 73 48 74 41 75 43 76
REMARK SMILES IDX 49 77 42 78 44 79 45 80 46 81 47 82 71 83 72 84 80 85 73 86
REMARK SMILES IDX 75 87 81 88 74 89 76 90 77 91 78 92 79 93 56 94 57 95 65 96
REMARK SMILES IDX 58 97 60 98 66 99 59 100 61 101 62 102 63 103 64 104
REMARK H PARENT 7 21 100 30 86 57 54 68
REMARK Flexibility Score: inf
ROOT
ATOM      1  C   UNL A   1      46.788  24.596  25.389  1.00  0.00     0.188 C 
ENDROOT
BRANCH   1   2
ATOM      2  O   UNL A   1      46.470  24.447  26.764  1.00  0.00    -0.376 OA
BRANCH   2   3
ATOM      3  C   UNL A   1      45.799  25.490  27.456  1.00  0.00     0.202 C 
BRANCH   3   4
ATOM      4  C   UNL A   1      44.282  25.665  27.325  1.00  0.00     0.261 C 
BRANCH   4   5
ATOM      5  O   UNL A   1      43.854  26.048  26.009  1.00  0.00    -0.460 OA
BRANCH   5   6
ATOM      6  C   UNL A   1      42.956  27.062  25.963  1.00  0.00     0.338 C 
ATOM      7  O   UNL A   1      43.081  28.139  25.406  1.00  0.00    -0.246 OA
BRANCH   6   8
ATOM      8  C   UNL A   1      41.688  26.615  26.566  1.00  0.00     0.063 A 
ATOM      9  C   UNL A   1      39.835  25.110  26.721  1.00  0.00     0.090 A 
ATOM     10  C   UNL A   1      41.025  25.478  26.101  1.00  0.00     0.046 A 
ATOM     11  N   UNL A   1      39.295  25.860  27.721  1.00  0.00    -0.255 NA
ATOM     12  C   UNL A   1      39.951  26.963  28.136  1.00  0.00     0.112 A 
ATOM     13  C   UNL A   1      41.157  27.370  27.608  1.00  0.00     0.036 A 
BRANCH   9  14
ATOM     14  C   UNL A   1      39.165  23.820  26.450  1.00  0.00     0.094 A 
ATOM     15  C   UNL A   1      39.376  21.543  26.194  1.00  0.00     0.223 A 
ATOM     16  N   UNL A   1      38.180  21.433  25.600  1.00  0.00    -0.222 NA
ATOM     17  N   UNL A   1      39.878  22.687  26.666  1.00  0.00    -0.211 NA
ATOM     18  C   UNL A   1      37.457  22.557  25.478  1.00  0.00     0.117 A 
ATOM     19  C   UNL A   1      37.907  23.788  25.877  1.00  0.00     0.051 A 
BRANCH  15  20
ATOM     20  N   UNL A   1      40.125  20.398  26.198  1.00  0.00    -0.354 N 
ATOM     21  H   UNL A   1      39.983  19.727  25.492  1.00  0.00     0.163 HD
BRANCH  20  22
ATOM     22  C   UNL A   1      41.124  20.152  27.219  1.00  0.00     0.122 C 
BRANCH  22  23
ATOM     23  C   UNL A   1      42.171  19.128  26.733  1.00  0.00     0.077 C 
BRANCH  23  24
ATOM     24  C   UNL A   1      43.157  19.687  25.718  1.00  0.00     0.050 A 
ATOM     25  C   UNL A   1      43.909  23.018  24.319  1.00  0.00     0.087 C 
ATOM     26  C   UNL A   1      43.898  21.547  24.617  1.00  0.00     0.105 A 
ATOM     27  N   UNL A   1      43.074  21.042  25.478  1.00  0.00    -0.240 NA
ATOM     28  N   UNL A   1      44.815  20.808  23.924  1.00  0.00    -0.311 N 
ATOM     29  C   UNL A   1      44.962  19.471  24.125  1.00  0.00     0.251 A 
ATOM     30  H   UNL A   1      45.386  21.258  23.259  1.00  0.00     0.171 HD
ATOM     31  C   UNL A   1      44.076  18.894  25.142  1.00  0.00     0.095 A 
ATOM     32  O   UNL A   1      45.770  18.789  23.506  1.00  0.00    -0.270 OA
ENDBRANCH  23  24
ENDBRANCH  22  23
ENDBRANCH  20  22
ENDBRANCH  15  20
ENDBRANCH   9  14
ENDBRANCH   6   8
ENDBRANCH   5   6
ENDBRANCH   4   5
ENDBRANCH   3   4
ENDBRANCH   2   3
ENDBRANCH   1   2
BRANCH   1  33
ATOM     33  C   UNL A   1      48.101  25.289  24.970  1.00  0.00     0.188 C 
BRANCH  33  34
ATOM     34  O   UNL A   1      48.270  26.646  25.304  1.00  0.00    -0.376 OA
BRANCH  34  35
ATOM     35  C   UNL A   1      47.870  27.674  24.415  1.00  0.00     0.202 C 
BRANCH  35  36
ATOM     36  C   UNL A   1      46.514  28.407  24.403  1.00  0.00     0.261 C 
BRANCH  36  37
ATOM     37  O   UNL A   1      46.428  29.689  25.020  1.00  0.00    -0.460 OA
BRANCH  37  38
ATOM     38  C   UNL A   1      46.013  29.686  26.311  1.00  0.00     0.338 C 
ATOM     39  O   UNL A   1      45.919  28.724  27.054  1.00  0.00    -0.246 OA
BRANCH  38  40
ATOM     40  C   UNL A   1      45.844  31.083  26.750  1.00  0.00     0.060 A 
ATOM     41  C   UNL A   1      46.964  31.777  27.224  1.00  0.00     0.016 A 
ATOM     42  C   UNL A   1      44.587  31.688  26.719  1.00  0.00     0.016 A 
ATOM     43  C   UNL A   1      46.822  33.082  27.696  1.00  0.00     0.010 A 
ATOM     44  C   UNL A   1      44.445  32.988  27.208  1.00  0.00     0.010 A 
ATOM     45  C   UNL A   1      45.555  33.680  27.725  1.00  0.00    -0.014 A 
BRANCH  45  46
ATOM     46  C   UNL A   1      45.357  34.963  28.440  1.00  0.00     0.031 A 
ATOM     47  C   UNL A   1      44.933  34.928  29.882  1.00  0.00     0.074 A 
ATOM     48  C   UNL A   1      45.527  36.141  27.814  1.00  0.00     0.049 A 
ATOM     49  N   UNL A   1      44.656  35.917  30.690  1.00  0.00    -0.248 NA
ATOM     50  C   UNL A   1      44.798  33.595  30.495  1.00  0.00     0.031 C 
ATOM     51  C   UNL A   1      45.932  36.307  26.419  1.00  0.00     0.029 A 
ATOM     52  N   UNL A   1      45.348  37.424  28.269  1.00  0.00    -0.354 N 
ATOM     53  C   UNL A   1      44.288  35.330  31.895  1.00  0.00     0.074 A 
ATOM     54  C   UNL A   1      44.367  33.898  31.710  1.00  0.00     0.031 C 
ATOM     55  C   UNL A   1      45.938  37.618  26.122  1.00  0.00     0.029 A 
ATOM     56  C   UNL A   1      45.516  38.381  27.296  1.00  0.00     0.049 A 
ATOM     57  H   UNL A   1      45.120  37.639  29.203  1.00  0.00     0.167 HD
ATOM     58  C   UNL A   1      43.930  35.929  33.055  1.00  0.00     0.034 A 
ATOM     59  C   UNL A   1      45.328  39.715  27.344  1.00  0.00     0.034 A 
ATOM     60  C   UNL A   1      43.865  37.353  33.241  1.00  0.00     0.049 A 
ATOM     61  C   UNL A   1      44.905  40.355  28.642  1.00  0.00     0.074 A 
ATOM     62  C   UNL A   1      43.560  38.055  34.394  1.00  0.00     0.029 A 
ATOM     63  N   UNL A   1      44.091  38.293  32.249  1.00  0.00    -0.354 N 
ATOM     64  N   UNL A   1      44.687  39.797  29.808  1.00  0.00    -0.248 NA
ATOM     65  C   UNL A   1      44.732  41.817  28.639  1.00  0.00     0.031 C 
ATOM     66  C   UNL A   1      43.576  39.420  34.091  1.00  0.00     0.029 A 
ATOM     67  C   UNL A   1      43.921  39.569  32.758  1.00  0.00     0.049 A 
ATOM     68  H   UNL A   1      44.337  38.083  31.319  1.00  0.00     0.167 HD
ATOM     69  C   UNL A   1      44.391  40.838  30.683  1.00  0.00     0.074 A 
ATOM     70  C   UNL A   1      44.475  42.064  29.916  1.00  0.00     0.031 C 
ATOM     71  C   UNL A   1      44.065  40.785  31.998  1.00  0.00     0.034 A 
BRANCH  58  72
ATOM     72  C   UNL A   1      43.604  35.040  34.225  1.00  0.00     0.023 A 
ATOM     73  C   UNL A   1      44.642  34.352  34.886  1.00  0.00     0.012 A 
ATOM     74  C   UNL A   1      42.284  34.927  34.701  1.00  0.00     0.148 A 
ATOM     75  C   UNL A   1      44.365  33.539  35.985  1.00  0.00     0.002 A 
ATOM     76  C   UNL A   1      42.022  34.149  35.823  1.00  0.00     0.091 A 
ATOM     77  F   UNL A   1      41.309  35.571  34.043  1.00  0.00    -0.205 F 
ATOM     78  C   UNL A   1      43.059  33.447  36.459  1.00  0.00     0.022 A 
BRANCH  76  79
ATOM     79  S   UNL A   1      40.387  34.028  36.555  1.00  0.00     0.127 S 
ATOM     80  O   UNL A   1      40.676  33.328  37.807  1.00  0.00    -0.237 OA
ATOM     81  O   UNL A   1      40.015  35.433  36.715  1.00  0.00    -0.237 OA
ATOM     82  O   UNL A   1      39.573  33.289  35.600  1.00  0.00    -0.744 OA
ENDBRANCH  76  79
ENDBRANCH  58  72
BRANCH  59  83
ATOM     83  C   UNL A   1      45.569  40.548  26.131  1.00  0.00     0.023 A 
ATOM     84  C   UNL A   1      46.885  40.730  25.664  1.00  0.00     0.012 A 
ATOM     85  C   UNL A   1      44.504  41.154  25.437  1.00  0.00     0.148 A 
ATOM     86  C   UNL A   1      47.139  41.526  24.546  1.00  0.00     0.002 A 
ATOM     87  C   UNL A   1      44.759  41.901  24.294  1.00  0.00     0.091 A 
ATOM     88  F   UNL A   1      43.261  40.985  25.909  1.00  0.00    -0.205 F 
ATOM     89  C   UNL A   1      46.078  42.103  23.856  1.00  0.00     0.022 A 
BRANCH  87  90
ATOM     90  S   UNL A   1      43.446  42.582  23.273  1.00  0.00     0.127 S 
ATOM     91  O   UNL A   1      43.417  43.975  23.713  1.00  0.00    -0.237 OA
ATOM     92  O   UNL A   1      43.974  42.372  21.925  1.00  0.00    -0.237 OA
ATOM     93  O   UNL A   1      42.260  41.795  23.584  1.00  0.00    -0.744 OA
ENDBRANCH  87  90
ENDBRANCH  59  83
BRANCH  71  94
ATOM     94  C   UNL A   1      43.814  42.087  32.717  1.00  0.00     0.023 A 
ATOM     95  C   UNL A   1      42.495  42.549  32.891  1.00  0.00     0.012 A 
ATOM     96  C   UNL A   1      44.881  42.806  33.292  1.00  0.00     0.148 A 
ATOM     97  C   UNL A   1      42.244  43.726  33.598  1.00  0.00     0.002 A 
ATOM     98  C   UNL A   1      44.619  43.950  34.038  1.00  0.00     0.091 A 
ATOM     99  F   UNL A   1      46.130  42.359  33.102  1.00  0.00    -0.205 F 
ATOM    100  C   UNL A   1      43.303  44.417  34.182  1.00  0.00     0.022 A 
BRANCH  98 101
ATOM    101  S   UNL A   1      45.909  44.850  34.906  1.00  0.00     0.127 S 
ATOM    102  O   UNL A   1      45.924  44.174  36.202  1.00  0.00    -0.237 OA
ATOM    103  O   UNL A   1      47.083  44.595  34.071  1.00  0.00    -0.237 OA
ATOM    104  O   UNL A   1      45.479  46.242  34.931  1.00  0.00    -0.744 OA
ENDBRANCH  98 101
ENDBRANCH  71  94
ENDBRANCH  45  46
ENDBRANCH  38  40
ENDBRANCH  37  38
ENDBRANCH  36  37
ENDBRANCH  35  36
ENDBRANCH  34  35
ENDBRANCH  33  34
ENDBRANCH   1  33
TORSDOF 25
ENDMDL
MODEL 3
REMARK VINA RESULT:      -8.4      2.447      4.560
REMARK SMILES Cc1nc(CCNc2nccc(-c3cc(C(=O)OCCOCCOCCOC(=O)c4ccc(-c5c6nc(c(-c7cccc(S(=O)(=O)[O-])c7F)c7ccc([nH]7)c(-c7cccc(S(=O)(=O)[O-])c7F)c7nc(c(-c8cccc(S(=O)(=O)[O-])c8F)c8ccc5[nH]8)C=C7)C=C6)cc4)ccn3)n2)cc(=O)[nH]1
REMARK SMILES IDX 22 1 21 2 20 3 19 4 18 5 16 6 17 7 15 8 13 9 14 10 95 11
REMARK SMILES IDX 94 12 93 13 12 14 8 15 9 16 96 17 10 18 11 19 7 20 6 22 5 23
REMARK SMILES IDX 4 24 1 25 2 26 3 27 100 28 98 29 97 31 99 32 23 33 24 34
REMARK SMILES IDX 25 35 26 36 27 37 28 38 29 39 30 40 31 41 92 42 32 43 91 44
REMARK SMILES IDX 33 45 34 46 35 47 85 48 36 49 90 50 84 51 86 52 37 53 89 54
REMARK SMILES IDX 83 55 82 56 38 58 70 59 50 60 69 61 51 62 54 63 68 64 87 65
REMARK SMILES IDX 52 66 53 67 67 69 88 70 55 71 39 72 40 73 48 74 41 75 43 76
REMARK SMILES IDX 49 77 42 78 44 79 45 80 46 81 47 82 71 83 72 84 80 85 73 86
REMARK SMILES IDX 75 87 81 88 74 89 76 90 77 91 78 92 79 93 56 94 57 95 65 96
REMARK SMILES IDX 58 97 60 98 66 99 59 100 61 101 62 102 63 103 64 104
REMARK H PARENT 7 21 100 30 86 57 54 68
REMARK Flexibility Score: inf
ROOT
ATOM      1  C   UNL A   1      33.701  35.098  28.913  1.00  0.00     0.188 C 
ENDROOT
BRANCH   1   2
ATOM      2  O   UNL A   1      34.936  34.449  28.653  1.00  0.00    -0.376 OA
BRANCH   2   3
ATOM      3  C   UNL A   1      35.140  33.112  29.082  1.00  0.00     0.202 C 
BRANCH   3   4
ATOM      4  C   UNL A   1      35.432  32.000  28.067  1.00  0.00     0.261 C 
BRANCH   4   5
ATOM      5  O   UNL A   1      34.460  30.944  28.070  1.00  0.00    -0.460 OA
BRANCH   5   6
ATOM      6  C   UNL A   1      34.901  29.748  27.606  1.00  0.00     0.338 C 
ATOM      7  O   UNL A   1      35.985  29.229  27.805  1.00  0.00    -0.246 OA
BRANCH   6   8
ATOM      8  C   UNL A   1      33.792  29.052  26.930  1.00  0.00     0.063 A 
ATOM      9  C   UNL A   1      32.786  28.044  25.008  1.00  0.00     0.090 A 
ATOM     10  C   UNL A   1      33.869  28.704  25.581  1.00  0.00     0.046 A 
ATOM     11  N   UNL A   1      31.656  27.784  25.721  1.00  0.00    -0.255 NA
ATOM     12  C   UNL A   1      31.606  28.149  27.020  1.00  0.00     0.112 A 
ATOM     13  C   UNL A   1      32.651  28.764  27.673  1.00  0.00     0.036 A 
BRANCH   9  14
ATOM     14  C   UNL A   1      32.844  27.449  23.655  1.00  0.00     0.094 A 
ATOM     15  C   UNL A   1      32.662  25.555  22.362  1.00  0.00     0.223 A 
ATOM     16  N   UNL A   1      33.283  26.127  21.321  1.00  0.00    -0.222 NA
ATOM     17  N   UNL A   1      32.388  26.181  23.509  1.00  0.00    -0.211 NA
ATOM     18  C   UNL A   1      33.646  27.411  21.461  1.00  0.00     0.117 A 
ATOM     19  C   UNL A   1      33.461  28.123  22.617  1.00  0.00     0.051 A 
BRANCH  15  20
ATOM     20  N   UNL A   1      32.410  24.218  22.219  1.00  0.00    -0.354 N 
ATOM     21  H   UNL A   1      31.486  23.916  22.062  1.00  0.00     0.163 HD
BRANCH  20  22
ATOM     22  C   UNL A   1      33.474  23.236  22.294  1.00  0.00     0.122 C 
BRANCH  22  23
ATOM     23  C   UNL A   1      34.644  23.753  23.157  1.00  0.00     0.077 C 
BRANCH  23  24
ATOM     24  C   UNL A   1      35.046  22.809  24.280  1.00  0.00     0.050 A 
ATOM     25  C   UNL A   1      33.901  22.163  27.729  1.00  0.00     0.087 C 
ATOM     26  C   UNL A   1      34.650  22.138  26.428  1.00  0.00     0.105 A 
ATOM     27  N   UNL A   1      34.330  22.925  25.453  1.00  0.00    -0.240 NA
ATOM     28  N   UNL A   1      35.668  21.228  26.364  1.00  0.00    -0.311 N 
ATOM     29  C   UNL A   1      36.403  21.051  25.233  1.00  0.00     0.251 A 
ATOM     30  H   UNL A   1      35.876  20.687  27.159  1.00  0.00     0.171 HD
ATOM     31  C   UNL A   1      36.012  21.894  24.097  1.00  0.00     0.095 A 
ATOM     32  O   UNL A   1      37.327  20.250  25.157  1.00  0.00    -0.270 OA
ENDBRANCH  23  24
ENDBRANCH  22  23
ENDBRANCH  20  22
ENDBRANCH  15  20
ENDBRANCH   9  14
ENDBRANCH   6   8
ENDBRANCH   5   6
ENDBRANCH   4   5
ENDBRANCH   3   4
ENDBRANCH   2   3
ENDBRANCH   1   2
BRANCH   1  33
ATOM     33  C   UNL A   1      33.367  35.582  30.339  1.00  0.00     0.188 C 
BRANCH  33  34
ATOM     34  O   UNL A   1      34.242  35.224  31.382  1.00  0.00    -0.376 OA
BRANCH  34  35
ATOM     35  C   UNL A   1      33.774  34.529  32.524  1.00  0.00     0.202 C 
BRANCH  35  36
ATOM     36  C   UNL A   1      34.140  33.092  32.944  1.00  0.00     0.261 C 
BRANCH  36  37
ATOM     37  O   UNL A   1      35.438  32.599  32.621  1.00  0.00    -0.460 OA
BRANCH  37  38
ATOM     38  C   UNL A   1      36.351  32.667  33.621  1.00  0.00     0.338 C 
ATOM     39  O   UNL A   1      36.200  33.158  34.726  1.00  0.00    -0.246 OA
BRANCH  38  40
ATOM     40  C   UNL A   1      37.539  31.891  33.221  1.00  0.00     0.060 A 
ATOM     41  C   UNL A   1      37.681  30.585  33.705  1.00  0.00     0.016 A 
ATOM     42  C   UNL A   1      38.514  32.461  32.401  1.00  0.00     0.016 A 
ATOM     43  C   UNL A   1      38.821  29.848  33.387  1.00  0.00     0.010 A 
ATOM     44  C   UNL A   1      39.663  31.726  32.099  1.00  0.00     0.010 A 
ATOM     45  C   UNL A   1      39.835  30.428  32.613  1.00  0.00    -0.014 A 
BRANCH  45  46
ATOM     46  C   UNL A   1      41.143  29.746  32.472  1.00  0.00     0.031 A 
ATOM     47  C   UNL A   1      42.237  30.073  33.451  1.00  0.00     0.074 A 
ATOM     48  C   UNL A   1      41.366  28.869  31.478  1.00  0.00     0.049 A 
ATOM     49  N   UNL A   1      43.468  29.639  33.494  1.00  0.00    -0.248 NA
ATOM     50  C   UNL A   1      41.896  31.024  34.524  1.00  0.00     0.031 C 
ATOM     51  C   UNL A   1      40.389  28.471  30.466  1.00  0.00     0.029 A 
ATOM     52  N   UNL A   1      42.502  28.176  31.141  1.00  0.00    -0.354 N 
ATOM     53  C   UNL A   1      44.058  30.281  34.577  1.00  0.00     0.074 A 
ATOM     54  C   UNL A   1      43.052  31.142  35.158  1.00  0.00     0.031 C 
ATOM     55  C   UNL A   1      40.979  27.629  29.600  1.00  0.00     0.029 A 
ATOM     56  C   UNL A   1      42.378  27.446  29.982  1.00  0.00     0.049 A 
ATOM     57  H   UNL A   1      43.328  28.199  31.678  1.00  0.00     0.167 HD
ATOM     58  C   UNL A   1      45.319  30.154  35.053  1.00  0.00     0.034 A 
ATOM     59  C   UNL A   1      43.296  26.733  29.299  1.00  0.00     0.034 A 
ATOM     60  C   UNL A   1      46.314  29.287  34.483  1.00  0.00     0.049 A 
ATOM     61  C   UNL A   1      44.701  26.628  29.837  1.00  0.00     0.074 A 
ATOM     62  C   UNL A   1      47.604  29.054  34.925  1.00  0.00     0.029 A 
ATOM     63  N   UNL A   1      46.139  28.524  33.340  1.00  0.00    -0.354 N 
ATOM     64  N   UNL A   1      45.207  27.137  30.935  1.00  0.00    -0.248 NA
ATOM     65  C   UNL A   1      45.654  25.822  29.059  1.00  0.00     0.031 C 
ATOM     66  C   UNL A   1      48.217  28.169  34.031  1.00  0.00     0.029 A 
ATOM     67  C   UNL A   1      47.300  27.829  33.052  1.00  0.00     0.049 A 
ATOM     68  H   UNL A   1      45.309  28.483  32.811  1.00  0.00     0.167 HD
ATOM     69  C   UNL A   1      46.521  26.683  30.998  1.00  0.00     0.074 A 
ATOM     70  C   UNL A   1      46.728  25.842  29.837  1.00  0.00     0.031 C 
ATOM     71  C   UNL A   1      47.476  26.948  31.924  1.00  0.00     0.034 A 
BRANCH  58  72
ATOM     72  C   UNL A   1      45.686  30.958  36.272  1.00  0.00     0.023 A 
ATOM     73  C   UNL A   1      46.321  32.207  36.117  1.00  0.00     0.012 A 
ATOM     74  C   UNL A   1      45.359  30.502  37.563  1.00  0.00     0.148 A 
ATOM     75  C   UNL A   1      46.651  32.977  37.232  1.00  0.00     0.002 A 
ATOM     76  C   UNL A   1      45.652  31.294  38.667  1.00  0.00     0.091 A 
ATOM     77  F   UNL A   1      44.778  29.299  37.689  1.00  0.00    -0.205 F 
ATOM     78  C   UNL A   1      46.307  32.526  38.503  1.00  0.00     0.022 A 
BRANCH  76  79
ATOM     79  S   UNL A   1      45.183  30.836  40.338  1.00  0.00     0.127 S 
ATOM     80  O   UNL A   1      45.821  31.892  41.124  1.00  0.00    -0.237 OA
ATOM     81  O   UNL A   1      43.724  30.917  40.282  1.00  0.00    -0.237 OA
ATOM     82  O   UNL A   1      45.709  29.495  40.551  1.00  0.00    -0.744 OA
ENDBRANCH  76  79
ENDBRANCH  58  72
BRANCH  59  83
ATOM     83  C   UNL A   1      42.912  26.031  28.041  1.00  0.00     0.023 A 
ATOM     84  C   UNL A   1      43.026  26.702  26.809  1.00  0.00     0.012 A 
ATOM     85  C   UNL A   1      42.441  24.704  28.059  1.00  0.00     0.148 A 
ATOM     86  C   UNL A   1      42.649  26.076  25.620  1.00  0.00     0.002 A 
ATOM     87  C   UNL A   1      42.118  24.068  26.867  1.00  0.00     0.091 A 
ATOM     88  F   UNL A   1      42.321  24.089  29.244  1.00  0.00    -0.205 F 
ATOM     89  C   UNL A   1      42.205  24.758  25.647  1.00  0.00     0.022 A 
BRANCH  87  90
ATOM     90  S   UNL A   1      41.652  22.334  26.794  1.00  0.00     0.127 S 
ATOM     91  O   UNL A   1      41.999  21.989  25.417  1.00  0.00    -0.237 OA
ATOM     92  O   UNL A   1      42.521  21.746  27.814  1.00  0.00    -0.237 OA
ATOM     93  O   UNL A   1      40.233  22.295  27.118  1.00  0.00    -0.744 OA
ENDBRANCH  87  90
ENDBRANCH  59  83
BRANCH  71  94
ATOM     94  C   UNL A   1      48.824  26.295  31.757  1.00  0.00     0.023 A 
ATOM     95  C   UNL A   1      49.798  26.896  30.936  1.00  0.00     0.012 A 
ATOM     96  C   UNL A   1      49.152  25.130  32.480  1.00  0.00     0.148 A 
ATOM     97  C   UNL A   1      51.068  26.331  30.812  1.00  0.00     0.002 A 
ATOM     98  C   UNL A   1      50.434  24.600  32.390  1.00  0.00     0.091 A 
ATOM     99  F   UNL A   1      48.206  24.562  33.242  1.00  0.00    -0.205 F 
ATOM    100  C   UNL A   1      51.389  25.192  31.548  1.00  0.00     0.022 A 
BRANCH  98 101
ATOM    101  S   UNL A   1      50.967  23.194  33.374  1.00  0.00     0.127 S 
ATOM    102  O   UNL A   1      49.698  22.707  33.910  1.00  0.00    -0.237 OA
ATOM    103  O   UNL A   1      51.578  22.324  32.369  1.00  0.00    -0.237 OA
ATOM    104  O   UNL A   1      51.901  23.725  34.358  1.00  0.00    -0.744 OA
ENDBRANCH  98 101
ENDBRANCH  71  94
ENDBRANCH  45  46
ENDBRANCH  38  40
ENDBRANCH  37  38
ENDBRANCH  36  37
ENDBRANCH  35  36
ENDBRANCH  34  35
ENDBRANCH  33  34
ENDBRANCH   1  33
TORSDOF 25
ENDMDL
