MODEL 1
REMARK VINA RESULT:      -8.2      0.000      0.000
REMARK SMILES O=C(COc1ncc(C(F)(F)F)cc1Cl)OCCOCCOCCOC(=O)c1ccc(-c2c3nc(c(-c4cccc(S(=O)(=O)[O-])c4F)c4ccc([nH]4)c(-c4cccc(S(=O)(=O)[O-])c4F)c4nc(c(-c5cccc(S(=O)(=O)[O-])c5F)c5ccc2[nH]5)C=C4)C=C3)cc1
REMARK SMILES IDX 20 1 19 2 18 3 17 4 16 5 2 6 1 7 3 8 4 9 5 10 6 11 14 12
REMARK SMILES IDX 7 13 13 14 15 15 8 16 9 17 10 18 11 19 12 20 21 21 22 22
REMARK SMILES IDX 23 23 24 24 25 25 26 26 27 27 28 28 29 29 90 30 30 31 89 32
REMARK SMILES IDX 31 33 32 34 33 35 83 36 34 37 88 38 82 39 84 40 35 41 87 42
REMARK SMILES IDX 81 43 80 44 36 46 68 47 48 48 67 49 49 50 52 51 66 52 85 53
REMARK SMILES IDX 50 54 51 55 65 57 86 58 53 59 37 60 38 61 46 62 39 63 41 64
REMARK SMILES IDX 47 65 40 66 42 67 43 68 44 69 45 70 69 71 70 72 78 73 71 74
REMARK SMILES IDX 73 75 79 76 72 77 74 78 75 79 76 80 77 81 54 82 55 83 63 84
REMARK SMILES IDX 56 85 58 86 64 87 57 88 59 89 60 90 61 91 62 92
REMARK H PARENT 84 45 52 56
REMARK Flexibility Score: inf
ROOT
ATOM      1  C   UNL A   1      38.763  21.501  25.724  1.00  0.00     0.188 C 
ENDROOT
BRANCH   1   2
ATOM      2  O   UNL A   1      37.616  21.888  24.989  1.00  0.00    -0.376 OA
BRANCH   2   3
ATOM      3  C   UNL A   1      36.468  22.298  25.704  1.00  0.00     0.202 C 
BRANCH   3   4
ATOM      4  C   UNL A   1      35.905  23.663  25.314  1.00  0.00     0.261 C 
BRANCH   4   5
ATOM      5  O   UNL A   1      34.478  23.737  25.095  1.00  0.00    -0.461 OA
BRANCH   5   6
ATOM      6  C   UNL A   1      33.667  24.807  25.256  1.00  0.00     0.344 C 
ATOM      7  O   UNL A   1      34.150  25.906  25.518  1.00  0.00    -0.248 OA
BRANCH   6   8
ATOM      8  C   UNL A   1      32.169  24.611  25.152  1.00  0.00     0.353 C 
BRANCH   8   9
ATOM      9  O   UNL A   1      31.768  24.343  23.811  1.00  0.00    -0.465 OA
BRANCH   9  10
ATOM     10  C   UNL A   1      31.050  25.432  23.398  1.00  0.00     0.233 A 
ATOM     11  N   UNL A   1      29.816  25.515  23.939  1.00  0.00    -0.220 NA
ATOM     12  C   UNL A   1      31.636  26.424  22.618  1.00  0.00     0.103 A 
ATOM     13  C   UNL A   1      29.149  26.672  23.754  1.00  0.00     0.128 A 
ATOM     14  C   UNL A   1      30.941  27.615  22.476  1.00  0.00     0.041 A 
ATOM     15  Cl  UNL A   1      33.173  26.256  21.867  1.00  0.00    -0.078 Cl
ATOM     16  C   UNL A   1      29.677  27.754  23.065  1.00  0.00     0.076 A 
BRANCH  16  17
ATOM     17  C   UNL A   1      28.880  29.010  22.921  1.00  0.00     0.417 C 
ATOM     18  F   UNL A   1      28.810  29.419  21.626  1.00  0.00    -0.166 F 
ATOM     19  F   UNL A   1      27.599  28.889  23.355  1.00  0.00    -0.166 F 
ATOM     20  F   UNL A   1      29.414  30.055  23.613  1.00  0.00    -0.166 F 
ENDBRANCH  16  17
ENDBRANCH   9  10
ENDBRANCH   8   9
ENDBRANCH   6   8
ENDBRANCH   5   6
ENDBRANCH   4   5
ENDBRANCH   3   4
ENDBRANCH   2   3
ENDBRANCH   1   2
BRANCH   1  21
ATOM     21  C   UNL A   1      39.190  20.030  25.534  1.00  0.00     0.188 C 
BRANCH  21  22
ATOM     22  O   UNL A   1      40.480  19.591  25.942  1.00  0.00    -0.376 OA
BRANCH  22  23
ATOM     23  C   UNL A   1      40.934  19.853  27.260  1.00  0.00     0.202 C 
BRANCH  23  24
ATOM     24  C   UNL A   1      42.243  20.634  27.450  1.00  0.00     0.261 C 
BRANCH  24  25
ATOM     25  O   UNL A   1      42.106  22.055  27.638  1.00  0.00    -0.460 OA
BRANCH  25  26
ATOM     26  C   UNL A   1      42.354  22.821  26.544  1.00  0.00     0.338 C 
ATOM     27  O   UNL A   1      42.058  22.559  25.393  1.00  0.00    -0.246 OA
BRANCH  26  28
ATOM     28  C   UNL A   1      42.893  24.148  26.940  1.00  0.00     0.060 A 
ATOM     29  C   UNL A   1      43.244  24.339  28.287  1.00  0.00     0.016 A 
ATOM     30  C   UNL A   1      42.995  25.209  26.038  1.00  0.00     0.016 A 
ATOM     31  C   UNL A   1      43.615  25.603  28.751  1.00  0.00     0.010 A 
ATOM     32  C   UNL A   1      43.347  26.483  26.511  1.00  0.00     0.010 A 
ATOM     33  C   UNL A   1      43.599  26.698  27.881  1.00  0.00    -0.014 A 
BRANCH  33  34
ATOM     34  C   UNL A   1      43.553  28.073  28.451  1.00  0.00     0.031 A 
ATOM     35  C   UNL A   1      44.851  28.838  28.550  1.00  0.00     0.074 A 
ATOM     36  C   UNL A   1      42.407  28.659  28.842  1.00  0.00     0.049 A 
ATOM     37  N   UNL A   1      45.077  30.045  29.001  1.00  0.00    -0.248 NA
ATOM     38  C   UNL A   1      46.059  28.139  28.078  1.00  0.00     0.031 C 
ATOM     39  C   UNL A   1      41.079  28.055  28.781  1.00  0.00     0.029 A 
ATOM     40  N   UNL A   1      42.187  29.903  29.388  1.00  0.00    -0.354 N 
ATOM     41  C   UNL A   1      46.451  30.233  28.907  1.00  0.00     0.074 A 
ATOM     42  C   UNL A   1      47.010  29.014  28.367  1.00  0.00     0.031 C 
ATOM     43  C   UNL A   1      40.183  28.922  29.288  1.00  0.00     0.029 A 
ATOM     44  C   UNL A   1      40.876  30.134  29.729  1.00  0.00     0.049 A 
ATOM     45  H   UNL A   1      42.903  30.566  29.522  1.00  0.00     0.167 HD
ATOM     46  C   UNL A   1      47.190  31.323  29.226  1.00  0.00     0.034 A 
ATOM     47  C   UNL A   1      40.302  31.195  30.335  1.00  0.00     0.034 A 
ATOM     48  C   UNL A   1      46.642  32.547  29.741  1.00  0.00     0.049 A 
ATOM     49  C   UNL A   1      41.148  32.391  30.703  1.00  0.00     0.074 A 
ATOM     50  C   UNL A   1      47.303  33.724  30.045  1.00  0.00     0.029 A 
ATOM     51  N   UNL A   1      45.306  32.749  30.046  1.00  0.00    -0.354 N 
ATOM     52  N   UNL A   1      42.428  32.595  30.505  1.00  0.00    -0.248 NA
ATOM     53  C   UNL A   1      40.458  33.520  31.347  1.00  0.00     0.031 C 
ATOM     54  C   UNL A   1      46.372  34.625  30.572  1.00  0.00     0.029 A 
ATOM     55  C   UNL A   1      45.122  34.026  30.549  1.00  0.00     0.049 A 
ATOM     56  H   UNL A   1      44.592  32.083  29.923  1.00  0.00     0.167 HD
ATOM     57  C   UNL A   1      42.683  33.891  30.945  1.00  0.00     0.074 A 
ATOM     58  C   UNL A   1      41.423  34.428  31.416  1.00  0.00     0.031 C 
ATOM     59  C   UNL A   1      43.855  34.575  30.958  1.00  0.00     0.034 A 
BRANCH  46  60
ATOM     60  C   UNL A   1      48.681  31.234  29.026  1.00  0.00     0.023 A 
ATOM     61  C   UNL A   1      49.524  30.931  30.116  1.00  0.00     0.012 A 
ATOM     62  C   UNL A   1      49.244  31.424  27.749  1.00  0.00     0.148 A 
ATOM     63  C   UNL A   1      50.907  30.866  29.945  1.00  0.00     0.002 A 
ATOM     64  C   UNL A   1      50.617  31.305  27.577  1.00  0.00     0.091 A 
ATOM     65  F   UNL A   1      48.430  31.734  26.731  1.00  0.00    -0.205 F 
ATOM     66  C   UNL A   1      51.451  31.043  28.677  1.00  0.00     0.022 A 
BRANCH  64  67
ATOM     67  S   UNL A   1      51.402  31.432  25.967  1.00  0.00     0.127 S 
ATOM     68  O   UNL A   1      50.856  32.693  25.470  1.00  0.00    -0.237 OA
ATOM     69  O   UNL A   1      52.822  31.479  26.321  1.00  0.00    -0.237 OA
ATOM     70  O   UNL A   1      51.001  30.241  25.231  1.00  0.00    -0.744 OA
ENDBRANCH  64  67
ENDBRANCH  46  60
BRANCH  47  71
ATOM     71  C   UNL A   1      38.833  31.209  30.592  1.00  0.00     0.023 A 
ATOM     72  C   UNL A   1      38.315  30.510  31.701  1.00  0.00     0.012 A 
ATOM     73  C   UNL A   1      37.947  31.902  29.744  1.00  0.00     0.148 A 
ATOM     74  C   UNL A   1      36.941  30.473  31.942  1.00  0.00     0.002 A 
ATOM     75  C   UNL A   1      36.584  31.908  30.023  1.00  0.00     0.091 A 
ATOM     76  F   UNL A   1      38.457  32.547  28.687  1.00  0.00    -0.205 F 
ATOM     77  C   UNL A   1      36.078  31.179  31.110  1.00  0.00     0.022 A 
BRANCH  75  78
ATOM     78  S   UNL A   1      35.407  32.884  29.080  1.00  0.00     0.127 S 
ATOM     79  O   UNL A   1      35.456  32.234  27.774  1.00  0.00    -0.237 OA
ATOM     80  O   UNL A   1      34.171  32.666  29.833  1.00  0.00    -0.237 OA
ATOM     81  O   UNL A   1      35.905  34.252  29.120  1.00  0.00    -0.744 OA
ENDBRANCH  75  78
ENDBRANCH  47  71
BRANCH  59  82
ATOM     82  C   UNL A   1      43.835  36.009  31.428  1.00  0.00     0.023 A 
ATOM     83  C   UNL A   1      43.941  36.315  32.798  1.00  0.00     0.012 A 
ATOM     84  C   UNL A   1      43.779  37.062  30.490  1.00  0.00     0.148 A 
ATOM     85  C   UNL A   1      43.951  37.642  33.231  1.00  0.00     0.002 A 
ATOM     86  C   UNL A   1      43.845  38.381  30.924  1.00  0.00     0.091 A 
ATOM     87  F   UNL A   1      43.662  36.755  29.190  1.00  0.00    -0.205 F 
ATOM     88  C   UNL A   1      43.914  38.673  32.295  1.00  0.00     0.022 A 
BRANCH  86  89
ATOM     89  S   UNL A   1      43.910  39.766  29.781  1.00  0.00     0.127 S 
ATOM     90  O   UNL A   1      42.579  39.718  29.180  1.00  0.00    -0.237 OA
ATOM     91  O   UNL A   1      44.133  40.900  30.678  1.00  0.00    -0.237 OA
ATOM     92  O   UNL A   1      45.018  39.487  28.877  1.00  0.00    -0.744 OA
ENDBRANCH  86  89
ENDBRANCH  59  82
ENDBRANCH  33  34
ENDBRANCH  26  28
ENDBRANCH  25  26
ENDBRANCH  24  25
ENDBRANCH  23  24
ENDBRANCH  22  23
ENDBRANCH  21  22
ENDBRANCH   1  21
TORSDOF 23
ENDMDL
MODEL 2
REMARK VINA RESULT:      -8.1      5.330      8.119
REMARK SMILES O=C(COc1ncc(C(F)(F)F)cc1Cl)OCCOCCOCCOC(=O)c1ccc(-c2c3nc(c(-c4cccc(S(=O)(=O)[O-])c4F)c4ccc([nH]4)c(-c4cccc(S(=O)(=O)[O-])c4F)c4nc(c(-c5cccc(S(=O)(=O)[O-])c5F)c5ccc2[nH]5)C=C4)C=C3)cc1
REMARK SMILES IDX 20 1 19 2 18 3 17 4 16 5 2 6 1 7 3 8 4 9 5 10 6 11 14 12
REMARK SMILES IDX 7 13 13 14 15 15 8 16 9 17 10 18 11 19 12 20 21 21 22 22
REMARK SMILES IDX 23 23 24 24 25 25 26 26 27 27 28 28 29 29 90 30 30 31 89 32
REMARK SMILES IDX 31 33 32 34 33 35 83 36 34 37 88 38 82 39 84 40 35 41 87 42
REMARK SMILES IDX 81 43 80 44 36 46 68 47 48 48 67 49 49 50 52 51 66 52 85 53
REMARK SMILES IDX 50 54 51 55 65 57 86 58 53 59 37 60 38 61 46 62 39 63 41 64
REMARK SMILES IDX 47 65 40 66 42 67 43 68 44 69 45 70 69 71 70 72 78 73 71 74
REMARK SMILES IDX 73 75 79 76 72 77 74 78 75 79 76 80 77 81 54 82 55 83 63 84
REMARK SMILES IDX 56 85 58 86 64 87 57 88 59 89 60 90 61 91 62 92
REMARK H PARENT 84 45 52 56
REMARK Flexibility Score: inf
ROOT
ATOM      1  C   UNL A   1      33.027  27.883  25.642  1.00  0.00     0.188 C 
ENDROOT
BRANCH   1   2
ATOM      2  O   UNL A   1      32.288  26.744  25.239  1.00  0.00    -0.376 OA
BRANCH   2   3
ATOM      3  C   UNL A   1      31.200  26.928  24.357  1.00  0.00     0.202 C 
BRANCH   3   4
ATOM      4  C   UNL A   1      31.429  26.449  22.925  1.00  0.00     0.261 C 
BRANCH   4   5
ATOM      5  O   UNL A   1      32.687  25.787  22.655  1.00  0.00    -0.461 OA
BRANCH   5   6
ATOM      6  C   UNL A   1      32.992  24.974  21.620  1.00  0.00     0.344 C 
ATOM      7  O   UNL A   1      32.986  25.414  20.472  1.00  0.00    -0.248 OA
BRANCH   6   8
ATOM      8  C   UNL A   1      33.291  23.516  21.900  1.00  0.00     0.353 C 
BRANCH   8   9
ATOM      9  O   UNL A   1      34.228  23.370  22.965  1.00  0.00    -0.465 OA
BRANCH   9  10
ATOM     10  C   UNL A   1      33.876  22.229  23.634  1.00  0.00     0.233 A 
ATOM     11  N   UNL A   1      32.794  21.603  23.125  1.00  0.00    -0.220 NA
ATOM     12  C   UNL A   1      34.685  21.710  24.640  1.00  0.00     0.103 A 
ATOM     13  C   UNL A   1      32.535  20.365  23.590  1.00  0.00     0.128 A 
ATOM     14  C   UNL A   1      34.415  20.421  25.073  1.00  0.00     0.041 A 
ATOM     15  Cl  UNL A   1      36.004  22.567  25.334  1.00  0.00    -0.078 Cl
ATOM     16  C   UNL A   1      33.327  19.722  24.532  1.00  0.00     0.076 A 
BRANCH  16  17
ATOM     17  C   UNL A   1      32.982  18.340  24.981  1.00  0.00     0.417 C 
ATOM     18  F   UNL A   1      31.892  17.853  24.328  1.00  0.00    -0.166 F 
ATOM     19  F   UNL A   1      33.980  17.443  24.784  1.00  0.00    -0.166 F 
ATOM     20  F   UNL A   1      32.676  18.278  26.308  1.00  0.00    -0.166 F 
ENDBRANCH  16  17
ENDBRANCH   9  10
ENDBRANCH   8   9
ENDBRANCH   6   8
ENDBRANCH   5   6
ENDBRANCH   4   5
ENDBRANCH   3   4
ENDBRANCH   2   3
ENDBRANCH   1   2
BRANCH   1  21
ATOM     21  C   UNL A   1      32.170  29.098  26.058  1.00  0.00     0.188 C 
BRANCH  21  22
ATOM     22  O   UNL A   1      32.758  30.387  26.193  1.00  0.00    -0.376 OA
BRANCH  22  23
ATOM     23  C   UNL A   1      33.337  30.774  27.429  1.00  0.00     0.202 C 
BRANCH  23  24
ATOM     24  C   UNL A   1      34.832  31.127  27.466  1.00  0.00     0.261 C 
BRANCH  24  25
ATOM     25  O   UNL A   1      35.473  31.011  28.750  1.00  0.00    -0.460 OA
BRANCH  25  26
ATOM     26  C   UNL A   1      35.412  32.113  29.541  1.00  0.00     0.338 C 
ATOM     27  O   UNL A   1      34.426  32.543  30.111  1.00  0.00    -0.246 OA
BRANCH  26  28
ATOM     28  C   UNL A   1      36.771  32.661  29.789  1.00  0.00     0.060 A 
ATOM     29  C   UNL A   1      37.727  31.809  30.366  1.00  0.00     0.016 A 
ATOM     30  C   UNL A   1      37.094  33.994  29.530  1.00  0.00     0.016 A 
ATOM     31  C   UNL A   1      38.973  32.303  30.760  1.00  0.00     0.010 A 
ATOM     32  C   UNL A   1      38.339  34.494  29.945  1.00  0.00     0.010 A 
ATOM     33  C   UNL A   1      39.259  33.665  30.617  1.00  0.00    -0.014 A 
BRANCH  33  34
ATOM     34  C   UNL A   1      40.364  34.259  31.421  1.00  0.00     0.031 A 
ATOM     35  C   UNL A   1      41.646  34.609  30.703  1.00  0.00     0.074 A 
ATOM     36  C   UNL A   1      40.247  34.521  32.735  1.00  0.00     0.049 A 
ATOM     37  N   UNL A   1      42.747  35.137  31.171  1.00  0.00    -0.248 NA
ATOM     38  C   UNL A   1      41.689  34.316  29.260  1.00  0.00     0.031 C 
ATOM     39  C   UNL A   1      39.065  34.263  33.551  1.00  0.00     0.029 A 
ATOM     40  N   UNL A   1      41.157  35.054  33.618  1.00  0.00    -0.354 N 
ATOM     41  C   UNL A   1      43.624  35.201  30.095  1.00  0.00     0.074 A 
ATOM     42  C   UNL A   1      42.933  34.648  28.952  1.00  0.00     0.031 C 
ATOM     43  C   UNL A   1      39.327  34.620  34.822  1.00  0.00     0.029 A 
ATOM     44  C   UNL A   1      40.702  35.113  34.914  1.00  0.00     0.049 A 
ATOM     45  H   UNL A   1      42.052  35.365  33.347  1.00  0.00     0.167 HD
ATOM     46  C   UNL A   1      44.887  35.687  30.047  1.00  0.00     0.034 A 
ATOM     47  C   UNL A   1      41.325  35.509  36.044  1.00  0.00     0.034 A 
ATOM     48  C   UNL A   1      45.575  36.260  31.171  1.00  0.00     0.049 A 
ATOM     49  C   UNL A   1      42.742  36.026  35.972  1.00  0.00     0.074 A 
ATOM     50  C   UNL A   1      46.837  36.826  31.209  1.00  0.00     0.029 A 
ATOM     51  N   UNL A   1      45.068  36.326  32.458  1.00  0.00    -0.354 N 
ATOM     52  N   UNL A   1      43.517  36.182  34.926  1.00  0.00    -0.248 NA
ATOM     53  C   UNL A   1      43.357  36.457  37.238  1.00  0.00     0.031 C 
ATOM     54  C   UNL A   1      47.110  37.198  32.530  1.00  0.00     0.029 A 
ATOM     55  C   UNL A   1      45.997  36.909  33.304  1.00  0.00     0.049 A 
ATOM     56  H   UNL A   1      44.179  36.005  32.732  1.00  0.00     0.167 HD
ATOM     57  C   UNL A   1      44.683  36.780  35.398  1.00  0.00     0.074 A 
ATOM     58  C   UNL A   1      44.512  36.963  36.823  1.00  0.00     0.031 C 
ATOM     59  C   UNL A   1      45.796  37.144  34.711  1.00  0.00     0.034 A 
BRANCH  46  60
ATOM     60  C   UNL A   1      45.611  35.614  28.727  1.00  0.00     0.023 A 
ATOM     61  C   UNL A   1      45.590  36.715  27.846  1.00  0.00     0.012 A 
ATOM     62  C   UNL A   1      46.335  34.459  28.372  1.00  0.00     0.148 A 
ATOM     63  C   UNL A   1      46.239  36.649  26.613  1.00  0.00     0.002 A 
ATOM     64  C   UNL A   1      47.023  34.421  27.166  1.00  0.00     0.091 A 
ATOM     65  F   UNL A   1      46.324  33.414  29.210  1.00  0.00    -0.205 F 
ATOM     66  C   UNL A   1      46.963  35.508  26.279  1.00  0.00     0.022 A 
BRANCH  64  67
ATOM     67  S   UNL A   1      48.051  33.030  26.686  1.00  0.00     0.127 S 
ATOM     68  O   UNL A   1      47.050  31.995  26.432  1.00  0.00    -0.237 OA
ATOM     69  O   UNL A   1      48.718  33.540  25.487  1.00  0.00    -0.237 OA
ATOM     70  O   UNL A   1      48.939  32.780  27.812  1.00  0.00    -0.744 OA
ENDBRANCH  64  67
ENDBRANCH  46  60
BRANCH  47  71
ATOM     71  C   UNL A   1      40.600  35.487  37.348  1.00  0.00     0.023 A 
ATOM     72  C   UNL A   1      40.049  36.680  37.855  1.00  0.00     0.012 A 
ATOM     73  C   UNL A   1      40.459  34.297  38.088  1.00  0.00     0.148 A 
ATOM     74  C   UNL A   1      39.401  36.697  39.091  1.00  0.00     0.002 A 
ATOM     75  C   UNL A   1      39.763  34.309  39.292  1.00  0.00     0.091 A 
ATOM     76  F   UNL A   1      41.004  33.176  37.596  1.00  0.00    -0.205 F 
ATOM     77  C   UNL A   1      39.250  35.511  39.804  1.00  0.00     0.022 A 
BRANCH  75  78
ATOM     78  S   UNL A   1      39.412  32.814  40.224  1.00  0.00     0.127 S 
ATOM     79  O   UNL A   1      38.556  32.077  39.299  1.00  0.00    -0.237 OA
ATOM     80  O   UNL A   1      40.753  32.255  40.403  1.00  0.00    -0.237 OA
ATOM     81  O   UNL A   1      38.772  33.256  41.455  1.00  0.00    -0.744 OA
ENDBRANCH  75  78
ENDBRANCH  47  71
BRANCH  59  82
ATOM     82  C   UNL A   1      46.898  37.847  35.465  1.00  0.00     0.023 A 
ATOM     83  C   UNL A   1      47.958  37.113  36.032  1.00  0.00     0.012 A 
ATOM     84  C   UNL A   1      46.913  39.255  35.552  1.00  0.00     0.148 A 
ATOM     85  C   UNL A   1      48.992  37.764  36.707  1.00  0.00     0.002 A 
ATOM     86  C   UNL A   1      47.973  39.900  36.177  1.00  0.00     0.091 A 
ATOM     87  F   UNL A   1      45.887  39.939  35.022  1.00  0.00    -0.205 F 
ATOM     88  C   UNL A   1      49.005  39.156  36.769  1.00  0.00     0.022 A 
BRANCH  86  89
ATOM     89  S   UNL A   1      48.123  41.690  36.210  1.00  0.00     0.127 S 
ATOM     90  O   UNL A   1      49.355  41.871  36.975  1.00  0.00    -0.237 OA
ATOM     91  O   UNL A   1      48.234  42.020  34.789  1.00  0.00    -0.237 OA
ATOM     92  O   UNL A   1      46.910  42.181  36.849  1.00  0.00    -0.744 OA
ENDBRANCH  86  89
ENDBRANCH  59  82
ENDBRANCH  33  34
ENDBRANCH  26  28
ENDBRANCH  25  26
ENDBRANCH  24  25
ENDBRANCH  23  24
ENDBRANCH  22  23
ENDBRANCH  21  22
ENDBRANCH   1  21
TORSDOF 23
ENDMDL
MODEL 3
REMARK VINA RESULT:      -7.9      5.601     12.671
REMARK SMILES O=C(COc1ncc(C(F)(F)F)cc1Cl)OCCOCCOCCOC(=O)c1ccc(-c2c3nc(c(-c4cccc(S(=O)(=O)[O-])c4F)c4ccc([nH]4)c(-c4cccc(S(=O)(=O)[O-])c4F)c4nc(c(-c5cccc(S(=O)(=O)[O-])c5F)c5ccc2[nH]5)C=C4)C=C3)cc1
REMARK SMILES IDX 20 1 19 2 18 3 17 4 16 5 2 6 1 7 3 8 4 9 5 10 6 11 14 12
REMARK SMILES IDX 7 13 13 14 15 15 8 16 9 17 10 18 11 19 12 20 21 21 22 22
REMARK SMILES IDX 23 23 24 24 25 25 26 26 27 27 28 28 29 29 90 30 30 31 89 32
REMARK SMILES IDX 31 33 32 34 33 35 83 36 34 37 88 38 82 39 84 40 35 41 87 42
REMARK SMILES IDX 81 43 80 44 36 46 68 47 48 48 67 49 49 50 52 51 66 52 85 53
REMARK SMILES IDX 50 54 51 55 65 57 86 58 53 59 37 60 38 61 46 62 39 63 41 64
REMARK SMILES IDX 47 65 40 66 42 67 43 68 44 69 45 70 69 71 70 72 78 73 71 74
REMARK SMILES IDX 73 75 79 76 72 77 74 78 75 79 76 80 77 81 54 82 55 83 63 84
REMARK SMILES IDX 56 85 58 86 64 87 57 88 59 89 60 90 61 91 62 92
REMARK H PARENT 84 45 52 56
REMARK Flexibility Score: inf
ROOT
ATOM      1  C   UNL A   1      46.666  42.015  30.814  1.00  0.00     0.188 C 
ENDROOT
BRANCH   1   2
ATOM      2  O   UNL A   1      45.705  42.749  30.077  1.00  0.00    -0.376 OA
BRANCH   2   3
ATOM      3  C   UNL A   1      44.808  42.037  29.249  1.00  0.00     0.202 C 
BRANCH   3   4
ATOM      4  C   UNL A   1      44.971  42.275  27.750  1.00  0.00     0.261 C 
BRANCH   4   5
ATOM      5  O   UNL A   1      45.136  41.100  26.921  1.00  0.00    -0.461 OA
BRANCH   5   6
ATOM      6  C   UNL A   1      44.193  40.455  26.199  1.00  0.00     0.344 C 
ATOM      7  O   UNL A   1      43.836  40.909  25.114  1.00  0.00    -0.248 OA
BRANCH   6   8
ATOM      8  C   UNL A   1      43.563  39.203  26.773  1.00  0.00     0.353 C 
BRANCH   8   9
ATOM      9  O   UNL A   1      44.293  38.718  27.896  1.00  0.00    -0.465 OA
BRANCH   9  10
ATOM     10  C   UNL A   1      44.418  37.366  27.721  1.00  0.00     0.233 A 
ATOM     11  N   UNL A   1      43.298  36.669  28.009  1.00  0.00    -0.220 NA
ATOM     12  C   UNL A   1      45.559  36.820  27.142  1.00  0.00     0.103 A 
ATOM     13  C   UNL A   1      43.281  35.371  27.644  1.00  0.00     0.128 A 
ATOM     14  C   UNL A   1      45.497  35.493  26.745  1.00  0.00     0.041 A 
ATOM     15  Cl  UNL A   1      47.003  37.710  26.869  1.00  0.00    -0.078 Cl
ATOM     16  C   UNL A   1      44.333  34.751  26.985  1.00  0.00     0.076 A 
BRANCH  16  17
ATOM     17  C   UNL A   1      44.226  33.312  26.596  1.00  0.00     0.417 C 
ATOM     18  F   UNL A   1      43.614  32.572  27.559  1.00  0.00    -0.166 F 
ATOM     19  F   UNL A   1      43.523  33.113  25.452  1.00  0.00    -0.166 F 
ATOM     20  F   UNL A   1      45.442  32.729  26.397  1.00  0.00    -0.166 F 
ENDBRANCH  16  17
ENDBRANCH   9  10
ENDBRANCH   8   9
ENDBRANCH   6   8
ENDBRANCH   5   6
ENDBRANCH   4   5
ENDBRANCH   3   4
ENDBRANCH   2   3
ENDBRANCH   1   2
BRANCH   1  21
ATOM     21  C   UNL A   1      47.479  42.847  31.830  1.00  0.00     0.188 C 
BRANCH  21  22
ATOM     22  O   UNL A   1      46.862  43.358  33.005  1.00  0.00    -0.376 OA
BRANCH  22  23
ATOM     23  C   UNL A   1      46.213  42.475  33.905  1.00  0.00     0.202 C 
BRANCH  23  24
ATOM     24  C   UNL A   1      44.681  42.532  34.022  1.00  0.00     0.261 C 
BRANCH  24  25
ATOM     25  O   UNL A   1      43.947  41.885  32.966  1.00  0.00    -0.460 OA
BRANCH  25  26
ATOM     26  C   UNL A   1      43.064  40.932  33.362  1.00  0.00     0.338 C 
ATOM     27  O   UNL A   1      41.960  41.119  33.840  1.00  0.00    -0.246 OA
BRANCH  26  28
ATOM     28  C   UNL A   1      43.537  39.578  32.970  1.00  0.00     0.060 A 
ATOM     29  C   UNL A   1      43.730  39.321  31.602  1.00  0.00     0.016 A 
ATOM     30  C   UNL A   1      43.726  38.557  33.902  1.00  0.00     0.016 A 
ATOM     31  C   UNL A   1      44.029  38.031  31.158  1.00  0.00     0.010 A 
ATOM     32  C   UNL A   1      44.006  37.257  33.453  1.00  0.00     0.010 A 
ATOM     33  C   UNL A   1      44.098  36.976  32.075  1.00  0.00    -0.014 A 
BRANCH  33  34
ATOM     34  C   UNL A   1      43.969  35.578  31.578  1.00  0.00     0.031 A 
ATOM     35  C   UNL A   1      45.177  34.949  30.924  1.00  0.00     0.074 A 
ATOM     36  C   UNL A   1      42.843  34.857  31.721  1.00  0.00     0.049 A 
ATOM     37  N   UNL A   1      45.324  33.753  30.417  1.00  0.00    -0.248 NA
ATOM     38  C   UNL A   1      46.381  35.793  30.827  1.00  0.00     0.031 C 
ATOM     39  C   UNL A   1      41.611  35.321  32.353  1.00  0.00     0.029 A 
ATOM     40  N   UNL A   1      42.554  33.572  31.322  1.00  0.00    -0.354 N 
ATOM     41  C   UNL A   1      46.616  33.714  29.906  1.00  0.00     0.074 A 
ATOM     42  C   UNL A   1      47.208  35.010  30.153  1.00  0.00     0.031 C 
ATOM     43  C   UNL A   1      40.691  34.342  32.282  1.00  0.00     0.029 A 
ATOM     44  C   UNL A   1      41.260  33.189  31.582  1.00  0.00     0.049 A 
ATOM     45  H   UNL A   1      43.213  32.983  30.889  1.00  0.00     0.167 HD
ATOM     46  C   UNL A   1      47.265  32.694  29.297  1.00  0.00     0.034 A 
ATOM     47  C   UNL A   1      40.607  32.046  31.282  1.00  0.00     0.034 A 
ATOM     48  C   UNL A   1      46.694  31.396  29.067  1.00  0.00     0.049 A 
ATOM     49  C   UNL A   1      41.344  30.929  30.581  1.00  0.00     0.074 A 
ATOM     50  C   UNL A   1      47.290  30.281  28.504  1.00  0.00     0.029 A 
ATOM     51  N   UNL A   1      45.390  31.041  29.371  1.00  0.00    -0.354 N 
ATOM     52  N   UNL A   1      42.598  30.870  30.204  1.00  0.00    -0.248 NA
ATOM     53  C   UNL A   1      40.579  29.704  30.298  1.00  0.00     0.031 C 
ATOM     54  C   UNL A   1      46.333  29.263  28.430  1.00  0.00     0.029 A 
ATOM     55  C   UNL A   1      45.156  29.729  28.995  1.00  0.00     0.049 A 
ATOM     56  H   UNL A   1      44.727  31.633  29.793  1.00  0.00     0.167 HD
ATOM     57  C   UNL A   1      42.786  29.588  29.695  1.00  0.00     0.074 A 
ATOM     58  C   UNL A   1      41.518  28.900  29.816  1.00  0.00     0.031 C 
ATOM     59  C   UNL A   1      43.909  29.031  29.173  1.00  0.00     0.034 A 
BRANCH  46  60
ATOM     60  C   UNL A   1      48.676  32.948  28.830  1.00  0.00     0.023 A 
ATOM     61  C   UNL A   1      49.763  32.698  29.692  1.00  0.00     0.012 A 
ATOM     62  C   UNL A   1      48.923  33.411  27.522  1.00  0.00     0.148 A 
ATOM     63  C   UNL A   1      51.070  32.949  29.277  1.00  0.00     0.002 A 
ATOM     64  C   UNL A   1      50.231  33.608  27.098  1.00  0.00     0.091 A 
ATOM     65  F   UNL A   1      47.877  33.667  26.725  1.00  0.00    -0.205 F 
ATOM     66  C   UNL A   1      51.304  33.394  27.979  1.00  0.00     0.022 A 
BRANCH  64  67
ATOM     67  S   UNL A   1      50.636  34.098  25.419  1.00  0.00     0.127 S 
ATOM     68  O   UNL A   1      51.024  32.822  24.823  1.00  0.00    -0.237 OA
ATOM     69  O   UNL A   1      49.360  34.633  24.940  1.00  0.00    -0.237 OA
ATOM     70  O   UNL A   1      51.700  35.086  25.534  1.00  0.00    -0.744 OA
ENDBRANCH  64  67
ENDBRANCH  46  60
BRANCH  47  71
ATOM     71  C   UNL A   1      39.183  31.866  31.688  1.00  0.00     0.023 A 
ATOM     72  C   UNL A   1      38.886  31.317  32.951  1.00  0.00     0.012 A 
ATOM     73  C   UNL A   1      38.126  32.229  30.831  1.00  0.00     0.148 A 
ATOM     74  C   UNL A   1      37.563  31.100  33.340  1.00  0.00     0.002 A 
ATOM     75  C   UNL A   1      36.809  32.063  31.248  1.00  0.00     0.091 A 
ATOM     76  F   UNL A   1      38.429  32.735  29.629  1.00  0.00    -0.205 F 
ATOM     77  C   UNL A   1      36.526  31.481  32.494  1.00  0.00     0.022 A 
BRANCH  75  78
ATOM     78  S   UNL A   1      35.407  32.632  30.281  1.00  0.00     0.127 S 
ATOM     79  O   UNL A   1      35.343  31.626  29.224  1.00  0.00    -0.237 OA
ATOM     80  O   UNL A   1      34.323  32.566  31.262  1.00  0.00    -0.237 OA
ATOM     81  O   UNL A   1      35.747  33.979  29.845  1.00  0.00    -0.744 OA
ENDBRANCH  75  78
ENDBRANCH  47  71
BRANCH  59  82
ATOM     82  C   UNL A   1      43.854  27.582  28.756  1.00  0.00     0.023 A 
ATOM     83  C   UNL A   1      44.326  26.571  29.615  1.00  0.00     0.012 A 
ATOM     84  C   UNL A   1      43.266  27.219  27.526  1.00  0.00     0.148 A 
ATOM     85  C   UNL A   1      44.251  25.228  29.241  1.00  0.00     0.002 A 
ATOM     86  C   UNL A   1      43.144  25.878  27.184  1.00  0.00     0.091 A 
ATOM     87  F   UNL A   1      42.837  28.194  26.710  1.00  0.00    -0.205 F 
ATOM     88  C   UNL A   1      43.650  24.881  28.033  1.00  0.00     0.022 A 
BRANCH  86  89
ATOM     89  S   UNL A   1      42.290  25.338  25.697  1.00  0.00     0.127 S 
ATOM     90  O   UNL A   1      42.732  26.334  24.723  1.00  0.00    -0.237 OA
ATOM     91  O   UNL A   1      42.840  23.998  25.491  1.00  0.00    -0.237 OA
ATOM     92  O   UNL A   1      40.870  25.363  26.021  1.00  0.00    -0.744 OA
ENDBRANCH  86  89
ENDBRANCH  59  82
ENDBRANCH  33  34
ENDBRANCH  26  28
ENDBRANCH  25  26
ENDBRANCH  24  25
ENDBRANCH  23  24
ENDBRANCH  22  23
ENDBRANCH  21  22
ENDBRANCH   1  21
TORSDOF 23
ENDMDL
