MODEL 1
REMARK VINA RESULT:     -10.4      0.000      0.000
REMARK SMILES O=C(OCCOCCOCCOC(=O)[C@@H]1C[C@@H](O)CN1C(=O)CSc1ccc(F)cc1F)c1ccc(-c2c3nc(c(-c4cccc(S(=O)(=O)[O-])c4F)c4ccc([nH]4)c(-c4cccc(S(=O)(=O)[O-])c4F)c4nc(c(-c5cccc(S(=O)(=O)[O-])c5F)c5ccc2[nH]5)C=C4)C=C3)cc1
REMARK SMILES IDX 8 1 7 2 6 3 5 4 4 5 3 6 2 7 1 8 33 9 34 10 95 11 35 12 94 13
REMARK SMILES IDX 36 14 37 15 38 16 88 17 39 18 93 19 87 20 89 21 40 22 92 23
REMARK SMILES IDX 86 24 85 25 41 27 73 28 53 29 72 30 54 31 57 32 71 33 90 34
REMARK SMILES IDX 55 35 56 36 70 38 91 39 58 40 42 41 43 42 51 43 44 44 46 45
REMARK SMILES IDX 52 46 45 47 47 48 48 49 49 50 50 51 74 52 75 53 83 54 76 55
REMARK SMILES IDX 78 56 84 57 77 58 79 59 80 60 81 61 82 62 59 63 60 64 68 65
REMARK SMILES IDX 61 66 63 67 69 68 62 69 64 70 65 71 66 72 67 73 9 74 10 75
REMARK SMILES IDX 11 76 12 77 13 78 14 79 15 80 16 81 20 82 17 83 19 84 21 85
REMARK SMILES IDX 22 86 23 87 24 88 25 89 26 90 31 91 27 92 30 93 32 94 28 95
REMARK SMILES IDX 29 96 18 97
REMARK H PARENT 89 26 57 37 18 98
REMARK Flexibility Score: inf
ROOT
ATOM      1  C   UNL A   1      35.497  21.682  25.886  1.00  0.00     0.188 C 
ENDROOT
BRANCH   1   2
ATOM      2  C   UNL A   1      35.684  20.448  25.025  1.00  0.00     0.188 C 
BRANCH   2   3
ATOM      3  O   UNL A   1      36.921  20.408  24.314  1.00  0.00    -0.376 OA
BRANCH   3   4
ATOM      4  C   UNL A   1      37.872  19.547  24.948  1.00  0.00     0.202 C 
BRANCH   4   5
ATOM      5  C   UNL A   1      38.960  20.216  25.821  1.00  0.00     0.261 C 
BRANCH   5   6
ATOM      6  O   UNL A   1      40.200  19.493  25.922  1.00  0.00    -0.460 OA
BRANCH   6   7
ATOM      7  C   UNL A   1      41.409  19.961  26.333  1.00  0.00     0.338 C 
ATOM      8  O   UNL A   1      42.300  19.143  26.554  1.00  0.00    -0.246 OA
BRANCH   7   9
ATOM      9  C   UNL A   1      41.673  21.404  26.660  1.00  0.00     0.060 A 
ATOM     10  C   UNL A   1      41.798  22.428  25.722  1.00  0.00     0.016 A 
ATOM     11  C   UNL A   1      41.763  21.759  28.021  1.00  0.00     0.016 A 
ATOM     12  C   UNL A   1      42.044  23.740  26.097  1.00  0.00     0.010 A 
ATOM     13  C   UNL A   1      41.995  23.086  28.413  1.00  0.00     0.010 A 
ATOM     14  C   UNL A   1      42.159  24.076  27.440  1.00  0.00    -0.014 A 
BRANCH  14  15
ATOM     15  C   UNL A   1      42.575  25.452  27.756  1.00  0.00     0.031 A 
ATOM     16  C   UNL A   1      43.943  25.890  27.342  1.00  0.00     0.074 A 
ATOM     17  C   UNL A   1      41.685  26.327  28.255  1.00  0.00     0.049 A 
ATOM     18  N   UNL A   1      44.475  27.077  27.413  1.00  0.00    -0.248 NA
ATOM     19  C   UNL A   1      44.804  24.873  26.713  1.00  0.00     0.031 C 
ATOM     20  C   UNL A   1      40.286  26.019  28.538  1.00  0.00     0.029 A 
ATOM     21  N   UNL A   1      41.811  27.642  28.611  1.00  0.00    -0.354 N 
ATOM     22  C   UNL A   1      45.728  26.958  26.832  1.00  0.00     0.074 A 
ATOM     23  C   UNL A   1      45.885  25.581  26.420  1.00  0.00     0.031 C 
ATOM     24  C   UNL A   1      39.698  27.089  29.096  1.00  0.00     0.029 A 
ATOM     25  C   UNL A   1      40.687  28.152  29.215  1.00  0.00     0.049 A 
ATOM     26  H   UNL A   1      42.627  28.169  28.452  1.00  0.00     0.167 HD
ATOM     27  C   UNL A   1      46.657  27.922  26.652  1.00  0.00     0.034 A 
ATOM     28  C   UNL A   1      40.496  29.338  29.822  1.00  0.00     0.034 A 
ATOM     29  C   UNL A   1      46.488  29.274  27.099  1.00  0.00     0.049 A 
ATOM     30  C   UNL A   1      41.611  30.341  29.757  1.00  0.00     0.074 A 
ATOM     31  C   UNL A   1      47.371  30.332  26.998  1.00  0.00     0.029 A 
ATOM     32  N   UNL A   1      45.366  29.745  27.768  1.00  0.00    -0.354 N 
ATOM     33  N   UNL A   1      42.763  30.241  29.137  1.00  0.00    -0.248 NA
ATOM     34  C   UNL A   1      41.395  31.629  30.426  1.00  0.00     0.031 C 
ATOM     35  C   UNL A   1      46.798  31.432  27.645  1.00  0.00     0.029 A 
ATOM     36  C   UNL A   1      45.545  31.070  28.116  1.00  0.00     0.049 A 
ATOM     37  H   UNL A   1      44.561  29.213  27.964  1.00  0.00     0.167 HD
ATOM     38  C   UNL A   1      43.388  31.469  29.294  1.00  0.00     0.074 A 
ATOM     39  C   UNL A   1      42.481  32.299  30.065  1.00  0.00     0.031 C 
ATOM     40  C   UNL A   1      44.599  31.877  28.845  1.00  0.00     0.034 A 
BRANCH  27  41
ATOM     41  C   UNL A   1      47.936  27.524  25.977  1.00  0.00     0.023 A 
ATOM     42  C   UNL A   1      49.023  27.059  26.743  1.00  0.00     0.012 A 
ATOM     43  C   UNL A   1      48.056  27.609  24.578  1.00  0.00     0.148 A 
ATOM     44  C   UNL A   1      50.222  26.703  26.126  1.00  0.00     0.002 A 
ATOM     45  C   UNL A   1      49.240  27.222  23.967  1.00  0.00     0.091 A 
ATOM     46  F   UNL A   1      47.016  28.083  23.879  1.00  0.00    -0.205 F 
ATOM     47  C   UNL A   1      50.328  26.778  24.739  1.00  0.00     0.022 A 
BRANCH  45  48
ATOM     48  S   UNL A   1      49.463  27.242  22.186  1.00  0.00     0.127 S 
ATOM     49  O   UNL A   1      50.892  26.955  22.065  1.00  0.00    -0.237 OA
ATOM     50  O   UNL A   1      48.582  26.156  21.759  1.00  0.00    -0.237 OA
ATOM     51  O   UNL A   1      49.063  28.570  21.743  1.00  0.00    -0.744 OA
ENDBRANCH  45  48
ENDBRANCH  27  41
BRANCH  28  52
ATOM     52  C   UNL A   1      39.227  29.625  30.548  1.00  0.00     0.023 A 
ATOM     53  C   UNL A   1      38.998  29.101  31.834  1.00  0.00     0.012 A 
ATOM     54  C   UNL A   1      38.231  30.420  29.949  1.00  0.00     0.148 A 
ATOM     55  C   UNL A   1      37.786  29.333  32.490  1.00  0.00     0.002 A 
ATOM     56  C   UNL A   1      37.052  30.694  30.630  1.00  0.00     0.091 A 
ATOM     57  F   UNL A   1      38.451  30.899  28.715  1.00  0.00    -0.205 F 
ATOM     58  C   UNL A   1      36.815  30.135  31.894  1.00  0.00     0.022 A 
BRANCH  56  59
ATOM     59  S   UNL A   1      35.848  31.848  29.966  1.00  0.00     0.127 S 
ATOM     60  O   UNL A   1      36.686  32.983  29.603  1.00  0.00    -0.237 OA
ATOM     61  O   UNL A   1      35.291  31.100  28.840  1.00  0.00    -0.237 OA
ATOM     62  O   UNL A   1      34.901  32.057  31.062  1.00  0.00    -0.744 OA
ENDBRANCH  56  59
ENDBRANCH  28  52
BRANCH  40  63
ATOM     63  C   UNL A   1      44.994  33.294  29.140  1.00  0.00     0.023 A 
ATOM     64  C   UNL A   1      45.697  33.597  30.322  1.00  0.00     0.012 A 
ATOM     65  C   UNL A   1      44.737  34.310  28.200  1.00  0.00     0.148 A 
ATOM     66  C   UNL A   1      46.115  34.900  30.577  1.00  0.00     0.002 A 
ATOM     67  C   UNL A   1      45.207  35.594  28.434  1.00  0.00     0.091 A 
ATOM     68  F   UNL A   1      44.045  33.999  27.094  1.00  0.00    -0.205 F 
ATOM     69  C   UNL A   1      45.884  35.894  29.628  1.00  0.00     0.022 A 
BRANCH  67  70
ATOM     70  S   UNL A   1      45.051  36.904  27.219  1.00  0.00     0.127 S 
ATOM     71  O   UNL A   1      45.463  38.076  27.989  1.00  0.00    -0.237 OA
ATOM     72  O   UNL A   1      46.001  36.485  26.188  1.00  0.00    -0.237 OA
ATOM     73  O   UNL A   1      43.657  36.893  26.794  1.00  0.00    -0.744 OA
ENDBRANCH  67  70
ENDBRANCH  40  63
ENDBRANCH  14  15
ENDBRANCH   7   9
ENDBRANCH   6   7
ENDBRANCH   5   6
ENDBRANCH   4   5
ENDBRANCH   3   4
ENDBRANCH   2   3
ENDBRANCH   1   2
BRANCH   1  74
ATOM     74  O   UNL A   1      34.767  21.478  27.086  1.00  0.00    -0.376 OA
BRANCH  74  75
ATOM     75  C   UNL A   1      34.147  22.627  27.640  1.00  0.00     0.202 C 
BRANCH  75  76
ATOM     76  C   UNL A   1      32.610  22.704  27.574  1.00  0.00     0.261 C 
BRANCH  76  77
ATOM     77  O   UNL A   1      32.081  23.468  26.483  1.00  0.00    -0.462 OA
BRANCH  77  78
ATOM     78  C   UNL A   1      30.994  22.927  25.846  1.00  0.00     0.329 C 
ATOM     79  O   UNL A   1      29.954  22.637  26.424  1.00  0.00    -0.250 OA
BRANCH  78  80
ATOM     80  C   UNL A   1      31.228  22.769  24.316  1.00  0.00     0.197 C 
ATOM     81  C   UNL A   1      32.307  21.715  24.019  1.00  0.00     0.070 C 
ATOM     82  N   UNL A   1      31.647  23.907  23.448  1.00  0.00    -0.325 N 
ATOM     83  C   UNL A   1      32.581  21.895  22.538  1.00  0.00     0.136 C 
ATOM     84  C   UNL A   1      32.534  23.420  22.385  1.00  0.00     0.152 C 
BRANCH  82  85
ATOM     85  C   UNL A   1      31.006  25.129  23.461  1.00  0.00     0.233 C 
ATOM     86  O   UNL A   1      29.827  25.213  23.816  1.00  0.00    -0.274 OA
BRANCH  85  87
ATOM     87  C   UNL A   1      31.684  26.398  22.934  1.00  0.00     0.175 C 
BRANCH  87  88
ATOM     88  S   UNL A   1      31.926  27.790  24.085  1.00  0.00    -0.113 SA
BRANCH  88  89
ATOM     89  C   UNL A   1      30.635  28.930  23.636  1.00  0.00     0.044 A 
ATOM     90  C   UNL A   1      29.692  28.498  22.704  1.00  0.00     0.021 A 
ATOM     91  C   UNL A   1      30.419  30.160  24.265  1.00  0.00     0.139 A 
ATOM     92  C   UNL A   1      28.618  29.312  22.329  1.00  0.00     0.040 A 
ATOM     93  C   UNL A   1      29.334  30.970  23.923  1.00  0.00     0.079 A 
ATOM     94  F   UNL A   1      31.232  30.572  25.250  1.00  0.00    -0.206 F 
ATOM     95  C   UNL A   1      28.455  30.546  22.937  1.00  0.00     0.126 A 
ATOM     96  F   UNL A   1      27.420  31.322  22.587  1.00  0.00    -0.207 F 
ENDBRANCH  88  89
ENDBRANCH  87  88
ENDBRANCH  85  87
ENDBRANCH  82  85
BRANCH  83  97
ATOM     97  O   UNL A   1      31.546  21.312  21.761  1.00  0.00    -0.391 OA
ATOM     98  H   UNL A   1      31.875  21.131  20.867  1.00  0.00     0.211 HD
ENDBRANCH  83  97
ENDBRANCH  78  80
ENDBRANCH  77  78
ENDBRANCH  76  77
ENDBRANCH  75  76
ENDBRANCH  74  75
ENDBRANCH   1  74
TORSDOF 25
ENDMDL
MODEL 2
REMARK VINA RESULT:     -10.2      5.381      9.415
REMARK SMILES O=C(OCCOCCOCCOC(=O)[C@@H]1C[C@@H](O)CN1C(=O)CSc1ccc(F)cc1F)c1ccc(-c2c3nc(c(-c4cccc(S(=O)(=O)[O-])c4F)c4ccc([nH]4)c(-c4cccc(S(=O)(=O)[O-])c4F)c4nc(c(-c5cccc(S(=O)(=O)[O-])c5F)c5ccc2[nH]5)C=C4)C=C3)cc1
REMARK SMILES IDX 8 1 7 2 6 3 5 4 4 5 3 6 2 7 1 8 33 9 34 10 95 11 35 12 94 13
REMARK SMILES IDX 36 14 37 15 38 16 88 17 39 18 93 19 87 20 89 21 40 22 92 23
REMARK SMILES IDX 86 24 85 25 41 27 73 28 53 29 72 30 54 31 57 32 71 33 90 34
REMARK SMILES IDX 55 35 56 36 70 38 91 39 58 40 42 41 43 42 51 43 44 44 46 45
REMARK SMILES IDX 52 46 45 47 47 48 48 49 49 50 50 51 74 52 75 53 83 54 76 55
REMARK SMILES IDX 78 56 84 57 77 58 79 59 80 60 81 61 82 62 59 63 60 64 68 65
REMARK SMILES IDX 61 66 63 67 69 68 62 69 64 70 65 71 66 72 67 73 9 74 10 75
REMARK SMILES IDX 11 76 12 77 13 78 14 79 15 80 16 81 20 82 17 83 19 84 21 85
REMARK SMILES IDX 22 86 23 87 24 88 25 89 26 90 31 91 27 92 30 93 32 94 28 95
REMARK SMILES IDX 29 96 18 97
REMARK H PARENT 89 26 57 37 18 98
REMARK Flexibility Score: inf
ROOT
ATOM      1  C   UNL A   1      39.412  22.057  26.375  1.00  0.00     0.188 C 
ENDROOT
BRANCH   1   2
ATOM      2  C   UNL A   1      40.122  20.776  25.984  1.00  0.00     0.188 C 
BRANCH   2   3
ATOM      3  O   UNL A   1      40.924  20.207  27.020  1.00  0.00    -0.376 OA
BRANCH   3   4
ATOM      4  C   UNL A   1      42.146  20.928  27.203  1.00  0.00     0.202 C 
BRANCH   4   5
ATOM      5  C   UNL A   1      42.986  21.231  25.939  1.00  0.00     0.261 C 
BRANCH   5   6
ATOM      6  O   UNL A   1      43.797  22.418  26.008  1.00  0.00    -0.460 OA
BRANCH   6   7
ATOM      7  C   UNL A   1      43.451  23.687  25.665  1.00  0.00     0.338 C 
ATOM      8  O   UNL A   1      43.661  24.050  24.509  1.00  0.00    -0.246 OA
BRANCH   7   9
ATOM      9  C   UNL A   1      42.956  24.708  26.651  1.00  0.00     0.060 A 
ATOM     10  C   UNL A   1      43.490  25.984  26.819  1.00  0.00     0.016 A 
ATOM     11  C   UNL A   1      41.841  24.363  27.443  1.00  0.00     0.016 A 
ATOM     12  C   UNL A   1      42.982  26.875  27.752  1.00  0.00     0.010 A 
ATOM     13  C   UNL A   1      41.308  25.262  28.379  1.00  0.00     0.010 A 
ATOM     14  C   UNL A   1      41.900  26.517  28.547  1.00  0.00    -0.014 A 
BRANCH  14  15
ATOM     15  C   UNL A   1      41.516  27.450  29.620  1.00  0.00     0.031 A 
ATOM     16  C   UNL A   1      40.262  28.243  29.453  1.00  0.00     0.074 A 
ATOM     17  C   UNL A   1      42.196  27.457  30.779  1.00  0.00     0.049 A 
ATOM     18  N   UNL A   1      39.675  29.031  30.309  1.00  0.00    -0.248 NA
ATOM     19  C   UNL A   1      39.539  28.085  28.178  1.00  0.00     0.031 C 
ATOM     20  C   UNL A   1      43.337  26.596  31.079  1.00  0.00     0.029 A 
ATOM     21  N   UNL A   1      42.036  28.199  31.917  1.00  0.00    -0.354 N 
ATOM     22  C   UNL A   1      38.513  29.458  29.685  1.00  0.00     0.074 A 
ATOM     23  C   UNL A   1      38.477  28.851  28.374  1.00  0.00     0.031 C 
ATOM     24  C   UNL A   1      43.826  26.910  32.289  1.00  0.00     0.029 A 
ATOM     25  C   UNL A   1      43.033  28.000  32.842  1.00  0.00     0.049 A 
ATOM     26  H   UNL A   1      41.281  28.816  32.058  1.00  0.00     0.167 HD
ATOM     27  C   UNL A   1      37.558  30.278  30.176  1.00  0.00     0.034 A 
ATOM     28  C   UNL A   1      43.287  28.652  33.992  1.00  0.00     0.034 A 
ATOM     29  C   UNL A   1      37.635  30.893  31.471  1.00  0.00     0.049 A 
ATOM     30  C   UNL A   1      42.294  29.686  34.439  1.00  0.00     0.074 A 
ATOM     31  C   UNL A   1      36.742  31.763  32.065  1.00  0.00     0.029 A 
ATOM     32  N   UNL A   1      38.689  30.725  32.357  1.00  0.00    -0.354 N 
ATOM     33  N   UNL A   1      41.159  30.025  33.876  1.00  0.00    -0.248 NA
ATOM     34  C   UNL A   1      42.583  30.395  35.691  1.00  0.00     0.031 C 
ATOM     35  C   UNL A   1      37.279  32.156  33.295  1.00  0.00     0.029 A 
ATOM     36  C   UNL A   1      38.489  31.502  33.482  1.00  0.00     0.049 A 
ATOM     37  H   UNL A   1      39.466  30.139  32.207  1.00  0.00     0.167 HD
ATOM     38  C   UNL A   1      40.571  30.946  34.729  1.00  0.00     0.074 A 
ATOM     39  C   UNL A   1      41.476  31.107  35.851  1.00  0.00     0.031 C 
ATOM     40  C   UNL A   1      39.392  31.601  34.601  1.00  0.00     0.034 A 
BRANCH  27  41
ATOM     41  C   UNL A   1      36.384  30.571  29.290  1.00  0.00     0.023 A 
ATOM     42  C   UNL A   1      35.748  29.526  28.592  1.00  0.00     0.012 A 
ATOM     43  C   UNL A   1      35.909  31.888  29.156  1.00  0.00     0.148 A 
ATOM     44  C   UNL A   1      34.666  29.793  27.753  1.00  0.00     0.002 A 
ATOM     45  C   UNL A   1      34.811  32.142  28.346  1.00  0.00     0.091 A 
ATOM     46  F   UNL A   1      36.552  32.866  29.810  1.00  0.00    -0.205 F 
ATOM     47  C   UNL A   1      34.194  31.098  27.636  1.00  0.00     0.022 A 
BRANCH  45  48
ATOM     48  S   UNL A   1      34.102  33.780  28.160  1.00  0.00     0.127 S 
ATOM     49  O   UNL A   1      32.795  33.471  27.582  1.00  0.00    -0.237 OA
ATOM     50  O   UNL A   1      34.062  34.251  29.544  1.00  0.00    -0.237 OA
ATOM     51  O   UNL A   1      35.004  34.515  27.285  1.00  0.00    -0.744 OA
ENDBRANCH  45  48
ENDBRANCH  27  41
BRANCH  28  52
ATOM     52  C   UNL A   1      44.523  28.363  34.772  1.00  0.00     0.023 A 
ATOM     53  C   UNL A   1      45.740  28.991  34.451  1.00  0.00     0.012 A 
ATOM     54  C   UNL A   1      44.489  27.448  35.841  1.00  0.00     0.148 A 
ATOM     55  C   UNL A   1      46.907  28.680  35.155  1.00  0.00     0.002 A 
ATOM     56  C   UNL A   1      45.640  27.186  36.573  1.00  0.00     0.091 A 
ATOM     57  F   UNL A   1      43.327  26.841  36.127  1.00  0.00    -0.205 F 
ATOM     58  C   UNL A   1      46.858  27.784  36.221  1.00  0.00     0.022 A 
BRANCH  56  59
ATOM     59  S   UNL A   1      45.585  26.163  38.047  1.00  0.00     0.127 S 
ATOM     60  O   UNL A   1      46.994  26.082  38.411  1.00  0.00    -0.237 OA
ATOM     61  O   UNL A   1      44.755  26.961  38.948  1.00  0.00    -0.237 OA
ATOM     62  O   UNL A   1      44.950  24.921  37.605  1.00  0.00    -0.744 OA
ENDBRANCH  56  59
ENDBRANCH  28  52
BRANCH  40  63
ATOM     63  C   UNL A   1      38.996  32.519  35.720  1.00  0.00     0.023 A 
ATOM     64  C   UNL A   1      38.130  32.061  36.731  1.00  0.00     0.012 A 
ATOM     65  C   UNL A   1      39.551  33.809  35.806  1.00  0.00     0.148 A 
ATOM     66  C   UNL A   1      37.800  32.888  37.801  1.00  0.00     0.002 A 
ATOM     67  C   UNL A   1      39.264  34.606  36.904  1.00  0.00     0.091 A 
ATOM     68  F   UNL A   1      40.355  34.229  34.817  1.00  0.00    -0.205 F 
ATOM     69  C   UNL A   1      38.377  34.153  37.896  1.00  0.00     0.022 A 
BRANCH  67  70
ATOM     70  S   UNL A   1      40.049  36.198  37.161  1.00  0.00     0.127 S 
ATOM     71  O   UNL A   1      39.835  36.848  35.870  1.00  0.00    -0.237 OA
ATOM     72  O   UNL A   1      39.267  36.755  38.265  1.00  0.00    -0.237 OA
ATOM     73  O   UNL A   1      41.439  35.910  37.493  1.00  0.00    -0.744 OA
ENDBRANCH  67  70
ENDBRANCH  40  63
ENDBRANCH  14  15
ENDBRANCH   7   9
ENDBRANCH   6   7
ENDBRANCH   5   6
ENDBRANCH   4   5
ENDBRANCH   3   4
ENDBRANCH   2   3
ENDBRANCH   1   2
BRANCH   1  74
ATOM     74  O   UNL A   1      38.272  22.380  25.595  1.00  0.00    -0.376 OA
BRANCH  74  75
ATOM     75  C   UNL A   1      37.375  23.320  26.163  1.00  0.00     0.202 C 
BRANCH  75  76
ATOM     76  C   UNL A   1      35.884  23.188  25.796  1.00  0.00     0.261 C 
BRANCH  76  77
ATOM     77  O   UNL A   1      35.468  23.932  24.644  1.00  0.00    -0.462 OA
BRANCH  77  78
ATOM     78  C   UNL A   1      34.413  24.788  24.835  1.00  0.00     0.329 C 
ATOM     79  O   UNL A   1      33.947  25.042  25.939  1.00  0.00    -0.250 OA
BRANCH  78  80
ATOM     80  C   UNL A   1      33.918  25.417  23.501  1.00  0.00     0.197 C 
ATOM     81  C   UNL A   1      33.332  26.821  23.725  1.00  0.00     0.070 C 
ATOM     82  N   UNL A   1      32.881  24.772  22.646  1.00  0.00    -0.325 N 
ATOM     83  C   UNL A   1      32.675  27.148  22.399  1.00  0.00     0.136 C 
ATOM     84  C   UNL A   1      32.054  25.802  22.006  1.00  0.00     0.152 C 
BRANCH  82  85
ATOM     85  C   UNL A   1      32.946  23.446  22.269  1.00  0.00     0.233 C 
ATOM     86  O   UNL A   1      33.676  23.097  21.336  1.00  0.00    -0.274 OA
BRANCH  85  87
ATOM     87  C   UNL A   1      32.043  22.384  22.903  1.00  0.00     0.175 C 
BRANCH  87  88
ATOM     88  S   UNL A   1      32.502  21.725  24.539  1.00  0.00    -0.113 SA
BRANCH  88  89
ATOM     89  C   UNL A   1      32.977  20.044  24.191  1.00  0.00     0.044 A 
ATOM     90  C   UNL A   1      32.215  19.341  23.258  1.00  0.00     0.021 A 
ATOM     91  C   UNL A   1      34.143  19.442  24.672  1.00  0.00     0.139 A 
ATOM     92  C   UNL A   1      32.546  18.033  22.891  1.00  0.00     0.040 A 
ATOM     93  C   UNL A   1      34.503  18.148  24.291  1.00  0.00     0.079 A 
ATOM     94  F   UNL A   1      34.973  20.117  25.483  1.00  0.00    -0.206 F 
ATOM     95  C   UNL A   1      33.683  17.445  23.420  1.00  0.00     0.126 A 
ATOM     96  F   UNL A   1      34.007  16.196  23.060  1.00  0.00    -0.207 F 
ENDBRANCH  88  89
ENDBRANCH  87  88
ENDBRANCH  85  87
ENDBRANCH  82  85
BRANCH  83  97
ATOM     97  O   UNL A   1      33.649  27.515  21.433  1.00  0.00    -0.391 OA
ATOM     98  H   UNL A   1      34.508  27.634  21.868  1.00  0.00     0.211 HD
ENDBRANCH  83  97
ENDBRANCH  78  80
ENDBRANCH  77  78
ENDBRANCH  76  77
ENDBRANCH  75  76
ENDBRANCH  74  75
ENDBRANCH   1  74
TORSDOF 25
ENDMDL
MODEL 3
REMARK VINA RESULT:      -9.8      5.807      9.189
REMARK SMILES O=C(OCCOCCOCCOC(=O)[C@@H]1C[C@@H](O)CN1C(=O)CSc1ccc(F)cc1F)c1ccc(-c2c3nc(c(-c4cccc(S(=O)(=O)[O-])c4F)c4ccc([nH]4)c(-c4cccc(S(=O)(=O)[O-])c4F)c4nc(c(-c5cccc(S(=O)(=O)[O-])c5F)c5ccc2[nH]5)C=C4)C=C3)cc1
REMARK SMILES IDX 8 1 7 2 6 3 5 4 4 5 3 6 2 7 1 8 33 9 34 10 95 11 35 12 94 13
REMARK SMILES IDX 36 14 37 15 38 16 88 17 39 18 93 19 87 20 89 21 40 22 92 23
REMARK SMILES IDX 86 24 85 25 41 27 73 28 53 29 72 30 54 31 57 32 71 33 90 34
REMARK SMILES IDX 55 35 56 36 70 38 91 39 58 40 42 41 43 42 51 43 44 44 46 45
REMARK SMILES IDX 52 46 45 47 47 48 48 49 49 50 50 51 74 52 75 53 83 54 76 55
REMARK SMILES IDX 78 56 84 57 77 58 79 59 80 60 81 61 82 62 59 63 60 64 68 65
REMARK SMILES IDX 61 66 63 67 69 68 62 69 64 70 65 71 66 72 67 73 9 74 10 75
REMARK SMILES IDX 11 76 12 77 13 78 14 79 15 80 16 81 20 82 17 83 19 84 21 85
REMARK SMILES IDX 22 86 23 87 24 88 25 89 26 90 31 91 27 92 30 93 32 94 28 95
REMARK SMILES IDX 29 96 18 97
REMARK H PARENT 89 26 57 37 18 98
REMARK Flexibility Score: inf
ROOT
ATOM      1  C   UNL A   1      31.731  29.602  25.969  1.00  0.00     0.188 C 
ENDROOT
BRANCH   1   2
ATOM      2  C   UNL A   1      32.005  30.984  26.530  1.00  0.00     0.188 C 
BRANCH   2   3
ATOM      3  O   UNL A   1      33.274  31.119  27.171  1.00  0.00    -0.376 OA
BRANCH   3   4
ATOM      4  C   UNL A   1      33.292  32.216  28.089  1.00  0.00     0.202 C 
BRANCH   4   5
ATOM      5  C   UNL A   1      32.949  33.616  27.528  1.00  0.00     0.261 C 
BRANCH   5   6
ATOM      6  O   UNL A   1      32.525  34.585  28.503  1.00  0.00    -0.460 OA
BRANCH   6   7
ATOM      7  C   UNL A   1      33.140  34.922  29.668  1.00  0.00     0.338 C 
ATOM      8  O   UNL A   1      32.806  35.972  30.214  1.00  0.00    -0.246 OA
BRANCH   7   9
ATOM      9  C   UNL A   1      34.294  34.155  30.249  1.00  0.00     0.060 A 
ATOM     10  C   UNL A   1      34.197  33.219  31.278  1.00  0.00     0.016 A 
ATOM     11  C   UNL A   1      35.569  34.367  29.687  1.00  0.00     0.016 A 
ATOM     12  C   UNL A   1      35.307  32.548  31.768  1.00  0.00     0.010 A 
ATOM     13  C   UNL A   1      36.697  33.683  30.163  1.00  0.00     0.010 A 
ATOM     14  C   UNL A   1      36.564  32.785  31.225  1.00  0.00    -0.014 A 
BRANCH  14  15
ATOM     15  C   UNL A   1      37.715  32.158  31.897  1.00  0.00     0.031 A 
ATOM     16  C   UNL A   1      38.409  31.029  31.207  1.00  0.00     0.074 A 
ATOM     17  C   UNL A   1      38.216  32.700  33.020  1.00  0.00     0.049 A 
ATOM     18  N   UNL A   1      39.501  30.408  31.553  1.00  0.00    -0.248 NA
ATOM     19  C   UNL A   1      37.831  30.576  29.928  1.00  0.00     0.031 C 
ATOM     20  C   UNL A   1      37.691  33.898  33.670  1.00  0.00     0.029 A 
ATOM     21  N   UNL A   1      39.267  32.329  33.813  1.00  0.00    -0.354 N 
ATOM     22  C   UNL A   1      39.750  29.499  30.537  1.00  0.00     0.074 A 
ATOM     23  C   UNL A   1      38.692  29.638  29.562  1.00  0.00     0.031 C 
ATOM     24  C   UNL A   1      38.372  34.124  34.804  1.00  0.00     0.029 A 
ATOM     25  C   UNL A   1      39.373  33.078  34.961  1.00  0.00     0.049 A 
ATOM     26  H   UNL A   1      39.885  31.598  33.584  1.00  0.00     0.167 HD
ATOM     27  C   UNL A   1      40.781  28.633  30.430  1.00  0.00     0.034 A 
ATOM     28  C   UNL A   1      40.175  32.910  36.030  1.00  0.00     0.034 A 
ATOM     29  C   UNL A   1      41.802  28.494  31.429  1.00  0.00     0.049 A 
ATOM     30  C   UNL A   1      41.210  31.826  35.960  1.00  0.00     0.074 A 
ATOM     31  C   UNL A   1      42.881  27.631  31.443  1.00  0.00     0.029 A 
ATOM     32  N   UNL A   1      41.845  29.218  32.612  1.00  0.00    -0.354 N 
ATOM     33  N   UNL A   1      41.484  31.022  34.959  1.00  0.00    -0.248 NA
ATOM     34  C   UNL A   1      42.075  31.648  37.132  1.00  0.00     0.031 C 
ATOM     35  C   UNL A   1      43.553  27.805  32.658  1.00  0.00     0.029 A 
ATOM     36  C   UNL A   1      42.913  28.800  33.382  1.00  0.00     0.049 A 
ATOM     37  H   UNL A   1      41.209  29.925  32.865  1.00  0.00     0.167 HD
ATOM     38  C   UNL A   1      42.585  30.280  35.359  1.00  0.00     0.074 A 
ATOM     39  C   UNL A   1      42.931  30.735  36.691  1.00  0.00     0.031 C 
ATOM     40  C   UNL A   1      43.252  29.310  34.687  1.00  0.00     0.034 A 
BRANCH  27  41
ATOM     41  C   UNL A   1      40.821  27.760  29.210  1.00  0.00     0.023 A 
ATOM     42  C   UNL A   1      40.001  26.618  29.134  1.00  0.00     0.012 A 
ATOM     43  C   UNL A   1      41.671  28.081  28.137  1.00  0.00     0.148 A 
ATOM     44  C   UNL A   1      40.044  25.791  28.011  1.00  0.00     0.002 A 
ATOM     45  C   UNL A   1      41.684  27.273  27.009  1.00  0.00     0.091 A 
ATOM     46  F   UNL A   1      42.461  29.158  28.251  1.00  0.00    -0.205 F 
ATOM     47  C   UNL A   1      40.879  26.123  26.947  1.00  0.00     0.022 A 
BRANCH  45  48
ATOM     48  S   UNL A   1      42.694  27.635  25.569  1.00  0.00     0.127 S 
ATOM     49  O   UNL A   1      42.073  28.865  25.077  1.00  0.00    -0.237 OA
ATOM     50  O   UNL A   1      44.017  27.815  26.166  1.00  0.00    -0.237 OA
ATOM     51  O   UNL A   1      42.567  26.485  24.686  1.00  0.00    -0.744 OA
ENDBRANCH  45  48
ENDBRANCH  27  41
BRANCH  28  52
ATOM     52  C   UNL A   1      40.014  33.763  37.240  1.00  0.00     0.023 A 
ATOM     53  C   UNL A   1      40.626  35.027  37.318  1.00  0.00     0.012 A 
ATOM     54  C   UNL A   1      39.250  33.308  38.332  1.00  0.00     0.148 A 
ATOM     55  C   UNL A   1      40.512  35.802  38.476  1.00  0.00     0.002 A 
ATOM     56  C   UNL A   1      39.093  34.107  39.457  1.00  0.00     0.091 A 
ATOM     57  F   UNL A   1      38.685  32.093  38.255  1.00  0.00    -0.205 F 
ATOM     58  C   UNL A   1      39.740  35.348  39.543  1.00  0.00     0.022 A 
BRANCH  56  59
ATOM     59  S   UNL A   1      37.982  33.629  40.783  1.00  0.00     0.127 S 
ATOM     60  O   UNL A   1      38.658  32.463  41.337  1.00  0.00    -0.237 OA
ATOM     61  O   UNL A   1      37.988  34.816  41.637  1.00  0.00    -0.237 OA
ATOM     62  O   UNL A   1      36.702  33.387  40.117  1.00  0.00    -0.744 OA
ENDBRANCH  56  59
ENDBRANCH  28  52
BRANCH  40  63
ATOM     63  C   UNL A   1      44.446  28.707  35.368  1.00  0.00     0.023 A 
ATOM     64  C   UNL A   1      45.742  29.135  35.024  1.00  0.00     0.012 A 
ATOM     65  C   UNL A   1      44.270  27.773  36.407  1.00  0.00     0.148 A 
ATOM     66  C   UNL A   1      46.852  28.620  35.688  1.00  0.00     0.002 A 
ATOM     67  C   UNL A   1      45.376  27.308  37.102  1.00  0.00     0.091 A 
ATOM     68  F   UNL A   1      43.026  27.364  36.698  1.00  0.00    -0.205 F 
ATOM     69  C   UNL A   1      46.669  27.719  36.736  1.00  0.00     0.022 A 
BRANCH  67  70
ATOM     70  S   UNL A   1      45.223  26.236  38.533  1.00  0.00     0.127 S 
ATOM     71  O   UNL A   1      46.493  26.470  39.218  1.00  0.00    -0.237 OA
ATOM     72  O   UNL A   1      44.051  26.790  39.211  1.00  0.00    -0.237 OA
ATOM     73  O   UNL A   1      45.035  24.890  38.007  1.00  0.00    -0.744 OA
ENDBRANCH  67  70
ENDBRANCH  40  63
ENDBRANCH  14  15
ENDBRANCH   7   9
ENDBRANCH   6   7
ENDBRANCH   5   6
ENDBRANCH   4   5
ENDBRANCH   3   4
ENDBRANCH   2   3
ENDBRANCH   1   2
BRANCH   1  74
ATOM     74  O   UNL A   1      31.594  28.573  26.937  1.00  0.00    -0.376 OA
BRANCH  74  75
ATOM     75  C   UNL A   1      32.274  27.361  26.657  1.00  0.00     0.202 C 
BRANCH  75  76
ATOM     76  C   UNL A   1      33.709  27.463  26.108  1.00  0.00     0.261 C 
BRANCH  76  77
ATOM     77  O   UNL A   1      33.943  26.778  24.871  1.00  0.00    -0.462 OA
BRANCH  77  78
ATOM     78  C   UNL A   1      34.092  25.417  24.961  1.00  0.00     0.329 C 
ATOM     79  O   UNL A   1      35.153  24.877  25.252  1.00  0.00    -0.250 OA
BRANCH  78  80
ATOM     80  C   UNL A   1      32.759  24.661  24.694  1.00  0.00     0.197 C 
ATOM     81  C   UNL A   1      32.682  23.356  25.503  1.00  0.00     0.070 C 
ATOM     82  N   UNL A   1      32.349  24.215  23.332  1.00  0.00    -0.325 N 
ATOM     83  C   UNL A   1      31.475  22.648  24.921  1.00  0.00     0.136 C 
ATOM     84  C   UNL A   1      31.616  22.947  23.424  1.00  0.00     0.152 C 
BRANCH  82  85
ATOM     85  C   UNL A   1      32.363  25.056  22.238  1.00  0.00     0.233 C 
ATOM     86  O   UNL A   1      33.047  24.783  21.246  1.00  0.00    -0.274 OA
BRANCH  85  87
ATOM     87  C   UNL A   1      31.632  26.403  22.250  1.00  0.00     0.175 C 
BRANCH  87  88
ATOM     88  S   UNL A   1      30.311  26.658  23.479  1.00  0.00    -0.113 SA
BRANCH  88  89
ATOM     89  C   UNL A   1      29.499  28.138  22.915  1.00  0.00     0.044 A 
ATOM     90  C   UNL A   1      28.125  28.241  23.132  1.00  0.00     0.021 A 
ATOM     91  C   UNL A   1      30.169  29.258  22.412  1.00  0.00     0.139 A 
ATOM     92  C   UNL A   1      27.417  29.389  22.762  1.00  0.00     0.040 A 
ATOM     93  C   UNL A   1      29.479  30.422  22.067  1.00  0.00     0.079 A 
ATOM     94  F   UNL A   1      31.505  29.253  22.290  1.00  0.00    -0.206 F 
ATOM     95  C   UNL A   1      28.101  30.467  22.224  1.00  0.00     0.126 A 
ATOM     96  F   UNL A   1      27.426  31.571  21.880  1.00  0.00    -0.207 F 
ENDBRANCH  88  89
ENDBRANCH  87  88
ENDBRANCH  85  87
ENDBRANCH  82  85
BRANCH  83  97
ATOM     97  O   UNL A   1      30.272  23.226  25.404  1.00  0.00    -0.391 OA
ATOM     98  H   UNL A   1      29.566  22.561  25.395  1.00  0.00     0.211 HD
ENDBRANCH  83  97
ENDBRANCH  78  80
ENDBRANCH  77  78
ENDBRANCH  76  77
ENDBRANCH  75  76
ENDBRANCH  74  75
ENDBRANCH   1  74
TORSDOF 25
ENDMDL
