MODEL 1
REMARK VINA RESULT:     -10.3      0.000      0.000
REMARK SMILES Cc1nn(C)c(C)c1CNC(=O)N[C@H]1CC[C@@H](C(=O)OCCOCCOCCOC(=O)c2ccc(-c3c4nc(c(-c5cccc(S(=O)(=O)[O-])c5F)c5ccc([nH]5)c(-c5cccc(S(=O)(=O)[O-])c5F)c5nc(c(-c6cccc(S(=O)(=O)[O-])c6F)c6ccc3[nH]6)C=C5)C=C4)cc2)C1
REMARK SMILES IDX 24 1 23 2 22 3 21 4 20 5 18 6 19 7 17 8 14 9 15 10 95 11
REMARK SMILES IDX 16 12 13 13 10 14 11 15 12 17 9 19 8 20 1 21 2 22 3 23 4 24
REMARK SMILES IDX 6 25 5 26 7 27 25 28 26 29 27 30 28 31 29 32 30 33 31 34
REMARK SMILES IDX 32 35 33 36 94 37 34 38 93 39 35 40 36 41 37 42 87 43 38 44
REMARK SMILES IDX 92 45 86 46 88 47 39 48 91 49 85 50 84 51 40 53 72 54 52 55
REMARK SMILES IDX 71 56 53 57 56 58 70 59 89 60 54 61 55 62 69 64 90 65 57 66
REMARK SMILES IDX 41 67 42 68 50 69 43 70 45 71 51 72 44 73 46 74 47 75 48 76
REMARK SMILES IDX 49 77 73 78 74 79 82 80 75 81 77 82 83 83 76 84 78 85 79 86
REMARK SMILES IDX 80 87 81 88 58 89 59 90 67 91 60 92 62 93 68 94 61 95 63 96
REMARK SMILES IDX 64 97 65 98 66 99
REMARK H PARENT 10 16 13 18 88 52 56 63
REMARK Flexibility Score: inf
ROOT
ATOM      1  C   UNL A   1      38.826  21.134  25.718  1.00  0.00     0.188 C 
ENDROOT
BRANCH   1   2
ATOM      2  O   UNL A   1      37.615  20.664  25.156  1.00  0.00    -0.376 OA
BRANCH   2   3
ATOM      3  C   UNL A   1      36.561  21.583  24.888  1.00  0.00     0.202 C 
BRANCH   3   4
ATOM      4  C   UNL A   1      35.314  21.671  25.789  1.00  0.00     0.261 C 
BRANCH   4   5
ATOM      5  O   UNL A   1      34.242  22.474  25.260  1.00  0.00    -0.463 OA
BRANCH   5   6
ATOM      6  C   UNL A   1      34.207  23.770  25.661  1.00  0.00     0.309 C 
ATOM      7  O   UNL A   1      35.010  24.624  25.309  1.00  0.00    -0.252 OA
BRANCH   6   8
ATOM      8  C   UNL A   1      32.985  24.091  26.518  1.00  0.00     0.101 C 
ATOM      9  C   UNL A   1      31.182  24.888  25.116  1.00  0.00     0.084 C 
ATOM     10  C   UNL A   1      30.829  23.460  25.515  1.00  0.00     0.026 C 
ATOM     11  C   UNL A   1      32.168  25.334  26.174  1.00  0.00     0.040 C 
ATOM     12  C   UNL A   1      31.955  22.962  26.428  1.00  0.00     0.017 C 
BRANCH   9  13
ATOM     13  N   UNL A   1      31.793  24.959  23.797  1.00  0.00    -0.335 N 
ATOM     14  N   UNL A   1      30.606  26.637  22.645  1.00  0.00    -0.334 N 
ATOM     15  C   UNL A   1      31.585  25.733  22.726  1.00  0.00     0.315 C 
ATOM     16  H   UNL A   1      30.662  27.197  21.838  1.00  0.00     0.165 HD
ATOM     17  O   UNL A   1      32.358  25.628  21.771  1.00  0.00    -0.249 OA
ATOM     18  H   UNL A   1      32.510  24.298  23.664  1.00  0.00     0.165 HD
BRANCH  14  19
ATOM     19  C   UNL A   1      29.487  26.970  23.487  1.00  0.00     0.157 C 
BRANCH  19  20
ATOM     20  C   UNL A   1      28.825  28.242  23.060  1.00  0.00     0.015 A 
ATOM     21  C   UNL A   1      26.417  27.701  23.950  1.00  0.00     0.069 C 
ATOM     22  C   UNL A   1      27.438  28.520  23.248  1.00  0.00     0.065 A 
ATOM     23  N   UNL A   1      27.076  29.680  22.698  1.00  0.00    -0.178 NA
ATOM     24  N   UNL A   1      28.217  30.178  22.197  1.00  0.00    -0.272 N 
ATOM     25  C   UNL A   1      29.319  29.404  22.470  1.00  0.00     0.040 A 
ATOM     26  C   UNL A   1      28.144  31.405  21.437  1.00  0.00     0.174 C 
ATOM     27  C   UNL A   1      30.693  29.863  22.126  1.00  0.00     0.067 C 
ENDBRANCH  19  20
ENDBRANCH  14  19
ENDBRANCH   9  13
ENDBRANCH   6   8
ENDBRANCH   5   6
ENDBRANCH   4   5
ENDBRANCH   3   4
ENDBRANCH   2   3
ENDBRANCH   1   2
BRANCH   1  28
ATOM     28  C   UNL A   1      39.954  20.129  25.972  1.00  0.00     0.188 C 
BRANCH  28  29
ATOM     29  O   UNL A   1      40.629  20.242  27.199  1.00  0.00    -0.376 OA
BRANCH  29  30
ATOM     30  C   UNL A   1      41.792  21.057  27.280  1.00  0.00     0.202 C 
BRANCH  30  31
ATOM     31  C   UNL A   1      42.570  21.638  26.075  1.00  0.00     0.261 C 
BRANCH  31  32
ATOM     32  O   UNL A   1      43.774  22.376  26.314  1.00  0.00    -0.460 OA
BRANCH  32  33
ATOM     33  C   UNL A   1      43.912  23.558  25.664  1.00  0.00     0.338 C 
ATOM     34  O   UNL A   1      44.267  23.716  24.503  1.00  0.00    -0.246 OA
BRANCH  33  35
ATOM     35  C   UNL A   1      43.301  24.613  26.504  1.00  0.00     0.060 A 
ATOM     36  C   UNL A   1      43.934  25.863  26.593  1.00  0.00     0.016 A 
ATOM     37  C   UNL A   1      42.099  24.382  27.174  1.00  0.00     0.016 A 
ATOM     38  C   UNL A   1      43.375  26.882  27.366  1.00  0.00     0.010 A 
ATOM     39  C   UNL A   1      41.559  25.393  27.974  1.00  0.00     0.010 A 
ATOM     40  C   UNL A   1      42.206  26.638  28.095  1.00  0.00    -0.014 A 
BRANCH  40  41
ATOM     41  C   UNL A   1      41.761  27.601  29.132  1.00  0.00     0.031 A 
ATOM     42  C   UNL A   1      42.488  27.615  30.449  1.00  0.00     0.074 A 
ATOM     43  C   UNL A   1      40.722  28.431  28.924  1.00  0.00     0.049 A 
ATOM     44  N   UNL A   1      42.228  28.293  31.534  1.00  0.00    -0.248 NA
ATOM     45  C   UNL A   1      43.666  26.736  30.555  1.00  0.00     0.031 C 
ATOM     46  C   UNL A   1      39.953  28.532  27.687  1.00  0.00     0.029 A 
ATOM     47  N   UNL A   1      40.120  29.327  29.773  1.00  0.00    -0.354 N 
ATOM     48  C   UNL A   1      43.183  27.899  32.464  1.00  0.00     0.074 A 
ATOM     49  C   UNL A   1      44.025  26.917  31.817  1.00  0.00     0.031 C 
ATOM     50  C   UNL A   1      38.954  29.415  27.868  1.00  0.00     0.029 A 
ATOM     51  C   UNL A   1      38.995  29.914  29.242  1.00  0.00     0.049 A 
ATOM     52  H   UNL A   1      40.460  29.530  30.674  1.00  0.00     0.167 HD
ATOM     53  C   UNL A   1      43.349  28.321  33.738  1.00  0.00     0.034 A 
ATOM     54  C   UNL A   1      38.085  30.730  29.812  1.00  0.00     0.034 A 
ATOM     55  C   UNL A   1      42.516  29.302  34.378  1.00  0.00     0.049 A 
ATOM     56  C   UNL A   1      38.265  31.149  31.250  1.00  0.00     0.074 A 
ATOM     57  C   UNL A   1      42.628  29.823  35.656  1.00  0.00     0.029 A 
ATOM     58  N   UNL A   1      41.406  29.897  33.800  1.00  0.00    -0.354 N 
ATOM     59  N   UNL A   1      39.229  30.846  32.087  1.00  0.00    -0.248 NA
ATOM     60  C   UNL A   1      37.245  32.046  31.816  1.00  0.00     0.031 C 
ATOM     61  C   UNL A   1      41.563  30.705  35.861  1.00  0.00     0.029 A 
ATOM     62  C   UNL A   1      40.815  30.769  34.697  1.00  0.00     0.049 A 
ATOM     63  H   UNL A   1      41.087  29.725  32.885  1.00  0.00     0.167 HD
ATOM     64  C   UNL A   1      38.955  31.547  33.258  1.00  0.00     0.074 A 
ATOM     65  C   UNL A   1      37.744  32.303  33.017  1.00  0.00     0.031 C 
ATOM     66  C   UNL A   1      39.639  31.557  34.429  1.00  0.00     0.034 A 
BRANCH  53  67
ATOM     67  C   UNL A   1      44.485  27.725  34.528  1.00  0.00     0.023 A 
ATOM     68  C   UNL A   1      44.334  26.460  35.130  1.00  0.00     0.012 A 
ATOM     69  C   UNL A   1      45.720  28.396  34.630  1.00  0.00     0.148 A 
ATOM     70  C   UNL A   1      45.380  25.887  35.851  1.00  0.00     0.002 A 
ATOM     71  C   UNL A   1      46.774  27.796  35.307  1.00  0.00     0.091 A 
ATOM     72  F   UNL A   1      45.837  29.608  34.068  1.00  0.00    -0.205 F 
ATOM     73  C   UNL A   1      46.603  26.549  35.930  1.00  0.00     0.022 A 
BRANCH  71  74
ATOM     74  S   UNL A   1      48.411  28.530  35.397  1.00  0.00     0.127 S 
ATOM     75  O   UNL A   1      48.709  28.761  33.985  1.00  0.00    -0.237 OA
ATOM     76  O   UNL A   1      48.159  29.744  36.173  1.00  0.00    -0.237 OA
ATOM     77  O   UNL A   1      49.258  27.548  36.060  1.00  0.00    -0.744 OA
ENDBRANCH  71  74
ENDBRANCH  53  67
BRANCH  54  78
ATOM     78  C   UNL A   1      36.923  31.228  29.021  1.00  0.00     0.023 A 
ATOM     79  C   UNL A   1      36.821  32.602  28.725  1.00  0.00     0.012 A 
ATOM     80  C   UNL A   1      35.916  30.353  28.569  1.00  0.00     0.148 A 
ATOM     81  C   UNL A   1      35.723  33.099  28.022  1.00  0.00     0.002 A 
ATOM     82  C   UNL A   1      34.854  30.846  27.822  1.00  0.00     0.091 A 
ATOM     83  F   UNL A   1      36.022  29.052  28.876  1.00  0.00    -0.205 F 
ATOM     84  C   UNL A   1      34.745  32.221  27.563  1.00  0.00     0.022 A 
BRANCH  82  85
ATOM     85  S   UNL A   1      33.608  29.779  27.090  1.00  0.00     0.127 S 
ATOM     86  O   UNL A   1      32.559  30.736  26.745  1.00  0.00    -0.237 OA
ATOM     87  O   UNL A   1      34.330  29.218  25.948  1.00  0.00    -0.237 OA
ATOM     88  O   UNL A   1      33.263  28.810  28.121  1.00  0.00    -0.744 OA
ENDBRANCH  82  85
ENDBRANCH  54  78
BRANCH  66  89
ATOM     89  C   UNL A   1      39.137  32.455  35.533  1.00  0.00     0.023 A 
ATOM     90  C   UNL A   1      38.171  31.984  36.445  1.00  0.00     0.012 A 
ATOM     91  C   UNL A   1      39.686  33.741  35.711  1.00  0.00     0.148 A 
ATOM     92  C   UNL A   1      37.733  32.794  37.493  1.00  0.00     0.002 A 
ATOM     93  C   UNL A   1      39.285  34.521  36.790  1.00  0.00     0.091 A 
ATOM     94  F   UNL A   1      40.594  34.176  34.825  1.00  0.00    -0.205 F 
ATOM     95  C   UNL A   1      38.299  34.054  37.674  1.00  0.00     0.022 A 
BRANCH  93  96
ATOM     96  S   UNL A   1      40.028  36.114  37.159  1.00  0.00     0.127 S 
ATOM     97  O   UNL A   1      41.387  35.728  37.537  1.00  0.00    -0.237 OA
ATOM     98  O   UNL A   1      39.926  36.807  35.874  1.00  0.00    -0.237 OA
ATOM     99  O   UNL A   1      39.227  36.695  38.227  1.00  0.00    -0.744 OA
ENDBRANCH  93  96
ENDBRANCH  66  89
ENDBRANCH  40  41
ENDBRANCH  33  35
ENDBRANCH  32  33
ENDBRANCH  31  32
ENDBRANCH  30  31
ENDBRANCH  29  30
ENDBRANCH  28  29
ENDBRANCH   1  28
TORSDOF 23
ENDMDL
MODEL 2
REMARK VINA RESULT:     -10.0      5.009      8.079
REMARK SMILES Cc1nn(C)c(C)c1CNC(=O)N[C@H]1CC[C@@H](C(=O)OCCOCCOCCOC(=O)c2ccc(-c3c4nc(c(-c5cccc(S(=O)(=O)[O-])c5F)c5ccc([nH]5)c(-c5cccc(S(=O)(=O)[O-])c5F)c5nc(c(-c6cccc(S(=O)(=O)[O-])c6F)c6ccc3[nH]6)C=C5)C=C4)cc2)C1
REMARK SMILES IDX 24 1 23 2 22 3 21 4 20 5 18 6 19 7 17 8 14 9 15 10 95 11
REMARK SMILES IDX 16 12 13 13 10 14 11 15 12 17 9 19 8 20 1 21 2 22 3 23 4 24
REMARK SMILES IDX 6 25 5 26 7 27 25 28 26 29 27 30 28 31 29 32 30 33 31 34
REMARK SMILES IDX 32 35 33 36 94 37 34 38 93 39 35 40 36 41 37 42 87 43 38 44
REMARK SMILES IDX 92 45 86 46 88 47 39 48 91 49 85 50 84 51 40 53 72 54 52 55
REMARK SMILES IDX 71 56 53 57 56 58 70 59 89 60 54 61 55 62 69 64 90 65 57 66
REMARK SMILES IDX 41 67 42 68 50 69 43 70 45 71 51 72 44 73 46 74 47 75 48 76
REMARK SMILES IDX 49 77 73 78 74 79 82 80 75 81 77 82 83 83 76 84 78 85 79 86
REMARK SMILES IDX 80 87 81 88 58 89 59 90 67 91 60 92 62 93 68 94 61 95 63 96
REMARK SMILES IDX 64 97 65 98 66 99
REMARK H PARENT 10 16 13 18 88 52 56 63
REMARK Flexibility Score: inf
ROOT
ATOM      1  C   UNL A   1      40.772  21.191  27.478  1.00  0.00     0.188 C 
ENDROOT
BRANCH   1   2
ATOM      2  O   UNL A   1      39.554  21.783  27.066  1.00  0.00    -0.376 OA
BRANCH   2   3
ATOM      3  C   UNL A   1      38.975  21.404  25.822  1.00  0.00     0.202 C 
BRANCH   3   4
ATOM      4  C   UNL A   1      37.701  22.081  25.282  1.00  0.00     0.261 C 
BRANCH   4   5
ATOM      5  O   UNL A   1      36.470  21.585  25.841  1.00  0.00    -0.463 OA
BRANCH   5   6
ATOM      6  C   UNL A   1      35.325  22.104  25.331  1.00  0.00     0.309 C 
ATOM      7  O   UNL A   1      35.011  22.057  24.149  1.00  0.00    -0.252 OA
BRANCH   6   8
ATOM      8  C   UNL A   1      34.399  22.665  26.407  1.00  0.00     0.101 C 
ATOM      9  C   UNL A   1      32.709  24.066  25.392  1.00  0.00     0.084 C 
ATOM     10  C   UNL A   1      32.023  22.760  25.777  1.00  0.00     0.026 C 
ATOM     11  C   UNL A   1      33.935  24.114  26.277  1.00  0.00     0.040 C 
ATOM     12  C   UNL A   1      33.085  21.881  26.449  1.00  0.00     0.017 C 
BRANCH   9  13
ATOM     13  N   UNL A   1      33.098  24.093  23.990  1.00  0.00    -0.335 N 
ATOM     14  N   UNL A   1      31.715  25.716  22.987  1.00  0.00    -0.334 N 
ATOM     15  C   UNL A   1      32.708  24.825  22.940  1.00  0.00     0.315 C 
ATOM     16  H   UNL A   1      31.631  26.245  22.161  1.00  0.00     0.165 HD
ATOM     17  O   UNL A   1      33.319  24.692  21.878  1.00  0.00    -0.249 OA
ATOM     18  H   UNL A   1      33.795  23.435  23.766  1.00  0.00     0.165 HD
BRANCH  14  19
ATOM     19  C   UNL A   1      30.741  26.068  23.986  1.00  0.00     0.157 C 
BRANCH  19  20
ATOM     20  C   UNL A   1      30.920  27.472  24.470  1.00  0.00     0.015 A 
ATOM     21  C   UNL A   1      29.626  28.681  22.534  1.00  0.00     0.069 C 
ATOM     22  C   UNL A   1      30.441  28.622  23.774  1.00  0.00     0.065 A 
ATOM     23  N   UNL A   1      30.809  29.760  24.365  1.00  0.00    -0.178 NA
ATOM     24  N   UNL A   1      31.478  29.363  25.458  1.00  0.00    -0.272 N 
ATOM     25  C   UNL A   1      31.493  28.000  25.626  1.00  0.00     0.040 A 
ATOM     26  C   UNL A   1      32.101  30.378  26.277  1.00  0.00     0.174 C 
ATOM     27  C   UNL A   1      32.059  27.376  26.854  1.00  0.00     0.067 C 
ENDBRANCH  19  20
ENDBRANCH  14  19
ENDBRANCH   9  13
ENDBRANCH   6   8
ENDBRANCH   5   6
ENDBRANCH   4   5
ENDBRANCH   3   4
ENDBRANCH   2   3
ENDBRANCH   1   2
BRANCH   1  28
ATOM     28  C   UNL A   1      41.487  20.238  26.514  1.00  0.00     0.188 C 
BRANCH  28  29
ATOM     29  O   UNL A   1      42.487  20.803  25.702  1.00  0.00    -0.376 OA
BRANCH  29  30
ATOM     30  C   UNL A   1      42.752  22.197  25.797  1.00  0.00     0.202 C 
BRANCH  30  31
ATOM     31  C   UNL A   1      43.371  23.074  24.681  1.00  0.00     0.261 C 
BRANCH  31  32
ATOM     32  O   UNL A   1      43.444  24.491  24.870  1.00  0.00    -0.460 OA
BRANCH  32  33
ATOM     33  C   UNL A   1      44.663  25.015  25.146  1.00  0.00     0.338 C 
ATOM     34  O   UNL A   1      45.715  24.760  24.574  1.00  0.00    -0.246 OA
BRANCH  33  35
ATOM     35  C   UNL A   1      44.470  26.153  26.074  1.00  0.00     0.060 A 
ATOM     36  C   UNL A   1      44.028  27.383  25.559  1.00  0.00     0.016 A 
ATOM     37  C   UNL A   1      44.693  26.001  27.442  1.00  0.00     0.016 A 
ATOM     38  C   UNL A   1      43.823  28.469  26.411  1.00  0.00     0.010 A 
ATOM     39  C   UNL A   1      44.520  27.101  28.289  1.00  0.00     0.010 A 
ATOM     40  C   UNL A   1      44.109  28.346  27.775  1.00  0.00    -0.014 A 
BRANCH  40  41
ATOM     41  C   UNL A   1      44.172  29.553  28.634  1.00  0.00     0.031 A 
ATOM     42  C   UNL A   1      42.930  29.963  29.377  1.00  0.00     0.074 A 
ATOM     43  C   UNL A   1      45.295  30.287  28.739  1.00  0.00     0.049 A 
ATOM     44  N   UNL A   1      42.711  31.022  30.109  1.00  0.00    -0.248 NA
ATOM     45  C   UNL A   1      41.776  29.053  29.272  1.00  0.00     0.031 C 
ATOM     46  C   UNL A   1      46.569  29.984  28.092  1.00  0.00     0.029 A 
ATOM     47  N   UNL A   1      45.528  31.461  29.413  1.00  0.00    -0.354 N 
ATOM     48  C   UNL A   1      41.387  30.929  30.522  1.00  0.00     0.074 A 
ATOM     49  C   UNL A   1      40.850  29.712  29.954  1.00  0.00     0.031 C 
ATOM     50  C   UNL A   1      47.443  30.969  28.369  1.00  0.00     0.029 A 
ATOM     51  C   UNL A   1      46.779  31.985  29.184  1.00  0.00     0.049 A 
ATOM     52  H   UNL A   1      44.864  31.887  30.001  1.00  0.00     0.167 HD
ATOM     53  C   UNL A   1      40.683  31.775  31.308  1.00  0.00     0.034 A 
ATOM     54  C   UNL A   1      47.313  33.166  29.561  1.00  0.00     0.034 A 
ATOM     55  C   UNL A   1      41.219  32.981  31.878  1.00  0.00     0.049 A 
ATOM     56  C   UNL A   1      46.491  34.115  30.398  1.00  0.00     0.074 A 
ATOM     57  C   UNL A   1      40.595  33.886  32.718  1.00  0.00     0.029 A 
ATOM     58  N   UNL A   1      42.499  33.463  31.651  1.00  0.00    -0.354 N 
ATOM     59  N   UNL A   1      45.273  33.968  30.863  1.00  0.00    -0.248 NA
ATOM     60  C   UNL A   1      47.128  35.384  30.784  1.00  0.00     0.031 C 
ATOM     61  C   UNL A   1      41.486  34.934  32.969  1.00  0.00     0.029 A 
ATOM     62  C   UNL A   1      42.679  34.659  32.322  1.00  0.00     0.049 A 
ATOM     63  H   UNL A   1      43.178  33.019  31.093  1.00  0.00     0.167 HD
ATOM     64  C   UNL A   1      45.017  35.100  31.631  1.00  0.00     0.074 A 
ATOM     65  C   UNL A   1      46.211  35.918  31.580  1.00  0.00     0.031 C 
ATOM     66  C   UNL A   1      43.892  35.439  32.308  1.00  0.00     0.034 A 
BRANCH  53  67
ATOM     67  C   UNL A   1      39.250  31.421  31.607  1.00  0.00     0.023 A 
ATOM     68  C   UNL A   1      38.950  30.542  32.668  1.00  0.00     0.012 A 
ATOM     69  C   UNL A   1      38.198  31.998  30.869  1.00  0.00     0.148 A 
ATOM     70  C   UNL A   1      37.628  30.216  32.967  1.00  0.00     0.002 A 
ATOM     71  C   UNL A   1      36.882  31.707  31.205  1.00  0.00     0.091 A 
ATOM     72  F   UNL A   1      38.504  32.814  29.850  1.00  0.00    -0.205 F 
ATOM     73  C   UNL A   1      36.595  30.806  32.243  1.00  0.00     0.022 A 
BRANCH  71  74
ATOM     74  S   UNL A   1      35.479  32.477  30.387  1.00  0.00     0.127 S 
ATOM     75  O   UNL A   1      35.280  31.587  29.245  1.00  0.00    -0.237 OA
ATOM     76  O   UNL A   1      34.442  32.391  31.415  1.00  0.00    -0.237 OA
ATOM     77  O   UNL A   1      35.899  33.831  30.057  1.00  0.00    -0.744 OA
ENDBRANCH  71  74
ENDBRANCH  53  67
BRANCH  54  78
ATOM     78  C   UNL A   1      48.707  33.519  29.169  1.00  0.00     0.023 A 
ATOM     79  C   UNL A   1      49.770  33.230  30.047  1.00  0.00     0.012 A 
ATOM     80  C   UNL A   1      48.984  34.145  27.938  1.00  0.00     0.148 A 
ATOM     81  C   UNL A   1      51.079  33.588  29.721  1.00  0.00     0.002 A 
ATOM     82  C   UNL A   1      50.297  34.448  27.595  1.00  0.00     0.091 A 
ATOM     83  F   UNL A   1      47.957  34.427  27.124  1.00  0.00    -0.205 F 
ATOM     84  C   UNL A   1      51.344  34.188  28.493  1.00  0.00     0.022 A 
BRANCH  82  85
ATOM     85  S   UNL A   1      50.748  35.115  25.989  1.00  0.00     0.127 S 
ATOM     86  O   UNL A   1      50.067  36.407  25.999  1.00  0.00    -0.237 OA
ATOM     87  O   UNL A   1      52.206  35.185  26.095  1.00  0.00    -0.237 OA
ATOM     88  O   UNL A   1      50.259  34.152  25.011  1.00  0.00    -0.744 OA
ENDBRANCH  82  85
ENDBRANCH  54  78
BRANCH  66  89
ATOM     89  C   UNL A   1      43.903  36.721  33.104  1.00  0.00     0.023 A 
ATOM     90  C   UNL A   1      44.189  36.696  34.484  1.00  0.00     0.012 A 
ATOM     91  C   UNL A   1      43.707  37.960  32.462  1.00  0.00     0.148 A 
ATOM     92  C   UNL A   1      44.242  37.882  35.217  1.00  0.00     0.002 A 
ATOM     93  C   UNL A   1      43.815  39.140  33.187  1.00  0.00     0.091 A 
ATOM     94  F   UNL A   1      43.422  37.962  31.151  1.00  0.00    -0.205 F 
ATOM     95  C   UNL A   1      44.069  39.102  34.568  1.00  0.00     0.022 A 
BRANCH  93  96
ATOM     96  S   UNL A   1      43.706  40.760  32.419  1.00  0.00     0.127 S 
ATOM     97  O   UNL A   1      42.334  40.759  31.916  1.00  0.00    -0.237 OA
ATOM     98  O   UNL A   1      43.939  41.655  33.553  1.00  0.00    -0.237 OA
ATOM     99  O   UNL A   1      44.744  40.793  31.398  1.00  0.00    -0.744 OA
ENDBRANCH  93  96
ENDBRANCH  66  89
ENDBRANCH  40  41
ENDBRANCH  33  35
ENDBRANCH  32  33
ENDBRANCH  31  32
ENDBRANCH  30  31
ENDBRANCH  29  30
ENDBRANCH  28  29
ENDBRANCH   1  28
TORSDOF 23
ENDMDL
MODEL 3
REMARK VINA RESULT:     -10.0      2.294      2.867
REMARK SMILES Cc1nn(C)c(C)c1CNC(=O)N[C@H]1CC[C@@H](C(=O)OCCOCCOCCOC(=O)c2ccc(-c3c4nc(c(-c5cccc(S(=O)(=O)[O-])c5F)c5ccc([nH]5)c(-c5cccc(S(=O)(=O)[O-])c5F)c5nc(c(-c6cccc(S(=O)(=O)[O-])c6F)c6ccc3[nH]6)C=C5)C=C4)cc2)C1
REMARK SMILES IDX 24 1 23 2 22 3 21 4 20 5 18 6 19 7 17 8 14 9 15 10 95 11
REMARK SMILES IDX 16 12 13 13 10 14 11 15 12 17 9 19 8 20 1 21 2 22 3 23 4 24
REMARK SMILES IDX 6 25 5 26 7 27 25 28 26 29 27 30 28 31 29 32 30 33 31 34
REMARK SMILES IDX 32 35 33 36 94 37 34 38 93 39 35 40 36 41 37 42 87 43 38 44
REMARK SMILES IDX 92 45 86 46 88 47 39 48 91 49 85 50 84 51 40 53 72 54 52 55
REMARK SMILES IDX 71 56 53 57 56 58 70 59 89 60 54 61 55 62 69 64 90 65 57 66
REMARK SMILES IDX 41 67 42 68 50 69 43 70 45 71 51 72 44 73 46 74 47 75 48 76
REMARK SMILES IDX 49 77 73 78 74 79 82 80 75 81 77 82 83 83 76 84 78 85 79 86
REMARK SMILES IDX 80 87 81 88 58 89 59 90 67 91 60 92 62 93 68 94 61 95 63 96
REMARK SMILES IDX 64 97 65 98 66 99
REMARK H PARENT 10 16 13 18 88 52 56 63
REMARK Flexibility Score: inf
ROOT
ATOM      1  C   UNL A   1      40.981  21.293  27.356  1.00  0.00     0.188 C 
ENDROOT
BRANCH   1   2
ATOM      2  O   UNL A   1      39.702  21.851  27.121  1.00  0.00    -0.376 OA
BRANCH   2   3
ATOM      3  C   UNL A   1      38.985  21.493  25.944  1.00  0.00     0.202 C 
BRANCH   3   4
ATOM      4  C   UNL A   1      37.694  22.225  25.528  1.00  0.00     0.261 C 
BRANCH   4   5
ATOM      5  O   UNL A   1      36.562  21.367  25.296  1.00  0.00    -0.463 OA
BRANCH   5   6
ATOM      6  C   UNL A   1      35.355  21.979  25.188  1.00  0.00     0.309 C 
ATOM      7  O   UNL A   1      34.519  21.713  24.333  1.00  0.00    -0.252 OA
BRANCH   6   8
ATOM      8  C   UNL A   1      35.091  22.970  26.318  1.00  0.00     0.101 C 
ATOM      9  C   UNL A   1      32.749  23.573  26.355  1.00  0.00     0.084 C 
ATOM     10  C   UNL A   1      32.974  22.619  27.523  1.00  0.00     0.026 C 
ATOM     11  C   UNL A   1      34.126  24.124  26.056  1.00  0.00     0.040 C 
ATOM     12  C   UNL A   1      34.465  22.259  27.521  1.00  0.00     0.017 C 
BRANCH   9  13
ATOM     13  N   UNL A   1      32.213  22.895  25.183  1.00  0.00    -0.335 N 
ATOM     14  N   UNL A   1      30.840  24.483  24.114  1.00  0.00    -0.334 N 
ATOM     15  C   UNL A   1      31.416  23.281  24.181  1.00  0.00     0.315 C 
ATOM     16  H   UNL A   1      30.378  24.644  23.260  1.00  0.00     0.165 HD
ATOM     17  O   UNL A   1      31.226  22.494  23.251  1.00  0.00    -0.249 OA
ATOM     18  H   UNL A   1      32.496  21.955  25.114  1.00  0.00     0.165 HD
BRANCH  14  19
ATOM     19  C   UNL A   1      30.751  25.596  25.022  1.00  0.00     0.157 C 
BRANCH  19  20
ATOM     20  C   UNL A   1      31.774  26.645  24.723  1.00  0.00     0.015 A 
ATOM     21  C   UNL A   1      31.806  27.788  27.085  1.00  0.00     0.069 C 
ATOM     22  C   UNL A   1      32.195  27.637  25.660  1.00  0.00     0.065 A 
ATOM     23  N   UNL A   1      33.047  28.511  25.122  1.00  0.00    -0.178 NA
ATOM     24  N   UNL A   1      33.220  28.072  23.865  1.00  0.00    -0.272 N 
ATOM     25  C   UNL A   1      32.557  26.899  23.598  1.00  0.00     0.040 A 
ATOM     26  C   UNL A   1      34.029  28.873  22.974  1.00  0.00     0.174 C 
ATOM     27  C   UNL A   1      32.743  26.180  22.308  1.00  0.00     0.067 C 
ENDBRANCH  19  20
ENDBRANCH  14  19
ENDBRANCH   9  13
ENDBRANCH   6   8
ENDBRANCH   5   6
ENDBRANCH   4   5
ENDBRANCH   3   4
ENDBRANCH   2   3
ENDBRANCH   1   2
BRANCH   1  28
ATOM     28  C   UNL A   1      41.594  20.387  26.283  1.00  0.00     0.188 C 
BRANCH  28  29
ATOM     29  O   UNL A   1      42.559  20.972  25.446  1.00  0.00    -0.376 OA
BRANCH  29  30
ATOM     30  C   UNL A   1      42.773  22.376  25.508  1.00  0.00     0.202 C 
BRANCH  30  31
ATOM     31  C   UNL A   1      43.778  23.174  24.642  1.00  0.00     0.261 C 
BRANCH  31  32
ATOM     32  O   UNL A   1      43.767  24.605  24.702  1.00  0.00    -0.460 OA
BRANCH  32  33
ATOM     33  C   UNL A   1      44.880  25.210  25.184  1.00  0.00     0.338 C 
ATOM     34  O   UNL A   1      45.977  25.262  24.644  1.00  0.00    -0.246 OA
BRANCH  33  35
ATOM     35  C   UNL A   1      44.480  26.036  26.346  1.00  0.00     0.060 A 
ATOM     36  C   UNL A   1      43.931  25.404  27.474  1.00  0.00     0.016 A 
ATOM     37  C   UNL A   1      44.671  27.418  26.337  1.00  0.00     0.016 A 
ATOM     38  C   UNL A   1      43.558  26.154  28.590  1.00  0.00     0.010 A 
ATOM     39  C   UNL A   1      44.265  28.171  27.443  1.00  0.00     0.010 A 
ATOM     40  C   UNL A   1      43.683  27.547  28.563  1.00  0.00    -0.014 A 
BRANCH  40  41
ATOM     41  C   UNL A   1      43.034  28.373  29.611  1.00  0.00     0.031 A 
ATOM     42  C   UNL A   1      43.774  28.594  30.902  1.00  0.00     0.074 A 
ATOM     43  C   UNL A   1      41.807  28.898  29.436  1.00  0.00     0.049 A 
ATOM     44  N   UNL A   1      43.379  29.194  31.993  1.00  0.00    -0.248 NA
ATOM     45  C   UNL A   1      45.144  28.057  30.971  1.00  0.00     0.031 C 
ATOM     46  C   UNL A   1      40.999  28.778  28.225  1.00  0.00     0.029 A 
ATOM     47  N   UNL A   1      41.018  29.616  30.301  1.00  0.00    -0.354 N 
ATOM     48  C   UNL A   1      44.433  29.076  32.891  1.00  0.00     0.074 A 
ATOM     49  C   UNL A   1      45.483  28.342  32.219  1.00  0.00     0.031 C 
ATOM     50  C   UNL A   1      39.809  29.369  28.437  1.00  0.00     0.029 A 
ATOM     51  C   UNL A   1      39.762  29.879  29.807  1.00  0.00     0.049 A 
ATOM     52  H   UNL A   1      41.321  29.912  31.189  1.00  0.00     0.167 HD
ATOM     53  C   UNL A   1      44.524  29.544  34.157  1.00  0.00     0.034 A 
ATOM     54  C   UNL A   1      38.688  30.435  30.404  1.00  0.00     0.034 A 
ATOM     55  C   UNL A   1      43.483  30.280  34.822  1.00  0.00     0.049 A 
ATOM     56  C   UNL A   1      38.798  30.905  31.834  1.00  0.00     0.074 A 
ATOM     57  C   UNL A   1      43.496  30.827  36.092  1.00  0.00     0.029 A 
ATOM     58  N   UNL A   1      42.238  30.555  34.279  1.00  0.00    -0.354 N 
ATOM     59  N   UNL A   1      39.834  30.876  32.639  1.00  0.00    -0.248 NA
ATOM     60  C   UNL A   1      37.597  31.509  32.431  1.00  0.00     0.031 C 
ATOM     61  C   UNL A   1      42.243  31.401  36.331  1.00  0.00     0.029 A 
ATOM     62  C   UNL A   1      41.468  31.251  35.193  1.00  0.00     0.049 A 
ATOM     63  H   UNL A   1      41.946  30.293  33.376  1.00  0.00     0.167 HD
ATOM     64  C   UNL A   1      39.423  31.496  33.815  1.00  0.00     0.074 A 
ATOM     65  C   UNL A   1      38.049  31.903  33.614  1.00  0.00     0.031 C 
ATOM     66  C   UNL A   1      40.117  31.700  34.962  1.00  0.00     0.034 A 
BRANCH  53  67
ATOM     67  C   UNL A   1      45.802  29.277  34.909  1.00  0.00     0.023 A 
ATOM     68  C   UNL A   1      46.874  30.188  34.818  1.00  0.00     0.012 A 
ATOM     69  C   UNL A   1      45.922  28.150  35.746  1.00  0.00     0.148 A 
ATOM     70  C   UNL A   1      48.057  29.965  35.520  1.00  0.00     0.002 A 
ATOM     71  C   UNL A   1      47.085  27.961  36.481  1.00  0.00     0.091 A 
ATOM     72  F   UNL A   1      44.899  27.284  35.803  1.00  0.00    -0.205 F 
ATOM     73  C   UNL A   1      48.159  28.858  36.359  1.00  0.00     0.022 A 
BRANCH  71  74
ATOM     74  S   UNL A   1      47.284  26.611  37.650  1.00  0.00     0.127 S 
ATOM     75  O   UNL A   1      47.748  25.533  36.779  1.00  0.00    -0.237 OA
ATOM     76  O   UNL A   1      48.301  27.142  38.558  1.00  0.00    -0.237 OA
ATOM     77  O   UNL A   1      45.976  26.405  38.255  1.00  0.00    -0.744 OA
ENDBRANCH  71  74
ENDBRANCH  53  67
BRANCH  54  78
ATOM     78  C   UNL A   1      37.411  30.600  29.653  1.00  0.00     0.023 A 
ATOM     79  C   UNL A   1      36.711  29.459  29.214  1.00  0.00     0.012 A 
ATOM     80  C   UNL A   1      36.892  31.877  29.364  1.00  0.00     0.148 A 
ATOM     81  C   UNL A   1      35.535  29.587  28.473  1.00  0.00     0.002 A 
ATOM     82  C   UNL A   1      35.691  31.997  28.675  1.00  0.00     0.091 A 
ATOM     83  F   UNL A   1      37.582  32.950  29.775  1.00  0.00    -0.205 F 
ATOM     84  C   UNL A   1      35.020  30.854  28.211  1.00  0.00     0.022 A 
BRANCH  82  85
ATOM     85  S   UNL A   1      34.891  33.581  28.392  1.00  0.00     0.127 S 
ATOM     86  O   UNL A   1      35.758  34.177  27.378  1.00  0.00    -0.237 OA
ATOM     87  O   UNL A   1      33.573  33.166  27.911  1.00  0.00    -0.237 OA
ATOM     88  O   UNL A   1      34.879  34.253  29.684  1.00  0.00    -0.744 OA
ENDBRANCH  82  85
ENDBRANCH  54  78
BRANCH  66  89
ATOM     89  C   UNL A   1      39.433  32.447  36.080  1.00  0.00     0.023 A 
ATOM     90  C   UNL A   1      38.435  31.815  36.849  1.00  0.00     0.012 A 
ATOM     91  C   UNL A   1      39.839  33.755  36.416  1.00  0.00     0.148 A 
ATOM     92  C   UNL A   1      37.828  32.487  37.911  1.00  0.00     0.002 A 
ATOM     93  C   UNL A   1      39.268  34.397  37.508  1.00  0.00     0.091 A 
ATOM     94  F   UNL A   1      40.780  34.345  35.664  1.00  0.00    -0.205 F 
ATOM     95  C   UNL A   1      38.253  33.770  38.248  1.00  0.00     0.022 A 
BRANCH  93  96
ATOM     96  S   UNL A   1      39.820  36.009  38.078  1.00  0.00     0.127 S 
ATOM     97  O   UNL A   1      39.795  36.787  36.841  1.00  0.00    -0.237 OA
ATOM     98  O   UNL A   1      38.781  36.367  39.044  1.00  0.00    -0.237 OA
ATOM     99  O   UNL A   1      41.140  35.802  38.657  1.00  0.00    -0.744 OA
ENDBRANCH  93  96
ENDBRANCH  66  89
ENDBRANCH  40  41
ENDBRANCH  33  35
ENDBRANCH  32  33
ENDBRANCH  31  32
ENDBRANCH  30  31
ENDBRANCH  29  30
ENDBRANCH  28  29
ENDBRANCH   1  28
TORSDOF 23
ENDMDL
