MODEL 1
REMARK VINA RESULT:      -9.2      0.000      0.000
REMARK SMILES O=C(OCCOCCOCCOC(=O)c1cc2c(c(S(=O)(=O)Nc3cc(C(F)(F)F)ccc3-n3cccn3)c1)CCC2)c1ccc(-c2c3nc(c(-c4cccc(S(=O)(=O)[O-])c4F)c4ccc([nH]4)c(-c4cccc(S(=O)(=O)[O-])c4F)c4nc(c(-c5cccc(S(=O)(=O)[O-])c5F)c5ccc2[nH]5)C=C4)C=C3)cc1
REMARK SMILES IDX 8 1 7 2 6 3 5 4 4 5 3 6 2 7 1 8 43 9 44 10 105 11 45 12
REMARK SMILES IDX 104 13 46 14 47 15 48 16 98 17 49 18 103 19 97 20 99 21
REMARK SMILES IDX 50 22 102 23 96 24 95 25 51 27 83 28 63 29 82 30 64 31 67 32
REMARK SMILES IDX 81 33 100 34 65 35 66 36 80 38 101 39 68 40 52 41 53 42
REMARK SMILES IDX 61 43 54 44 56 45 62 46 55 47 57 48 58 49 59 50 60 51 84 52
REMARK SMILES IDX 85 53 93 54 86 55 88 56 94 57 87 58 89 59 90 60 91 61 92 62
REMARK SMILES IDX 69 63 70 64 78 65 71 66 73 67 79 68 72 69 74 70 75 71 76 72
REMARK SMILES IDX 77 73 9 74 10 75 11 76 12 77 13 78 14 79 15 80 16 81 39 82
REMARK SMILES IDX 17 83 19 84 18 85 42 86 40 87 41 88 20 89 21 90 22 91 23 92
REMARK SMILES IDX 24 94 25 95 33 96 26 97 32 98 31 99 34 100 35 101 38 102
REMARK SMILES IDX 36 103 37 104 27 105 28 106 29 107 30 108
REMARK H PARENT 99 26 67 37 23 93
REMARK Flexibility Score: inf
ROOT
ATOM      1  C   UNL A   1      34.459  23.697  25.760  1.00  0.00     0.188 C 
ENDROOT
BRANCH   1   2
ATOM      2  C   UNL A   1      33.696  24.954  25.283  1.00  0.00     0.188 C 
BRANCH   2   3
ATOM      3  O   UNL A   1      33.904  26.104  26.094  1.00  0.00    -0.376 OA
BRANCH   3   4
ATOM      4  C   UNL A   1      32.966  27.153  25.934  1.00  0.00     0.202 C 
BRANCH   4   5
ATOM      5  C   UNL A   1      33.598  28.546  25.941  1.00  0.00     0.261 C 
BRANCH   5   6
ATOM      6  O   UNL A   1      34.180  28.952  27.194  1.00  0.00    -0.460 OA
BRANCH   6   7
ATOM      7  C   UNL A   1      34.535  30.139  27.718  1.00  0.00     0.338 C 
ATOM      8  O   UNL A   1      33.681  31.023  27.771  1.00  0.00    -0.246 OA
BRANCH   7   9
ATOM      9  C   UNL A   1      35.912  30.483  28.159  1.00  0.00     0.060 A 
ATOM     10  C   UNL A   1      37.089  30.081  27.531  1.00  0.00     0.016 A 
ATOM     11  C   UNL A   1      36.003  31.218  29.362  1.00  0.00     0.016 A 
ATOM     12  C   UNL A   1      38.315  30.304  28.141  1.00  0.00     0.010 A 
ATOM     13  C   UNL A   1      37.228  31.439  29.978  1.00  0.00     0.010 A 
ATOM     14  C   UNL A   1      38.374  30.922  29.390  1.00  0.00    -0.014 A 
BRANCH  14  15
ATOM     15  C   UNL A   1      39.669  30.962  30.050  1.00  0.00     0.031 A 
ATOM     16  C   UNL A   1      40.201  32.303  30.381  1.00  0.00     0.074 A 
ATOM     17  C   UNL A   1      40.359  29.845  30.358  1.00  0.00     0.049 A 
ATOM     18  N   UNL A   1      41.226  32.895  29.859  1.00  0.00    -0.248 NA
ATOM     19  C   UNL A   1      39.457  33.118  31.347  1.00  0.00     0.031 C 
ATOM     20  C   UNL A   1      39.871  28.464  30.363  1.00  0.00     0.029 A 
ATOM     21  N   UNL A   1      41.625  29.735  30.851  1.00  0.00    -0.354 N 
ATOM     22  C   UNL A   1      41.391  34.072  30.586  1.00  0.00     0.074 A 
ATOM     23  C   UNL A   1      40.199  34.227  31.382  1.00  0.00     0.031 C 
ATOM     24  C   UNL A   1      40.736  27.697  31.061  1.00  0.00     0.029 A 
ATOM     25  C   UNL A   1      41.893  28.499  31.422  1.00  0.00     0.049 A 
ATOM     26  H   UNL A   1      42.287  30.463  30.806  1.00  0.00     0.167 HD
ATOM     27  C   UNL A   1      42.586  34.722  30.637  1.00  0.00     0.034 A 
ATOM     28  C   UNL A   1      42.952  28.183  32.202  1.00  0.00     0.034 A 
ATOM     29  C   UNL A   1      43.489  34.281  29.607  1.00  0.00     0.049 A 
ATOM     30  C   UNL A   1      44.022  29.171  31.939  1.00  0.00     0.074 A 
ATOM     31  C   UNL A   1      43.468  34.242  28.228  1.00  0.00     0.029 A 
ATOM     32  N   UNL A   1      44.537  33.483  29.993  1.00  0.00    -0.354 N 
ATOM     33  N   UNL A   1      44.699  29.235  30.827  1.00  0.00    -0.248 NA
ATOM     34  C   UNL A   1      44.116  30.341  32.796  1.00  0.00     0.031 C 
ATOM     35  C   UNL A   1      44.205  33.075  27.878  1.00  0.00     0.029 A 
ATOM     36  C   UNL A   1      44.653  32.485  29.063  1.00  0.00     0.049 A 
ATOM     37  H   UNL A   1      45.101  33.605  30.789  1.00  0.00     0.167 HD
ATOM     38  C   UNL A   1      44.933  30.591  30.640  1.00  0.00     0.074 A 
ATOM     39  C   UNL A   1      44.677  31.199  31.942  1.00  0.00     0.031 C 
ATOM     40  C   UNL A   1      45.024  31.125  29.386  1.00  0.00     0.034 A 
BRANCH  27  41
ATOM     41  C   UNL A   1      43.088  35.527  31.814  1.00  0.00     0.023 A 
ATOM     42  C   UNL A   1      43.709  36.768  31.537  1.00  0.00     0.012 A 
ATOM     43  C   UNL A   1      43.237  35.014  33.121  1.00  0.00     0.148 A 
ATOM     44  C   UNL A   1      44.483  37.433  32.493  1.00  0.00     0.002 A 
ATOM     45  C   UNL A   1      43.937  35.722  34.094  1.00  0.00     0.091 A 
ATOM     46  F   UNL A   1      42.825  33.774  33.407  1.00  0.00    -0.205 F 
ATOM     47  C   UNL A   1      44.591  36.914  33.777  1.00  0.00     0.022 A 
BRANCH  45  48
ATOM     48  S   UNL A   1      44.042  35.126  35.786  1.00  0.00     0.127 S 
ATOM     49  O   UNL A   1      44.929  33.976  35.637  1.00  0.00    -0.237 OA
ATOM     50  O   UNL A   1      44.628  36.276  36.475  1.00  0.00    -0.237 OA
ATOM     51  O   UNL A   1      42.668  34.838  36.176  1.00  0.00    -0.744 OA
ENDBRANCH  45  48
ENDBRANCH  27  41
BRANCH  28  52
ATOM     52  C   UNL A   1      43.043  27.205  33.307  1.00  0.00     0.023 A 
ATOM     53  C   UNL A   1      42.139  27.283  34.384  1.00  0.00     0.012 A 
ATOM     54  C   UNL A   1      43.838  26.042  33.186  1.00  0.00     0.148 A 
ATOM     55  C   UNL A   1      42.007  26.226  35.291  1.00  0.00     0.002 A 
ATOM     56  C   UNL A   1      43.713  25.001  34.098  1.00  0.00     0.091 A 
ATOM     57  F   UNL A   1      44.644  25.916  32.123  1.00  0.00    -0.205 F 
ATOM     58  C   UNL A   1      42.789  25.083  35.146  1.00  0.00     0.022 A 
BRANCH  56  59
ATOM     59  S   UNL A   1      44.683  23.493  33.959  1.00  0.00     0.127 S 
ATOM     60  O   UNL A   1      46.013  23.944  34.373  1.00  0.00    -0.237 OA
ATOM     61  O   UNL A   1      44.012  22.613  34.911  1.00  0.00    -0.237 OA
ATOM     62  O   UNL A   1      44.598  23.098  32.559  1.00  0.00    -0.744 OA
ENDBRANCH  56  59
ENDBRANCH  28  52
BRANCH  40  63
ATOM     63  C   UNL A   1      45.206  30.191  28.216  1.00  0.00     0.023 A 
ATOM     64  C   UNL A   1      46.475  29.712  27.832  1.00  0.00     0.012 A 
ATOM     65  C   UNL A   1      44.062  29.646  27.605  1.00  0.00     0.148 A 
ATOM     66  C   UNL A   1      46.603  28.736  26.841  1.00  0.00     0.002 A 
ATOM     67  C   UNL A   1      44.190  28.638  26.657  1.00  0.00     0.091 A 
ATOM     68  F   UNL A   1      42.858  30.106  27.981  1.00  0.00    -0.205 F 
ATOM     69  C   UNL A   1      45.460  28.188  26.263  1.00  0.00     0.022 A 
BRANCH  67  70
ATOM     70  S   UNL A   1      42.752  27.795  25.991  1.00  0.00     0.127 S 
ATOM     71  O   UNL A   1      43.334  26.561  25.466  1.00  0.00    -0.237 OA
ATOM     72  O   UNL A   1      41.909  27.618  27.174  1.00  0.00    -0.237 OA
ATOM     73  O   UNL A   1      42.189  28.703  24.998  1.00  0.00    -0.744 OA
ENDBRANCH  67  70
ENDBRANCH  40  63
ENDBRANCH  14  15
ENDBRANCH   7   9
ENDBRANCH   6   7
ENDBRANCH   5   6
ENDBRANCH   4   5
ENDBRANCH   3   4
ENDBRANCH   2   3
ENDBRANCH   1   2
BRANCH   1  74
ATOM     74  O   UNL A   1      35.772  23.369  25.312  1.00  0.00    -0.376 OA
BRANCH  74  75
ATOM     75  C   UNL A   1      36.902  23.739  26.072  1.00  0.00     0.202 C 
BRANCH  75  76
ATOM     76  C   UNL A   1      38.072  22.756  26.018  1.00  0.00     0.261 C 
BRANCH  76  77
ATOM     77  O   UNL A   1      39.366  23.351  25.839  1.00  0.00    -0.460 OA
BRANCH  77  78
ATOM     78  C   UNL A   1      40.251  23.208  26.856  1.00  0.00     0.338 C 
ATOM     79  O   UNL A   1      40.177  23.675  27.989  1.00  0.00    -0.246 OA
BRANCH  78  80
ATOM     80  C   UNL A   1      41.375  22.372  26.391  1.00  0.00     0.061 A 
ATOM     81  C   UNL A   1      41.265  20.991  26.553  1.00  0.00     0.019 A 
ATOM     82  C   UNL A   1      42.527  22.947  25.803  1.00  0.00     0.038 A 
ATOM     83  C   UNL A   1      42.321  20.210  26.136  1.00  0.00    -0.043 A 
ATOM     84  C   UNL A   1      43.626  22.141  25.423  1.00  0.00     0.092 A 
ATOM     85  C   UNL A   1      43.516  20.770  25.636  1.00  0.00    -0.024 A 
ATOM     86  C   UNL A   1      42.395  18.712  26.171  1.00  0.00     0.036 C 
ATOM     87  C   UNL A   1      44.510  19.662  25.490  1.00  0.00     0.037 C 
ATOM     88  C   UNL A   1      43.565  18.489  25.212  1.00  0.00     0.010 C 
BRANCH  84  89
ATOM     89  S   UNL A   1      45.174  22.924  24.986  1.00  0.00     0.262 S 
ATOM     90  O   UNL A   1      46.223  22.129  25.605  1.00  0.00    -0.201 OA
ATOM     91  O   UNL A   1      45.162  23.103  23.556  1.00  0.00    -0.201 OA
BRANCH  89  92
ATOM     92  N   UNL A   1      45.363  24.483  25.667  1.00  0.00    -0.277 N 
ATOM     93  H   UNL A   1      44.683  25.170  25.480  1.00  0.00     0.180 HD
BRANCH  92  94
ATOM     94  C   UNL A   1      46.480  24.823  26.504  1.00  0.00     0.075 A 
ATOM     95  C   UNL A   1      47.706  25.160  25.900  1.00  0.00     0.042 A 
ATOM     96  C   UNL A   1      46.345  24.944  27.895  1.00  0.00     0.089 A 
ATOM     97  C   UNL A   1      48.767  25.688  26.665  1.00  0.00     0.058 A 
ATOM     98  C   UNL A   1      47.401  25.457  28.664  1.00  0.00     0.031 A 
ATOM     99  C   UNL A   1      48.604  25.819  28.054  1.00  0.00     0.015 A 
BRANCH  96 100
ATOM    100  N   UNL A   1      45.146  24.579  28.554  1.00  0.00    -0.239 N 
ATOM    101  C   UNL A   1      44.770  23.333  29.004  1.00  0.00     0.115 A 
ATOM    102  N   UNL A   1      44.155  25.489  28.743  1.00  0.00    -0.177 NA
ATOM    103  C   UNL A   1      43.431  23.399  29.292  1.00  0.00     0.042 A 
ATOM    104  C   UNL A   1      43.097  24.743  29.076  1.00  0.00     0.135 A 
ENDBRANCH  96 100
BRANCH  97 105
ATOM    105  C   UNL A   1      50.034  26.178  25.995  1.00  0.00     0.416 C 
ATOM    106  F   UNL A   1      51.147  25.542  26.446  1.00  0.00    -0.166 F 
ATOM    107  F   UNL A   1      50.007  26.019  24.647  1.00  0.00    -0.166 F 
ATOM    108  F   UNL A   1      50.257  27.509  26.202  1.00  0.00    -0.166 F 
ENDBRANCH  97 105
ENDBRANCH  92  94
ENDBRANCH  89  92
ENDBRANCH  84  89
ENDBRANCH  78  80
ENDBRANCH  77  78
ENDBRANCH  76  77
ENDBRANCH  75  76
ENDBRANCH  74  75
ENDBRANCH   1  74
TORSDOF 25
ENDMDL
MODEL 2
REMARK VINA RESULT:      -8.5      4.504      7.742
REMARK SMILES O=C(OCCOCCOCCOC(=O)c1cc2c(c(S(=O)(=O)Nc3cc(C(F)(F)F)ccc3-n3cccn3)c1)CCC2)c1ccc(-c2c3nc(c(-c4cccc(S(=O)(=O)[O-])c4F)c4ccc([nH]4)c(-c4cccc(S(=O)(=O)[O-])c4F)c4nc(c(-c5cccc(S(=O)(=O)[O-])c5F)c5ccc2[nH]5)C=C4)C=C3)cc1
REMARK SMILES IDX 8 1 7 2 6 3 5 4 4 5 3 6 2 7 1 8 43 9 44 10 105 11 45 12
REMARK SMILES IDX 104 13 46 14 47 15 48 16 98 17 49 18 103 19 97 20 99 21
REMARK SMILES IDX 50 22 102 23 96 24 95 25 51 27 83 28 63 29 82 30 64 31 67 32
REMARK SMILES IDX 81 33 100 34 65 35 66 36 80 38 101 39 68 40 52 41 53 42
REMARK SMILES IDX 61 43 54 44 56 45 62 46 55 47 57 48 58 49 59 50 60 51 84 52
REMARK SMILES IDX 85 53 93 54 86 55 88 56 94 57 87 58 89 59 90 60 91 61 92 62
REMARK SMILES IDX 69 63 70 64 78 65 71 66 73 67 79 68 72 69 74 70 75 71 76 72
REMARK SMILES IDX 77 73 9 74 10 75 11 76 12 77 13 78 14 79 15 80 16 81 39 82
REMARK SMILES IDX 17 83 19 84 18 85 42 86 40 87 41 88 20 89 21 90 22 91 23 92
REMARK SMILES IDX 24 94 25 95 33 96 26 97 32 98 31 99 34 100 35 101 38 102
REMARK SMILES IDX 36 103 37 104 27 105 28 106 29 107 30 108
REMARK H PARENT 99 26 67 37 23 93
REMARK Flexibility Score: inf
ROOT
ATOM      1  C   UNL A   1      38.422  29.489  27.672  1.00  0.00     0.188 C 
ENDROOT
BRANCH   1   2
ATOM      2  C   UNL A   1      37.534  29.939  28.854  1.00  0.00     0.188 C 
BRANCH   2   3
ATOM      3  O   UNL A   1      36.139  29.929  28.572  1.00  0.00    -0.376 OA
BRANCH   3   4
ATOM      4  C   UNL A   1      35.680  30.933  27.685  1.00  0.00     0.202 C 
BRANCH   4   5
ATOM      5  C   UNL A   1      34.246  31.388  27.965  1.00  0.00     0.261 C 
BRANCH   5   6
ATOM      6  O   UNL A   1      34.122  32.678  28.592  1.00  0.00    -0.460 OA
BRANCH   6   7
ATOM      7  C   UNL A   1      34.414  33.154  29.816  1.00  0.00     0.338 C 
ATOM      8  O   UNL A   1      33.729  34.077  30.253  1.00  0.00    -0.246 OA
BRANCH   7   9
ATOM      9  C   UNL A   1      35.563  32.697  30.642  1.00  0.00     0.060 A 
ATOM     10  C   UNL A   1      35.520  31.689  31.603  1.00  0.00     0.016 A 
ATOM     11  C   UNL A   1      36.765  33.416  30.466  1.00  0.00     0.016 A 
ATOM     12  C   UNL A   1      36.606  31.482  32.443  1.00  0.00     0.010 A 
ATOM     13  C   UNL A   1      37.852  33.214  31.307  1.00  0.00     0.010 A 
ATOM     14  C   UNL A   1      37.740  32.287  32.333  1.00  0.00    -0.014 A 
BRANCH  14  15
ATOM     15  C   UNL A   1      38.762  32.136  33.356  1.00  0.00     0.031 A 
ATOM     16  C   UNL A   1      38.660  33.031  34.531  1.00  0.00     0.074 A 
ATOM     17  C   UNL A   1      39.754  31.228  33.259  1.00  0.00     0.049 A 
ATOM     18  N   UNL A   1      39.459  33.994  34.859  1.00  0.00    -0.248 NA
ATOM     19  C   UNL A   1      37.485  32.896  35.398  1.00  0.00     0.031 C 
ATOM     20  C   UNL A   1      39.845  30.098  32.331  1.00  0.00     0.029 A 
ATOM     21  N   UNL A   1      40.841  31.064  34.066  1.00  0.00    -0.354 N 
ATOM     22  C   UNL A   1      39.010  34.449  36.098  1.00  0.00     0.074 A 
ATOM     23  C   UNL A   1      37.720  33.842  36.308  1.00  0.00     0.031 C 
ATOM     24  C   UNL A   1      40.784  29.237  32.782  1.00  0.00     0.029 A 
ATOM     25  C   UNL A   1      41.446  29.823  33.935  1.00  0.00     0.049 A 
ATOM     26  H   UNL A   1      41.166  31.761  34.681  1.00  0.00     0.167 HD
ATOM     27  C   UNL A   1      39.827  35.122  36.952  1.00  0.00     0.034 A 
ATOM     28  C   UNL A   1      42.370  29.284  34.765  1.00  0.00     0.034 A 
ATOM     29  C   UNL A   1      41.014  35.610  36.300  1.00  0.00     0.049 A 
ATOM     30  C   UNL A   1      43.005  30.390  35.517  1.00  0.00     0.074 A 
ATOM     31  C   UNL A   1      41.281  36.451  35.239  1.00  0.00     0.029 A 
ATOM     32  N   UNL A   1      42.190  34.957  36.572  1.00  0.00    -0.354 N 
ATOM     33  N   UNL A   1      43.810  31.266  34.985  1.00  0.00    -0.248 NA
ATOM     34  C   UNL A   1      42.470  30.742  36.821  1.00  0.00     0.031 C 
ATOM     35  C   UNL A   1      42.465  35.930  34.642  1.00  0.00     0.029 A 
ATOM     36  C   UNL A   1      42.862  34.818  35.388  1.00  0.00     0.049 A 
ATOM     37  H   UNL A   1      42.495  34.648  37.455  1.00  0.00     0.167 HD
ATOM     38  C   UNL A   1      43.535  32.446  35.663  1.00  0.00     0.074 A 
ATOM     39  C   UNL A   1      42.814  32.031  36.862  1.00  0.00     0.031 C 
ATOM     40  C   UNL A   1      43.658  33.659  35.047  1.00  0.00     0.034 A 
BRANCH  27  41
ATOM     41  C   UNL A   1      39.739  35.074  38.460  1.00  0.00     0.023 A 
ATOM     42  C   UNL A   1      39.121  33.941  39.041  1.00  0.00     0.012 A 
ATOM     43  C   UNL A   1      39.967  36.183  39.305  1.00  0.00     0.148 A 
ATOM     44  C   UNL A   1      38.701  33.936  40.376  1.00  0.00     0.002 A 
ATOM     45  C   UNL A   1      39.626  36.139  40.654  1.00  0.00     0.091 A 
ATOM     46  F   UNL A   1      40.390  37.342  38.791  1.00  0.00    -0.205 F 
ATOM     47  C   UNL A   1      38.961  35.033  41.186  1.00  0.00     0.022 A 
BRANCH  45  48
ATOM     48  S   UNL A   1      40.008  37.505  41.756  1.00  0.00     0.127 S 
ATOM     49  O   UNL A   1      39.172  38.568  41.207  1.00  0.00    -0.237 OA
ATOM     50  O   UNL A   1      39.572  36.980  43.051  1.00  0.00    -0.237 OA
ATOM     51  O   UNL A   1      41.449  37.692  41.649  1.00  0.00    -0.744 OA
ENDBRANCH  45  48
ENDBRANCH  27  41
BRANCH  28  52
ATOM     52  C   UNL A   1      42.612  27.865  35.104  1.00  0.00     0.023 A 
ATOM     53  C   UNL A   1      41.696  27.178  35.924  1.00  0.00     0.012 A 
ATOM     54  C   UNL A   1      43.591  27.110  34.418  1.00  0.00     0.148 A 
ATOM     55  C   UNL A   1      41.733  25.784  36.034  1.00  0.00     0.002 A 
ATOM     56  C   UNL A   1      43.632  25.726  34.541  1.00  0.00     0.091 A 
ATOM     57  F   UNL A   1      44.417  27.738  33.570  1.00  0.00    -0.205 F 
ATOM     58  C   UNL A   1      42.696  25.057  35.339  1.00  0.00     0.022 A 
BRANCH  56  59
ATOM     59  S   UNL A   1      44.840  24.728  33.660  1.00  0.00     0.127 S 
ATOM     60  O   UNL A   1      44.751  23.447  34.362  1.00  0.00    -0.237 OA
ATOM     61  O   UNL A   1      44.296  24.722  32.305  1.00  0.00    -0.237 OA
ATOM     62  O   UNL A   1      46.115  25.413  33.830  1.00  0.00    -0.744 OA
ENDBRANCH  56  59
ENDBRANCH  28  52
BRANCH  40  63
ATOM     63  C   UNL A   1      44.412  33.733  33.743  1.00  0.00     0.023 A 
ATOM     64  C   UNL A   1      45.808  33.929  33.696  1.00  0.00     0.012 A 
ATOM     65  C   UNL A   1      43.730  33.419  32.553  1.00  0.00     0.148 A 
ATOM     66  C   UNL A   1      46.502  33.847  32.487  1.00  0.00     0.002 A 
ATOM     67  C   UNL A   1      44.433  33.287  31.360  1.00  0.00     0.091 A 
ATOM     68  F   UNL A   1      42.403  33.230  32.608  1.00  0.00    -0.205 F 
ATOM     69  C   UNL A   1      45.818  33.512  31.321  1.00  0.00     0.022 A 
BRANCH  67  70
ATOM     70  S   UNL A   1      43.629  32.712  29.862  1.00  0.00     0.127 S 
ATOM     71  O   UNL A   1      43.054  31.439  30.290  1.00  0.00    -0.237 OA
ATOM     72  O   UNL A   1      42.649  33.768  29.600  1.00  0.00    -0.237 OA
ATOM     73  O   UNL A   1      44.684  32.627  28.858  1.00  0.00    -0.744 OA
ENDBRANCH  67  70
ENDBRANCH  40  63
ENDBRANCH  14  15
ENDBRANCH   7   9
ENDBRANCH   6   7
ENDBRANCH   5   6
ENDBRANCH   4   5
ENDBRANCH   3   4
ENDBRANCH   2   3
ENDBRANCH   1   2
BRANCH   1  74
ATOM     74  O   UNL A   1      39.826  29.276  27.792  1.00  0.00    -0.376 OA
BRANCH  74  75
ATOM     75  C   UNL A   1      40.569  28.766  26.706  1.00  0.00     0.202 C 
BRANCH  75  76
ATOM     76  C   UNL A   1      41.070  27.332  26.877  1.00  0.00     0.261 C 
BRANCH  76  77
ATOM     77  O   UNL A   1      40.159  26.309  26.447  1.00  0.00    -0.460 OA
BRANCH  77  78
ATOM     78  C   UNL A   1      39.468  25.658  27.416  1.00  0.00     0.338 C 
ATOM     79  O   UNL A   1      39.128  26.088  28.514  1.00  0.00    -0.246 OA
BRANCH  78  80
ATOM     80  C   UNL A   1      39.162  24.293  26.944  1.00  0.00     0.061 A 
ATOM     81  C   UNL A   1      40.229  23.411  26.779  1.00  0.00     0.019 A 
ATOM     82  C   UNL A   1      37.834  23.891  26.664  1.00  0.00     0.038 A 
ATOM     83  C   UNL A   1      39.947  22.142  26.321  1.00  0.00    -0.043 A 
ATOM     84  C   UNL A   1      37.560  22.603  26.149  1.00  0.00     0.092 A 
ATOM     85  C   UNL A   1      38.643  21.753  25.946  1.00  0.00    -0.024 A 
ATOM     86  C   UNL A   1      40.927  21.025  26.118  1.00  0.00     0.036 C 
ATOM     87  C   UNL A   1      38.739  20.407  25.300  1.00  0.00     0.037 C 
ATOM     88  C   UNL A   1      39.960  19.844  26.034  1.00  0.00     0.010 C 
BRANCH  84  89
ATOM     89  S   UNL A   1      35.927  22.246  25.512  1.00  0.00     0.262 S 
ATOM     90  O   UNL A   1      36.097  21.205  24.510  1.00  0.00    -0.201 OA
ATOM     91  O   UNL A   1      35.077  22.008  26.652  1.00  0.00    -0.201 OA
BRANCH  89  92
ATOM     92  N   UNL A   1      35.231  23.553  24.653  1.00  0.00    -0.277 N 
ATOM     93  H   UNL A   1      35.613  23.809  23.783  1.00  0.00     0.180 HD
BRANCH  92  94
ATOM     94  C   UNL A   1      34.107  24.291  25.160  1.00  0.00     0.075 A 
ATOM     95  C   UNL A   1      34.320  25.574  25.697  1.00  0.00     0.042 A 
ATOM     96  C   UNL A   1      32.794  23.814  25.024  1.00  0.00     0.089 A 
ATOM     97  C   UNL A   1      33.231  26.411  26.023  1.00  0.00     0.058 A 
ATOM     98  C   UNL A   1      31.708  24.636  25.358  1.00  0.00     0.031 A 
ATOM     99  C   UNL A   1      31.926  25.921  25.861  1.00  0.00     0.015 A 
BRANCH  96 100
ATOM    100  N   UNL A   1      32.530  22.514  24.527  1.00  0.00    -0.239 N 
ATOM    101  C   UNL A   1      32.117  21.405  25.231  1.00  0.00     0.115 A 
ATOM    102  N   UNL A   1      32.754  22.213  23.221  1.00  0.00    -0.177 NA
ATOM    103  C   UNL A   1      32.285  20.322  24.406  1.00  0.00     0.042 A 
ATOM    104  C   UNL A   1      32.717  20.877  23.192  1.00  0.00     0.135 A 
ENDBRANCH  96 100
BRANCH  97 105
ATOM    105  C   UNL A   1      33.462  27.839  26.470  1.00  0.00     0.416 C 
ATOM    106  F   UNL A   1      32.873  28.748  25.649  1.00  0.00    -0.166 F 
ATOM    107  F   UNL A   1      32.994  28.077  27.723  1.00  0.00    -0.166 F 
ATOM    108  F   UNL A   1      34.785  28.172  26.505  1.00  0.00    -0.166 F 
ENDBRANCH  97 105
ENDBRANCH  92  94
ENDBRANCH  89  92
ENDBRANCH  84  89
ENDBRANCH  78  80
ENDBRANCH  77  78
ENDBRANCH  76  77
ENDBRANCH  75  76
ENDBRANCH  74  75
ENDBRANCH   1  74
TORSDOF 25
ENDMDL
MODEL 3
REMARK VINA RESULT:      -8.5      2.455      3.102
REMARK SMILES O=C(OCCOCCOCCOC(=O)c1cc2c(c(S(=O)(=O)Nc3cc(C(F)(F)F)ccc3-n3cccn3)c1)CCC2)c1ccc(-c2c3nc(c(-c4cccc(S(=O)(=O)[O-])c4F)c4ccc([nH]4)c(-c4cccc(S(=O)(=O)[O-])c4F)c4nc(c(-c5cccc(S(=O)(=O)[O-])c5F)c5ccc2[nH]5)C=C4)C=C3)cc1
REMARK SMILES IDX 8 1 7 2 6 3 5 4 4 5 3 6 2 7 1 8 43 9 44 10 105 11 45 12
REMARK SMILES IDX 104 13 46 14 47 15 48 16 98 17 49 18 103 19 97 20 99 21
REMARK SMILES IDX 50 22 102 23 96 24 95 25 51 27 83 28 63 29 82 30 64 31 67 32
REMARK SMILES IDX 81 33 100 34 65 35 66 36 80 38 101 39 68 40 52 41 53 42
REMARK SMILES IDX 61 43 54 44 56 45 62 46 55 47 57 48 58 49 59 50 60 51 84 52
REMARK SMILES IDX 85 53 93 54 86 55 88 56 94 57 87 58 89 59 90 60 91 61 92 62
REMARK SMILES IDX 69 63 70 64 78 65 71 66 73 67 79 68 72 69 74 70 75 71 76 72
REMARK SMILES IDX 77 73 9 74 10 75 11 76 12 77 13 78 14 79 15 80 16 81 39 82
REMARK SMILES IDX 17 83 19 84 18 85 42 86 40 87 41 88 20 89 21 90 22 91 23 92
REMARK SMILES IDX 24 94 25 95 33 96 26 97 32 98 31 99 34 100 35 101 38 102
REMARK SMILES IDX 36 103 37 104 27 105 28 106 29 107 30 108
REMARK H PARENT 99 26 67 37 23 93
REMARK Flexibility Score: inf
ROOT
ATOM      1  C   UNL A   1      35.563  23.961  25.780  1.00  0.00     0.188 C 
ENDROOT
BRANCH   1   2
ATOM      2  C   UNL A   1      34.411  24.729  25.094  1.00  0.00     0.188 C 
BRANCH   2   3
ATOM      3  O   UNL A   1      34.378  26.120  25.393  1.00  0.00    -0.376 OA
BRANCH   3   4
ATOM      4  C   UNL A   1      33.101  26.664  25.674  1.00  0.00     0.202 C 
BRANCH   4   5
ATOM      5  C   UNL A   1      33.126  28.164  25.969  1.00  0.00     0.261 C 
BRANCH   5   6
ATOM      6  O   UNL A   1      34.407  28.693  26.360  1.00  0.00    -0.460 OA
BRANCH   6   7
ATOM      7  C   UNL A   1      34.804  29.600  27.272  1.00  0.00     0.338 C 
ATOM      8  O   UNL A   1      34.143  30.632  27.383  1.00  0.00    -0.246 OA
BRANCH   7   9
ATOM      9  C   UNL A   1      36.037  29.480  28.093  1.00  0.00     0.060 A 
ATOM     10  C   UNL A   1      36.077  29.325  29.477  1.00  0.00     0.016 A 
ATOM     11  C   UNL A   1      37.255  29.612  27.390  1.00  0.00     0.016 A 
ATOM     12  C   UNL A   1      37.286  29.416  30.153  1.00  0.00     0.010 A 
ATOM     13  C   UNL A   1      38.466  29.707  28.063  1.00  0.00     0.010 A 
ATOM     14  C   UNL A   1      38.464  29.671  29.450  1.00  0.00    -0.014 A 
BRANCH  14  15
ATOM     15  C   UNL A   1      39.661  29.931  30.234  1.00  0.00     0.031 A 
ATOM     16  C   UNL A   1      39.623  31.114  31.125  1.00  0.00     0.074 A 
ATOM     17  C   UNL A   1      40.753  29.144  30.170  1.00  0.00     0.049 A 
ATOM     18  N   UNL A   1      40.302  32.209  31.008  1.00  0.00    -0.248 NA
ATOM     19  C   UNL A   1      38.656  31.113  32.227  1.00  0.00     0.031 C 
ATOM     20  C   UNL A   1      40.861  27.809  29.577  1.00  0.00     0.029 A 
ATOM     21  N   UNL A   1      41.977  29.337  30.740  1.00  0.00    -0.354 N 
ATOM     22  C   UNL A   1      40.011  32.954  32.149  1.00  0.00     0.074 A 
ATOM     23  C   UNL A   1      38.891  32.303  32.783  1.00  0.00     0.031 C 
ATOM     24  C   UNL A   1      41.991  27.220  30.028  1.00  0.00     0.029 A 
ATOM     25  C   UNL A   1      42.742  28.182  30.817  1.00  0.00     0.049 A 
ATOM     26  H   UNL A   1      42.288  30.212  31.066  1.00  0.00     0.167 HD
ATOM     27  C   UNL A   1      40.845  33.929  32.601  1.00  0.00     0.034 A 
ATOM     28  C   UNL A   1      43.870  28.008  31.542  1.00  0.00     0.034 A 
ATOM     29  C   UNL A   1      41.805  34.327  31.605  1.00  0.00     0.049 A 
ATOM     30  C   UNL A   1      44.442  29.345  31.822  1.00  0.00     0.074 A 
ATOM     31  C   UNL A   1      41.743  34.847  30.328  1.00  0.00     0.029 A 
ATOM     32  N   UNL A   1      43.100  33.909  31.782  1.00  0.00    -0.354 N 
ATOM     33  N   UNL A   1      44.989  30.108  30.918  1.00  0.00    -0.248 NA
ATOM     34  C   UNL A   1      44.094  30.003  33.070  1.00  0.00     0.031 C 
ATOM     35  C   UNL A   1      42.872  34.303  29.652  1.00  0.00     0.029 A 
ATOM     36  C   UNL A   1      43.568  33.504  30.562  1.00  0.00     0.049 A 
ATOM     37  H   UNL A   1      43.601  33.904  32.630  1.00  0.00     0.167 HD
ATOM     38  C   UNL A   1      44.651  31.398  31.303  1.00  0.00     0.074 A 
ATOM     39  C   UNL A   1      44.227  31.277  32.695  1.00  0.00     0.031 C 
ATOM     40  C   UNL A   1      44.468  32.386  30.377  1.00  0.00     0.034 A 
BRANCH  27  41
ATOM     41  C   UNL A   1      41.031  34.312  34.051  1.00  0.00     0.023 A 
ATOM     42  C   UNL A   1      41.004  35.690  34.371  1.00  0.00     0.012 A 
ATOM     43  C   UNL A   1      41.504  33.432  35.050  1.00  0.00     0.148 A 
ATOM     44  C   UNL A   1      41.476  36.171  35.596  1.00  0.00     0.002 A 
ATOM     45  C   UNL A   1      41.892  33.908  36.299  1.00  0.00     0.091 A 
ATOM     46  F   UNL A   1      41.717  32.144  34.764  1.00  0.00    -0.205 F 
ATOM     47  C   UNL A   1      41.913  35.278  36.566  1.00  0.00     0.022 A 
BRANCH  45  48
ATOM     48  S   UNL A   1      42.395  32.786  37.609  1.00  0.00     0.127 S 
ATOM     49  O   UNL A   1      43.492  32.064  36.971  1.00  0.00    -0.237 OA
ATOM     50  O   UNL A   1      42.797  33.715  38.666  1.00  0.00    -0.237 OA
ATOM     51  O   UNL A   1      41.204  32.007  37.925  1.00  0.00    -0.744 OA
ENDBRANCH  45  48
ENDBRANCH  27  41
BRANCH  28  52
ATOM     52  C   UNL A   1      44.393  26.782  32.184  1.00  0.00     0.023 A 
ATOM     53  C   UNL A   1      45.666  26.297  31.825  1.00  0.00     0.012 A 
ATOM     54  C   UNL A   1      43.769  26.238  33.329  1.00  0.00     0.148 A 
ATOM     55  C   UNL A   1      46.308  25.324  32.599  1.00  0.00     0.002 A 
ATOM     56  C   UNL A   1      44.406  25.262  34.086  1.00  0.00     0.091 A 
ATOM     57  F   UNL A   1      42.596  26.746  33.731  1.00  0.00    -0.205 F 
ATOM     58  C   UNL A   1      45.682  24.810  33.731  1.00  0.00     0.022 A 
BRANCH  56  59
ATOM     59  S   UNL A   1      43.659  24.568  35.567  1.00  0.00     0.127 S 
ATOM     60  O   UNL A   1      44.833  24.162  36.342  1.00  0.00    -0.237 OA
ATOM     61  O   UNL A   1      42.937  25.716  36.108  1.00  0.00    -0.237 OA
ATOM     62  O   UNL A   1      42.835  23.456  35.109  1.00  0.00    -0.744 OA
ENDBRANCH  56  59
ENDBRANCH  28  52
BRANCH  40  63
ATOM     63  C   UNL A   1      44.959  32.156  28.971  1.00  0.00     0.023 A 
ATOM     64  C   UNL A   1      44.106  31.699  27.945  1.00  0.00     0.012 A 
ATOM     65  C   UNL A   1      46.258  32.579  28.634  1.00  0.00     0.148 A 
ATOM     66  C   UNL A   1      44.547  31.633  26.622  1.00  0.00     0.002 A 
ATOM     67  C   UNL A   1      46.676  32.562  27.307  1.00  0.00     0.091 A 
ATOM     68  F   UNL A   1      47.061  33.017  29.615  1.00  0.00    -0.205 F 
ATOM     69  C   UNL A   1      45.827  32.079  26.300  1.00  0.00     0.022 A 
BRANCH  67  70
ATOM     70  S   UNL A   1      48.255  33.261  26.818  1.00  0.00     0.127 S 
ATOM     71  O   UNL A   1      49.022  32.069  26.463  1.00  0.00    -0.237 OA
ATOM     72  O   UNL A   1      47.890  34.112  25.685  1.00  0.00    -0.237 OA
ATOM     73  O   UNL A   1      48.734  34.001  27.979  1.00  0.00    -0.744 OA
ENDBRANCH  67  70
ENDBRANCH  40  63
ENDBRANCH  14  15
ENDBRANCH   7   9
ENDBRANCH   6   7
ENDBRANCH   5   6
ENDBRANCH   4   5
ENDBRANCH   3   4
ENDBRANCH   2   3
ENDBRANCH   1   2
BRANCH   1  74
ATOM     74  O   UNL A   1      36.912  24.013  25.320  1.00  0.00    -0.376 OA
BRANCH  74  75
ATOM     75  C   UNL A   1      37.984  23.968  26.238  1.00  0.00     0.202 C 
BRANCH  75  76
ATOM     76  C   UNL A   1      38.862  22.720  26.149  1.00  0.00     0.261 C 
BRANCH  76  77
ATOM     77  O   UNL A   1      40.252  22.925  26.447  1.00  0.00    -0.460 OA
BRANCH  77  78
ATOM     78  C   UNL A   1      40.894  21.921  27.093  1.00  0.00     0.338 C 
ATOM     79  O   UNL A   1      40.530  21.320  28.099  1.00  0.00    -0.246 OA
BRANCH  78  80
ATOM     80  C   UNL A   1      42.156  21.633  26.384  1.00  0.00     0.061 A 
ATOM     81  C   UNL A   1      42.415  20.309  26.033  1.00  0.00     0.019 A 
ATOM     82  C   UNL A   1      43.076  22.663  26.071  1.00  0.00     0.038 A 
ATOM     83  C   UNL A   1      43.601  20.036  25.386  1.00  0.00    -0.043 A 
ATOM     84  C   UNL A   1      44.313  22.366  25.451  1.00  0.00     0.092 A 
ATOM     85  C   UNL A   1      44.573  21.032  25.151  1.00  0.00    -0.024 A 
ATOM     86  C   UNL A   1      44.058  18.701  24.878  1.00  0.00     0.036 C 
ATOM     87  C   UNL A   1      45.804  20.354  24.638  1.00  0.00     0.037 C 
ATOM     88  C   UNL A   1      45.171  19.151  23.932  1.00  0.00     0.010 C 
BRANCH  84  89
ATOM     89  S   UNL A   1      45.573  23.633  25.365  1.00  0.00     0.262 S 
ATOM     90  O   UNL A   1      46.418  23.451  26.534  1.00  0.00    -0.201 OA
ATOM     91  O   UNL A   1      46.151  23.557  24.046  1.00  0.00    -0.201 OA
BRANCH  89  92
ATOM     92  N   UNL A   1      44.953  25.220  25.530  1.00  0.00    -0.277 N 
ATOM     93  H   UNL A   1      44.325  25.560  24.852  1.00  0.00     0.180 HD
BRANCH  92  94
ATOM     94  C   UNL A   1      45.318  26.075  26.626  1.00  0.00     0.075 A 
ATOM     95  C   UNL A   1      46.573  25.901  27.237  1.00  0.00     0.042 A 
ATOM     96  C   UNL A   1      44.506  27.149  27.021  1.00  0.00     0.089 A 
ATOM     97  C   UNL A   1      47.055  26.836  28.178  1.00  0.00     0.058 A 
ATOM     98  C   UNL A   1      44.973  28.075  27.965  1.00  0.00     0.031 A 
ATOM     99  C   UNL A   1      46.234  27.914  28.545  1.00  0.00     0.015 A 
BRANCH  96 100
ATOM    100  N   UNL A   1      43.218  27.342  26.465  1.00  0.00    -0.239 N 
ATOM    101  C   UNL A   1      42.522  28.522  26.327  1.00  0.00     0.115 A 
ATOM    102  N   UNL A   1      42.473  26.282  26.057  1.00  0.00    -0.177 NA
ATOM    103  C   UNL A   1      41.225  28.189  26.027  1.00  0.00     0.042 A 
ATOM    104  C   UNL A   1      41.246  26.792  25.910  1.00  0.00     0.135 A 
ENDBRANCH  96 100
BRANCH  97 105
ATOM    105  C   UNL A   1      48.460  26.723  28.731  1.00  0.00     0.416 C 
ATOM    106  F   UNL A   1      49.376  26.409  27.777  1.00  0.00    -0.166 F 
ATOM    107  F   UNL A   1      48.883  27.870  29.323  1.00  0.00    -0.166 F 
ATOM    108  F   UNL A   1      48.573  25.755  29.687  1.00  0.00    -0.166 F 
ENDBRANCH  97 105
ENDBRANCH  92  94
ENDBRANCH  89  92
ENDBRANCH  84  89
ENDBRANCH  78  80
ENDBRANCH  77  78
ENDBRANCH  76  77
ENDBRANCH  75  76
ENDBRANCH  74  75
ENDBRANCH   1  74
TORSDOF 25
ENDMDL
