MODEL 1
REMARK VINA RESULT:     -11.3      0.000      0.000
REMARK SMILES O=C(OCCOCCOCCOC(=O)[C@H]1Cc2c([nH]c3ccccc23)[C@@H](c2ccc(OC(F)(F)F)cc2)[NH2+]1)c1ccc(-c2c3nc(c(-c4cccc(S(=O)(=O)[O-])c4F)c4ccc([nH]4)c(-c4cccc(S(=O)(=O)[O-])c4F)c4nc(c(-c5cccc(S(=O)(=O)[O-])c5F)c5ccc2[nH]5)C=C4)C=C3)cc1
REMARK SMILES IDX 7 1 6 2 5 3 4 4 3 5 2 6 1 7 39 8 40 9 101 10 41 11 100 12
REMARK SMILES IDX 42 13 43 14 44 15 94 16 45 17 99 18 93 19 95 20 46 21 98 22
REMARK SMILES IDX 92 23 91 24 47 26 79 27 59 28 78 29 60 30 63 31 77 32 96 33
REMARK SMILES IDX 61 34 62 35 76 37 97 38 64 39 48 40 49 41 57 42 50 43 52 44
REMARK SMILES IDX 58 45 51 46 53 47 54 48 55 49 56 50 80 51 81 52 89 53 82 54
REMARK SMILES IDX 84 55 90 56 83 57 85 58 86 59 87 60 88 61 65 62 66 63 74 64
REMARK SMILES IDX 67 65 69 66 75 67 68 68 70 69 71 70 72 71 73 72 8 73 9 74
REMARK SMILES IDX 10 75 11 76 12 77 13 78 14 79 15 80 16 81 38 82 17 83 26 84
REMARK SMILES IDX 18 87 25 88 19 89 20 90 24 91 21 93 23 94 22 95 27 96 28 97
REMARK SMILES IDX 37 98 29 99 36 100 30 101 31 102 32 103 33 104 34 105 35 106
REMARK H PARENT 95 25 63 36 38 85 38 86 19 92
REMARK Flexibility Score: inf
ROOT
ATOM      1  C   UNL A   1      36.731  20.430  24.733  1.00  0.00     0.188 C 
ENDROOT
BRANCH   1   2
ATOM      2  O   UNL A   1      37.984  20.798  25.309  1.00  0.00    -0.376 OA
BRANCH   2   3
ATOM      3  C   UNL A   1      39.049  19.873  25.066  1.00  0.00     0.202 C 
BRANCH   3   4
ATOM      4  C   UNL A   1      39.940  19.527  26.275  1.00  0.00     0.261 C 
BRANCH   4   5
ATOM      5  O   UNL A   1      41.196  18.914  25.929  1.00  0.00    -0.460 OA
BRANCH   5   6
ATOM      6  C   UNL A   1      42.406  19.506  25.754  1.00  0.00     0.338 C 
ATOM      7  O   UNL A   1      43.348  18.820  25.361  1.00  0.00    -0.246 OA
BRANCH   6   8
ATOM      8  C   UNL A   1      42.663  20.949  26.031  1.00  0.00     0.060 A 
ATOM      9  C   UNL A   1      42.703  21.942  25.056  1.00  0.00     0.016 A 
ATOM     10  C   UNL A   1      42.808  21.342  27.371  1.00  0.00     0.016 A 
ATOM     11  C   UNL A   1      43.010  23.253  25.362  1.00  0.00     0.010 A 
ATOM     12  C   UNL A   1      43.059  22.678  27.702  1.00  0.00     0.010 A 
ATOM     13  C   UNL A   1      43.210  23.626  26.684  1.00  0.00    -0.014 A 
BRANCH  13  14
ATOM     14  C   UNL A   1      43.740  24.977  26.921  1.00  0.00     0.031 A 
ATOM     15  C   UNL A   1      42.841  25.978  27.583  1.00  0.00     0.074 A 
ATOM     16  C   UNL A   1      45.043  25.227  26.699  1.00  0.00     0.049 A 
ATOM     17  N   UNL A   1      43.084  27.217  27.907  1.00  0.00    -0.248 NA
ATOM     18  C   UNL A   1      41.487  25.516  27.944  1.00  0.00     0.031 C 
ATOM     19  C   UNL A   1      46.012  24.265  26.163  1.00  0.00     0.029 A 
ATOM     20  N   UNL A   1      45.784  26.354  26.922  1.00  0.00    -0.354 N 
ATOM     21  C   UNL A   1      41.899  27.701  28.448  1.00  0.00     0.074 A 
ATOM     22  C   UNL A   1      40.942  26.620  28.429  1.00  0.00     0.031 C 
ATOM     23  C   UNL A   1      47.224  24.841  26.112  1.00  0.00     0.029 A 
ATOM     24  C   UNL A   1      47.101  26.225  26.551  1.00  0.00     0.049 A 
ATOM     25  H   UNL A   1      45.411  27.177  27.312  1.00  0.00     0.167 HD
ATOM     26  C   UNL A   1      41.639  28.943  28.912  1.00  0.00     0.034 A 
ATOM     27  C   UNL A   1      48.079  27.147  26.534  1.00  0.00     0.034 A 
ATOM     28  C   UNL A   1      42.617  29.993  28.925  1.00  0.00     0.049 A 
ATOM     29  C   UNL A   1      47.737  28.541  26.978  1.00  0.00     0.074 A 
ATOM     30  C   UNL A   1      42.472  31.304  29.335  1.00  0.00     0.029 A 
ATOM     31  N   UNL A   1      43.929  29.845  28.494  1.00  0.00    -0.354 N 
ATOM     32  N   UNL A   1      46.612  28.994  27.481  1.00  0.00    -0.248 NA
ATOM     33  C   UNL A   1      48.795  29.549  26.855  1.00  0.00     0.031 C 
ATOM     34  C   UNL A   1      43.687  31.960  29.110  1.00  0.00     0.029 A 
ATOM     35  C   UNL A   1      44.603  31.045  28.612  1.00  0.00     0.049 A 
ATOM     36  H   UNL A   1      44.319  29.008  28.153  1.00  0.00     0.167 HD
ATOM     37  C   UNL A   1      46.836  30.334  27.764  1.00  0.00     0.074 A 
ATOM     38  C   UNL A   1      48.212  30.610  27.395  1.00  0.00     0.031 C 
ATOM     39  C   UNL A   1      45.986  31.260  28.271  1.00  0.00     0.034 A 
BRANCH  26  40
ATOM     40  C   UNL A   1      40.236  29.228  29.374  1.00  0.00     0.023 A 
ATOM     41  C   UNL A   1      39.281  29.759  28.485  1.00  0.00     0.012 A 
ATOM     42  C   UNL A   1      39.873  28.983  30.713  1.00  0.00     0.148 A 
ATOM     43  C   UNL A   1      37.998  30.081  28.932  1.00  0.00     0.002 A 
ATOM     44  C   UNL A   1      38.581  29.262  31.139  1.00  0.00     0.091 A 
ATOM     45  F   UNL A   1      40.806  28.508  31.550  1.00  0.00    -0.205 F 
ATOM     46  C   UNL A   1      37.647  29.827  30.255  1.00  0.00     0.022 A 
BRANCH  44  47
ATOM     47  S   UNL A   1      38.015  28.909  32.806  1.00  0.00     0.127 S 
ATOM     48  O   UNL A   1      38.156  27.454  32.861  1.00  0.00    -0.237 OA
ATOM     49  O   UNL A   1      38.983  29.647  33.617  1.00  0.00    -0.237 OA
ATOM     50  O   UNL A   1      36.649  29.405  32.883  1.00  0.00    -0.744 OA
ENDBRANCH  44  47
ENDBRANCH  26  40
BRANCH  27  51
ATOM     51  C   UNL A   1      49.444  26.813  26.048  1.00  0.00     0.023 A 
ATOM     52  C   UNL A   1      50.363  26.185  26.910  1.00  0.00     0.012 A 
ATOM     53  C   UNL A   1      49.850  27.163  24.746  1.00  0.00     0.148 A 
ATOM     54  C   UNL A   1      51.672  25.937  26.493  1.00  0.00     0.002 A 
ATOM     55  C   UNL A   1      51.148  26.895  24.331  1.00  0.00     0.091 A 
ATOM     56  F   UNL A   1      48.961  27.772  23.947  1.00  0.00    -0.205 F 
ATOM     57  C   UNL A   1      52.063  26.287  25.204  1.00  0.00     0.022 A 
BRANCH  55  58
ATOM     58  S   UNL A   1      51.733  27.291  22.683  1.00  0.00     0.127 S 
ATOM     59  O   UNL A   1      53.013  26.590  22.645  1.00  0.00    -0.237 OA
ATOM     60  O   UNL A   1      50.690  26.706  21.845  1.00  0.00    -0.237 OA
ATOM     61  O   UNL A   1      51.825  28.748  22.651  1.00  0.00    -0.744 OA
ENDBRANCH  55  58
ENDBRANCH  27  51
BRANCH  39  62
ATOM     62  C   UNL A   1      46.541  32.635  28.512  1.00  0.00     0.023 A 
ATOM     63  C   UNL A   1      47.045  32.985  29.779  1.00  0.00     0.012 A 
ATOM     64  C   UNL A   1      46.621  33.555  27.450  1.00  0.00     0.148 A 
ATOM     65  C   UNL A   1      47.593  34.249  29.992  1.00  0.00     0.002 A 
ATOM     66  C   UNL A   1      47.222  34.786  27.653  1.00  0.00     0.091 A 
ATOM     67  F   UNL A   1      46.112  33.202  26.259  1.00  0.00    -0.205 F 
ATOM     68  C   UNL A   1      47.693  35.142  28.927  1.00  0.00     0.022 A 
BRANCH  66  69
ATOM     69  S   UNL A   1      47.496  35.949  26.314  1.00  0.00     0.127 S 
ATOM     70  O   UNL A   1      47.299  35.101  25.139  1.00  0.00    -0.237 OA
ATOM     71  O   UNL A   1      46.439  36.935  26.541  1.00  0.00    -0.237 OA
ATOM     72  O   UNL A   1      48.847  36.461  26.496  1.00  0.00    -0.744 OA
ENDBRANCH  66  69
ENDBRANCH  39  62
ENDBRANCH  13  14
ENDBRANCH   6   8
ENDBRANCH   5   6
ENDBRANCH   4   5
ENDBRANCH   3   4
ENDBRANCH   2   3
ENDBRANCH   1   2
BRANCH   1  73
ATOM     73  C   UNL A   1      35.542  21.168  25.343  1.00  0.00     0.188 C 
BRANCH  73  74
ATOM     74  O   UNL A   1      34.712  21.907  24.453  1.00  0.00    -0.376 OA
BRANCH  74  75
ATOM     75  C   UNL A   1      33.306  21.731  24.560  1.00  0.00     0.202 C 
BRANCH  75  76
ATOM     76  C   UNL A   1      32.511  22.546  25.597  1.00  0.00     0.261 C 
BRANCH  76  77
ATOM     77  O   UNL A   1      31.272  23.131  25.169  1.00  0.00    -0.459 OA
BRANCH  77  78
ATOM     78  C   UNL A   1      31.008  24.334  25.765  1.00  0.00     0.365 C 
ATOM     79  O   UNL A   1      30.484  24.434  26.870  1.00  0.00    -0.245 OA
BRANCH  78  80
ATOM     80  C   UNL A   1      31.410  25.522  24.880  1.00  0.00     0.298 C 
ATOM     81  C   UNL A   1      30.055  26.182  24.550  1.00  0.00     0.115 C 
ATOM     82  N   UNL A   1      32.387  26.425  25.570  1.00  0.00    -0.323 N 
ATOM     83  C   UNL A   1      30.261  27.514  23.973  1.00  0.00    -0.006 A 
ATOM     84  C   UNL A   1      32.663  27.717  24.869  1.00  0.00     0.262 C 
ATOM     85  H   UNL A   1      33.269  25.921  25.663  1.00  0.00     0.347 HD
ATOM     86  H   UNL A   1      31.963  26.672  26.464  1.00  0.00     0.347 HD
ATOM     87  C   UNL A   1      31.460  28.177  24.092  1.00  0.00     0.083 A 
ATOM     88  C   UNL A   1      29.317  28.376  23.383  1.00  0.00     0.003 A 
ATOM     89  N   UNL A   1      31.328  29.350  23.384  1.00  0.00    -0.353 N 
ATOM     90  C   UNL A   1      29.995  29.553  23.073  1.00  0.00     0.046 A 
ATOM     91  C   UNL A   1      27.943  28.271  23.114  1.00  0.00     0.010 A 
ATOM     92  H   UNL A   1      32.067  29.952  23.138  1.00  0.00     0.166 HD
ATOM     93  C   UNL A   1      29.342  30.657  22.518  1.00  0.00     0.026 A 
ATOM     94  C   UNL A   1      27.278  29.362  22.557  1.00  0.00     0.001 A 
ATOM     95  C   UNL A   1      27.968  30.537  22.270  1.00  0.00     0.002 A 
BRANCH  84  96
ATOM     96  C   UNL A   1      33.146  28.750  25.906  1.00  0.00     0.016 A 
ATOM     97  C   UNL A   1      34.367  28.610  26.593  1.00  0.00     0.014 A 
ATOM     98  C   UNL A   1      32.386  29.899  26.187  1.00  0.00     0.014 A 
ATOM     99  C   UNL A   1      34.777  29.536  27.555  1.00  0.00     0.047 A 
ATOM    100  C   UNL A   1      32.819  30.854  27.130  1.00  0.00     0.047 A 
ATOM    101  C   UNL A   1      34.015  30.670  27.822  1.00  0.00     0.129 A 
BRANCH 101 102
ATOM    102  O   UNL A   1      34.555  31.487  28.773  1.00  0.00    -0.406 OA
BRANCH 102 103
ATOM    103  C   UNL A   1      35.168  32.687  28.347  1.00  0.00     0.573 C 
ATOM    104  F   UNL A   1      34.258  33.577  27.899  1.00  0.00    -0.132 F 
ATOM    105  F   UNL A   1      35.904  33.242  29.331  1.00  0.00    -0.132 F 
ATOM    106  F   UNL A   1      36.002  32.398  27.318  1.00  0.00    -0.132 F 
ENDBRANCH 102 103
ENDBRANCH 101 102
ENDBRANCH  84  96
ENDBRANCH  78  80
ENDBRANCH  77  78
ENDBRANCH  76  77
ENDBRANCH  75  76
ENDBRANCH  74  75
ENDBRANCH  73  74
ENDBRANCH   1  73
TORSDOF 23
ENDMDL
MODEL 2
REMARK VINA RESULT:     -10.6      1.682      2.088
REMARK SMILES O=C(OCCOCCOCCOC(=O)[C@H]1Cc2c([nH]c3ccccc23)[C@@H](c2ccc(OC(F)(F)F)cc2)[NH2+]1)c1ccc(-c2c3nc(c(-c4cccc(S(=O)(=O)[O-])c4F)c4ccc([nH]4)c(-c4cccc(S(=O)(=O)[O-])c4F)c4nc(c(-c5cccc(S(=O)(=O)[O-])c5F)c5ccc2[nH]5)C=C4)C=C3)cc1
REMARK SMILES IDX 7 1 6 2 5 3 4 4 3 5 2 6 1 7 39 8 40 9 101 10 41 11 100 12
REMARK SMILES IDX 42 13 43 14 44 15 94 16 45 17 99 18 93 19 95 20 46 21 98 22
REMARK SMILES IDX 92 23 91 24 47 26 79 27 59 28 78 29 60 30 63 31 77 32 96 33
REMARK SMILES IDX 61 34 62 35 76 37 97 38 64 39 48 40 49 41 57 42 50 43 52 44
REMARK SMILES IDX 58 45 51 46 53 47 54 48 55 49 56 50 80 51 81 52 89 53 82 54
REMARK SMILES IDX 84 55 90 56 83 57 85 58 86 59 87 60 88 61 65 62 66 63 74 64
REMARK SMILES IDX 67 65 69 66 75 67 68 68 70 69 71 70 72 71 73 72 8 73 9 74
REMARK SMILES IDX 10 75 11 76 12 77 13 78 14 79 15 80 16 81 38 82 17 83 26 84
REMARK SMILES IDX 18 87 25 88 19 89 20 90 24 91 21 93 23 94 22 95 27 96 28 97
REMARK SMILES IDX 37 98 29 99 36 100 30 101 31 102 32 103 33 104 34 105 35 106
REMARK H PARENT 95 25 63 36 38 85 38 86 19 92
REMARK Flexibility Score: inf
ROOT
ATOM      1  C   UNL A   1      38.933  21.830  26.046  1.00  0.00     0.188 C 
ENDROOT
BRANCH   1   2
ATOM      2  O   UNL A   1      39.633  20.627  25.726  1.00  0.00    -0.376 OA
BRANCH   2   3
ATOM      3  C   UNL A   1      40.767  20.357  26.555  1.00  0.00     0.202 C 
BRANCH   3   4
ATOM      4  C   UNL A   1      41.660  19.177  26.124  1.00  0.00     0.261 C 
BRANCH   4   5
ATOM      5  O   UNL A   1      43.066  19.483  26.081  1.00  0.00    -0.460 OA
BRANCH   5   6
ATOM      6  C   UNL A   1      43.706  20.418  25.333  1.00  0.00     0.338 C 
ATOM      7  O   UNL A   1      44.233  20.071  24.276  1.00  0.00    -0.246 OA
BRANCH   6   8
ATOM      8  C   UNL A   1      43.823  21.850  25.731  1.00  0.00     0.060 A 
ATOM      9  C   UNL A   1      43.713  22.923  24.851  1.00  0.00     0.016 A 
ATOM     10  C   UNL A   1      43.988  22.138  27.096  1.00  0.00     0.016 A 
ATOM     11  C   UNL A   1      43.895  24.229  25.264  1.00  0.00     0.010 A 
ATOM     12  C   UNL A   1      44.112  23.459  27.538  1.00  0.00     0.010 A 
ATOM     13  C   UNL A   1      44.116  24.504  26.607  1.00  0.00    -0.014 A 
BRANCH  13  14
ATOM     14  C   UNL A   1      44.511  25.879  26.948  1.00  0.00     0.031 A 
ATOM     15  C   UNL A   1      43.510  26.743  27.655  1.00  0.00     0.074 A 
ATOM     16  C   UNL A   1      45.788  26.264  26.774  1.00  0.00     0.049 A 
ATOM     17  N   UNL A   1      43.629  27.973  28.068  1.00  0.00    -0.248 NA
ATOM     18  C   UNL A   1      42.201  26.133  27.952  1.00  0.00     0.031 C 
ATOM     19  C   UNL A   1      46.853  25.436  26.197  1.00  0.00     0.029 A 
ATOM     20  N   UNL A   1      46.416  27.436  27.090  1.00  0.00    -0.354 N 
ATOM     21  C   UNL A   1      42.395  28.306  28.612  1.00  0.00     0.074 A 
ATOM     22  C   UNL A   1      41.545  27.144  28.497  1.00  0.00     0.031 C 
ATOM     23  C   UNL A   1      48.006  26.125  26.213  1.00  0.00     0.029 A 
ATOM     24  C   UNL A   1      47.744  27.457  26.742  1.00  0.00     0.049 A 
ATOM     25  H   UNL A   1      45.960  28.192  27.527  1.00  0.00     0.167 HD
ATOM     26  C   UNL A   1      42.010  29.483  29.153  1.00  0.00     0.034 A 
ATOM     27  C   UNL A   1      48.631  28.466  26.811  1.00  0.00     0.034 A 
ATOM     28  C   UNL A   1      42.885  30.616  29.261  1.00  0.00     0.049 A 
ATOM     29  C   UNL A   1      48.151  29.787  27.340  1.00  0.00     0.074 A 
ATOM     30  C   UNL A   1      42.609  31.876  29.754  1.00  0.00     0.029 A 
ATOM     31  N   UNL A   1      44.211  30.621  28.851  1.00  0.00    -0.354 N 
ATOM     32  N   UNL A   1      46.980  30.097  27.846  1.00  0.00    -0.248 NA
ATOM     33  C   UNL A   1      49.111  30.896  27.311  1.00  0.00     0.031 C 
ATOM     34  C   UNL A   1      43.760  32.656  29.604  1.00  0.00     0.029 A 
ATOM     35  C   UNL A   1      44.767  31.867  29.066  1.00  0.00     0.049 A 
ATOM     36  H   UNL A   1      44.685  29.850  28.464  1.00  0.00     0.167 HD
ATOM     37  C   UNL A   1      47.071  31.429  28.224  1.00  0.00     0.074 A 
ATOM     38  C   UNL A   1      48.421  31.858  27.908  1.00  0.00     0.031 C 
ATOM     39  C   UNL A   1      46.129  32.234  28.773  1.00  0.00     0.034 A 
BRANCH  26  40
ATOM     40  C   UNL A   1      40.579  29.603  29.600  1.00  0.00     0.023 A 
ATOM     41  C   UNL A   1      39.598  30.129  28.736  1.00  0.00     0.012 A 
ATOM     42  C   UNL A   1      40.213  29.207  30.902  1.00  0.00     0.148 A 
ATOM     43  C   UNL A   1      38.284  30.297  29.175  1.00  0.00     0.002 A 
ATOM     44  C   UNL A   1      38.893  29.333  31.315  1.00  0.00     0.091 A 
ATOM     45  F   UNL A   1      41.168  28.739  31.718  1.00  0.00    -0.205 F 
ATOM     46  C   UNL A   1      37.931  29.894  30.460  1.00  0.00     0.022 A 
BRANCH  44  47
ATOM     47  S   UNL A   1      38.328  28.782  32.928  1.00  0.00     0.127 S 
ATOM     48  O   UNL A   1      36.879  28.923  32.795  1.00  0.00    -0.237 OA
ATOM     49  O   UNL A   1      38.806  27.400  32.960  1.00  0.00    -0.237 OA
ATOM     50  O   UNL A   1      38.953  29.667  33.900  1.00  0.00    -0.744 OA
ENDBRANCH  44  47
ENDBRANCH  26  40
BRANCH  27  51
ATOM     51  C   UNL A   1      50.030  28.294  26.335  1.00  0.00     0.023 A 
ATOM     52  C   UNL A   1      50.320  28.383  24.961  1.00  0.00     0.012 A 
ATOM     53  C   UNL A   1      51.066  27.992  27.240  1.00  0.00     0.148 A 
ATOM     54  C   UNL A   1      51.613  28.145  24.491  1.00  0.00     0.002 A 
ATOM     55  C   UNL A   1      52.354  27.777  26.768  1.00  0.00     0.091 A 
ATOM     56  F   UNL A   1      50.762  27.900  28.543  1.00  0.00    -0.205 F 
ATOM     57  C   UNL A   1      52.630  27.848  25.394  1.00  0.00     0.022 A 
BRANCH  55  58
ATOM     58  S   UNL A   1      53.729  27.409  27.858  1.00  0.00     0.127 S 
ATOM     59  O   UNL A   1      54.864  27.482  26.942  1.00  0.00    -0.237 OA
ATOM     60  O   UNL A   1      53.650  28.504  28.822  1.00  0.00    -0.237 OA
ATOM     61  O   UNL A   1      53.449  26.079  28.390  1.00  0.00    -0.744 OA
ENDBRANCH  55  58
ENDBRANCH  27  51
BRANCH  39  62
ATOM     62  C   UNL A   1      46.547  33.635  29.120  1.00  0.00     0.023 A 
ATOM     63  C   UNL A   1      47.026  33.934  30.410  1.00  0.00     0.012 A 
ATOM     64  C   UNL A   1      46.526  34.637  28.132  1.00  0.00     0.148 A 
ATOM     65  C   UNL A   1      47.448  35.226  30.720  1.00  0.00     0.002 A 
ATOM     66  C   UNL A   1      47.004  35.903  28.431  1.00  0.00     0.091 A 
ATOM     67  F   UNL A   1      46.044  34.329  26.919  1.00  0.00    -0.205 F 
ATOM     68  C   UNL A   1      47.449  36.204  29.728  1.00  0.00     0.022 A 
BRANCH  66  69
ATOM     69  S   UNL A   1      47.149  37.187  27.186  1.00  0.00     0.127 S 
ATOM     70  O   UNL A   1      45.813  37.176  26.590  1.00  0.00    -0.237 OA
ATOM     71  O   UNL A   1      47.449  38.368  27.995  1.00  0.00    -0.237 OA
ATOM     72  O   UNL A   1      48.230  36.771  26.303  1.00  0.00    -0.744 OA
ENDBRANCH  66  69
ENDBRANCH  39  62
ENDBRANCH  13  14
ENDBRANCH   6   8
ENDBRANCH   5   6
ENDBRANCH   4   5
ENDBRANCH   3   4
ENDBRANCH   2   3
ENDBRANCH   1   2
BRANCH   1  73
ATOM     73  C   UNL A   1      37.569  21.938  25.369  1.00  0.00     0.188 C 
BRANCH  73  74
ATOM     74  O   UNL A   1      36.601  22.775  25.992  1.00  0.00    -0.376 OA
BRANCH  74  75
ATOM     75  C   UNL A   1      35.827  23.625  25.156  1.00  0.00     0.202 C 
BRANCH  75  76
ATOM     76  C   UNL A   1      34.290  23.532  25.187  1.00  0.00     0.261 C 
BRANCH  76  77
ATOM     77  O   UNL A   1      33.646  23.657  26.464  1.00  0.00    -0.459 OA
BRANCH  77  78
ATOM     78  C   UNL A   1      32.529  24.446  26.432  1.00  0.00     0.365 C 
ATOM     79  O   UNL A   1      31.511  24.193  27.069  1.00  0.00    -0.245 OA
BRANCH  78  80
ATOM     80  C   UNL A   1      32.692  25.646  25.488  1.00  0.00     0.298 C 
ATOM     81  C   UNL A   1      31.235  26.005  25.129  1.00  0.00     0.115 C 
ATOM     82  N   UNL A   1      33.464  26.758  26.131  1.00  0.00    -0.323 N 
ATOM     83  C   UNL A   1      31.176  27.322  24.487  1.00  0.00    -0.006 A 
ATOM     84  C   UNL A   1      33.482  28.044  25.367  1.00  0.00     0.262 C 
ATOM     85  H   UNL A   1      34.428  26.446  26.247  1.00  0.00     0.347 HD
ATOM     86  H   UNL A   1      32.992  26.958  27.012  1.00  0.00     0.347 HD
ATOM     87  C   UNL A   1      32.217  28.216  24.571  1.00  0.00     0.083 A 
ATOM     88  C   UNL A   1      30.083  27.948  23.858  1.00  0.00     0.003 A 
ATOM     89  N   UNL A   1      31.859  29.303  23.807  1.00  0.00    -0.353 N 
ATOM     90  C   UNL A   1      30.515  29.220  23.489  1.00  0.00     0.046 A 
ATOM     91  C   UNL A   1      28.760  27.558  23.597  1.00  0.00     0.010 A 
ATOM     92  H   UNL A   1      32.464  30.028  23.530  1.00  0.00     0.166 HD
ATOM     93  C   UNL A   1      29.658  30.144  22.882  1.00  0.00     0.026 A 
ATOM     94  C   UNL A   1      27.895  28.465  22.989  1.00  0.00     0.001 A 
ATOM     95  C   UNL A   1      28.338  29.739  22.643  1.00  0.00     0.002 A 
BRANCH  84  96
ATOM     96  C   UNL A   1      33.741  29.202  26.351  1.00  0.00     0.016 A 
ATOM     97  C   UNL A   1      32.808  30.236  26.556  1.00  0.00     0.014 A 
ATOM     98  C   UNL A   1      34.925  29.252  27.109  1.00  0.00     0.014 A 
ATOM     99  C   UNL A   1      33.071  31.298  27.425  1.00  0.00     0.047 A 
ATOM    100  C   UNL A   1      35.171  30.303  28.016  1.00  0.00     0.047 A 
ATOM    101  C   UNL A   1      34.246  31.334  28.170  1.00  0.00     0.129 A 
BRANCH 101 102
ATOM    102  O   UNL A   1      34.349  32.424  28.986  1.00  0.00    -0.406 OA
BRANCH 102 103
ATOM    103  C   UNL A   1      35.266  33.438  28.626  1.00  0.00     0.573 C 
ATOM    104  F   UNL A   1      36.518  33.141  29.033  1.00  0.00    -0.132 F 
ATOM    105  F   UNL A   1      35.258  33.661  27.296  1.00  0.00    -0.132 F 
ATOM    106  F   UNL A   1      34.895  34.587  29.242  1.00  0.00    -0.132 F 
ENDBRANCH 102 103
ENDBRANCH 101 102
ENDBRANCH  84  96
ENDBRANCH  78  80
ENDBRANCH  77  78
ENDBRANCH  76  77
ENDBRANCH  75  76
ENDBRANCH  74  75
ENDBRANCH  73  74
ENDBRANCH   1  73
TORSDOF 23
ENDMDL
MODEL 3
REMARK VINA RESULT:      -9.9      2.053      2.845
REMARK SMILES O=C(OCCOCCOCCOC(=O)[C@H]1Cc2c([nH]c3ccccc23)[C@@H](c2ccc(OC(F)(F)F)cc2)[NH2+]1)c1ccc(-c2c3nc(c(-c4cccc(S(=O)(=O)[O-])c4F)c4ccc([nH]4)c(-c4cccc(S(=O)(=O)[O-])c4F)c4nc(c(-c5cccc(S(=O)(=O)[O-])c5F)c5ccc2[nH]5)C=C4)C=C3)cc1
REMARK SMILES IDX 7 1 6 2 5 3 4 4 3 5 2 6 1 7 39 8 40 9 101 10 41 11 100 12
REMARK SMILES IDX 42 13 43 14 44 15 94 16 45 17 99 18 93 19 95 20 46 21 98 22
REMARK SMILES IDX 92 23 91 24 47 26 79 27 59 28 78 29 60 30 63 31 77 32 96 33
REMARK SMILES IDX 61 34 62 35 76 37 97 38 64 39 48 40 49 41 57 42 50 43 52 44
REMARK SMILES IDX 58 45 51 46 53 47 54 48 55 49 56 50 80 51 81 52 89 53 82 54
REMARK SMILES IDX 84 55 90 56 83 57 85 58 86 59 87 60 88 61 65 62 66 63 74 64
REMARK SMILES IDX 67 65 69 66 75 67 68 68 70 69 71 70 72 71 73 72 8 73 9 74
REMARK SMILES IDX 10 75 11 76 12 77 13 78 14 79 15 80 16 81 38 82 17 83 26 84
REMARK SMILES IDX 18 87 25 88 19 89 20 90 24 91 21 93 23 94 22 95 27 96 28 97
REMARK SMILES IDX 37 98 29 99 36 100 30 101 31 102 32 103 33 104 34 105 35 106
REMARK H PARENT 95 25 63 36 38 85 38 86 19 92
REMARK Flexibility Score: inf
ROOT
ATOM      1  C   UNL A   1      39.037  23.703  26.285  1.00  0.00     0.188 C 
ENDROOT
BRANCH   1   2
ATOM      2  O   UNL A   1      39.686  23.336  27.502  1.00  0.00    -0.376 OA
BRANCH   2   3
ATOM      3  C   UNL A   1      40.522  22.178  27.406  1.00  0.00     0.202 C 
BRANCH   3   4
ATOM      4  C   UNL A   1      40.719  21.595  25.993  1.00  0.00     0.261 C 
BRANCH   4   5
ATOM      5  O   UNL A   1      41.913  20.807  25.839  1.00  0.00    -0.460 OA
BRANCH   5   6
ATOM      6  C   UNL A   1      43.148  21.210  25.443  1.00  0.00     0.338 C 
ATOM      7  O   UNL A   1      43.841  20.436  24.785  1.00  0.00    -0.246 OA
BRANCH   6   8
ATOM      8  C   UNL A   1      43.723  22.545  25.779  1.00  0.00     0.060 A 
ATOM      9  C   UNL A   1      43.574  23.686  24.995  1.00  0.00     0.016 A 
ATOM     10  C   UNL A   1      44.403  22.675  27.001  1.00  0.00     0.016 A 
ATOM     11  C   UNL A   1      44.184  24.881  25.322  1.00  0.00     0.010 A 
ATOM     12  C   UNL A   1      44.974  23.896  27.375  1.00  0.00     0.010 A 
ATOM     13  C   UNL A   1      44.904  24.989  26.504  1.00  0.00    -0.014 A 
BRANCH  13  14
ATOM     14  C   UNL A   1      45.701  26.212  26.688  1.00  0.00     0.031 A 
ATOM     15  C   UNL A   1      45.151  27.279  27.588  1.00  0.00     0.074 A 
ATOM     16  C   UNL A   1      46.950  26.271  26.194  1.00  0.00     0.049 A 
ATOM     17  N   UNL A   1      45.669  28.429  27.915  1.00  0.00    -0.248 NA
ATOM     18  C   UNL A   1      43.845  27.007  28.217  1.00  0.00     0.031 C 
ATOM     19  C   UNL A   1      47.600  25.219  25.404  1.00  0.00     0.029 A 
ATOM     20  N   UNL A   1      47.907  27.240  26.306  1.00  0.00    -0.354 N 
ATOM     21  C   UNL A   1      44.730  29.044  28.732  1.00  0.00     0.074 A 
ATOM     22  C   UNL A   1      43.616  28.135  28.870  1.00  0.00     0.031 C 
ATOM     23  C   UNL A   1      48.855  25.598  25.114  1.00  0.00     0.029 A 
ATOM     24  C   UNL A   1      49.071  26.938  25.642  1.00  0.00     0.049 A 
ATOM     25  H   UNL A   1      47.774  28.073  26.813  1.00  0.00     0.167 HD
ATOM     26  C   UNL A   1      44.794  30.264  29.309  1.00  0.00     0.034 A 
ATOM     27  C   UNL A   1      50.170  27.691  25.457  1.00  0.00     0.034 A 
ATOM     28  C   UNL A   1      45.922  31.140  29.159  1.00  0.00     0.049 A 
ATOM     29  C   UNL A   1      50.178  29.076  26.040  1.00  0.00     0.074 A 
ATOM     30  C   UNL A   1      46.098  32.414  29.659  1.00  0.00     0.029 A 
ATOM     31  N   UNL A   1      47.065  30.825  28.437  1.00  0.00    -0.354 N 
ATOM     32  N   UNL A   1      49.282  29.654  26.805  1.00  0.00    -0.248 NA
ATOM     33  C   UNL A   1      51.347  29.910  25.738  1.00  0.00     0.031 C 
ATOM     34  C   UNL A   1      47.333  32.887  29.204  1.00  0.00     0.029 A 
ATOM     35  C   UNL A   1      47.948  31.887  28.465  1.00  0.00     0.049 A 
ATOM     36  H   UNL A   1      47.223  29.971  27.973  1.00  0.00     0.167 HD
ATOM     37  C   UNL A   1      49.792  30.910  27.102  1.00  0.00     0.074 A 
ATOM     38  C   UNL A   1      51.086  30.997  26.450  1.00  0.00     0.031 C 
ATOM     39  C   UNL A   1      49.244  31.910  27.835  1.00  0.00     0.034 A 
BRANCH  26  40
ATOM     40  C   UNL A   1      43.593  30.725  30.087  1.00  0.00     0.023 A 
ATOM     41  C   UNL A   1      42.587  31.493  29.468  1.00  0.00     0.012 A 
ATOM     42  C   UNL A   1      43.477  30.408  31.455  1.00  0.00     0.148 A 
ATOM     43  C   UNL A   1      41.505  31.973  30.208  1.00  0.00     0.002 A 
ATOM     44  C   UNL A   1      42.373  30.848  32.174  1.00  0.00     0.091 A 
ATOM     45  F   UNL A   1      44.461  29.703  32.032  1.00  0.00    -0.205 F 
ATOM     46  C   UNL A   1      41.395  31.645  31.557  1.00  0.00     0.022 A 
BRANCH  44  47
ATOM     47  S   UNL A   1      42.110  30.423  33.898  1.00  0.00     0.127 S 
ATOM     48  O   UNL A   1      40.798  31.020  34.150  1.00  0.00    -0.237 OA
ATOM     49  O   UNL A   1      42.117  28.961  33.854  1.00  0.00    -0.237 OA
ATOM     50  O   UNL A   1      43.215  31.018  34.635  1.00  0.00    -0.744 OA
ENDBRANCH  44  47
ENDBRANCH  26  40
BRANCH  27  51
ATOM     51  C   UNL A   1      51.321  27.189  24.660  1.00  0.00     0.023 A 
ATOM     52  C   UNL A   1      52.388  26.534  25.303  1.00  0.00     0.012 A 
ATOM     53  C   UNL A   1      51.384  27.408  23.270  1.00  0.00     0.148 A 
ATOM     54  C   UNL A   1      53.512  26.129  24.580  1.00  0.00     0.002 A 
ATOM     55  C   UNL A   1      52.495  26.983  22.554  1.00  0.00     0.091 A 
ATOM     56  F   UNL A   1      50.361  28.046  22.683  1.00  0.00    -0.205 F 
ATOM     57  C   UNL A   1      53.563  26.349  23.206  1.00  0.00     0.022 A 
BRANCH  55  58
ATOM     58  S   UNL A   1      52.640  27.205  20.781  1.00  0.00     0.127 S 
ATOM     59  O   UNL A   1      51.467  26.486  20.293  1.00  0.00    -0.237 OA
ATOM     60  O   UNL A   1      52.563  28.658  20.653  1.00  0.00    -0.237 OA
ATOM     61  O   UNL A   1      53.924  26.609  20.425  1.00  0.00    -0.744 OA
ENDBRANCH  55  58
ENDBRANCH  27  51
BRANCH  39  62
ATOM     62  C   UNL A   1      50.069  33.152  28.019  1.00  0.00     0.023 A 
ATOM     63  C   UNL A   1      50.941  33.269  29.119  1.00  0.00     0.012 A 
ATOM     64  C   UNL A   1      50.022  34.174  27.053  1.00  0.00     0.148 A 
ATOM     65  C   UNL A   1      51.733  34.405  29.269  1.00  0.00     0.002 A 
ATOM     66  C   UNL A   1      50.857  35.272  27.177  1.00  0.00     0.091 A 
ATOM     67  F   UNL A   1      49.166  34.045  26.028  1.00  0.00    -0.205 F 
ATOM     68  C   UNL A   1      51.701  35.399  28.292  1.00  0.00     0.022 A 
BRANCH  66  69
ATOM     69  S   UNL A   1      50.963  36.539  25.910  1.00  0.00     0.127 S 
ATOM     70  O   UNL A   1      51.941  37.459  26.490  1.00  0.00    -0.237 OA
ATOM     71  O   UNL A   1      51.445  35.781  24.756  1.00  0.00    -0.237 OA
ATOM     72  O   UNL A   1      49.616  37.073  25.761  1.00  0.00    -0.744 OA
ENDBRANCH  66  69
ENDBRANCH  39  62
ENDBRANCH  13  14
ENDBRANCH   6   8
ENDBRANCH   5   6
ENDBRANCH   4   5
ENDBRANCH   3   4
ENDBRANCH   2   3
ENDBRANCH   1   2
BRANCH   1  73
ATOM     73  C   UNL A   1      37.628  23.130  26.152  1.00  0.00     0.188 C 
BRANCH  73  74
ATOM     74  O   UNL A   1      36.589  24.038  25.801  1.00  0.00    -0.376 OA
BRANCH  74  75
ATOM     75  C   UNL A   1      35.344  23.490  25.388  1.00  0.00     0.202 C 
BRANCH  75  76
ATOM     76  C   UNL A   1      34.201  23.338  26.408  1.00  0.00     0.261 C 
BRANCH  76  77
ATOM     77  O   UNL A   1      32.859  23.301  25.898  1.00  0.00    -0.459 OA
BRANCH  77  78
ATOM     78  C   UNL A   1      32.110  24.385  26.268  1.00  0.00     0.365 C 
ATOM     79  O   UNL A   1      31.358  24.380  27.238  1.00  0.00    -0.245 OA
BRANCH  78  80
ATOM     80  C   UNL A   1      32.298  25.574  25.316  1.00  0.00     0.298 C 
ATOM     81  C   UNL A   1      30.848  25.989  24.990  1.00  0.00     0.115 C 
ATOM     82  N   UNL A   1      33.128  26.657  25.935  1.00  0.00    -0.323 N 
ATOM     83  C   UNL A   1      30.826  27.305  24.344  1.00  0.00    -0.006 A 
ATOM     84  C   UNL A   1      33.179  27.938  25.166  1.00  0.00     0.262 C 
ATOM     85  H   UNL A   1      34.082  26.308  26.030  1.00  0.00     0.347 HD
ATOM     86  H   UNL A   1      32.686  26.879  26.827  1.00  0.00     0.347 HD
ATOM     87  C   UNL A   1      31.903  28.158  24.399  1.00  0.00     0.083 A 
ATOM     88  C   UNL A   1      29.744  27.972  23.738  1.00  0.00     0.003 A 
ATOM     89  N   UNL A   1      31.570  29.256  23.639  1.00  0.00    -0.353 N 
ATOM     90  C   UNL A   1      30.216  29.225  23.354  1.00  0.00     0.046 A 
ATOM     91  C   UNL A   1      28.400  27.634  23.511  1.00  0.00     0.010 A 
ATOM     92  H   UNL A   1      32.197  29.956  23.345  1.00  0.00     0.166 HD
ATOM     93  C   UNL A   1      29.382  30.180  22.764  1.00  0.00     0.026 A 
ATOM     94  C   UNL A   1      27.557  28.573  22.920  1.00  0.00     0.001 A 
ATOM     95  C   UNL A   1      28.042  29.827  22.558  1.00  0.00     0.002 A 
BRANCH  84  96
ATOM     96  C   UNL A   1      33.507  29.089  26.139  1.00  0.00     0.016 A 
ATOM     97  C   UNL A   1      34.750  29.188  26.791  1.00  0.00     0.014 A 
ATOM     98  C   UNL A   1      32.572  30.108  26.391  1.00  0.00     0.014 A 
ATOM     99  C   UNL A   1      35.022  30.216  27.697  1.00  0.00     0.047 A 
ATOM    100  C   UNL A   1      32.862  31.167  27.275  1.00  0.00     0.047 A 
ATOM    101  C   UNL A   1      34.088  31.220  27.936  1.00  0.00     0.129 A 
BRANCH 101 102
ATOM    102  O   UNL A   1      34.507  32.162  28.831  1.00  0.00    -0.406 OA
BRANCH 102 103
ATOM    103  C   UNL A   1      35.219  33.278  28.335  1.00  0.00     0.573 C 
ATOM    104  F   UNL A   1      36.306  32.900  27.631  1.00  0.00    -0.132 F 
ATOM    105  F   UNL A   1      34.432  34.067  27.574  1.00  0.00    -0.132 F 
ATOM    106  F   UNL A   1      35.646  34.014  29.390  1.00  0.00    -0.132 F 
ENDBRANCH 102 103
ENDBRANCH 101 102
ENDBRANCH  84  96
ENDBRANCH  78  80
ENDBRANCH  77  78
ENDBRANCH  76  77
ENDBRANCH  75  76
ENDBRANCH  74  75
ENDBRANCH  73  74
ENDBRANCH   1  73
TORSDOF 23
ENDMDL
