MODEL 1
REMARK VINA RESULT:     -12.1      0.000      0.000
REMARK SMILES O=C(OCCOCCOCCOC(=O)c1ccc(-c2c3nc(c(-c4cccc(S(=O)(=O)[O-])c4F)c4ccc([nH]4)c(-c4cccc(S(=O)(=O)[O-])c4F)c4nc(c(-c5cccc(S(=O)(=O)[O-])c5F)c5ccc2[nH]5)C=C4)C=C3)cc1)C1=Cc2cc(S(F)(F)(F)(F)F)ccc2O[C@@H]1C(F)(F)F
REMARK SMILES IDX 8 1 7 2 6 3 5 4 4 5 3 6 2 7 1 8 78 9 79 10 93 11 80 12 92 13
REMARK SMILES IDX 81 14 91 15 82 16 90 17 89 18 94 19 95 20 96 21 97 22 83 23
REMARK SMILES IDX 84 24 85 25 86 26 87 27 88 28 9 29 10 30 11 31 12 32 13 33
REMARK SMILES IDX 14 34 15 35 16 36 77 37 17 38 76 39 18 40 19 41 20 42 70 43
REMARK SMILES IDX 21 44 75 45 69 46 71 47 22 48 74 49 68 50 67 51 23 53 55 54
REMARK SMILES IDX 35 55 54 56 36 57 39 58 53 59 72 60 37 61 38 62 52 64 73 65
REMARK SMILES IDX 40 66 24 67 25 68 33 69 26 70 28 71 34 72 27 73 29 74 30 75
REMARK SMILES IDX 31 76 32 77 56 78 57 79 65 80 58 81 60 82 66 83 59 84 61 85
REMARK SMILES IDX 62 86 63 87 64 88 41 89 42 90 50 91 43 92 45 93 51 94 44 95
REMARK SMILES IDX 46 96 47 97 48 98 49 99
REMARK H PARENT 71 52 39 63
REMARK Flexibility Score: inf
ROOT
ATOM      1  C   UNL A   1      29.898  29.192  22.838  1.00  0.00     0.188 C 
ENDROOT
BRANCH   1   2
ATOM      2  C   UNL A   1      29.763  27.754  23.313  1.00  0.00     0.188 C 
BRANCH   2   3
ATOM      3  O   UNL A   1      30.614  26.919  22.542  1.00  0.00    -0.376 OA
BRANCH   3   4
ATOM      4  C   UNL A   1      31.355  26.071  23.407  1.00  0.00     0.202 C 
BRANCH   4   5
ATOM      5  C   UNL A   1      30.431  25.023  24.005  1.00  0.00     0.261 C 
BRANCH   5   6
ATOM      6  O   UNL A   1      31.004  23.735  23.836  1.00  0.00    -0.460 OA
BRANCH   6   7
ATOM      7  C   UNL A   1      31.487  23.019  24.963  1.00  0.00     0.338 C 
ATOM      8  O   UNL A   1      30.717  22.225  25.590  1.00  0.00    -0.246 OA
BRANCH   7   9
ATOM      9  C   UNL A   1      32.924  23.202  25.420  1.00  0.00     0.087 C 
ATOM     10  C   UNL A   1      33.826  22.196  25.252  1.00  0.00     0.027 C 
ATOM     11  C   UNL A   1      33.356  24.509  26.066  1.00  0.00     0.316 C 
ATOM     12  C   UNL A   1      33.395  20.890  24.607  1.00  0.00     0.019 A 
ATOM     13  O   UNL A   1      32.262  22.309  23.074  1.00  0.00    -0.475 OA
ATOM     14  C   UNL A   1      33.661  19.645  25.154  1.00  0.00     0.036 A 
ATOM     15  C   UNL A   1      32.649  21.017  23.515  1.00  0.00     0.128 A 
ATOM     16  C   UNL A   1      33.332  18.562  24.305  1.00  0.00     0.107 A 
ATOM     17  C   UNL A   1      32.248  19.907  22.809  1.00  0.00     0.048 A 
ATOM     18  C   UNL A   1      32.527  18.648  23.261  1.00  0.00     0.028 A 
BRANCH  11  19
ATOM     19  C   UNL A   1      34.463  25.142  25.237  1.00  0.00     0.430 C 
ATOM     20  F   UNL A   1      34.307  24.806  23.959  1.00  0.00    -0.167 F 
ATOM     21  F   UNL A   1      34.404  26.466  25.358  1.00  0.00    -0.167 F 
ATOM     22  F   UNL A   1      35.643  24.708  25.669  1.00  0.00    -0.167 F 
ENDBRANCH  11  19
BRANCH  16  23
ATOM     23  S   UNL A   1      34.064  16.949  24.675  1.00  0.00     0.310 S 
ATOM     24  F   UNL A   1      34.040  16.510  23.152  1.00  0.00    -0.094 F 
ATOM     25  F   UNL A   1      32.613  16.349  24.800  1.00  0.00    -0.094 F 
ATOM     26  F   UNL A   1      34.695  15.566  25.000  1.00  0.00    -0.094 F 
ATOM     27  F   UNL A   1      35.505  17.536  24.409  1.00  0.00    -0.094 F 
ATOM     28  F   UNL A   1      33.436  18.332  24.234  1.00  0.00    -0.094 F 
ENDBRANCH  16  23
ENDBRANCH   7   9
ENDBRANCH   6   7
ENDBRANCH   5   6
ENDBRANCH   4   5
ENDBRANCH   3   4
ENDBRANCH   2   3
ENDBRANCH   1   2
BRANCH   1  29
ATOM     29  O   UNL A   1      30.011  30.052  23.963  1.00  0.00    -0.376 OA
BRANCH  29  30
ATOM     30  C   UNL A   1      31.178  29.717  24.699  1.00  0.00     0.202 C 
BRANCH  30  31
ATOM     31  C   UNL A   1      31.369  30.715  25.828  1.00  0.00     0.261 C 
BRANCH  31  32
ATOM     32  O   UNL A   1      32.677  30.578  26.366  1.00  0.00    -0.460 OA
BRANCH  32  33
ATOM     33  C   UNL A   1      33.218  31.604  27.186  1.00  0.00     0.338 C 
ATOM     34  O   UNL A   1      32.661  32.744  27.227  1.00  0.00    -0.246 OA
BRANCH  33  35
ATOM     35  C   UNL A   1      34.465  31.335  28.013  1.00  0.00     0.060 A 
ATOM     36  C   UNL A   1      35.333  32.361  28.350  1.00  0.00     0.016 A 
ATOM     37  C   UNL A   1      34.769  30.067  28.259  1.00  0.00     0.016 A 
ATOM     38  C   UNL A   1      36.637  31.922  28.683  1.00  0.00     0.010 A 
ATOM     39  C   UNL A   1      36.020  29.723  28.713  1.00  0.00     0.010 A 
ATOM     40  C   UNL A   1      36.948  30.681  29.010  1.00  0.00    -0.014 A 
BRANCH  40  41
ATOM     41  C   UNL A   1      38.268  30.337  29.679  1.00  0.00     0.031 A 
ATOM     42  C   UNL A   1      38.409  30.834  30.977  1.00  0.00     0.074 A 
ATOM     43  C   UNL A   1      39.163  29.463  29.084  1.00  0.00     0.049 A 
ATOM     44  N   UNL A   1      39.368  30.547  31.858  1.00  0.00    -0.248 NA
ATOM     45  C   UNL A   1      37.479  31.788  31.598  1.00  0.00     0.031 C 
ATOM     46  C   UNL A   1      39.024  28.951  27.779  1.00  0.00     0.029 A 
ATOM     47  N   UNL A   1      40.319  28.942  29.621  1.00  0.00    -0.354 N 
ATOM     48  C   UNL A   1      39.155  31.203  33.001  1.00  0.00     0.074 A 
ATOM     49  C   UNL A   1      37.940  32.015  32.848  1.00  0.00     0.031 C 
ATOM     50  C   UNL A   1      40.087  28.141  27.529  1.00  0.00     0.029 A 
ATOM     51  C   UNL A   1      40.907  28.134  28.673  1.00  0.00     0.049 A 
ATOM     52  H   UNL A   1      40.666  29.116  30.526  1.00  0.00     0.167 HD
ATOM     53  C   UNL A   1      39.923  31.154  34.165  1.00  0.00     0.034 A 
ATOM     54  C   UNL A   1      42.092  27.423  28.780  1.00  0.00     0.034 A 
ATOM     55  C   UNL A   1      41.086  30.408  34.287  1.00  0.00     0.049 A 
ATOM     56  C   UNL A   1      42.893  27.420  29.925  1.00  0.00     0.074 A 
ATOM     57  C   UNL A   1      41.869  30.342  35.455  1.00  0.00     0.029 A 
ATOM     58  N   UNL A   1      41.687  29.620  33.330  1.00  0.00    -0.354 N 
ATOM     59  N   UNL A   1      42.658  28.044  31.080  1.00  0.00    -0.248 NA
ATOM     60  C   UNL A   1      44.166  26.697  30.038  1.00  0.00     0.031 C 
ATOM     61  C   UNL A   1      42.932  29.532  35.204  1.00  0.00     0.029 A 
ATOM     62  C   UNL A   1      42.831  29.081  33.875  1.00  0.00     0.049 A 
ATOM     63  H   UNL A   1      41.356  29.469  32.416  1.00  0.00     0.167 HD
ATOM     64  C   UNL A   1      43.640  27.789  31.947  1.00  0.00     0.074 A 
ATOM     65  C   UNL A   1      44.629  26.926  31.288  1.00  0.00     0.031 C 
ATOM     66  C   UNL A   1      43.749  28.240  33.264  1.00  0.00     0.034 A 
BRANCH  53  67
ATOM     67  C   UNL A   1      39.460  31.962  35.366  1.00  0.00     0.023 A 
ATOM     68  C   UNL A   1      38.520  31.454  36.245  1.00  0.00     0.012 A 
ATOM     69  C   UNL A   1      39.973  33.175  35.531  1.00  0.00     0.148 A 
ATOM     70  C   UNL A   1      37.965  32.423  37.115  1.00  0.00     0.002 A 
ATOM     71  C   UNL A   1      39.474  34.022  36.491  1.00  0.00     0.091 A 
ATOM     72  F   UNL A   1      40.981  33.575  34.760  1.00  0.00    -0.205 F 
ATOM     73  C   UNL A   1      38.501  33.606  37.357  1.00  0.00     0.022 A 
BRANCH  71  74
ATOM     74  S   UNL A   1      40.112  35.711  36.610  1.00  0.00     0.127 S 
ATOM     75  O   UNL A   1      39.743  36.487  35.343  1.00  0.00    -0.237 OA
ATOM     76  O   UNL A   1      39.497  36.403  37.829  1.00  0.00    -0.237 OA
ATOM     77  O   UNL A   1      41.813  35.668  36.778  1.00  0.00    -0.744 OA
ENDBRANCH  71  74
ENDBRANCH  53  67
BRANCH  54  78
ATOM     78  C   UNL A   1      42.546  26.601  27.585  1.00  0.00     0.023 A 
ATOM     79  C   UNL A   1      43.211  27.252  26.560  1.00  0.00     0.012 A 
ATOM     80  C   UNL A   1      42.315  25.294  27.536  1.00  0.00     0.148 A 
ATOM     81  C   UNL A   1      43.341  26.482  25.380  1.00  0.00     0.002 A 
ATOM     82  C   UNL A   1      42.593  24.578  26.396  1.00  0.00     0.091 A 
ATOM     83  F   UNL A   1      41.810  24.673  28.598  1.00  0.00    -0.205 F 
ATOM     84  C   UNL A   1      43.196  25.171  25.322  1.00  0.00     0.022 A 
BRANCH  82  85
ATOM     85  S   UNL A   1      42.154  22.824  26.317  1.00  0.00     0.127 S 
ATOM     86  O   UNL A   1      40.634  22.674  26.410  1.00  0.00    -0.237 OA
ATOM     87  O   UNL A   1      42.643  22.235  24.991  1.00  0.00    -0.237 OA
ATOM     88  O   UNL A   1      42.891  21.992  27.616  1.00  0.00    -0.744 OA
ENDBRANCH  82  85
ENDBRANCH  54  78
BRANCH  66  89
ATOM     89  C   UNL A   1      44.949  27.783  34.078  1.00  0.00     0.023 A 
ATOM     90  C   UNL A   1      46.080  28.569  34.215  1.00  0.00     0.012 A 
ATOM     91  C   UNL A   1      44.914  26.539  34.543  1.00  0.00     0.148 A 
ATOM     92  C   UNL A   1      47.235  27.850  34.606  1.00  0.00     0.002 A 
ATOM     93  C   UNL A   1      46.050  25.945  35.036  1.00  0.00     0.091 A 
ATOM     94  F   UNL A   1      43.769  25.863  34.531  1.00  0.00    -0.205 F 
ATOM     95  C   UNL A   1      47.220  26.646  35.145  1.00  0.00     0.022 A 
BRANCH  93  96
ATOM     96  S   UNL A   1      45.999  24.209  35.549  1.00  0.00     0.127 S 
ATOM     97  O   UNL A   1      47.388  23.589  35.386  1.00  0.00    -0.237 OA
ATOM     98  O   UNL A   1      45.570  24.124  37.016  1.00  0.00    -0.237 OA
ATOM     99  O   UNL A   1      44.877  23.361  34.576  1.00  0.00    -0.744 OA
ENDBRANCH  93  96
ENDBRANCH  66  89
ENDBRANCH  40  41
ENDBRANCH  33  35
ENDBRANCH  32  33
ENDBRANCH  31  32
ENDBRANCH  30  31
ENDBRANCH  29  30
ENDBRANCH   1  29
TORSDOF 22
ENDMDL
MODEL 2
REMARK VINA RESULT:     -12.0      5.005     10.749
REMARK SMILES O=C(OCCOCCOCCOC(=O)c1ccc(-c2c3nc(c(-c4cccc(S(=O)(=O)[O-])c4F)c4ccc([nH]4)c(-c4cccc(S(=O)(=O)[O-])c4F)c4nc(c(-c5cccc(S(=O)(=O)[O-])c5F)c5ccc2[nH]5)C=C4)C=C3)cc1)C1=Cc2cc(S(F)(F)(F)(F)F)ccc2O[C@@H]1C(F)(F)F
REMARK SMILES IDX 8 1 7 2 6 3 5 4 4 5 3 6 2 7 1 8 78 9 79 10 93 11 80 12 92 13
REMARK SMILES IDX 81 14 91 15 82 16 90 17 89 18 94 19 95 20 96 21 97 22 83 23
REMARK SMILES IDX 84 24 85 25 86 26 87 27 88 28 9 29 10 30 11 31 12 32 13 33
REMARK SMILES IDX 14 34 15 35 16 36 77 37 17 38 76 39 18 40 19 41 20 42 70 43
REMARK SMILES IDX 21 44 75 45 69 46 71 47 22 48 74 49 68 50 67 51 23 53 55 54
REMARK SMILES IDX 35 55 54 56 36 57 39 58 53 59 72 60 37 61 38 62 52 64 73 65
REMARK SMILES IDX 40 66 24 67 25 68 33 69 26 70 28 71 34 72 27 73 29 74 30 75
REMARK SMILES IDX 31 76 32 77 56 78 57 79 65 80 58 81 60 82 66 83 59 84 61 85
REMARK SMILES IDX 62 86 63 87 64 88 41 89 42 90 50 91 43 92 45 93 51 94 44 95
REMARK SMILES IDX 46 96 47 97 48 98 49 99
REMARK H PARENT 71 52 39 63
REMARK Flexibility Score: inf
ROOT
ATOM      1  C   UNL A   1      34.012  22.803  24.273  1.00  0.00     0.188 C 
ENDROOT
BRANCH   1   2
ATOM      2  C   UNL A   1      33.199  21.980  25.259  1.00  0.00     0.188 C 
BRANCH   2   3
ATOM      3  O   UNL A   1      32.162  22.783  25.804  1.00  0.00    -0.376 OA
BRANCH   3   4
ATOM      4  C   UNL A   1      32.730  23.882  26.500  1.00  0.00     0.202 C 
BRANCH   4   5
ATOM      5  C   UNL A   1      31.835  25.100  26.342  1.00  0.00     0.261 C 
BRANCH   5   6
ATOM      6  O   UNL A   1      32.633  26.275  26.323  1.00  0.00    -0.460 OA
BRANCH   6   7
ATOM      7  C   UNL A   1      32.060  27.528  26.666  1.00  0.00     0.338 C 
ATOM      8  O   UNL A   1      31.823  27.807  27.883  1.00  0.00    -0.246 OA
BRANCH   7   9
ATOM      9  C   UNL A   1      31.729  28.535  25.578  1.00  0.00     0.087 C 
ATOM     10  C   UNL A   1      32.386  29.726  25.530  1.00  0.00     0.027 C 
ATOM     11  C   UNL A   1      30.665  28.213  24.541  1.00  0.00     0.316 C 
ATOM     12  C   UNL A   1      33.450  30.050  26.565  1.00  0.00     0.019 A 
ATOM     13  O   UNL A   1      34.148  27.810  26.182  1.00  0.00    -0.475 OA
ATOM     14  C   UNL A   1      33.483  31.235  27.281  1.00  0.00     0.036 A 
ATOM     15  C   UNL A   1      34.309  29.068  26.819  1.00  0.00     0.128 A 
ATOM     16  C   UNL A   1      34.654  31.405  28.057  1.00  0.00     0.107 A 
ATOM     17  C   UNL A   1      35.352  29.261  27.693  1.00  0.00     0.048 A 
ATOM     18  C   UNL A   1      35.479  30.430  28.389  1.00  0.00     0.028 A 
BRANCH  11  19
ATOM     19  C   UNL A   1      31.286  28.235  23.153  1.00  0.00     0.430 C 
ATOM     20  F   UNL A   1      31.067  29.420  22.590  1.00  0.00    -0.167 F 
ATOM     21  F   UNL A   1      32.596  28.025  23.251  1.00  0.00    -0.167 F 
ATOM     22  F   UNL A   1      30.738  27.281  22.407  1.00  0.00    -0.167 F 
ENDBRANCH  11  19
BRANCH  16  23
ATOM     23  S   UNL A   1      35.046  33.076  28.632  1.00  0.00     0.310 S 
ATOM     24  F   UNL A   1      33.975  33.735  27.667  1.00  0.00    -0.094 F 
ATOM     25  F   UNL A   1      36.086  33.208  27.457  1.00  0.00    -0.094 F 
ATOM     26  F   UNL A   1      35.387  34.508  29.133  1.00  0.00    -0.094 F 
ATOM     27  F   UNL A   1      33.902  32.978  29.716  1.00  0.00    -0.094 F 
ATOM     28  F   UNL A   1      34.612  31.664  28.067  1.00  0.00    -0.094 F 
ENDBRANCH  16  23
ENDBRANCH   7   9
ENDBRANCH   6   7
ENDBRANCH   5   6
ENDBRANCH   4   5
ENDBRANCH   3   4
ENDBRANCH   2   3
ENDBRANCH   1   2
BRANCH   1  29
ATOM     29  O   UNL A   1      35.272  22.184  24.066  1.00  0.00    -0.376 OA
BRANCH  29  30
ATOM     30  C   UNL A   1      35.342  20.987  24.827  1.00  0.00     0.202 C 
BRANCH  30  31
ATOM     31  C   UNL A   1      36.797  20.657  25.120  1.00  0.00     0.261 C 
BRANCH  31  32
ATOM     32  O   UNL A   1      37.502  21.852  25.424  1.00  0.00    -0.460 OA
BRANCH  32  33
ATOM     33  C   UNL A   1      38.789  21.783  26.021  1.00  0.00     0.338 C 
ATOM     34  O   UNL A   1      39.410  20.676  26.067  1.00  0.00    -0.246 OA
BRANCH  33  35
ATOM     35  C   UNL A   1      39.422  23.035  26.606  1.00  0.00     0.060 A 
ATOM     36  C   UNL A   1      38.915  24.292  26.320  1.00  0.00     0.016 A 
ATOM     37  C   UNL A   1      40.565  22.887  27.264  1.00  0.00     0.016 A 
ATOM     38  C   UNL A   1      39.842  25.343  26.519  1.00  0.00     0.010 A 
ATOM     39  C   UNL A   1      41.357  23.975  27.545  1.00  0.00     0.010 A 
ATOM     40  C   UNL A   1      40.946  25.242  27.238  1.00  0.00    -0.014 A 
BRANCH  40  41
ATOM     41  C   UNL A   1      41.718  26.468  27.696  1.00  0.00     0.031 A 
ATOM     42  C   UNL A   1      43.030  26.538  27.224  1.00  0.00     0.074 A 
ATOM     43  C   UNL A   1      41.088  27.491  28.385  1.00  0.00     0.049 A 
ATOM     44  N   UNL A   1      43.874  27.567  27.315  1.00  0.00    -0.248 NA
ATOM     45  C   UNL A   1      43.712  25.441  26.522  1.00  0.00     0.031 C 
ATOM     46  C   UNL A   1      39.762  27.431  28.857  1.00  0.00     0.029 A 
ATOM     47  N   UNL A   1      41.606  28.717  28.736  1.00  0.00    -0.354 N 
ATOM     48  C   UNL A   1      45.034  27.265  26.729  1.00  0.00     0.074 A 
ATOM     49  C   UNL A   1      44.949  25.891  26.216  1.00  0.00     0.031 C 
ATOM     50  C   UNL A   1      39.488  28.600  29.493  1.00  0.00     0.029 A 
ATOM     51  C   UNL A   1      40.638  29.410  29.429  1.00  0.00     0.049 A 
ATOM     52  H   UNL A   1      42.512  29.042  28.529  1.00  0.00     0.167 HD
ATOM     53  C   UNL A   1      46.159  28.080  26.601  1.00  0.00     0.034 A 
ATOM     54  C   UNL A   1      40.734  30.677  29.983  1.00  0.00     0.034 A 
ATOM     55  C   UNL A   1      46.239  29.365  27.118  1.00  0.00     0.049 A 
ATOM     56  C   UNL A   1      41.880  31.472  29.906  1.00  0.00     0.074 A 
ATOM     57  C   UNL A   1      47.363  30.203  26.992  1.00  0.00     0.029 A 
ATOM     58  N   UNL A   1      45.280  30.048  27.833  1.00  0.00    -0.354 N 
ATOM     59  N   UNL A   1      43.026  31.185  29.287  1.00  0.00    -0.248 NA
ATOM     60  C   UNL A   1      42.004  32.802  30.517  1.00  0.00     0.031 C 
ATOM     61  C   UNL A   1      47.089  31.373  27.628  1.00  0.00     0.029 A 
ATOM     62  C   UNL A   1      45.790  31.284  28.163  1.00  0.00     0.049 A 
ATOM     63  H   UNL A   1      44.385  29.711  28.065  1.00  0.00     0.167 HD
ATOM     64  C   UNL A   1      43.884  32.199  29.414  1.00  0.00     0.074 A 
ATOM     65  C   UNL A   1      43.242  33.251  30.214  1.00  0.00     0.031 C 
ATOM     66  C   UNL A   1      45.175  32.291  28.891  1.00  0.00     0.034 A 
BRANCH  53  67
ATOM     67  C   UNL A   1      47.364  27.531  25.854  1.00  0.00     0.023 A 
ATOM     68  C   UNL A   1      47.433  27.594  24.473  1.00  0.00     0.012 A 
ATOM     69  C   UNL A   1      48.334  26.975  26.567  1.00  0.00     0.148 A 
ATOM     70  C   UNL A   1      48.443  26.778  23.911  1.00  0.00     0.002 A 
ATOM     71  C   UNL A   1      49.364  26.308  25.949  1.00  0.00     0.091 A 
ATOM     72  F   UNL A   1      48.311  27.063  27.895  1.00  0.00    -0.205 F 
ATOM     73  C   UNL A   1      49.463  26.279  24.585  1.00  0.00     0.022 A 
BRANCH  71  74
ATOM     74  S   UNL A   1      50.606  25.455  26.952  1.00  0.00     0.127 S 
ATOM     75  O   UNL A   1      51.681  24.863  26.037  1.00  0.00    -0.237 OA
ATOM     76  O   UNL A   1      51.251  26.451  27.919  1.00  0.00    -0.237 OA
ATOM     77  O   UNL A   1      49.858  24.201  27.840  1.00  0.00    -0.744 OA
ENDBRANCH  71  74
ENDBRANCH  53  67
BRANCH  54  78
ATOM     78  C   UNL A   1      39.523  31.233  30.716  1.00  0.00     0.023 A 
ATOM     79  C   UNL A   1      38.563  31.902  29.977  1.00  0.00     0.012 A 
ATOM     80  C   UNL A   1      39.394  31.070  32.028  1.00  0.00     0.148 A 
ATOM     81  C   UNL A   1      37.633  32.622  30.763  1.00  0.00     0.002 A 
ATOM     82  C   UNL A   1      38.380  31.695  32.713  1.00  0.00     0.091 A 
ATOM     83  F   UNL A   1      40.254  30.297  32.685  1.00  0.00    -0.205 F 
ATOM     84  C   UNL A   1      37.429  32.421  32.052  1.00  0.00     0.022 A 
BRANCH  82  85
ATOM     85  S   UNL A   1      38.302  31.554  34.516  1.00  0.00     0.127 S 
ATOM     86  O   UNL A   1      37.072  32.305  35.033  1.00  0.00    -0.237 OA
ATOM     87  O   UNL A   1      38.200  30.078  34.907  1.00  0.00    -0.237 OA
ATOM     88  O   UNL A   1      39.715  32.229  35.202  1.00  0.00    -0.744 OA
ENDBRANCH  82  85
ENDBRANCH  54  78
BRANCH  66  89
ATOM     89  C   UNL A   1      45.955  33.572  29.137  1.00  0.00     0.023 A 
ATOM     90  C   UNL A   1      46.723  33.752  30.275  1.00  0.00     0.012 A 
ATOM     91  C   UNL A   1      45.762  34.562  28.272  1.00  0.00     0.148 A 
ATOM     92  C   UNL A   1      47.010  35.107  30.564  1.00  0.00     0.002 A 
ATOM     93  C   UNL A   1      46.190  35.835  28.561  1.00  0.00     0.091 A 
ATOM     94  F   UNL A   1      45.148  34.318  27.118  1.00  0.00    -0.205 F 
ATOM     95  C   UNL A   1      46.903  36.097  29.698  1.00  0.00     0.022 A 
BRANCH  93  96
ATOM     96  S   UNL A   1      45.804  37.186  27.418  1.00  0.00     0.127 S 
ATOM     97  O   UNL A   1      46.105  38.526  28.094  1.00  0.00    -0.237 OA
ATOM     98  O   UNL A   1      46.659  37.047  26.157  1.00  0.00    -0.237 OA
ATOM     99  O   UNL A   1      44.148  37.119  26.996  1.00  0.00    -0.744 OA
ENDBRANCH  93  96
ENDBRANCH  66  89
ENDBRANCH  40  41
ENDBRANCH  33  35
ENDBRANCH  32  33
ENDBRANCH  31  32
ENDBRANCH  30  31
ENDBRANCH  29  30
ENDBRANCH   1  29
TORSDOF 22
ENDMDL
MODEL 3
REMARK VINA RESULT:     -11.9      4.971     10.376
REMARK SMILES O=C(OCCOCCOCCOC(=O)c1ccc(-c2c3nc(c(-c4cccc(S(=O)(=O)[O-])c4F)c4ccc([nH]4)c(-c4cccc(S(=O)(=O)[O-])c4F)c4nc(c(-c5cccc(S(=O)(=O)[O-])c5F)c5ccc2[nH]5)C=C4)C=C3)cc1)C1=Cc2cc(S(F)(F)(F)(F)F)ccc2O[C@@H]1C(F)(F)F
REMARK SMILES IDX 8 1 7 2 6 3 5 4 4 5 3 6 2 7 1 8 78 9 79 10 93 11 80 12 92 13
REMARK SMILES IDX 81 14 91 15 82 16 90 17 89 18 94 19 95 20 96 21 97 22 83 23
REMARK SMILES IDX 84 24 85 25 86 26 87 27 88 28 9 29 10 30 11 31 12 32 13 33
REMARK SMILES IDX 14 34 15 35 16 36 77 37 17 38 76 39 18 40 19 41 20 42 70 43
REMARK SMILES IDX 21 44 75 45 69 46 71 47 22 48 74 49 68 50 67 51 23 53 55 54
REMARK SMILES IDX 35 55 54 56 36 57 39 58 53 59 72 60 37 61 38 62 52 64 73 65
REMARK SMILES IDX 40 66 24 67 25 68 33 69 26 70 28 71 34 72 27 73 29 74 30 75
REMARK SMILES IDX 31 76 32 77 56 78 57 79 65 80 58 81 60 82 66 83 59 84 61 85
REMARK SMILES IDX 62 86 63 87 64 88 41 89 42 90 50 91 43 92 45 93 51 94 44 95
REMARK SMILES IDX 46 96 47 97 48 98 49 99
REMARK H PARENT 71 52 39 63
REMARK Flexibility Score: inf
ROOT
ATOM      1  C   UNL A   1      34.033  22.576  24.828  1.00  0.00     0.188 C 
ENDROOT
BRANCH   1   2
ATOM      2  C   UNL A   1      33.088  21.391  24.941  1.00  0.00     0.188 C 
BRANCH   2   3
ATOM      3  O   UNL A   1      31.755  21.825  24.716  1.00  0.00    -0.376 OA
BRANCH   3   4
ATOM      4  C   UNL A   1      31.729  23.242  24.621  1.00  0.00     0.202 C 
BRANCH   4   5
ATOM      5  C   UNL A   1      31.039  23.651  23.330  1.00  0.00     0.261 C 
BRANCH   5   6
ATOM      6  O   UNL A   1      30.512  24.962  23.470  1.00  0.00    -0.460 OA
BRANCH   6   7
ATOM      7  C   UNL A   1      31.113  26.047  22.777  1.00  0.00     0.338 C 
ATOM      8  O   UNL A   1      30.914  26.192  21.530  1.00  0.00    -0.246 OA
BRANCH   7   9
ATOM      9  C   UNL A   1      31.994  27.032  23.526  1.00  0.00     0.087 C 
ATOM     10  C   UNL A   1      31.548  28.294  23.772  1.00  0.00     0.027 C 
ATOM     11  C   UNL A   1      33.375  26.608  24.001  1.00  0.00     0.316 C 
ATOM     12  C   UNL A   1      30.168  28.718  23.297  1.00  0.00     0.019 A 
ATOM     13  O   UNL A   1      29.505  26.588  24.117  1.00  0.00    -0.475 OA
ATOM     14  C   UNL A   1      29.932  29.882  22.585  1.00  0.00     0.036 A 
ATOM     15  C   UNL A   1      29.197  27.841  23.526  1.00  0.00     0.128 A 
ATOM     16  C   UNL A   1      28.559  30.173  22.401  1.00  0.00     0.107 A 
ATOM     17  C   UNL A   1      27.896  28.137  23.196  1.00  0.00     0.048 A 
ATOM     18  C   UNL A   1      27.582  29.296  22.544  1.00  0.00     0.028 A 
BRANCH  11  19
ATOM     19  C   UNL A   1      33.451  26.737  25.514  1.00  0.00     0.430 C 
ATOM     20  F   UNL A   1      32.306  26.328  26.052  1.00  0.00    -0.167 F 
ATOM     21  F   UNL A   1      34.450  25.986  25.973  1.00  0.00    -0.167 F 
ATOM     22  F   UNL A   1      33.666  28.008  25.841  1.00  0.00    -0.167 F 
ENDBRANCH  11  19
BRANCH  16  23
ATOM     23  S   UNL A   1      28.113  31.865  21.937  1.00  0.00     0.310 S 
ATOM     24  F   UNL A   1      29.498  32.444  22.446  1.00  0.00    -0.094 F 
ATOM     25  F   UNL A   1      27.561  32.091  23.395  1.00  0.00    -0.094 F 
ATOM     26  F   UNL A   1      27.723  33.315  21.535  1.00  0.00    -0.094 F 
ATOM     27  F   UNL A   1      28.796  31.665  20.527  1.00  0.00    -0.094 F 
ATOM     28  F   UNL A   1      28.614  30.428  22.367  1.00  0.00    -0.094 F 
ENDBRANCH  16  23
ENDBRANCH   7   9
ENDBRANCH   6   7
ENDBRANCH   5   6
ENDBRANCH   4   5
ENDBRANCH   3   4
ENDBRANCH   2   3
ENDBRANCH   1   2
BRANCH   1  29
ATOM     29  O   UNL A   1      35.354  22.107  24.597  1.00  0.00    -0.376 OA
BRANCH  29  30
ATOM     30  C   UNL A   1      35.451  20.750  25.002  1.00  0.00     0.202 C 
BRANCH  30  31
ATOM     31  C   UNL A   1      36.913  20.334  25.033  1.00  0.00     0.261 C 
BRANCH  31  32
ATOM     32  O   UNL A   1      37.731  21.488  25.158  1.00  0.00    -0.460 OA
BRANCH  32  33
ATOM     33  C   UNL A   1      38.913  21.438  25.944  1.00  0.00     0.338 C 
ATOM     34  O   UNL A   1      39.528  20.338  26.098  1.00  0.00    -0.246 OA
BRANCH  33  35
ATOM     35  C   UNL A   1      39.441  22.703  26.602  1.00  0.00     0.060 A 
ATOM     36  C   UNL A   1      39.005  23.954  26.197  1.00  0.00     0.016 A 
ATOM     37  C   UNL A   1      40.445  22.568  27.459  1.00  0.00     0.016 A 
ATOM     38  C   UNL A   1      39.889  25.006  26.534  1.00  0.00     0.010 A 
ATOM     39  C   UNL A   1      41.183  23.659  27.851  1.00  0.00     0.010 A 
ATOM     40  C   UNL A   1      40.845  24.919  27.443  1.00  0.00    -0.014 A 
BRANCH  40  41
ATOM     41  C   UNL A   1      41.532  26.154  28.001  1.00  0.00     0.031 A 
ATOM     42  C   UNL A   1      42.844  26.337  27.562  1.00  0.00     0.074 A 
ATOM     43  C   UNL A   1      40.830  27.084  28.749  1.00  0.00     0.049 A 
ATOM     44  N   UNL A   1      43.621  27.407  27.742  1.00  0.00    -0.248 NA
ATOM     45  C   UNL A   1      43.604  25.337  26.797  1.00  0.00     0.031 C 
ATOM     46  C   UNL A   1      39.502  26.910  29.190  1.00  0.00     0.029 A 
ATOM     47  N   UNL A   1      41.264  28.311  29.196  1.00  0.00    -0.354 N 
ATOM     48  C   UNL A   1      44.807  27.218  27.160  1.00  0.00     0.074 A 
ATOM     49  C   UNL A   1      44.815  25.882  26.549  1.00  0.00     0.031 C 
ATOM     50  C   UNL A   1      39.147  28.012  29.901  1.00  0.00     0.029 A 
ATOM     51  C   UNL A   1      40.245  28.893  29.917  1.00  0.00     0.049 A 
ATOM     52  H   UNL A   1      42.151  28.705  29.030  1.00  0.00     0.167 HD
ATOM     53  C   UNL A   1      45.881  28.108  27.112  1.00  0.00     0.034 A 
ATOM     54  C   UNL A   1      40.254  30.120  30.561  1.00  0.00     0.034 A 
ATOM     55  C   UNL A   1      45.873  29.354  27.719  1.00  0.00     0.049 A 
ATOM     56  C   UNL A   1      41.349  30.987  30.563  1.00  0.00     0.074 A 
ATOM     57  C   UNL A   1      46.944  30.267  27.675  1.00  0.00     0.029 A 
ATOM     58  N   UNL A   1      44.863  29.925  28.462  1.00  0.00    -0.354 N 
ATOM     59  N   UNL A   1      42.520  30.815  29.948  1.00  0.00    -0.248 NA
ATOM     60  C   UNL A   1      41.381  32.274  31.269  1.00  0.00     0.031 C 
ATOM     61  C   UNL A   1      46.588  31.369  28.387  1.00  0.00     0.029 A 
ATOM     62  C   UNL A   1      45.290  31.162  28.889  1.00  0.00     0.049 A 
ATOM     63  H   UNL A   1      43.987  29.519  28.652  1.00  0.00     0.167 HD
ATOM     64  C   UNL A   1      43.311  31.867  30.164  1.00  0.00     0.074 A 
ATOM     65  C   UNL A   1      42.593  32.819  31.023  1.00  0.00     0.031 C 
ATOM     66  C   UNL A   1      44.602  32.075  29.675  1.00  0.00     0.034 A 
BRANCH  53  67
ATOM     67  C   UNL A   1      47.128  27.688  26.351  1.00  0.00     0.023 A 
ATOM     68  C   UNL A   1      47.276  27.987  25.007  1.00  0.00     0.012 A 
ATOM     69  C   UNL A   1      48.059  27.013  27.013  1.00  0.00     0.148 A 
ATOM     70  C   UNL A   1      48.320  27.272  24.372  1.00  0.00     0.002 A 
ATOM     71  C   UNL A   1      49.125  26.456  26.349  1.00  0.00     0.091 A 
ATOM     72  F   UNL A   1      47.960  26.873  28.332  1.00  0.00    -0.205 F 
ATOM     73  C   UNL A   1      49.302  26.660  25.009  1.00  0.00     0.022 A 
BRANCH  71  74
ATOM     74  S   UNL A   1      50.312  25.438  27.260  1.00  0.00     0.127 S 
ATOM     75  O   UNL A   1      50.912  26.256  28.406  1.00  0.00    -0.237 OA
ATOM     76  O   UNL A   1      49.598  24.209  27.829  1.00  0.00    -0.237 OA
ATOM     77  O   UNL A   1      51.559  24.933  26.204  1.00  0.00    -0.744 OA
ENDBRANCH  71  74
ENDBRANCH  53  67
BRANCH  54  78
ATOM     78  C   UNL A   1      39.000  30.547  31.308  1.00  0.00     0.023 A 
ATOM     79  C   UNL A   1      38.864  30.159  32.630  1.00  0.00     0.012 A 
ATOM     80  C   UNL A   1      38.069  31.278  30.704  1.00  0.00     0.148 A 
ATOM     81  C   UNL A   1      37.563  30.349  33.153  1.00  0.00     0.002 A 
ATOM     82  C   UNL A   1      36.873  31.540  31.329  1.00  0.00     0.091 A 
ATOM     83  F   UNL A   1      38.296  31.759  29.486  1.00  0.00    -0.205 F 
ATOM     84  C   UNL A   1      36.648  31.135  32.615  1.00  0.00     0.022 A 
BRANCH  82  85
ATOM     85  S   UNL A   1      35.578  32.434  30.434  1.00  0.00     0.127 S 
ATOM     86  O   UNL A   1      34.345  32.575  31.330  1.00  0.00    -0.237 OA
ATOM     87  O   UNL A   1      36.091  33.824  30.050  1.00  0.00    -0.237 OA
ATOM     88  O   UNL A   1      35.160  31.569  29.020  1.00  0.00    -0.744 OA
ENDBRANCH  82  85
ENDBRANCH  54  78
BRANCH  66  89
ATOM     89  C   UNL A   1      45.297  33.381  30.026  1.00  0.00     0.023 A 
ATOM     90  C   UNL A   1      46.058  33.516  31.175  1.00  0.00     0.012 A 
ATOM     91  C   UNL A   1      45.034  34.423  29.246  1.00  0.00     0.148 A 
ATOM     92  C   UNL A   1      46.257  34.859  31.575  1.00  0.00     0.002 A 
ATOM     93  C   UNL A   1      45.378  35.694  29.639  1.00  0.00     0.091 A 
ATOM     94  F   UNL A   1      44.431  34.237  28.076  1.00  0.00    -0.205 F 
ATOM     95  C   UNL A   1      46.080  35.907  30.794  1.00  0.00     0.022 A 
BRANCH  93  96
ATOM     96  S   UNL A   1      44.897  37.106  28.613  1.00  0.00     0.127 S 
ATOM     97  O   UNL A   1      43.373  37.141  28.478  1.00  0.00    -0.237 OA
ATOM     98  O   UNL A   1      45.381  38.402  29.270  1.00  0.00    -0.237 OA
ATOM     99  O   UNL A   1      45.605  36.952  27.064  1.00  0.00    -0.744 OA
ENDBRANCH  93  96
ENDBRANCH  66  89
ENDBRANCH  40  41
ENDBRANCH  33  35
ENDBRANCH  32  33
ENDBRANCH  31  32
ENDBRANCH  30  31
ENDBRANCH  29  30
ENDBRANCH   1  29
TORSDOF 22
ENDMDL
