MODEL 1
REMARK VINA RESULT:      -9.3      0.000      0.000
REMARK SMILES C#Cc1cccc(N(C)S(=O)(=O)c2cc(F)c(F)c(C(=O)OCCOCCOCCOC(=O)c3ccc(-c4c5nc(c(-c6cccc(S(=O)(=O)[O-])c6F)c6ccc([nH]6)c(-c6cccc(S(=O)(=O)[O-])c6F)c6nc(c(-c7cccc(S(=O)(=O)[O-])c7F)c7ccc4[nH]7)C=C6)C=C5)cc3)c2)c1
REMARK SMILES IDX 26 1 25 2 24 3 23 4 22 5 20 6 21 7 19 8 13 9 14 10 97 11
REMARK SMILES IDX 15 12 16 13 17 14 18 15 10 16 11 17 12 18 8 19 9 20 7 21
REMARK SMILES IDX 3 22 4 23 98 24 5 25 6 26 2 27 1 28 27 29 28 30 29 31 30 32
REMARK SMILES IDX 31 33 32 34 33 35 34 36 35 37 96 38 36 39 95 40 37 41 38 42
REMARK SMILES IDX 39 43 89 44 40 45 94 46 88 47 90 48 41 49 93 50 87 51 86 52
REMARK SMILES IDX 42 54 74 55 54 56 73 57 55 58 58 59 72 60 91 61 56 62 57 63
REMARK SMILES IDX 71 65 92 66 59 67 43 68 44 69 52 70 45 71 47 72 53 73 46 74
REMARK SMILES IDX 48 75 49 76 50 77 51 78 75 79 76 80 84 81 77 82 79 83 85 84
REMARK SMILES IDX 78 85 80 86 81 87 82 88 83 89 60 90 61 91 69 92 62 93 64 94
REMARK SMILES IDX 70 95 63 96 65 97 66 98 67 99 68 100
REMARK H PARENT 90 53 58 64
REMARK Flexibility Score: inf
ROOT
ATOM      1  C   UNL A   1      39.852  27.997  27.748  1.00  0.00     0.188 C 
ENDROOT
BRANCH   1   2
ATOM      2  O   UNL A   1      40.935  27.758  26.883  1.00  0.00    -0.376 OA
BRANCH   2   3
ATOM      3  C   UNL A   1      41.480  26.459  26.749  1.00  0.00     0.202 C 
BRANCH   3   4
ATOM      4  C   UNL A   1      40.826  25.267  26.016  1.00  0.00     0.261 C 
BRANCH   4   5
ATOM      5  O   UNL A   1      39.532  24.826  26.437  1.00  0.00    -0.460 OA
BRANCH   5   6
ATOM      6  C   UNL A   1      39.422  23.524  26.816  1.00  0.00     0.341 C 
ATOM      7  O   UNL A   1      39.973  22.979  27.750  1.00  0.00    -0.246 OA
BRANCH   6   8
ATOM      8  C   UNL A   1      38.416  22.898  25.938  1.00  0.00     0.100 A 
ATOM      9  C   UNL A   1      36.255  22.981  24.861  1.00  0.00     0.091 A 
ATOM     10  C   UNL A   1      36.376  21.620  24.537  1.00  0.00     0.064 A 
ATOM     11  C   UNL A   1      37.292  23.632  25.528  1.00  0.00     0.041 A 
ATOM     12  C   UNL A   1      37.522  20.920  24.903  1.00  0.00     0.161 A 
ATOM     13  F   UNL A   1      37.617  19.621  24.593  1.00  0.00    -0.204 F 
ATOM     14  C   UNL A   1      38.537  21.546  25.615  1.00  0.00     0.173 A 
ATOM     15  F   UNL A   1      39.578  20.823  26.048  1.00  0.00    -0.203 F 
BRANCH   9  16
ATOM     16  S   UNL A   1      34.728  23.776  24.400  1.00  0.00     0.264 S 
ATOM     17  O   UNL A   1      34.626  23.621  22.962  1.00  0.00    -0.201 OA
ATOM     18  O   UNL A   1      34.809  25.091  25.003  1.00  0.00    -0.201 OA
BRANCH  16  19
ATOM     19  N   UNL A   1      33.383  22.954  25.093  1.00  0.00    -0.269 N 
ATOM     20  C   UNL A   1      33.322  22.878  26.578  1.00  0.00     0.164 C 
BRANCH  19  21
ATOM     21  C   UNL A   1      32.910  21.745  24.380  1.00  0.00     0.053 A 
ATOM     22  C   UNL A   1      32.616  19.322  24.139  1.00  0.00     0.026 A 
ATOM     23  C   UNL A   1      32.135  19.487  22.843  1.00  0.00     0.017 A 
ATOM     24  C   UNL A   1      32.995  20.440  24.899  1.00  0.00     0.044 A 
ATOM     25  C   UNL A   1      32.043  20.763  22.305  1.00  0.00     0.003 A 
ATOM     26  C   UNL A   1      32.448  21.873  23.057  1.00  0.00     0.027 A 
BRANCH  22  27
ATOM     27  C   UNL A   1      32.741  17.998  24.676  1.00  0.00    -0.070 C 
ATOM     28  C   UNL A   1      32.873  16.895  25.126  1.00  0.00     0.010 C 
ENDBRANCH  22  27
ENDBRANCH  19  21
ENDBRANCH  16  19
ENDBRANCH   9  16
ENDBRANCH   6   8
ENDBRANCH   5   6
ENDBRANCH   4   5
ENDBRANCH   3   4
ENDBRANCH   2   3
ENDBRANCH   1   2
BRANCH   1  29
ATOM     29  C   UNL A   1      39.194  29.386  27.631  1.00  0.00     0.188 C 
BRANCH  29  30
ATOM     30  O   UNL A   1      38.593  29.932  28.786  1.00  0.00    -0.376 OA
BRANCH  30  31
ATOM     31  C   UNL A   1      37.251  30.398  28.716  1.00  0.00     0.202 C 
BRANCH  31  32
ATOM     32  C   UNL A   1      36.080  29.983  29.643  1.00  0.00     0.261 C 
BRANCH  32  33
ATOM     33  O   UNL A   1      36.369  29.326  30.882  1.00  0.00    -0.460 OA
BRANCH  33  34
ATOM     34  C   UNL A   1      36.830  30.114  31.887  1.00  0.00     0.338 C 
ATOM     35  O   UNL A   1      36.202  30.960  32.499  1.00  0.00    -0.246 OA
BRANCH  34  36
ATOM     36  C   UNL A   1      38.175  29.642  32.284  1.00  0.00     0.060 A 
ATOM     37  C   UNL A   1      39.178  30.589  32.539  1.00  0.00     0.016 A 
ATOM     38  C   UNL A   1      38.449  28.279  32.391  1.00  0.00     0.016 A 
ATOM     39  C   UNL A   1      40.461  30.175  32.899  1.00  0.00     0.010 A 
ATOM     40  C   UNL A   1      39.745  27.866  32.721  1.00  0.00     0.010 A 
ATOM     41  C   UNL A   1      40.764  28.811  32.953  1.00  0.00    -0.014 A 
BRANCH  41  42
ATOM     42  C   UNL A   1      42.175  28.371  33.096  1.00  0.00     0.031 A 
ATOM     43  C   UNL A   1      42.939  27.974  31.862  1.00  0.00     0.074 A 
ATOM     44  C   UNL A   1      42.772  28.318  34.301  1.00  0.00     0.049 A 
ATOM     45  N   UNL A   1      44.152  27.500  31.754  1.00  0.00    -0.248 NA
ATOM     46  C   UNL A   1      42.236  28.128  30.578  1.00  0.00     0.031 C 
ATOM     47  C   UNL A   1      42.151  28.696  35.569  1.00  0.00     0.029 A 
ATOM     48  N   UNL A   1      44.030  27.895  34.653  1.00  0.00    -0.354 N 
ATOM     49  C   UNL A   1      44.347  27.264  30.397  1.00  0.00     0.074 A 
ATOM     50  C   UNL A   1      43.123  27.637  29.724  1.00  0.00     0.031 C 
ATOM     51  C   UNL A   1      43.020  28.457  36.567  1.00  0.00     0.029 A 
ATOM     52  C   UNL A   1      44.243  27.878  36.012  1.00  0.00     0.049 A 
ATOM     53  H   UNL A   1      44.714  27.631  33.997  1.00  0.00     0.167 HD
ATOM     54  C   UNL A   1      45.447  26.785  29.769  1.00  0.00     0.034 A 
ATOM     55  C   UNL A   1      45.288  27.414  36.727  1.00  0.00     0.034 A 
ATOM     56  C   UNL A   1      46.665  26.418  30.440  1.00  0.00     0.049 A 
ATOM     57  C   UNL A   1      46.482  26.838  36.007  1.00  0.00     0.074 A 
ATOM     58  C   UNL A   1      47.850  25.968  29.884  1.00  0.00     0.029 A 
ATOM     59  N   UNL A   1      46.850  26.432  31.813  1.00  0.00    -0.354 N 
ATOM     60  N   UNL A   1      46.692  26.716  34.718  1.00  0.00    -0.248 NA
ATOM     61  C   UNL A   1      47.595  26.361  36.840  1.00  0.00     0.031 C 
ATOM     62  C   UNL A   1      48.729  25.654  30.923  1.00  0.00     0.029 A 
ATOM     63  C   UNL A   1      48.117  25.971  32.125  1.00  0.00     0.049 A 
ATOM     64  H   UNL A   1      46.178  26.726  32.470  1.00  0.00     0.167 HD
ATOM     65  C   UNL A   1      47.972  26.187  34.587  1.00  0.00     0.074 A 
ATOM     66  C   UNL A   1      48.498  26.032  35.927  1.00  0.00     0.031 C 
ATOM     67  C   UNL A   1      48.649  25.854  33.459  1.00  0.00     0.034 A 
BRANCH  54  68
ATOM     68  C   UNL A   1      45.381  26.620  28.272  1.00  0.00     0.023 A 
ATOM     69  C   UNL A   1      45.577  27.730  27.427  1.00  0.00     0.012 A 
ATOM     70  C   UNL A   1      45.175  25.347  27.703  1.00  0.00     0.148 A 
ATOM     71  C   UNL A   1      45.530  27.585  26.041  1.00  0.00     0.002 A 
ATOM     72  C   UNL A   1      45.182  25.200  26.322  1.00  0.00     0.091 A 
ATOM     73  F   UNL A   1      44.974  24.306  28.523  1.00  0.00    -0.205 F 
ATOM     74  C   UNL A   1      45.343  26.320  25.489  1.00  0.00     0.022 A 
BRANCH  72  75
ATOM     75  S   UNL A   1      45.032  23.603  25.514  1.00  0.00     0.127 S 
ATOM     76  O   UNL A   1      45.185  23.970  24.107  1.00  0.00    -0.237 OA
ATOM     77  O   UNL A   1      46.163  22.869  26.080  1.00  0.00    -0.237 OA
ATOM     78  O   UNL A   1      43.721  23.085  25.882  1.00  0.00    -0.744 OA
ENDBRANCH  72  75
ENDBRANCH  54  68
BRANCH  55  79
ATOM     79  C   UNL A   1      45.261  27.473  38.218  1.00  0.00     0.023 A 
ATOM     80  C   UNL A   1      44.731  26.394  38.951  1.00  0.00     0.012 A 
ATOM     81  C   UNL A   1      45.748  28.599  38.909  1.00  0.00     0.148 A 
ATOM     82  C   UNL A   1      44.652  26.451  40.343  1.00  0.00     0.002 A 
ATOM     83  C   UNL A   1      45.719  28.625  40.298  1.00  0.00     0.091 A 
ATOM     84  F   UNL A   1      46.235  29.622  38.193  1.00  0.00    -0.205 F 
ATOM     85  C   UNL A   1      45.154  27.561  41.017  1.00  0.00     0.022 A 
BRANCH  83  86
ATOM     86  S   UNL A   1      46.442  29.962  41.256  1.00  0.00     0.127 S 
ATOM     87  O   UNL A   1      47.819  29.968  40.768  1.00  0.00    -0.237 OA
ATOM     88  O   UNL A   1      45.634  31.104  40.831  1.00  0.00    -0.237 OA
ATOM     89  O   UNL A   1      46.274  29.587  42.653  1.00  0.00    -0.744 OA
ENDBRANCH  83  86
ENDBRANCH  55  79
BRANCH  67  90
ATOM     90  C   UNL A   1      50.056  25.331  33.609  1.00  0.00     0.023 A 
ATOM     91  C   UNL A   1      51.133  26.223  33.783  1.00  0.00     0.012 A 
ATOM     92  C   UNL A   1      50.300  23.942  33.646  1.00  0.00     0.148 A 
ATOM     93  C   UNL A   1      52.433  25.744  33.948  1.00  0.00     0.002 A 
ATOM     94  C   UNL A   1      51.588  23.472  33.869  1.00  0.00     0.091 A 
ATOM     95  F   UNL A   1      49.267  23.107  33.470  1.00  0.00    -0.205 F 
ATOM     96  C   UNL A   1      52.658  24.371  34.003  1.00  0.00     0.022 A 
BRANCH  94  97
ATOM     97  S   UNL A   1      51.962  21.724  34.051  1.00  0.00     0.127 S 
ATOM     98  O   UNL A   1      53.325  21.765  34.579  1.00  0.00    -0.237 OA
ATOM     99  O   UNL A   1      50.948  21.293  35.014  1.00  0.00    -0.237 OA
ATOM    100  O   UNL A   1      51.828  21.140  32.723  1.00  0.00    -0.744 OA
ENDBRANCH  94  97
ENDBRANCH  67  90
ENDBRANCH  41  42
ENDBRANCH  34  36
ENDBRANCH  33  34
ENDBRANCH  32  33
ENDBRANCH  31  32
ENDBRANCH  30  31
ENDBRANCH  29  30
ENDBRANCH   1  29
TORSDOF 24
ENDMDL
MODEL 2
REMARK VINA RESULT:      -9.0      5.219      7.649
REMARK SMILES C#Cc1cccc(N(C)S(=O)(=O)c2cc(F)c(F)c(C(=O)OCCOCCOCCOC(=O)c3ccc(-c4c5nc(c(-c6cccc(S(=O)(=O)[O-])c6F)c6ccc([nH]6)c(-c6cccc(S(=O)(=O)[O-])c6F)c6nc(c(-c7cccc(S(=O)(=O)[O-])c7F)c7ccc4[nH]7)C=C6)C=C5)cc3)c2)c1
REMARK SMILES IDX 26 1 25 2 24 3 23 4 22 5 20 6 21 7 19 8 13 9 14 10 97 11
REMARK SMILES IDX 15 12 16 13 17 14 18 15 10 16 11 17 12 18 8 19 9 20 7 21
REMARK SMILES IDX 3 22 4 23 98 24 5 25 6 26 2 27 1 28 27 29 28 30 29 31 30 32
REMARK SMILES IDX 31 33 32 34 33 35 34 36 35 37 96 38 36 39 95 40 37 41 38 42
REMARK SMILES IDX 39 43 89 44 40 45 94 46 88 47 90 48 41 49 93 50 87 51 86 52
REMARK SMILES IDX 42 54 74 55 54 56 73 57 55 58 58 59 72 60 91 61 56 62 57 63
REMARK SMILES IDX 71 65 92 66 59 67 43 68 44 69 52 70 45 71 47 72 53 73 46 74
REMARK SMILES IDX 48 75 49 76 50 77 51 78 75 79 76 80 84 81 77 82 79 83 85 84
REMARK SMILES IDX 78 85 80 86 81 87 82 88 83 89 60 90 61 91 69 92 62 93 64 94
REMARK SMILES IDX 70 95 63 96 65 97 66 98 67 99 68 100
REMARK H PARENT 90 53 58 64
REMARK Flexibility Score: inf
ROOT
ATOM      1  C   UNL A   1      35.684  32.476  29.170  1.00  0.00     0.188 C 
ENDROOT
BRANCH   1   2
ATOM      2  O   UNL A   1      35.721  31.121  29.548  1.00  0.00    -0.376 OA
BRANCH   2   3
ATOM      3  C   UNL A   1      36.504  30.191  28.826  1.00  0.00     0.202 C 
BRANCH   3   4
ATOM      4  C   UNL A   1      37.575  29.247  29.416  1.00  0.00     0.261 C 
BRANCH   4   5
ATOM      5  O   UNL A   1      38.436  28.538  28.519  1.00  0.00    -0.460 OA
BRANCH   5   6
ATOM      6  C   UNL A   1      39.635  28.130  29.017  1.00  0.00     0.341 C 
ATOM      7  O   UNL A   1      40.039  28.248  30.156  1.00  0.00    -0.246 OA
BRANCH   6   8
ATOM      8  C   UNL A   1      40.335  27.413  27.934  1.00  0.00     0.100 A 
ATOM      9  C   UNL A   1      41.473  25.432  27.149  1.00  0.00     0.091 A 
ATOM     10  C   UNL A   1      41.920  26.148  26.027  1.00  0.00     0.064 A 
ATOM     11  C   UNL A   1      40.647  26.053  28.085  1.00  0.00     0.041 A 
ATOM     12  C   UNL A   1      41.556  27.481  25.865  1.00  0.00     0.161 A 
ATOM     13  F   UNL A   1      41.998  28.151  24.793  1.00  0.00    -0.204 F 
ATOM     14  C   UNL A   1      40.779  28.124  26.819  1.00  0.00     0.173 A 
ATOM     15  F   UNL A   1      40.534  29.435  26.693  1.00  0.00    -0.203 F 
BRANCH   9  16
ATOM     16  S   UNL A   1      42.037  23.748  27.296  1.00  0.00     0.264 S 
ATOM     17  O   UNL A   1      42.038  23.218  25.947  1.00  0.00    -0.201 OA
ATOM     18  O   UNL A   1      41.192  23.173  28.322  1.00  0.00    -0.201 OA
BRANCH  16  19
ATOM     19  N   UNL A   1      43.664  23.702  27.858  1.00  0.00    -0.269 N 
ATOM     20  C   UNL A   1      43.929  24.228  29.223  1.00  0.00     0.164 C 
BRANCH  19  21
ATOM     21  C   UNL A   1      44.716  23.991  26.855  1.00  0.00     0.053 A 
ATOM     22  C   UNL A   1      45.968  25.485  25.366  1.00  0.00     0.026 A 
ATOM     23  C   UNL A   1      46.631  24.401  24.799  1.00  0.00     0.017 A 
ATOM     24  C   UNL A   1      45.025  25.281  26.386  1.00  0.00     0.044 A 
ATOM     25  C   UNL A   1      46.345  23.116  25.242  1.00  0.00     0.003 A 
ATOM     26  C   UNL A   1      45.383  22.916  26.240  1.00  0.00     0.027 A 
BRANCH  22  27
ATOM     27  C   UNL A   1      46.243  26.806  24.880  1.00  0.00    -0.070 C 
ATOM     28  C   UNL A   1      46.500  27.906  24.480  1.00  0.00     0.010 C 
ENDBRANCH  22  27
ENDBRANCH  19  21
ENDBRANCH  16  19
ENDBRANCH   9  16
ENDBRANCH   6   8
ENDBRANCH   5   6
ENDBRANCH   4   5
ENDBRANCH   3   4
ENDBRANCH   2   3
ENDBRANCH   1   2
BRANCH   1  29
ATOM     29  C   UNL A   1      34.504  33.296  29.727  1.00  0.00     0.188 C 
BRANCH  29  30
ATOM     30  O   UNL A   1      34.237  33.215  31.111  1.00  0.00    -0.376 OA
BRANCH  30  31
ATOM     31  C   UNL A   1      34.409  34.372  31.920  1.00  0.00     0.202 C 
BRANCH  31  32
ATOM     32  C   UNL A   1      35.576  34.647  32.903  1.00  0.00     0.261 C 
BRANCH  32  33
ATOM     33  O   UNL A   1      36.829  33.985  32.702  1.00  0.00    -0.460 OA
BRANCH  33  34
ATOM     34  C   UNL A   1      37.574  33.758  33.812  1.00  0.00     0.338 C 
ATOM     35  O   UNL A   1      37.284  34.050  34.959  1.00  0.00    -0.246 OA
BRANCH  34  36
ATOM     36  C   UNL A   1      38.722  32.898  33.449  1.00  0.00     0.060 A 
ATOM     37  C   UNL A   1      39.972  33.153  34.032  1.00  0.00     0.016 A 
ATOM     38  C   UNL A   1      38.570  31.858  32.533  1.00  0.00     0.016 A 
ATOM     39  C   UNL A   1      41.077  32.370  33.697  1.00  0.00     0.010 A 
ATOM     40  C   UNL A   1      39.687  31.094  32.174  1.00  0.00     0.010 A 
ATOM     41  C   UNL A   1      40.952  31.362  32.735  1.00  0.00    -0.014 A 
BRANCH  41  42
ATOM     42  C   UNL A   1      42.165  30.692  32.202  1.00  0.00     0.031 A 
ATOM     43  C   UNL A   1      42.878  31.311  31.030  1.00  0.00     0.074 A 
ATOM     44  C   UNL A   1      42.628  29.550  32.743  1.00  0.00     0.049 A 
ATOM     45  N   UNL A   1      43.912  30.872  30.362  1.00  0.00    -0.248 NA
ATOM     46  C   UNL A   1      42.348  32.596  30.545  1.00  0.00     0.031 C 
ATOM     47  C   UNL A   1      42.045  28.861  33.892  1.00  0.00     0.029 A 
ATOM     48  N   UNL A   1      43.685  28.755  32.372  1.00  0.00    -0.354 N 
ATOM     49  C   UNL A   1      44.135  31.805  29.355  1.00  0.00     0.074 A 
ATOM     50  C   UNL A   1      43.123  32.828  29.494  1.00  0.00     0.031 C 
ATOM     51  C   UNL A   1      42.731  27.726  34.113  1.00  0.00     0.029 A 
ATOM     52  C   UNL A   1      43.778  27.592  33.102  1.00  0.00     0.049 A 
ATOM     53  H   UNL A   1      44.314  28.993  31.654  1.00  0.00     0.167 HD
ATOM     54  C   UNL A   1      45.099  31.812  28.404  1.00  0.00     0.034 A 
ATOM     55  C   UNL A   1      44.591  26.527  32.948  1.00  0.00     0.034 A 
ATOM     56  C   UNL A   1      46.109  30.796  28.270  1.00  0.00     0.049 A 
ATOM     57  C   UNL A   1      45.625  26.536  31.850  1.00  0.00     0.074 A 
ATOM     58  C   UNL A   1      47.156  30.741  27.367  1.00  0.00     0.029 A 
ATOM     59  N   UNL A   1      46.184  29.645  29.037  1.00  0.00    -0.354 N 
ATOM     60  N   UNL A   1      45.890  27.471  30.970  1.00  0.00    -0.248 NA
ATOM     61  C   UNL A   1      46.490  25.352  31.741  1.00  0.00     0.031 C 
ATOM     62  C   UNL A   1      47.828  29.529  27.551  1.00  0.00     0.029 A 
ATOM     63  C   UNL A   1      47.241  28.860  28.612  1.00  0.00     0.049 A 
ATOM     64  H   UNL A   1      45.574  29.420  29.778  1.00  0.00     0.167 HD
ATOM     65  C   UNL A   1      46.975  27.006  30.231  1.00  0.00     0.074 A 
ATOM     66  C   UNL A   1      47.330  25.715  30.781  1.00  0.00     0.031 C 
ATOM     67  C   UNL A   1      47.614  27.592  29.188  1.00  0.00     0.034 A 
BRANCH  54  68
ATOM     68  C   UNL A   1      45.105  32.955  27.421  1.00  0.00     0.023 A 
ATOM     69  C   UNL A   1      44.336  32.879  26.242  1.00  0.00     0.012 A 
ATOM     70  C   UNL A   1      45.835  34.129  27.695  1.00  0.00     0.148 A 
ATOM     71  C   UNL A   1      44.325  33.935  25.333  1.00  0.00     0.002 A 
ATOM     72  C   UNL A   1      45.778  35.198  26.810  1.00  0.00     0.091 A 
ATOM     73  F   UNL A   1      46.573  34.176  28.812  1.00  0.00    -0.205 F 
ATOM     74  C   UNL A   1      45.037  35.098  25.621  1.00  0.00     0.022 A 
BRANCH  72  75
ATOM     75  S   UNL A   1      46.590  36.767  27.129  1.00  0.00     0.127 S 
ATOM     76  O   UNL A   1      48.001  36.394  27.027  1.00  0.00    -0.237 OA
ATOM     77  O   UNL A   1      46.097  37.594  26.029  1.00  0.00    -0.237 OA
ATOM     78  O   UNL A   1      46.154  37.187  28.454  1.00  0.00    -0.744 OA
ENDBRANCH  72  75
ENDBRANCH  54  68
BRANCH  55  79
ATOM     79  C   UNL A   1      44.468  25.353  33.860  1.00  0.00     0.023 A 
ATOM     80  C   UNL A   1      43.647  24.268  33.496  1.00  0.00     0.012 A 
ATOM     81  C   UNL A   1      45.152  25.314  35.091  1.00  0.00     0.148 A 
ATOM     82  C   UNL A   1      43.480  23.183  34.358  1.00  0.00     0.002 A 
ATOM     83  C   UNL A   1      45.026  24.204  35.918  1.00  0.00     0.091 A 
ATOM     84  F   UNL A   1      45.916  26.363  35.426  1.00  0.00    -0.205 F 
ATOM     85  C   UNL A   1      44.176  23.146  35.563  1.00  0.00     0.022 A 
BRANCH  83  86
ATOM     86  S   UNL A   1      45.968  24.018  37.436  1.00  0.00     0.127 S 
ATOM     87  O   UNL A   1      45.486  22.730  37.930  1.00  0.00    -0.237 OA
ATOM     88  O   UNL A   1      47.342  24.012  36.936  1.00  0.00    -0.237 OA
ATOM     89  O   UNL A   1      45.628  25.171  38.259  1.00  0.00    -0.744 OA
ENDBRANCH  83  86
ENDBRANCH  55  79
BRANCH  67  90
ATOM     90  C   UNL A   1      48.799  26.874  28.593  1.00  0.00     0.023 A 
ATOM     91  C   UNL A   1      48.629  26.012  27.490  1.00  0.00     0.012 A 
ATOM     92  C   UNL A   1      50.098  27.109  29.089  1.00  0.00     0.148 A 
ATOM     93  C   UNL A   1      49.726  25.366  26.919  1.00  0.00     0.002 A 
ATOM     94  C   UNL A   1      51.191  26.506  28.479  1.00  0.00     0.091 A 
ATOM     95  F   UNL A   1      50.241  27.923  30.144  1.00  0.00    -0.205 F 
ATOM     96  C   UNL A   1      51.006  25.621  27.405  1.00  0.00     0.022 A 
BRANCH  94  97
ATOM     97  S   UNL A   1      52.885  26.849  28.972  1.00  0.00     0.127 S 
ATOM     98  O   UNL A   1      52.955  28.300  28.808  1.00  0.00    -0.237 OA
ATOM     99  O   UNL A   1      52.898  26.389  30.361  1.00  0.00    -0.237 OA
ATOM    100  O   UNL A   1      53.733  26.081  28.070  1.00  0.00    -0.744 OA
ENDBRANCH  94  97
ENDBRANCH  67  90
ENDBRANCH  41  42
ENDBRANCH  34  36
ENDBRANCH  33  34
ENDBRANCH  32  33
ENDBRANCH  31  32
ENDBRANCH  30  31
ENDBRANCH  29  30
ENDBRANCH   1  29
TORSDOF 24
ENDMDL
MODEL 3
REMARK VINA RESULT:      -9.0      7.188     10.249
REMARK SMILES C#Cc1cccc(N(C)S(=O)(=O)c2cc(F)c(F)c(C(=O)OCCOCCOCCOC(=O)c3ccc(-c4c5nc(c(-c6cccc(S(=O)(=O)[O-])c6F)c6ccc([nH]6)c(-c6cccc(S(=O)(=O)[O-])c6F)c6nc(c(-c7cccc(S(=O)(=O)[O-])c7F)c7ccc4[nH]7)C=C6)C=C5)cc3)c2)c1
REMARK SMILES IDX 26 1 25 2 24 3 23 4 22 5 20 6 21 7 19 8 13 9 14 10 97 11
REMARK SMILES IDX 15 12 16 13 17 14 18 15 10 16 11 17 12 18 8 19 9 20 7 21
REMARK SMILES IDX 3 22 4 23 98 24 5 25 6 26 2 27 1 28 27 29 28 30 29 31 30 32
REMARK SMILES IDX 31 33 32 34 33 35 34 36 35 37 96 38 36 39 95 40 37 41 38 42
REMARK SMILES IDX 39 43 89 44 40 45 94 46 88 47 90 48 41 49 93 50 87 51 86 52
REMARK SMILES IDX 42 54 74 55 54 56 73 57 55 58 58 59 72 60 91 61 56 62 57 63
REMARK SMILES IDX 71 65 92 66 59 67 43 68 44 69 52 70 45 71 47 72 53 73 46 74
REMARK SMILES IDX 48 75 49 76 50 77 51 78 75 79 76 80 84 81 77 82 79 83 85 84
REMARK SMILES IDX 78 85 80 86 81 87 82 88 83 89 60 90 61 91 69 92 62 93 64 94
REMARK SMILES IDX 70 95 63 96 65 97 66 98 67 99 68 100
REMARK H PARENT 90 53 58 64
REMARK Flexibility Score: inf
ROOT
ATOM      1  C   UNL A   1      37.588  34.461  32.300  1.00  0.00     0.188 C 
ENDROOT
BRANCH   1   2
ATOM      2  O   UNL A   1      38.236  33.911  31.178  1.00  0.00    -0.376 OA
BRANCH   2   3
ATOM      3  C   UNL A   1      37.626  33.946  29.902  1.00  0.00     0.202 C 
BRANCH   3   4
ATOM      4  C   UNL A   1      36.249  34.558  29.566  1.00  0.00     0.261 C 
BRANCH   4   5
ATOM      5  O   UNL A   1      35.319  33.782  28.805  1.00  0.00    -0.460 OA
BRANCH   5   6
ATOM      6  C   UNL A   1      34.743  32.723  29.437  1.00  0.00     0.341 C 
ATOM      7  O   UNL A   1      34.194  32.723  30.520  1.00  0.00    -0.246 OA
BRANCH   6   8
ATOM      8  C   UNL A   1      34.811  31.574  28.516  1.00  0.00     0.100 A 
ATOM      9  C   UNL A   1      33.757  30.180  26.848  1.00  0.00     0.091 A 
ATOM     10  C   UNL A   1      34.791  29.242  26.994  1.00  0.00     0.064 A 
ATOM     11  C   UNL A   1      33.785  31.366  27.581  1.00  0.00     0.041 A 
ATOM     12  C   UNL A   1      35.830  29.490  27.887  1.00  0.00     0.161 A 
ATOM     13  F   UNL A   1      36.804  28.581  28.019  1.00  0.00    -0.204 F 
ATOM     14  C   UNL A   1      35.839  30.643  28.661  1.00  0.00     0.173 A 
ATOM     15  F   UNL A   1      36.792  30.804  29.589  1.00  0.00    -0.203 F 
BRANCH   9  16
ATOM     16  S   UNL A   1      32.444  29.748  25.723  1.00  0.00     0.264 S 
ATOM     17  O   UNL A   1      33.088  29.509  24.446  1.00  0.00    -0.201 OA
ATOM     18  O   UNL A   1      31.471  30.810  25.880  1.00  0.00    -0.201 OA
BRANCH  16  19
ATOM     19  N   UNL A   1      31.701  28.270  26.198  1.00  0.00    -0.269 N 
ATOM     20  C   UNL A   1      31.418  28.084  27.646  1.00  0.00     0.164 C 
BRANCH  19  21
ATOM     21  C   UNL A   1      32.139  27.051  25.479  1.00  0.00     0.053 A 
ATOM     22  C   UNL A   1      33.687  25.195  25.061  1.00  0.00     0.026 A 
ATOM     23  C   UNL A   1      32.983  24.836  23.916  1.00  0.00     0.017 A 
ATOM     24  C   UNL A   1      33.266  26.287  25.836  1.00  0.00     0.044 A 
ATOM     25  C   UNL A   1      31.868  25.573  23.539  1.00  0.00     0.003 A 
ATOM     26  C   UNL A   1      31.469  26.679  24.300  1.00  0.00     0.027 A 
BRANCH  22  27
ATOM     27  C   UNL A   1      34.858  24.450  25.426  1.00  0.00    -0.070 C 
ATOM     28  C   UNL A   1      35.823  23.805  25.724  1.00  0.00     0.010 C 
ENDBRANCH  22  27
ENDBRANCH  19  21
ENDBRANCH  16  19
ENDBRANCH   9  16
ENDBRANCH   6   8
ENDBRANCH   5   6
ENDBRANCH   4   5
ENDBRANCH   3   4
ENDBRANCH   2   3
ENDBRANCH   1   2
BRANCH   1  29
ATOM     29  C   UNL A   1      38.021  33.897  33.668  1.00  0.00     0.188 C 
BRANCH  29  30
ATOM     30  O   UNL A   1      37.348  32.756  34.155  1.00  0.00    -0.376 OA
BRANCH  30  31
ATOM     31  C   UNL A   1      36.633  31.930  33.243  1.00  0.00     0.202 C 
BRANCH  31  32
ATOM     32  C   UNL A   1      36.982  30.471  32.851  1.00  0.00     0.261 C 
BRANCH  32  33
ATOM     33  O   UNL A   1      37.977  29.766  33.600  1.00  0.00    -0.460 OA
BRANCH  33  34
ATOM     34  C   UNL A   1      38.825  28.983  32.886  1.00  0.00     0.338 C 
ATOM     35  O   UNL A   1      38.736  27.780  32.710  1.00  0.00    -0.246 OA
BRANCH  34  36
ATOM     36  C   UNL A   1      39.778  29.850  32.160  1.00  0.00     0.060 A 
ATOM     37  C   UNL A   1      39.820  29.789  30.759  1.00  0.00     0.016 A 
ATOM     38  C   UNL A   1      40.633  30.706  32.854  1.00  0.00     0.016 A 
ATOM     39  C   UNL A   1      40.720  30.583  30.047  1.00  0.00     0.010 A 
ATOM     40  C   UNL A   1      41.557  31.476  32.139  1.00  0.00     0.010 A 
ATOM     41  C   UNL A   1      41.623  31.401  30.733  1.00  0.00    -0.014 A 
BRANCH  41  42
ATOM     42  C   UNL A   1      42.734  32.057  29.999  1.00  0.00     0.031 A 
ATOM     43  C   UNL A   1      43.951  31.243  29.649  1.00  0.00     0.074 A 
ATOM     44  C   UNL A   1      42.671  33.355  29.649  1.00  0.00     0.049 A 
ATOM     45  N   UNL A   1      45.061  31.619  29.072  1.00  0.00    -0.248 NA
ATOM     46  C   UNL A   1      43.909  29.815  30.005  1.00  0.00     0.031 C 
ATOM     47  C   UNL A   1      41.542  34.246  29.907  1.00  0.00     0.029 A 
ATOM     48  N   UNL A   1      43.597  34.154  29.024  1.00  0.00    -0.354 N 
ATOM     49  C   UNL A   1      45.867  30.486  29.028  1.00  0.00     0.074 A 
ATOM     50  C   UNL A   1      45.120  29.413  29.646  1.00  0.00     0.031 C 
ATOM     51  C   UNL A   1      41.854  35.480  29.473  1.00  0.00     0.029 A 
ATOM     52  C   UNL A   1      43.215  35.473  28.940  1.00  0.00     0.049 A 
ATOM     53  H   UNL A   1      44.450  33.816  28.670  1.00  0.00     0.167 HD
ATOM     54  C   UNL A   1      47.112  30.349  28.514  1.00  0.00     0.034 A 
ATOM     55  C   UNL A   1      43.899  36.555  28.516  1.00  0.00     0.034 A 
ATOM     56  C   UNL A   1      47.852  31.417  27.895  1.00  0.00     0.049 A 
ATOM     57  C   UNL A   1      45.304  36.386  27.994  1.00  0.00     0.074 A 
ATOM     58  C   UNL A   1      49.101  31.364  27.303  1.00  0.00     0.029 A 
ATOM     59  N   UNL A   1      47.426  32.732  27.811  1.00  0.00    -0.354 N 
ATOM     60  N   UNL A   1      46.014  35.291  27.865  1.00  0.00    -0.248 NA
ATOM     61  C   UNL A   1      45.993  37.601  27.534  1.00  0.00     0.031 C 
ATOM     62  C   UNL A   1      49.455  32.659  26.914  1.00  0.00     0.029 A 
ATOM     63  C   UNL A   1      48.399  33.507  27.204  1.00  0.00     0.049 A 
ATOM     64  H   UNL A   1      46.559  33.067  28.136  1.00  0.00     0.167 HD
ATOM     65  C   UNL A   1      47.213  35.679  27.274  1.00  0.00     0.074 A 
ATOM     66  C   UNL A   1      47.125  37.106  27.052  1.00  0.00     0.031 C 
ATOM     67  C   UNL A   1      48.291  34.922  26.951  1.00  0.00     0.034 A 
BRANCH  54  68
ATOM     68  C   UNL A   1      47.763  28.993  28.607  1.00  0.00     0.023 A 
ATOM     69  C   UNL A   1      48.408  28.597  29.797  1.00  0.00     0.012 A 
ATOM     70  C   UNL A   1      47.690  28.090  27.528  1.00  0.00     0.148 A 
ATOM     71  C   UNL A   1      49.003  27.340  29.897  1.00  0.00     0.002 A 
ATOM     72  C   UNL A   1      48.239  26.820  27.654  1.00  0.00     0.091 A 
ATOM     73  F   UNL A   1      47.088  28.490  26.400  1.00  0.00    -0.205 F 
ATOM     74  C   UNL A   1      48.910  26.449  28.831  1.00  0.00     0.022 A 
BRANCH  72  75
ATOM     75  S   UNL A   1      48.101  25.571  26.371  1.00  0.00     0.127 S 
ATOM     76  O   UNL A   1      46.659  25.325  26.355  1.00  0.00    -0.237 OA
ATOM     77  O   UNL A   1      48.612  26.281  25.199  1.00  0.00    -0.237 OA
ATOM     78  O   UNL A   1      48.917  24.447  26.811  1.00  0.00    -0.744 OA
ENDBRANCH  72  75
ENDBRANCH  54  68
BRANCH  55  79
ATOM     79  C   UNL A   1      43.267  37.906  28.562  1.00  0.00     0.023 A 
ATOM     80  C   UNL A   1      43.393  38.697  29.721  1.00  0.00     0.012 A 
ATOM     81  C   UNL A   1      42.534  38.403  27.467  1.00  0.00     0.148 A 
ATOM     82  C   UNL A   1      42.768  39.943  29.802  1.00  0.00     0.002 A 
ATOM     83  C   UNL A   1      41.963  39.668  27.533  1.00  0.00     0.091 A 
ATOM     84  F   UNL A   1      42.413  37.628  26.380  1.00  0.00    -0.205 F 
ATOM     85  C   UNL A   1      42.061  40.432  28.706  1.00  0.00     0.022 A 
BRANCH  83  86
ATOM     86  S   UNL A   1      41.129  40.427  26.134  1.00  0.00     0.127 S 
ATOM     87  O   UNL A   1      40.295  41.429  26.792  1.00  0.00    -0.237 OA
ATOM     88  O   UNL A   1      42.255  40.966  25.373  1.00  0.00    -0.237 OA
ATOM     89  O   UNL A   1      40.408  39.350  25.469  1.00  0.00    -0.744 OA
ENDBRANCH  83  86
ENDBRANCH  55  79
BRANCH  67  90
ATOM     90  C   UNL A   1      49.455  35.604  26.276  1.00  0.00     0.023 A 
ATOM     91  C   UNL A   1      49.657  35.461  24.888  1.00  0.00     0.012 A 
ATOM     92  C   UNL A   1      50.313  36.446  27.013  1.00  0.00     0.148 A 
ATOM     93  C   UNL A   1      50.717  36.110  24.254  1.00  0.00     0.002 A 
ATOM     94  C   UNL A   1      51.331  37.135  26.364  1.00  0.00     0.091 A 
ATOM     95  F   UNL A   1      50.113  36.564  28.333  1.00  0.00    -0.205 F 
ATOM     96  C   UNL A   1      51.545  36.955  24.989  1.00  0.00     0.022 A 
BRANCH  94  97
ATOM     97  S   UNL A   1      52.387  38.319  27.207  1.00  0.00     0.127 S 
ATOM     98  O   UNL A   1      53.106  38.926  26.088  1.00  0.00    -0.237 OA
ATOM     99  O   UNL A   1      51.410  39.197  27.852  1.00  0.00    -0.237 OA
ATOM    100  O   UNL A   1      53.210  37.545  28.127  1.00  0.00    -0.744 OA
ENDBRANCH  94  97
ENDBRANCH  67  90
ENDBRANCH  41  42
ENDBRANCH  34  36
ENDBRANCH  33  34
ENDBRANCH  32  33
ENDBRANCH  31  32
ENDBRANCH  30  31
ENDBRANCH  29  30
ENDBRANCH   1  29
TORSDOF 24
ENDMDL
