MODEL 1
REMARK VINA RESULT:     -10.0      0.000      0.000
REMARK SMILES COc1ccc(-c2nc(C(C)C)cc3nn(CC(=O)OCCOCCOCCOC(=O)c4ccc(-c5c6nc(c(-c7cccc(S(=O)(=O)[O-])c7F)c7ccc([nH]7)c(-c7cccc(S(=O)(=O)[O-])c7F)c7nc(c(-c8cccc(S(=O)(=O)[O-])c8F)c8ccc5[nH]8)C=C7)C=C6)cc4)c(=O)n23)cc1
REMARK SMILES IDX 24 1 23 2 22 3 21 4 20 5 18 6 19 7 17 8 16 9 7 10 8 11 97 12
REMARK SMILES IDX 9 13 14 14 95 15 13 16 15 17 96 18 6 19 3 20 4 21 99 22 5 23
REMARK SMILES IDX 98 24 2 25 1 26 10 27 11 28 12 29 25 30 26 31 27 32 28 33
REMARK SMILES IDX 29 34 30 35 31 36 32 37 33 38 94 39 34 40 93 41 35 42 36 43
REMARK SMILES IDX 37 44 87 45 38 46 92 47 86 48 88 49 39 50 91 51 85 52 84 53
REMARK SMILES IDX 40 55 72 56 52 57 71 58 53 59 56 60 70 61 89 62 54 63 55 64
REMARK SMILES IDX 69 66 90 67 57 68 41 69 42 70 50 71 43 72 45 73 51 74 44 75
REMARK SMILES IDX 46 76 47 77 48 78 49 79 73 80 74 81 82 82 75 83 77 84 83 85
REMARK SMILES IDX 76 86 78 87 79 88 80 89 81 90 58 91 59 92 67 93 60 94 62 95
REMARK SMILES IDX 68 96 61 97 63 98 64 99 65 100 66 101
REMARK H PARENT 88 54 56 65
REMARK Flexibility Score: inf
ROOT
ATOM      1  C   UNL A   1      33.613  26.009  25.747  1.00  0.00     0.188 C 
ENDROOT
BRANCH   1   2
ATOM      2  O   UNL A   1      33.732  24.780  25.031  1.00  0.00    -0.376 OA
BRANCH   2   3
ATOM      3  C   UNL A   1      32.809  23.753  25.332  1.00  0.00     0.202 C 
BRANCH   3   4
ATOM      4  C   UNL A   1      33.181  22.867  26.532  1.00  0.00     0.261 C 
BRANCH   4   5
ATOM      5  O   UNL A   1      34.547  22.374  26.526  1.00  0.00    -0.462 OA
BRANCH   5   6
ATOM      6  C   UNL A   1      34.896  21.456  25.590  1.00  0.00     0.328 C 
ATOM      7  O   UNL A   1      34.257  20.424  25.396  1.00  0.00    -0.250 OA
BRANCH   6   8
ATOM      8  C   UNL A   1      36.142  21.805  24.731  1.00  0.00     0.272 C 
BRANCH   8   9
ATOM      9  N   UNL A   1      37.464  22.193  25.244  1.00  0.00    -0.201 N 
ATOM     10  C   UNL A   1      40.850  22.042  26.605  1.00  0.00     0.150 A 
ATOM     11  N   UNL A   1      41.415  22.952  27.347  1.00  0.00    -0.234 NA
ATOM     12  N   UNL A   1      39.511  22.151  26.185  1.00  0.00    -0.226 N 
ATOM     13  C   UNL A   1      40.694  24.057  27.717  1.00  0.00     0.049 A 
ATOM     14  C   UNL A   1      38.833  23.297  26.414  1.00  0.00     0.165 A 
ATOM     15  C   UNL A   1      38.581  21.339  25.511  1.00  0.00     0.352 A 
ATOM     16  C   UNL A   1      39.457  24.311  27.265  1.00  0.00     0.073 A 
ATOM     17  N   UNL A   1      37.651  23.399  25.881  1.00  0.00    -0.149 NA
ATOM     18  O   UNL A   1      38.611  20.135  25.323  1.00  0.00    -0.245 OA
BRANCH  10  19
ATOM     19  C   UNL A   1      41.751  20.970  26.119  1.00  0.00     0.018 A 
ATOM     20  C   UNL A   1      43.757  19.077  25.517  1.00  0.00     0.118 A 
ATOM     21  C   UNL A   1      43.944  20.427  25.226  1.00  0.00     0.047 A 
ATOM     22  C   UNL A   1      42.596  18.688  26.186  1.00  0.00     0.047 A 
ATOM     23  C   UNL A   1      42.963  21.373  25.549  1.00  0.00     0.016 A 
ATOM     24  C   UNL A   1      41.595  19.634  26.496  1.00  0.00     0.016 A 
BRANCH  20  25
ATOM     25  O   UNL A   1      44.780  18.272  25.104  1.00  0.00    -0.497 OA
ATOM     26  C   UNL A   1      46.093  18.557  25.576  1.00  0.00     0.278 C 
ENDBRANCH  20  25
ENDBRANCH  10  19
BRANCH  13  27
ATOM     27  C   UNL A   1      41.426  24.992  28.668  1.00  0.00     0.032 C 
ATOM     28  C   UNL A   1      42.896  24.608  28.860  1.00  0.00     0.014 C 
ATOM     29  C   UNL A   1      41.286  26.445  28.214  1.00  0.00     0.014 C 
ENDBRANCH  13  27
ENDBRANCH   8   9
ENDBRANCH   6   8
ENDBRANCH   5   6
ENDBRANCH   4   5
ENDBRANCH   3   4
ENDBRANCH   2   3
ENDBRANCH   1   2
BRANCH   1  30
ATOM     30  C   UNL A   1      32.200  26.589  26.045  1.00  0.00     0.188 C 
BRANCH  30  31
ATOM     31  O   UNL A   1      32.182  28.002  26.151  1.00  0.00    -0.376 OA
BRANCH  31  32
ATOM     32  C   UNL A   1      33.147  28.549  27.020  1.00  0.00     0.202 C 
BRANCH  32  33
ATOM     33  C   UNL A   1      33.396  30.038  26.835  1.00  0.00     0.261 C 
BRANCH  33  34
ATOM     34  O   UNL A   1      33.502  30.797  28.033  1.00  0.00    -0.460 OA
BRANCH  34  35
ATOM     35  C   UNL A   1      34.549  31.643  28.067  1.00  0.00     0.338 C 
ATOM     36  O   UNL A   1      34.656  32.700  27.465  1.00  0.00    -0.246 OA
BRANCH  35  37
ATOM     37  C   UNL A   1      35.676  31.061  28.759  1.00  0.00     0.060 A 
ATOM     38  C   UNL A   1      35.720  31.339  30.127  1.00  0.00     0.016 A 
ATOM     39  C   UNL A   1      36.794  30.693  28.006  1.00  0.00     0.016 A 
ATOM     40  C   UNL A   1      36.950  31.521  30.682  1.00  0.00     0.010 A 
ATOM     41  C   UNL A   1      38.026  30.871  28.570  1.00  0.00     0.010 A 
ATOM     42  C   UNL A   1      38.077  31.384  29.863  1.00  0.00    -0.014 A 
BRANCH  42  43
ATOM     43  C   UNL A   1      39.346  31.678  30.478  1.00  0.00     0.031 A 
ATOM     44  C   UNL A   1      39.908  30.480  31.135  1.00  0.00     0.074 A 
ATOM     45  C   UNL A   1      39.913  32.892  30.387  1.00  0.00     0.049 A 
ATOM     46  N   UNL A   1      40.165  30.316  32.390  1.00  0.00    -0.248 NA
ATOM     47  C   UNL A   1      39.962  29.243  30.332  1.00  0.00     0.031 C 
ATOM     48  C   UNL A   1      39.499  34.022  29.552  1.00  0.00     0.029 A 
ATOM     49  N   UNL A   1      41.092  33.308  30.913  1.00  0.00    -0.354 N 
ATOM     50  C   UNL A   1      40.642  29.015  32.480  1.00  0.00     0.074 A 
ATOM     51  C   UNL A   1      40.286  28.345  31.259  1.00  0.00     0.031 C 
ATOM     52  C   UNL A   1      40.550  34.859  29.401  1.00  0.00     0.029 A 
ATOM     53  C   UNL A   1      41.648  34.379  30.223  1.00  0.00     0.049 A 
ATOM     54  H   UNL A   1      41.512  32.894  31.701  1.00  0.00     0.167 HD
ATOM     55  C   UNL A   1      41.559  28.668  33.417  1.00  0.00     0.034 A 
ATOM     56  C   UNL A   1      42.953  34.741  30.241  1.00  0.00     0.034 A 
ATOM     57  C   UNL A   1      41.566  29.582  34.525  1.00  0.00     0.049 A 
ATOM     58  C   UNL A   1      43.572  34.110  31.433  1.00  0.00     0.074 A 
ATOM     59  C   UNL A   1      40.622  29.975  35.453  1.00  0.00     0.029 A 
ATOM     60  N   UNL A   1      42.546  30.543  34.539  1.00  0.00    -0.354 N 
ATOM     61  N   UNL A   1      43.269  34.432  32.660  1.00  0.00    -0.248 NA
ATOM     62  C   UNL A   1      44.203  32.809  31.268  1.00  0.00     0.031 C 
ATOM     63  C   UNL A   1      40.858  31.365  35.654  1.00  0.00     0.029 A 
ATOM     64  C   UNL A   1      41.963  31.736  34.883  1.00  0.00     0.049 A 
ATOM     65  H   UNL A   1      43.499  30.401  34.337  1.00  0.00     0.167 HD
ATOM     66  C   UNL A   1      43.248  33.222  33.343  1.00  0.00     0.074 A 
ATOM     67  C   UNL A   1      43.941  32.281  32.467  1.00  0.00     0.031 C 
ATOM     68  C   UNL A   1      42.416  33.028  34.410  1.00  0.00     0.034 A 
BRANCH  55  69
ATOM     69  C   UNL A   1      42.683  27.714  33.123  1.00  0.00     0.023 A 
ATOM     70  C   UNL A   1      43.270  27.753  31.846  1.00  0.00     0.012 A 
ATOM     71  C   UNL A   1      43.029  26.626  33.961  1.00  0.00     0.148 A 
ATOM     72  C   UNL A   1      44.156  26.755  31.425  1.00  0.00     0.002 A 
ATOM     73  C   UNL A   1      43.986  25.698  33.580  1.00  0.00     0.091 A 
ATOM     74  F   UNL A   1      42.334  26.389  35.079  1.00  0.00    -0.205 F 
ATOM     75  C   UNL A   1      44.532  25.740  32.299  1.00  0.00     0.022 A 
BRANCH  73  76
ATOM     76  S   UNL A   1      44.547  24.427  34.719  1.00  0.00     0.127 S 
ATOM     77  O   UNL A   1      44.731  25.191  35.948  1.00  0.00    -0.237 OA
ATOM     78  O   UNL A   1      43.411  23.505  34.724  1.00  0.00    -0.237 OA
ATOM     79  O   UNL A   1      45.753  23.875  34.114  1.00  0.00    -0.744 OA
ENDBRANCH  73  76
ENDBRANCH  55  69
BRANCH  56  80
ATOM     80  C   UNL A   1      43.765  35.313  29.142  1.00  0.00     0.023 A 
ATOM     81  C   UNL A   1      44.412  36.550  29.332  1.00  0.00     0.012 A 
ATOM     82  C   UNL A   1      44.122  34.541  28.012  1.00  0.00     0.148 A 
ATOM     83  C   UNL A   1      45.399  36.989  28.442  1.00  0.00     0.002 A 
ATOM     84  C   UNL A   1      45.092  34.990  27.122  1.00  0.00     0.091 A 
ATOM     85  F   UNL A   1      43.584  33.323  27.863  1.00  0.00    -0.205 F 
ATOM     86  C   UNL A   1      45.742  36.210  27.341  1.00  0.00     0.022 A 
BRANCH  84  87
ATOM     87  S   UNL A   1      45.591  34.026  25.688  1.00  0.00     0.127 S 
ATOM     88  O   UNL A   1      45.686  32.677  26.249  1.00  0.00    -0.237 OA
ATOM     89  O   UNL A   1      44.466  34.234  24.780  1.00  0.00    -0.237 OA
ATOM     90  O   UNL A   1      46.866  34.584  25.258  1.00  0.00    -0.744 OA
ENDBRANCH  84  87
ENDBRANCH  56  80
BRANCH  68  91
ATOM     91  C   UNL A   1      41.705  34.234  34.981  1.00  0.00     0.023 A 
ATOM     92  C   UNL A   1      40.462  34.686  34.485  1.00  0.00     0.012 A 
ATOM     93  C   UNL A   1      42.215  34.818  36.153  1.00  0.00     0.148 A 
ATOM     94  C   UNL A   1      39.759  35.709  35.128  1.00  0.00     0.002 A 
ATOM     95  C   UNL A   1      41.490  35.800  36.817  1.00  0.00     0.091 A 
ATOM     96  F   UNL A   1      43.393  34.378  36.619  1.00  0.00    -0.205 F 
ATOM     97  C   UNL A   1      40.266  36.256  36.303  1.00  0.00     0.022 A 
BRANCH  95  98
ATOM     98  S   UNL A   1      42.026  36.451  38.401  1.00  0.00     0.127 S 
ATOM     99  O   UNL A   1      40.873  37.250  38.808  1.00  0.00    -0.237 OA
ATOM    100  O   UNL A   1      42.234  35.232  39.187  1.00  0.00    -0.237 OA
ATOM    101  O   UNL A   1      43.248  37.199  38.133  1.00  0.00    -0.744 OA
ENDBRANCH  95  98
ENDBRANCH  68  91
ENDBRANCH  42  43
ENDBRANCH  35  37
ENDBRANCH  34  35
ENDBRANCH  33  34
ENDBRANCH  32  33
ENDBRANCH  31  32
ENDBRANCH  30  31
ENDBRANCH   1  30
TORSDOF 24
ENDMDL
MODEL 2
REMARK VINA RESULT:      -9.7      2.944      8.294
REMARK SMILES COc1ccc(-c2nc(C(C)C)cc3nn(CC(=O)OCCOCCOCCOC(=O)c4ccc(-c5c6nc(c(-c7cccc(S(=O)(=O)[O-])c7F)c7ccc([nH]7)c(-c7cccc(S(=O)(=O)[O-])c7F)c7nc(c(-c8cccc(S(=O)(=O)[O-])c8F)c8ccc5[nH]8)C=C7)C=C6)cc4)c(=O)n23)cc1
REMARK SMILES IDX 24 1 23 2 22 3 21 4 20 5 18 6 19 7 17 8 16 9 7 10 8 11 97 12
REMARK SMILES IDX 9 13 14 14 95 15 13 16 15 17 96 18 6 19 3 20 4 21 99 22 5 23
REMARK SMILES IDX 98 24 2 25 1 26 10 27 11 28 12 29 25 30 26 31 27 32 28 33
REMARK SMILES IDX 29 34 30 35 31 36 32 37 33 38 94 39 34 40 93 41 35 42 36 43
REMARK SMILES IDX 37 44 87 45 38 46 92 47 86 48 88 49 39 50 91 51 85 52 84 53
REMARK SMILES IDX 40 55 72 56 52 57 71 58 53 59 56 60 70 61 89 62 54 63 55 64
REMARK SMILES IDX 69 66 90 67 57 68 41 69 42 70 50 71 43 72 45 73 51 74 44 75
REMARK SMILES IDX 46 76 47 77 48 78 49 79 73 80 74 81 82 82 75 83 77 84 83 85
REMARK SMILES IDX 76 86 78 87 79 88 80 89 81 90 58 91 59 92 67 93 60 94 62 95
REMARK SMILES IDX 68 96 61 97 63 98 64 99 65 100 66 101
REMARK H PARENT 88 54 56 65
REMARK Flexibility Score: inf
ROOT
ATOM      1  C   UNL A   1      40.246  27.117  28.780  1.00  0.00     0.188 C 
ENDROOT
BRANCH   1   2
ATOM      2  O   UNL A   1      40.994  26.779  27.612  1.00  0.00    -0.376 OA
BRANCH   2   3
ATOM      3  C   UNL A   1      40.700  25.551  26.976  1.00  0.00     0.202 C 
BRANCH   3   4
ATOM      4  C   UNL A   1      41.046  24.292  27.789  1.00  0.00     0.261 C 
BRANCH   4   5
ATOM      5  O   UNL A   1      39.979  23.311  27.878  1.00  0.00    -0.462 OA
BRANCH   5   6
ATOM      6  C   UNL A   1      40.187  22.085  27.338  1.00  0.00     0.328 C 
ATOM      7  O   UNL A   1      40.685  21.153  27.967  1.00  0.00    -0.250 OA
BRANCH   6   8
ATOM      8  C   UNL A   1      39.715  21.902  25.869  1.00  0.00     0.272 C 
BRANCH   8   9
ATOM      9  N   UNL A   1      38.319  21.879  25.407  1.00  0.00    -0.201 N 
ATOM     10  C   UNL A   1      34.836  22.802  24.807  1.00  0.00     0.150 A 
ATOM     11  N   UNL A   1      33.847  21.973  24.632  1.00  0.00    -0.234 NA
ATOM     12  N   UNL A   1      36.137  22.356  25.107  1.00  0.00    -0.226 N 
ATOM     13  C   UNL A   1      34.078  20.626  24.725  1.00  0.00     0.049 A 
ATOM     14  C   UNL A   1      36.415  21.034  25.056  1.00  0.00     0.165 A 
ATOM     15  C   UNL A   1      37.364  22.944  25.462  1.00  0.00     0.352 A 
ATOM     16  C   UNL A   1      35.303  20.100  24.881  1.00  0.00     0.073 A 
ATOM     17  N   UNL A   1      37.660  20.688  25.199  1.00  0.00    -0.149 NA
ATOM     18  O   UNL A   1      37.579  24.066  25.889  1.00  0.00    -0.245 OA
BRANCH  10  19
ATOM     19  C   UNL A   1      34.529  24.225  24.526  1.00  0.00     0.018 A 
ATOM     20  C   UNL A   1      33.522  26.785  23.892  1.00  0.00     0.118 A 
ATOM     21  C   UNL A   1      33.709  25.828  22.896  1.00  0.00     0.047 A 
ATOM     22  C   UNL A   1      33.762  26.429  25.220  1.00  0.00     0.047 A 
ATOM     23  C   UNL A   1      34.181  24.549  23.210  1.00  0.00     0.016 A 
ATOM     24  C   UNL A   1      34.258  25.146  25.540  1.00  0.00     0.016 A 
BRANCH  20  25
ATOM     25  O   UNL A   1      33.098  27.997  23.428  1.00  0.00    -0.497 OA
ATOM     26  C   UNL A   1      33.194  29.121  24.298  1.00  0.00     0.278 C 
ENDBRANCH  20  25
ENDBRANCH  10  19
BRANCH  13  27
ATOM     27  C   UNL A   1      32.828  19.767  24.608  1.00  0.00     0.032 C 
ATOM     28  C   UNL A   1      32.210  19.809  23.208  1.00  0.00     0.014 C 
ATOM     29  C   UNL A   1      33.113  18.330  25.047  1.00  0.00     0.014 C 
ENDBRANCH  13  27
ENDBRANCH   8   9
ENDBRANCH   6   8
ENDBRANCH   5   6
ENDBRANCH   4   5
ENDBRANCH   3   4
ENDBRANCH   2   3
ENDBRANCH   1   2
BRANCH   1  30
ATOM     30  C   UNL A   1      39.667  28.553  28.930  1.00  0.00     0.188 C 
BRANCH  30  31
ATOM     31  O   UNL A   1      38.256  28.607  28.811  1.00  0.00    -0.376 OA
BRANCH  31  32
ATOM     32  C   UNL A   1      37.772  29.484  27.820  1.00  0.00     0.202 C 
BRANCH  32  33
ATOM     33  C   UNL A   1      37.150  30.766  28.354  1.00  0.00     0.261 C 
BRANCH  33  34
ATOM     34  O   UNL A   1      35.884  30.618  28.985  1.00  0.00    -0.460 OA
BRANCH  34  35
ATOM     35  C   UNL A   1      35.351  31.766  29.443  1.00  0.00     0.338 C 
ATOM     36  O   UNL A   1      34.698  32.577  28.803  1.00  0.00    -0.246 OA
BRANCH  35  37
ATOM     37  C   UNL A   1      35.814  32.068  30.778  1.00  0.00     0.060 A 
ATOM     38  C   UNL A   1      36.621  33.205  30.866  1.00  0.00     0.016 A 
ATOM     39  C   UNL A   1      35.817  31.040  31.724  1.00  0.00     0.016 A 
ATOM     40  C   UNL A   1      37.642  33.170  31.766  1.00  0.00     0.010 A 
ATOM     41  C   UNL A   1      36.839  31.014  32.630  1.00  0.00     0.010 A 
ATOM     42  C   UNL A   1      37.791  32.027  32.561  1.00  0.00    -0.014 A 
BRANCH  42  43
ATOM     43  C   UNL A   1      38.939  32.005  33.429  1.00  0.00     0.031 A 
ATOM     44  C   UNL A   1      38.771  32.944  34.558  1.00  0.00     0.074 A 
ATOM     45  C   UNL A   1      39.976  31.180  33.213  1.00  0.00     0.049 A 
ATOM     46  N   UNL A   1      39.491  33.978  34.839  1.00  0.00    -0.248 NA
ATOM     47  C   UNL A   1      37.508  32.853  35.317  1.00  0.00     0.031 C 
ATOM     48  C   UNL A   1      40.070  30.080  32.248  1.00  0.00     0.029 A 
ATOM     49  N   UNL A   1      41.115  31.054  33.940  1.00  0.00    -0.354 N 
ATOM     50  C   UNL A   1      38.891  34.524  35.966  1.00  0.00     0.074 A 
ATOM     51  C   UNL A   1      37.580  33.944  36.073  1.00  0.00     0.031 C 
ATOM     52  C   UNL A   1      41.048  29.236  32.645  1.00  0.00     0.029 A 
ATOM     53  C   UNL A   1      41.711  29.805  33.806  1.00  0.00     0.049 A 
ATOM     54  H   UNL A   1      41.480  31.771  34.506  1.00  0.00     0.167 HD
ATOM     55  C   UNL A   1      39.623  35.180  36.900  1.00  0.00     0.034 A 
ATOM     56  C   UNL A   1      42.585  29.248  34.678  1.00  0.00     0.034 A 
ATOM     57  C   UNL A   1      40.869  35.658  36.368  1.00  0.00     0.049 A 
ATOM     58  C   UNL A   1      43.128  30.340  35.522  1.00  0.00     0.074 A 
ATOM     59  C   UNL A   1      41.210  36.526  35.350  1.00  0.00     0.029 A 
ATOM     60  N   UNL A   1      41.991  34.912  36.633  1.00  0.00    -0.354 N 
ATOM     61  N   UNL A   1      43.894  31.293  35.067  1.00  0.00    -0.248 NA
ATOM     62  C   UNL A   1      42.456  30.629  36.781  1.00  0.00     0.031 C 
ATOM     63  C   UNL A   1      42.373  35.959  34.756  1.00  0.00     0.029 A 
ATOM     64  C   UNL A   1      42.712  34.808  35.472  1.00  0.00     0.049 A 
ATOM     65  H   UNL A   1      42.233  34.521  37.503  1.00  0.00     0.167 HD
ATOM     66  C   UNL A   1      43.454  32.437  35.720  1.00  0.00     0.074 A 
ATOM     67  C   UNL A   1      42.654  31.949  36.841  1.00  0.00     0.031 C 
ATOM     68  C   UNL A   1      43.531  33.664  35.124  1.00  0.00     0.034 A 
BRANCH  55  69
ATOM     69  C   UNL A   1      39.348  35.047  38.371  1.00  0.00     0.023 A 
ATOM     70  C   UNL A   1      39.203  36.222  39.129  1.00  0.00     0.012 A 
ATOM     71  C   UNL A   1      39.458  33.827  39.085  1.00  0.00     0.148 A 
ATOM     72  C   UNL A   1      39.173  36.183  40.528  1.00  0.00     0.002 A 
ATOM     73  C   UNL A   1      39.323  33.782  40.463  1.00  0.00     0.091 A 
ATOM     74  F   UNL A   1      39.841  32.711  38.454  1.00  0.00    -0.205 F 
ATOM     75  C   UNL A   1      39.210  34.962  41.195  1.00  0.00     0.022 A 
BRANCH  73  76
ATOM     76  S   UNL A   1      39.286  32.214  41.339  1.00  0.00     0.127 S 
ATOM     77  O   UNL A   1      38.794  32.621  42.651  1.00  0.00    -0.237 OA
ATOM     78  O   UNL A   1      38.340  31.441  40.533  1.00  0.00    -0.237 OA
ATOM     79  O   UNL A   1      40.654  31.714  41.287  1.00  0.00    -0.744 OA
ENDBRANCH  73  76
ENDBRANCH  55  69
BRANCH  56  80
ATOM     80  C   UNL A   1      42.736  27.821  35.045  1.00  0.00     0.023 A 
ATOM     81  C   UNL A   1      41.716  27.183  35.778  1.00  0.00     0.012 A 
ATOM     82  C   UNL A   1      43.742  27.014  34.464  1.00  0.00     0.148 A 
ATOM     83  C   UNL A   1      41.685  25.790  35.906  1.00  0.00     0.002 A 
ATOM     84  C   UNL A   1      43.715  25.631  34.607  1.00  0.00     0.091 A 
ATOM     85  F   UNL A   1      44.669  27.593  33.689  1.00  0.00    -0.205 F 
ATOM     86  C   UNL A   1      42.680  25.014  35.318  1.00  0.00     0.022 A 
BRANCH  84  87
ATOM     87  S   UNL A   1      44.962  24.571  33.863  1.00  0.00     0.127 S 
ATOM     88  O   UNL A   1      45.077  23.498  34.853  1.00  0.00    -0.237 OA
ATOM     89  O   UNL A   1      44.318  24.181  32.611  1.00  0.00    -0.237 OA
ATOM     90  O   UNL A   1      46.158  25.393  33.732  1.00  0.00    -0.744 OA
ENDBRANCH  84  87
ENDBRANCH  56  80
BRANCH  68  91
ATOM     91  C   UNL A   1      44.329  33.780  33.845  1.00  0.00     0.023 A 
ATOM     92  C   UNL A   1      45.728  33.974  33.840  1.00  0.00     0.012 A 
ATOM     93  C   UNL A   1      43.682  33.515  32.626  1.00  0.00     0.148 A 
ATOM     94  C   UNL A   1      46.457  33.927  32.648  1.00  0.00     0.002 A 
ATOM     95  C   UNL A   1      44.416  33.421  31.450  1.00  0.00     0.091 A 
ATOM     96  F   UNL A   1      42.353  33.327  32.643  1.00  0.00    -0.205 F 
ATOM     97  C   UNL A   1      45.803  33.636  31.455  1.00  0.00     0.022 A 
BRANCH  95  98
ATOM     98  S   UNL A   1      43.652  32.921  29.905  1.00  0.00     0.127 S 
ATOM     99  O   UNL A   1      44.795  32.889  28.997  1.00  0.00    -0.237 OA
ATOM    100  O   UNL A   1      43.097  31.608  30.240  1.00  0.00    -0.237 OA
ATOM    101  O   UNL A   1      42.644  33.933  29.613  1.00  0.00    -0.744 OA
ENDBRANCH  95  98
ENDBRANCH  68  91
ENDBRANCH  42  43
ENDBRANCH  35  37
ENDBRANCH  34  35
ENDBRANCH  33  34
ENDBRANCH  32  33
ENDBRANCH  31  32
ENDBRANCH  30  31
ENDBRANCH   1  30
TORSDOF 24
ENDMDL
MODEL 3
REMARK VINA RESULT:      -9.4      1.775      2.077
REMARK SMILES COc1ccc(-c2nc(C(C)C)cc3nn(CC(=O)OCCOCCOCCOC(=O)c4ccc(-c5c6nc(c(-c7cccc(S(=O)(=O)[O-])c7F)c7ccc([nH]7)c(-c7cccc(S(=O)(=O)[O-])c7F)c7nc(c(-c8cccc(S(=O)(=O)[O-])c8F)c8ccc5[nH]8)C=C7)C=C6)cc4)c(=O)n23)cc1
REMARK SMILES IDX 24 1 23 2 22 3 21 4 20 5 18 6 19 7 17 8 16 9 7 10 8 11 97 12
REMARK SMILES IDX 9 13 14 14 95 15 13 16 15 17 96 18 6 19 3 20 4 21 99 22 5 23
REMARK SMILES IDX 98 24 2 25 1 26 10 27 11 28 12 29 25 30 26 31 27 32 28 33
REMARK SMILES IDX 29 34 30 35 31 36 32 37 33 38 94 39 34 40 93 41 35 42 36 43
REMARK SMILES IDX 37 44 87 45 38 46 92 47 86 48 88 49 39 50 91 51 85 52 84 53
REMARK SMILES IDX 40 55 72 56 52 57 71 58 53 59 56 60 70 61 89 62 54 63 55 64
REMARK SMILES IDX 69 66 90 67 57 68 41 69 42 70 50 71 43 72 45 73 51 74 44 75
REMARK SMILES IDX 46 76 47 77 48 78 49 79 73 80 74 81 82 82 75 83 77 84 83 85
REMARK SMILES IDX 76 86 78 87 79 88 80 89 81 90 58 91 59 92 67 93 60 94 62 95
REMARK SMILES IDX 68 96 61 97 63 98 64 99 65 100 66 101
REMARK H PARENT 88 54 56 65
REMARK Flexibility Score: inf
ROOT
ATOM      1  C   UNL A   1      33.610  26.004  25.742  1.00  0.00     0.188 C 
ENDROOT
BRANCH   1   2
ATOM      2  O   UNL A   1      33.752  24.769  25.040  1.00  0.00    -0.376 OA
BRANCH   2   3
ATOM      3  C   UNL A   1      32.836  23.735  25.340  1.00  0.00     0.202 C 
BRANCH   3   4
ATOM      4  C   UNL A   1      33.199  22.870  26.558  1.00  0.00     0.261 C 
BRANCH   4   5
ATOM      5  O   UNL A   1      34.552  22.343  26.552  1.00  0.00    -0.462 OA
BRANCH   5   6
ATOM      6  C   UNL A   1      34.853  21.356  25.672  1.00  0.00     0.328 C 
ATOM      7  O   UNL A   1      34.168  20.343  25.544  1.00  0.00    -0.250 OA
BRANCH   6   8
ATOM      8  C   UNL A   1      36.107  21.596  24.787  1.00  0.00     0.272 C 
BRANCH   8   9
ATOM      9  N   UNL A   1      37.430  22.027  25.263  1.00  0.00    -0.201 N 
ATOM     10  C   UNL A   1      40.843  21.987  26.563  1.00  0.00     0.150 A 
ATOM     11  N   UNL A   1      41.402  22.931  27.263  1.00  0.00    -0.234 NA
ATOM     12  N   UNL A   1      39.494  22.055  26.165  1.00  0.00    -0.226 N 
ATOM     13  C   UNL A   1      40.666  24.033  27.612  1.00  0.00     0.049 A 
ATOM     14  C   UNL A   1      38.797  23.195  26.370  1.00  0.00     0.165 A 
ATOM     15  C   UNL A   1      38.569  21.204  25.535  1.00  0.00     0.352 A 
ATOM     16  C   UNL A   1      39.416  24.248  27.176  1.00  0.00     0.073 A 
ATOM     17  N   UNL A   1      37.604  23.256  25.856  1.00  0.00    -0.149 NA
ATOM     18  O   UNL A   1      38.620  19.995  25.385  1.00  0.00    -0.245 OA
BRANCH  10  19
ATOM     19  C   UNL A   1      41.756  20.917  26.094  1.00  0.00     0.018 A 
ATOM     20  C   UNL A   1      43.778  19.030  25.532  1.00  0.00     0.118 A 
ATOM     21  C   UNL A   1      43.970  20.381  25.251  1.00  0.00     0.047 A 
ATOM     22  C   UNL A   1      42.602  18.636  26.173  1.00  0.00     0.047 A 
ATOM     23  C   UNL A   1      42.981  21.324  25.554  1.00  0.00     0.016 A 
ATOM     24  C   UNL A   1      41.594  19.580  26.462  1.00  0.00     0.016 A 
BRANCH  20  25
ATOM     25  O   UNL A   1      44.812  18.227  25.140  1.00  0.00    -0.497 OA
ATOM     26  C   UNL A   1      46.111  18.506  25.653  1.00  0.00     0.278 C 
ENDBRANCH  20  25
ENDBRANCH  10  19
BRANCH  13  27
ATOM     27  C   UNL A   1      41.397  25.013  28.518  1.00  0.00     0.032 C 
ATOM     28  C   UNL A   1      42.912  24.794  28.526  1.00  0.00     0.014 C 
ATOM     29  C   UNL A   1      41.045  26.455  28.153  1.00  0.00     0.014 C 
ENDBRANCH  13  27
ENDBRANCH   8   9
ENDBRANCH   6   8
ENDBRANCH   5   6
ENDBRANCH   4   5
ENDBRANCH   3   4
ENDBRANCH   2   3
ENDBRANCH   1   2
BRANCH   1  30
ATOM     30  C   UNL A   1      32.186  26.567  26.023  1.00  0.00     0.188 C 
BRANCH  30  31
ATOM     31  O   UNL A   1      32.149  27.980  26.122  1.00  0.00    -0.376 OA
BRANCH  31  32
ATOM     32  C   UNL A   1      33.086  28.542  27.012  1.00  0.00     0.202 C 
BRANCH  32  33
ATOM     33  C   UNL A   1      33.324  30.033  26.825  1.00  0.00     0.261 C 
BRANCH  33  34
ATOM     34  O   UNL A   1      33.417  30.795  28.023  1.00  0.00    -0.460 OA
BRANCH  34  35
ATOM     35  C   UNL A   1      34.465  31.639  28.068  1.00  0.00     0.338 C 
ATOM     36  O   UNL A   1      34.585  32.690  27.457  1.00  0.00    -0.246 OA
BRANCH  35  37
ATOM     37  C   UNL A   1      35.578  31.061  28.785  1.00  0.00     0.060 A 
ATOM     38  C   UNL A   1      35.617  31.381  30.144  1.00  0.00     0.016 A 
ATOM     39  C   UNL A   1      36.695  30.653  28.051  1.00  0.00     0.016 A 
ATOM     40  C   UNL A   1      36.847  31.561  30.701  1.00  0.00     0.010 A 
ATOM     41  C   UNL A   1      37.926  30.829  28.618  1.00  0.00     0.010 A 
ATOM     42  C   UNL A   1      37.976  31.381  29.895  1.00  0.00    -0.014 A 
BRANCH  42  43
ATOM     43  C   UNL A   1      39.246  31.674  30.509  1.00  0.00     0.031 A 
ATOM     44  C   UNL A   1      39.828  30.466  31.130  1.00  0.00     0.074 A 
ATOM     45  C   UNL A   1      39.797  32.897  30.449  1.00  0.00     0.049 A 
ATOM     46  N   UNL A   1      40.095  30.271  32.377  1.00  0.00    -0.248 NA
ATOM     47  C   UNL A   1      39.892  29.252  30.292  1.00  0.00     0.031 C 
ATOM     48  C   UNL A   1      39.363  34.045  29.647  1.00  0.00     0.029 A 
ATOM     49  N   UNL A   1      40.974  33.314  30.978  1.00  0.00    -0.354 N 
ATOM     50  C   UNL A   1      40.590  28.974  32.428  1.00  0.00     0.074 A 
ATOM     51  C   UNL A   1      40.233  28.334  31.191  1.00  0.00     0.031 C 
ATOM     52  C   UNL A   1      40.402  34.899  29.513  1.00  0.00     0.029 A 
ATOM     53  C   UNL A   1      41.512  34.411  30.314  1.00  0.00     0.049 A 
ATOM     54  H   UNL A   1      41.405  32.884  31.751  1.00  0.00     0.167 HD
ATOM     55  C   UNL A   1      41.517  28.613  33.349  1.00  0.00     0.034 A 
ATOM     56  C   UNL A   1      42.812  34.788  30.333  1.00  0.00     0.034 A 
ATOM     57  C   UNL A   1      41.520  29.496  34.482  1.00  0.00     0.049 A 
ATOM     58  C   UNL A   1      43.447  34.133  31.503  1.00  0.00     0.074 A 
ATOM     59  C   UNL A   1      40.578  29.852  35.427  1.00  0.00     0.029 A 
ATOM     60  N   UNL A   1      42.488  30.469  34.517  1.00  0.00    -0.354 N 
ATOM     61  N   UNL A   1      43.149  34.417  32.741  1.00  0.00    -0.248 NA
ATOM     62  C   UNL A   1      44.093  32.845  31.298  1.00  0.00     0.031 C 
ATOM     63  C   UNL A   1      40.798  31.238  35.664  1.00  0.00     0.029 A 
ATOM     64  C   UNL A   1      41.892  31.644  34.897  1.00  0.00     0.049 A 
ATOM     65  H   UNL A   1      43.441  30.345  34.304  1.00  0.00     0.167 HD
ATOM     66  C   UNL A   1      43.147  33.188  33.390  1.00  0.00     0.074 A 
ATOM     67  C   UNL A   1      43.847  32.281  32.484  1.00  0.00     0.031 C 
ATOM     68  C   UNL A   1      42.326  32.955  34.456  1.00  0.00     0.034 A 
BRANCH  55  69
ATOM     69  C   UNL A   1      42.651  27.683  33.022  1.00  0.00     0.023 A 
ATOM     70  C   UNL A   1      42.888  26.596  33.883  1.00  0.00     0.012 A 
ATOM     71  C   UNL A   1      43.637  27.958  32.042  1.00  0.00     0.148 A 
ATOM     72  C   UNL A   1      44.051  25.826  33.774  1.00  0.00     0.002 A 
ATOM     73  C   UNL A   1      44.735  27.131  31.871  1.00  0.00     0.091 A 
ATOM     74  F   UNL A   1      43.603  29.107  31.358  1.00  0.00    -0.205 F 
ATOM     75  C   UNL A   1      44.964  26.078  32.755  1.00  0.00     0.022 A 
BRANCH  73  76
ATOM     76  S   UNL A   1      45.884  27.386  30.513  1.00  0.00     0.127 S 
ATOM     77  O   UNL A   1      45.010  27.234  29.355  1.00  0.00    -0.237 OA
ATOM     78  O   UNL A   1      46.349  28.750  30.766  1.00  0.00    -0.237 OA
ATOM     79  O   UNL A   1      46.913  26.369  30.686  1.00  0.00    -0.744 OA
ENDBRANCH  73  76
ENDBRANCH  55  69
BRANCH  56  80
ATOM     80  C   UNL A   1      43.609  35.401  29.245  1.00  0.00     0.023 A 
ATOM     81  C   UNL A   1      43.562  34.842  27.953  1.00  0.00     0.012 A 
ATOM     82  C   UNL A   1      44.207  36.673  29.399  1.00  0.00     0.148 A 
ATOM     83  C   UNL A   1      44.069  35.538  26.849  1.00  0.00     0.002 A 
ATOM     84  C   UNL A   1      44.724  37.354  28.301  1.00  0.00     0.091 A 
ATOM     85  F   UNL A   1      44.182  37.260  30.603  1.00  0.00    -0.205 F 
ATOM     86  C   UNL A   1      44.645  36.793  27.021  1.00  0.00     0.022 A 
BRANCH  84  87
ATOM     87  S   UNL A   1      45.469  38.983  28.452  1.00  0.00     0.127 S 
ATOM     88  O   UNL A   1      45.835  39.278  27.065  1.00  0.00    -0.237 OA
ATOM     89  O   UNL A   1      44.358  39.775  28.974  1.00  0.00    -0.237 OA
ATOM     90  O   UNL A   1      46.607  38.819  29.347  1.00  0.00    -0.744 OA
ENDBRANCH  84  87
ENDBRANCH  56  80
BRANCH  68  91
ATOM     91  C   UNL A   1      41.603  34.135  35.065  1.00  0.00     0.023 A 
ATOM     92  C   UNL A   1      40.356  34.590  34.585  1.00  0.00     0.012 A 
ATOM     93  C   UNL A   1      42.109  34.687  36.255  1.00  0.00     0.148 A 
ATOM     94  C   UNL A   1      39.643  35.586  35.260  1.00  0.00     0.002 A 
ATOM     95  C   UNL A   1      41.375  35.641  36.950  1.00  0.00     0.091 A 
ATOM     96  F   UNL A   1      43.292  34.244  36.706  1.00  0.00    -0.205 F 
ATOM     97  C   UNL A   1      40.147  36.101  36.451  1.00  0.00     0.022 A 
BRANCH  95  98
ATOM     98  S   UNL A   1      41.906  36.247  38.553  1.00  0.00     0.127 S 
ATOM     99  O   UNL A   1      42.577  35.078  39.115  1.00  0.00    -0.237 OA
ATOM    100  O   UNL A   1      42.798  37.351  38.191  1.00  0.00    -0.237 OA
ATOM    101  O   UNL A   1      40.693  36.669  39.243  1.00  0.00    -0.744 OA
ENDBRANCH  95  98
ENDBRANCH  68  91
ENDBRANCH  42  43
ENDBRANCH  35  37
ENDBRANCH  34  35
ENDBRANCH  33  34
ENDBRANCH  32  33
ENDBRANCH  31  32
ENDBRANCH  30  31
ENDBRANCH   1  30
TORSDOF 24
ENDMDL
