MODEL 1
REMARK VINA RESULT:      -9.0      0.000      0.000
REMARK SMILES CC1(CNS(=O)(=O)Cc2ccc(C(=O)OCCOCCOCCOC(=O)c3ccc(-c4c5nc(c(-c6cccc(S(=O)(=O)[O-])c6F)c6ccc([nH]6)c(-c6cccc(S(=O)(=O)[O-])c6F)c6nc(c(-c7cccc(S(=O)(=O)[O-])c7F)c7ccc4[nH]7)C=C6)C=C5)cc3)cc2)COC1
REMARK SMILES IDX 19 1 18 2 17 3 16 4 15 5 13 6 14 7 12 8 9 9 10 10 91 11
REMARK SMILES IDX 11 12 90 13 8 14 5 15 6 16 7 17 4 18 3 20 2 21 1 22 92 23
REMARK SMILES IDX 94 24 93 25 20 26 21 27 22 28 23 29 24 30 25 31 26 32 27 33
REMARK SMILES IDX 28 34 89 35 29 36 88 37 30 38 31 39 32 40 82 41 33 42 87 43
REMARK SMILES IDX 81 44 83 45 34 46 86 47 80 48 79 49 35 51 67 52 47 53 66 54
REMARK SMILES IDX 48 55 51 56 65 57 84 58 49 59 50 60 64 62 85 63 52 64 36 65
REMARK SMILES IDX 37 66 45 67 38 68 40 69 46 70 39 71 41 72 42 73 43 74 44 75
REMARK SMILES IDX 68 76 69 77 77 78 70 79 72 80 78 81 71 82 73 83 74 84 75 85
REMARK SMILES IDX 76 86 53 87 54 88 62 89 55 90 57 91 63 92 56 93 58 94 59 95
REMARK SMILES IDX 60 96 61 97
REMARK H PARENT 4 19 83 50 51 61
REMARK Flexibility Score: inf
ROOT
ATOM      1  C   UNL A   1      44.993  19.157  24.229  1.00  0.00     0.188 C 
ENDROOT
BRANCH   1   2
ATOM      2  O   UNL A   1      44.589  20.456  23.864  1.00  0.00    -0.376 OA
BRANCH   2   3
ATOM      3  C   UNL A   1      45.231  21.584  24.430  1.00  0.00     0.202 C 
BRANCH   3   4
ATOM      4  C   UNL A   1      44.526  22.706  25.220  1.00  0.00     0.261 C 
BRANCH   4   5
ATOM      5  O   UNL A   1      44.708  22.749  26.635  1.00  0.00    -0.460 OA
BRANCH   5   6
ATOM      6  C   UNL A   1      45.827  23.377  27.078  1.00  0.00     0.338 C 
ATOM      7  O   UNL A   1      46.862  23.536  26.467  1.00  0.00    -0.246 OA
BRANCH   6   8
ATOM      8  C   UNL A   1      45.537  23.985  28.398  1.00  0.00     0.060 A 
ATOM      9  C   UNL A   1      45.093  25.093  30.947  1.00  0.00    -0.032 A 
ATOM     10  C   UNL A   1      46.171  25.524  30.159  1.00  0.00     0.006 A 
ATOM     11  C   UNL A   1      44.189  24.185  30.382  1.00  0.00     0.006 A 
ATOM     12  C   UNL A   1      46.399  24.966  28.897  1.00  0.00     0.016 A 
ATOM     13  C   UNL A   1      44.410  23.618  29.129  1.00  0.00     0.016 A 
BRANCH   9  14
ATOM     14  C   UNL A   1      44.917  25.645  32.340  1.00  0.00     0.189 C 
BRANCH  14  15
ATOM     15  S   UNL A   1      44.268  27.338  32.343  1.00  0.00     0.215 S 
ATOM     16  O   UNL A   1      43.052  27.374  31.558  1.00  0.00    -0.212 OA
ATOM     17  O   UNL A   1      45.330  28.288  32.085  1.00  0.00    -0.212 OA
BRANCH  15  18
ATOM     18  N   UNL A   1      43.794  27.626  33.942  1.00  0.00    -0.214 NA
ATOM     19  H   UNL A   1      44.224  28.505  34.234  1.00  0.00     0.141 HD
BRANCH  18  20
ATOM     20  C   UNL A   1      44.141  26.610  34.955  1.00  0.00     0.110 C 
BRANCH  20  21
ATOM     21  C   UNL A   1      42.995  26.356  35.941  1.00  0.00     0.028 C 
ATOM     22  C   UNL A   1      43.428  25.982  37.351  1.00  0.00     0.018 C 
ATOM     23  C   UNL A   1      41.941  25.398  35.353  1.00  0.00     0.170 C 
ATOM     24  C   UNL A   1      41.856  27.389  35.870  1.00  0.00     0.170 C 
ATOM     25  O   UNL A   1      41.071  26.511  35.025  1.00  0.00    -0.380 OA
ENDBRANCH  20  21
ENDBRANCH  18  20
ENDBRANCH  15  18
ENDBRANCH  14  15
ENDBRANCH   9  14
ENDBRANCH   6   8
ENDBRANCH   5   6
ENDBRANCH   4   5
ENDBRANCH   3   4
ENDBRANCH   2   3
ENDBRANCH   1   2
BRANCH   1  26
ATOM     26  C   UNL A   1      44.025  18.465  25.212  1.00  0.00     0.188 C 
BRANCH  26  27
ATOM     27  O   UNL A   1      43.196  19.249  26.056  1.00  0.00    -0.376 OA
BRANCH  27  28
ATOM     28  C   UNL A   1      41.782  19.164  25.933  1.00  0.00     0.202 C 
BRANCH  28  29
ATOM     29  C   UNL A   1      40.800  20.104  26.665  1.00  0.00     0.261 C 
BRANCH  29  30
ATOM     30  O   UNL A   1      40.781  21.481  26.273  1.00  0.00    -0.460 OA
BRANCH  30  31
ATOM     31  C   UNL A   1      39.580  22.101  26.384  1.00  0.00     0.338 C 
ATOM     32  O   UNL A   1      38.484  21.629  26.136  1.00  0.00    -0.246 OA
BRANCH  31  33
ATOM     33  C   UNL A   1      39.763  23.408  27.044  1.00  0.00     0.060 A 
ATOM     34  C   UNL A   1      39.060  24.511  26.539  1.00  0.00     0.016 A 
ATOM     35  C   UNL A   1      40.662  23.562  28.100  1.00  0.00     0.016 A 
ATOM     36  C   UNL A   1      39.285  25.782  27.061  1.00  0.00     0.010 A 
ATOM     37  C   UNL A   1      40.902  24.843  28.607  1.00  0.00     0.010 A 
ATOM     38  C   UNL A   1      40.249  25.963  28.060  1.00  0.00    -0.014 A 
BRANCH  38  39
ATOM     39  C   UNL A   1      40.717  27.334  28.371  1.00  0.00     0.031 A 
ATOM     40  C   UNL A   1      42.166  27.668  28.134  1.00  0.00     0.074 A 
ATOM     41  C   UNL A   1      39.873  28.276  28.830  1.00  0.00     0.049 A 
ATOM     42  N   UNL A   1      42.806  28.788  28.345  1.00  0.00    -0.248 NA
ATOM     43  C   UNL A   1      43.007  26.589  27.588  1.00  0.00     0.031 C 
ATOM     44  C   UNL A   1      38.447  28.083  29.086  1.00  0.00     0.029 A 
ATOM     45  N   UNL A   1      40.108  29.581  29.184  1.00  0.00    -0.354 N 
ATOM     46  C   UNL A   1      44.127  28.542  27.992  1.00  0.00     0.074 A 
ATOM     47  C   UNL A   1      44.202  27.162  27.565  1.00  0.00     0.031 C 
ATOM     48  C   UNL A   1      37.937  29.223  29.584  1.00  0.00     0.029 A 
ATOM     49  C   UNL A   1      39.005  30.215  29.706  1.00  0.00     0.049 A 
ATOM     50  H   UNL A   1      40.980  30.022  29.074  1.00  0.00     0.167 HD
ATOM     51  C   UNL A   1      45.183  29.388  28.009  1.00  0.00     0.034 A 
ATOM     52  C   UNL A   1      38.880  31.446  30.242  1.00  0.00     0.034 A 
ATOM     53  C   UNL A   1      45.106  30.762  28.423  1.00  0.00     0.049 A 
ATOM     54  C   UNL A   1      40.078  32.362  30.276  1.00  0.00     0.074 A 
ATOM     55  C   UNL A   1      46.112  31.713  28.439  1.00  0.00     0.029 A 
ATOM     56  N   UNL A   1      43.966  31.378  28.912  1.00  0.00    -0.354 N 
ATOM     57  N   UNL A   1      41.297  32.147  29.843  1.00  0.00    -0.248 NA
ATOM     58  C   UNL A   1      39.871  33.704  30.839  1.00  0.00     0.031 C 
ATOM     59  C   UNL A   1      45.587  32.893  28.975  1.00  0.00     0.029 A 
ATOM     60  C   UNL A   1      44.243  32.694  29.242  1.00  0.00     0.049 A 
ATOM     61  H   UNL A   1      43.087  30.945  29.010  1.00  0.00     0.167 HD
ATOM     62  C   UNL A   1      41.987  33.341  30.035  1.00  0.00     0.074 A 
ATOM     63  C   UNL A   1      41.045  34.278  30.611  1.00  0.00     0.031 C 
ATOM     64  C   UNL A   1      43.284  33.634  29.764  1.00  0.00     0.034 A 
BRANCH  51  65
ATOM     65  C   UNL A   1      46.517  28.850  27.560  1.00  0.00     0.023 A 
ATOM     66  C   UNL A   1      47.560  28.683  28.495  1.00  0.00     0.012 A 
ATOM     67  C   UNL A   1      46.724  28.468  26.220  1.00  0.00     0.148 A 
ATOM     68  C   UNL A   1      48.797  28.178  28.097  1.00  0.00     0.002 A 
ATOM     69  C   UNL A   1      47.943  27.920  25.841  1.00  0.00     0.091 A 
ATOM     70  F   UNL A   1      45.729  28.656  25.342  1.00  0.00    -0.205 F 
ATOM     71  C   UNL A   1      48.985  27.788  26.774  1.00  0.00     0.022 A 
BRANCH  69  72
ATOM     72  S   UNL A   1      48.256  27.309  24.182  1.00  0.00     0.127 S 
ATOM     73  O   UNL A   1      47.644  28.354  23.363  1.00  0.00    -0.237 OA
ATOM     74  O   UNL A   1      49.718  27.277  24.139  1.00  0.00    -0.237 OA
ATOM     75  O   UNL A   1      47.616  26.003  24.106  1.00  0.00    -0.744 OA
ENDBRANCH  69  72
ENDBRANCH  51  65
BRANCH  52  76
ATOM     76  C   UNL A   1      37.563  31.903  30.771  1.00  0.00     0.023 A 
ATOM     77  C   UNL A   1      37.197  31.594  32.095  1.00  0.00     0.012 A 
ATOM     78  C   UNL A   1      36.671  32.636  29.964  1.00  0.00     0.148 A 
ATOM     79  C   UNL A   1      35.950  31.973  32.595  1.00  0.00     0.002 A 
ATOM     80  C   UNL A   1      35.456  33.060  30.487  1.00  0.00     0.091 A 
ATOM     81  F   UNL A   1      37.034  32.908  28.704  1.00  0.00    -0.205 F 
ATOM     82  C   UNL A   1      35.084  32.713  31.795  1.00  0.00     0.022 A 
BRANCH  80  83
ATOM     83  S   UNL A   1      34.329  34.117  29.572  1.00  0.00     0.127 S 
ATOM     84  O   UNL A   1      33.393  33.144  29.014  1.00  0.00    -0.237 OA
ATOM     85  O   UNL A   1      33.781  34.960  30.635  1.00  0.00    -0.237 OA
ATOM     86  O   UNL A   1      35.153  34.828  28.603  1.00  0.00    -0.744 OA
ENDBRANCH  80  83
ENDBRANCH  52  76
BRANCH  64  87
ATOM     87  C   UNL A   1      43.755  35.044  30.018  1.00  0.00     0.023 A 
ATOM     88  C   UNL A   1      44.108  35.456  31.318  1.00  0.00     0.012 A 
ATOM     89  C   UNL A   1      43.905  35.945  28.944  1.00  0.00     0.148 A 
ATOM     90  C   UNL A   1      44.561  36.755  31.551  1.00  0.00     0.002 A 
ATOM     91  C   UNL A   1      44.409  37.218  29.175  1.00  0.00     0.091 A 
ATOM     92  F   UNL A   1      43.548  35.542  27.716  1.00  0.00    -0.205 F 
ATOM     93  C   UNL A   1      44.722  37.631  30.480  1.00  0.00     0.022 A 
BRANCH  91  94
ATOM     94  S   UNL A   1      44.747  38.376  27.843  1.00  0.00     0.127 S 
ATOM     95  O   UNL A   1      43.410  38.891  27.551  1.00  0.00    -0.237 OA
ATOM     96  O   UNL A   1      45.644  39.336  28.487  1.00  0.00    -0.237 OA
ATOM     97  O   UNL A   1      45.362  37.595  26.779  1.00  0.00    -0.744 OA
ENDBRANCH  91  94
ENDBRANCH  64  87
ENDBRANCH  38  39
ENDBRANCH  31  33
ENDBRANCH  30  31
ENDBRANCH  29  30
ENDBRANCH  28  29
ENDBRANCH  27  28
ENDBRANCH  26  27
ENDBRANCH   1  26
TORSDOF 25
ENDMDL
MODEL 2
REMARK VINA RESULT:      -8.4      2.090      2.429
REMARK SMILES CC1(CNS(=O)(=O)Cc2ccc(C(=O)OCCOCCOCCOC(=O)c3ccc(-c4c5nc(c(-c6cccc(S(=O)(=O)[O-])c6F)c6ccc([nH]6)c(-c6cccc(S(=O)(=O)[O-])c6F)c6nc(c(-c7cccc(S(=O)(=O)[O-])c7F)c7ccc4[nH]7)C=C6)C=C5)cc3)cc2)COC1
REMARK SMILES IDX 19 1 18 2 17 3 16 4 15 5 13 6 14 7 12 8 9 9 10 10 91 11
REMARK SMILES IDX 11 12 90 13 8 14 5 15 6 16 7 17 4 18 3 20 2 21 1 22 92 23
REMARK SMILES IDX 94 24 93 25 20 26 21 27 22 28 23 29 24 30 25 31 26 32 27 33
REMARK SMILES IDX 28 34 89 35 29 36 88 37 30 38 31 39 32 40 82 41 33 42 87 43
REMARK SMILES IDX 81 44 83 45 34 46 86 47 80 48 79 49 35 51 67 52 47 53 66 54
REMARK SMILES IDX 48 55 51 56 65 57 84 58 49 59 50 60 64 62 85 63 52 64 36 65
REMARK SMILES IDX 37 66 45 67 38 68 40 69 46 70 39 71 41 72 42 73 43 74 44 75
REMARK SMILES IDX 68 76 69 77 77 78 70 79 72 80 78 81 71 82 73 83 74 84 75 85
REMARK SMILES IDX 76 86 53 87 54 88 62 89 55 90 57 91 63 92 56 93 58 94 59 95
REMARK SMILES IDX 60 96 61 97
REMARK H PARENT 4 19 83 50 51 61
REMARK Flexibility Score: inf
ROOT
ATOM      1  C   UNL A   1      44.534  18.811  24.916  1.00  0.00     0.188 C 
ENDROOT
BRANCH   1   2
ATOM      2  O   UNL A   1      44.621  20.216  24.860  1.00  0.00    -0.376 OA
BRANCH   2   3
ATOM      3  C   UNL A   1      45.861  20.860  25.091  1.00  0.00     0.202 C 
BRANCH   3   4
ATOM      4  C   UNL A   1      46.047  22.373  25.326  1.00  0.00     0.261 C 
BRANCH   4   5
ATOM      5  O   UNL A   1      45.447  22.953  26.484  1.00  0.00    -0.460 OA
BRANCH   5   6
ATOM      6  C   UNL A   1      45.918  24.171  26.859  1.00  0.00     0.338 C 
ATOM      7  O   UNL A   1      46.472  24.985  26.153  1.00  0.00    -0.246 OA
BRANCH   6   8
ATOM      8  C   UNL A   1      45.509  24.425  28.261  1.00  0.00     0.060 A 
ATOM      9  C   UNL A   1      44.831  24.842  30.960  1.00  0.00    -0.032 A 
ATOM     10  C   UNL A   1      46.017  25.373  30.431  1.00  0.00     0.006 A 
ATOM     11  C   UNL A   1      43.951  24.200  30.081  1.00  0.00     0.006 A 
ATOM     12  C   UNL A   1      46.360  25.158  29.093  1.00  0.00     0.016 A 
ATOM     13  C   UNL A   1      44.285  23.973  28.748  1.00  0.00     0.016 A 
BRANCH   9  14
ATOM     14  C   UNL A   1      44.524  25.012  32.428  1.00  0.00     0.189 C 
BRANCH  14  15
ATOM     15  S   UNL A   1      44.507  26.752  32.939  1.00  0.00     0.215 S 
ATOM     16  O   UNL A   1      44.580  27.587  31.758  1.00  0.00    -0.212 OA
ATOM     17  O   UNL A   1      45.422  26.965  34.040  1.00  0.00    -0.212 OA
BRANCH  15  18
ATOM     18  N   UNL A   1      42.964  27.005  33.588  1.00  0.00    -0.214 NA
ATOM     19  H   UNL A   1      42.303  27.009  32.810  1.00  0.00     0.141 HD
BRANCH  18  20
ATOM     20  C   UNL A   1      42.740  28.242  34.361  1.00  0.00     0.110 C 
BRANCH  20  21
ATOM     21  C   UNL A   1      41.795  29.213  33.643  1.00  0.00     0.028 C 
ATOM     22  C   UNL A   1      41.891  30.662  34.099  1.00  0.00     0.018 C 
ATOM     23  C   UNL A   1      40.349  28.679  33.611  1.00  0.00     0.170 C 
ATOM     24  C   UNL A   1      41.725  29.020  32.118  1.00  0.00     0.170 C 
ATOM     25  O   UNL A   1      40.515  28.232  32.241  1.00  0.00    -0.380 OA
ENDBRANCH  20  21
ENDBRANCH  18  20
ENDBRANCH  15  18
ENDBRANCH  14  15
ENDBRANCH   9  14
ENDBRANCH   6   8
ENDBRANCH   5   6
ENDBRANCH   4   5
ENDBRANCH   3   4
ENDBRANCH   2   3
ENDBRANCH   1   2
BRANCH   1  26
ATOM     26  C   UNL A   1      43.276  18.302  25.650  1.00  0.00     0.188 C 
BRANCH  26  27
ATOM     27  O   UNL A   1      42.708  19.073  26.697  1.00  0.00    -0.376 OA
BRANCH  27  28
ATOM     28  C   UNL A   1      41.423  19.656  26.527  1.00  0.00     0.202 C 
BRANCH  28  29
ATOM     29  C   UNL A   1      40.901  20.839  27.372  1.00  0.00     0.261 C 
BRANCH  29  30
ATOM     30  O   UNL A   1      40.942  22.145  26.783  1.00  0.00    -0.460 OA
BRANCH  30  31
ATOM     31  C   UNL A   1      39.734  22.703  26.523  1.00  0.00     0.338 C 
ATOM     32  O   UNL A   1      38.730  22.135  26.130  1.00  0.00    -0.246 OA
BRANCH  31  33
ATOM     33  C   UNL A   1      39.740  24.110  26.970  1.00  0.00     0.060 A 
ATOM     34  C   UNL A   1      40.229  25.085  26.089  1.00  0.00     0.016 A 
ATOM     35  C   UNL A   1      39.335  24.458  28.259  1.00  0.00     0.016 A 
ATOM     36  C   UNL A   1      40.355  26.407  26.508  1.00  0.00     0.010 A 
ATOM     37  C   UNL A   1      39.483  25.782  28.685  1.00  0.00     0.010 A 
ATOM     38  C   UNL A   1      40.035  26.751  27.827  1.00  0.00    -0.014 A 
BRANCH  38  39
ATOM     39  C   UNL A   1      40.478  28.062  28.358  1.00  0.00     0.031 A 
ATOM     40  C   UNL A   1      41.957  28.331  28.459  1.00  0.00     0.074 A 
ATOM     41  C   UNL A   1      39.593  29.008  28.720  1.00  0.00     0.049 A 
ATOM     42  N   UNL A   1      42.579  29.391  28.904  1.00  0.00    -0.248 NA
ATOM     43  C   UNL A   1      42.853  27.257  27.999  1.00  0.00     0.031 C 
ATOM     44  C   UNL A   1      38.139  28.875  28.655  1.00  0.00     0.029 A 
ATOM     45  N   UNL A   1      39.797  30.263  29.237  1.00  0.00    -0.354 N 
ATOM     46  C   UNL A   1      43.935  29.101  28.810  1.00  0.00     0.074 A 
ATOM     47  C   UNL A   1      44.046  27.760  28.278  1.00  0.00     0.031 C 
ATOM     48  C   UNL A   1      37.579  29.996  29.143  1.00  0.00     0.029 A 
ATOM     49  C   UNL A   1      38.633  30.911  29.577  1.00  0.00     0.049 A 
ATOM     50  H   UNL A   1      40.689  30.660  29.352  1.00  0.00     0.167 HD
ATOM     51  C   UNL A   1      44.995  29.881  29.126  1.00  0.00     0.034 A 
ATOM     52  C   UNL A   1      38.445  32.097  30.190  1.00  0.00     0.034 A 
ATOM     53  C   UNL A   1      44.884  31.217  29.644  1.00  0.00     0.049 A 
ATOM     54  C   UNL A   1      39.642  32.937  30.559  1.00  0.00     0.074 A 
ATOM     55  C   UNL A   1      45.899  32.104  29.958  1.00  0.00     0.029 A 
ATOM     56  N   UNL A   1      43.690  31.854  29.942  1.00  0.00    -0.354 N 
ATOM     57  N   UNL A   1      40.916  32.691  30.369  1.00  0.00    -0.248 NA
ATOM     58  C   UNL A   1      39.372  34.236  31.192  1.00  0.00     0.031 C 
ATOM     59  C   UNL A   1      45.318  33.262  30.484  1.00  0.00     0.029 A 
ATOM     60  C   UNL A   1      43.941  33.118  30.447  1.00  0.00     0.049 A 
ATOM     61  H   UNL A   1      42.795  31.464  29.814  1.00  0.00     0.167 HD
ATOM     62  C   UNL A   1      41.595  33.823  30.813  1.00  0.00     0.074 A 
ATOM     63  C   UNL A   1      40.588  34.759  31.268  1.00  0.00     0.031 C 
ATOM     64  C   UNL A   1      42.929  34.063  30.846  1.00  0.00     0.034 A 
BRANCH  51  65
ATOM     65  C   UNL A   1      46.372  29.308  28.914  1.00  0.00     0.023 A 
ATOM     66  C   UNL A   1      47.149  28.915  30.024  1.00  0.00     0.012 A 
ATOM     67  C   UNL A   1      46.879  29.118  27.614  1.00  0.00     0.148 A 
ATOM     68  C   UNL A   1      48.423  28.376  29.843  1.00  0.00     0.002 A 
ATOM     69  C   UNL A   1      48.128  28.533  27.441  1.00  0.00     0.091 A 
ATOM     70  F   UNL A   1      46.135  29.518  26.574  1.00  0.00    -0.205 F 
ATOM     71  C   UNL A   1      48.906  28.175  28.553  1.00  0.00     0.022 A 
BRANCH  69  72
ATOM     72  S   UNL A   1      48.804  28.156  25.821  1.00  0.00     0.127 S 
ATOM     73  O   UNL A   1      47.629  28.318  24.966  1.00  0.00    -0.237 OA
ATOM     74  O   UNL A   1      49.821  29.197  25.665  1.00  0.00    -0.237 OA
ATOM     75  O   UNL A   1      49.329  26.801  25.908  1.00  0.00    -0.744 OA
ENDBRANCH  69  72
ENDBRANCH  51  65
BRANCH  52  76
ATOM     76  C   UNL A   1      37.064  32.582  30.477  1.00  0.00     0.023 A 
ATOM     77  C   UNL A   1      36.548  32.491  31.783  1.00  0.00     0.012 A 
ATOM     78  C   UNL A   1      36.259  33.126  29.456  1.00  0.00     0.148 A 
ATOM     79  C   UNL A   1      35.242  32.897  32.063  1.00  0.00     0.002 A 
ATOM     80  C   UNL A   1      34.981  33.580  29.753  1.00  0.00     0.091 A 
ATOM     81  F   UNL A   1      36.765  33.190  28.217  1.00  0.00    -0.205 F 
ATOM     82  C   UNL A   1      34.462  33.450  31.050  1.00  0.00     0.022 A 
BRANCH  80  83
ATOM     83  S   UNL A   1      33.948  34.414  28.543  1.00  0.00     0.127 S 
ATOM     84  O   UNL A   1      34.720  35.625  28.274  1.00  0.00    -0.237 OA
ATOM     85  O   UNL A   1      33.925  33.442  27.450  1.00  0.00    -0.237 OA
ATOM     86  O   UNL A   1      32.661  34.618  29.195  1.00  0.00    -0.744 OA
ENDBRANCH  80  83
ENDBRANCH  52  76
BRANCH  64  87
ATOM     87  C   UNL A   1      43.389  35.417  31.325  1.00  0.00     0.023 A 
ATOM     88  C   UNL A   1      43.688  36.438  30.403  1.00  0.00     0.012 A 
ATOM     89  C   UNL A   1      43.464  35.692  32.707  1.00  0.00     0.148 A 
ATOM     90  C   UNL A   1      44.097  37.697  30.845  1.00  0.00     0.002 A 
ATOM     91  C   UNL A   1      43.816  36.964  33.141  1.00  0.00     0.091 A 
ATOM     92  F   UNL A   1      43.191  34.704  33.571  1.00  0.00    -0.205 F 
ATOM     93  C   UNL A   1      44.150  37.962  32.212  1.00  0.00     0.022 A 
BRANCH  91  94
ATOM     94  S   UNL A   1      43.810  37.424  34.877  1.00  0.00     0.127 S 
ATOM     95  O   UNL A   1      44.873  36.575  35.413  1.00  0.00    -0.237 OA
ATOM     96  O   UNL A   1      44.137  38.849  34.821  1.00  0.00    -0.237 OA
ATOM     97  O   UNL A   1      42.469  37.130  35.365  1.00  0.00    -0.744 OA
ENDBRANCH  91  94
ENDBRANCH  64  87
ENDBRANCH  38  39
ENDBRANCH  31  33
ENDBRANCH  30  31
ENDBRANCH  29  30
ENDBRANCH  28  29
ENDBRANCH  27  28
ENDBRANCH  26  27
ENDBRANCH   1  26
TORSDOF 25
ENDMDL
MODEL 3
REMARK VINA RESULT:      -8.4      1.619      2.007
REMARK SMILES CC1(CNS(=O)(=O)Cc2ccc(C(=O)OCCOCCOCCOC(=O)c3ccc(-c4c5nc(c(-c6cccc(S(=O)(=O)[O-])c6F)c6ccc([nH]6)c(-c6cccc(S(=O)(=O)[O-])c6F)c6nc(c(-c7cccc(S(=O)(=O)[O-])c7F)c7ccc4[nH]7)C=C6)C=C5)cc3)cc2)COC1
REMARK SMILES IDX 19 1 18 2 17 3 16 4 15 5 13 6 14 7 12 8 9 9 10 10 91 11
REMARK SMILES IDX 11 12 90 13 8 14 5 15 6 16 7 17 4 18 3 20 2 21 1 22 92 23
REMARK SMILES IDX 94 24 93 25 20 26 21 27 22 28 23 29 24 30 25 31 26 32 27 33
REMARK SMILES IDX 28 34 89 35 29 36 88 37 30 38 31 39 32 40 82 41 33 42 87 43
REMARK SMILES IDX 81 44 83 45 34 46 86 47 80 48 79 49 35 51 67 52 47 53 66 54
REMARK SMILES IDX 48 55 51 56 65 57 84 58 49 59 50 60 64 62 85 63 52 64 36 65
REMARK SMILES IDX 37 66 45 67 38 68 40 69 46 70 39 71 41 72 42 73 43 74 44 75
REMARK SMILES IDX 68 76 69 77 77 78 70 79 72 80 78 81 71 82 73 83 74 84 75 85
REMARK SMILES IDX 76 86 53 87 54 88 62 89 55 90 57 91 63 92 56 93 58 94 59 95
REMARK SMILES IDX 60 96 61 97
REMARK H PARENT 4 19 83 50 51 61
REMARK Flexibility Score: inf
ROOT
ATOM      1  C   UNL A   1      44.458  18.837  24.671  1.00  0.00     0.188 C 
ENDROOT
BRANCH   1   2
ATOM      2  O   UNL A   1      44.076  20.118  24.227  1.00  0.00    -0.376 OA
BRANCH   2   3
ATOM      3  C   UNL A   1      45.044  21.144  24.104  1.00  0.00     0.202 C 
BRANCH   3   4
ATOM      4  C   UNL A   1      44.865  22.599  24.585  1.00  0.00     0.261 C 
BRANCH   4   5
ATOM      5  O   UNL A   1      44.690  22.830  25.982  1.00  0.00    -0.460 OA
BRANCH   5   6
ATOM      6  C   UNL A   1      44.857  24.109  26.405  1.00  0.00     0.338 C 
ATOM      7  O   UNL A   1      45.017  25.090  25.712  1.00  0.00    -0.246 OA
BRANCH   6   8
ATOM      8  C   UNL A   1      44.660  24.151  27.874  1.00  0.00     0.060 A 
ATOM      9  C   UNL A   1      44.389  24.165  30.675  1.00  0.00    -0.032 A 
ATOM     10  C   UNL A   1      45.466  24.819  30.059  1.00  0.00     0.006 A 
ATOM     11  C   UNL A   1      43.403  23.608  29.853  1.00  0.00     0.006 A 
ATOM     12  C   UNL A   1      45.608  24.804  28.667  1.00  0.00     0.016 A 
ATOM     13  C   UNL A   1      43.536  23.580  28.467  1.00  0.00     0.016 A 
BRANCH   9  14
ATOM     14  C   UNL A   1      44.305  24.120  32.181  1.00  0.00     0.189 C 
BRANCH  14  15
ATOM     15  S   UNL A   1      44.359  25.769  32.932  1.00  0.00     0.215 S 
ATOM     16  O   UNL A   1      43.615  26.688  32.096  1.00  0.00    -0.212 OA
ATOM     17  O   UNL A   1      45.707  26.092  33.350  1.00  0.00    -0.212 OA
BRANCH  15  18
ATOM     18  N   UNL A   1      43.471  25.630  34.367  1.00  0.00    -0.214 NA
ATOM     19  H   UNL A   1      42.624  26.188  34.256  1.00  0.00     0.141 HD
BRANCH  18  20
ATOM     20  C   UNL A   1      44.121  26.061  35.620  1.00  0.00     0.110 C 
BRANCH  20  21
ATOM     21  C   UNL A   1      43.299  27.117  36.368  1.00  0.00     0.028 C 
ATOM     22  C   UNL A   1      44.113  28.104  37.192  1.00  0.00     0.018 C 
ATOM     23  C   UNL A   1      42.136  26.480  37.154  1.00  0.00     0.170 C 
ATOM     24  C   UNL A   1      42.170  27.750  35.534  1.00  0.00     0.170 C 
ATOM     25  O   UNL A   1      41.194  26.852  36.116  1.00  0.00    -0.380 OA
ENDBRANCH  20  21
ENDBRANCH  18  20
ENDBRANCH  15  18
ENDBRANCH  14  15
ENDBRANCH   9  14
ENDBRANCH   6   8
ENDBRANCH   5   6
ENDBRANCH   4   5
ENDBRANCH   3   4
ENDBRANCH   2   3
ENDBRANCH   1   2
BRANCH   1  26
ATOM     26  C   UNL A   1      43.541  18.272  25.776  1.00  0.00     0.188 C 
BRANCH  26  27
ATOM     27  O   UNL A   1      43.030  19.135  26.781  1.00  0.00    -0.376 OA
BRANCH  27  28
ATOM     28  C   UNL A   1      41.677  19.568  26.718  1.00  0.00     0.202 C 
BRANCH  28  29
ATOM     29  C   UNL A   1      41.141  20.811  27.461  1.00  0.00     0.261 C 
BRANCH  29  30
ATOM     30  O   UNL A   1      41.181  22.066  26.771  1.00  0.00    -0.460 OA
BRANCH  30  31
ATOM     31  C   UNL A   1      39.972  22.593  26.452  1.00  0.00     0.338 C 
ATOM     32  O   UNL A   1      38.995  21.994  26.038  1.00  0.00    -0.246 OA
BRANCH  31  33
ATOM     33  C   UNL A   1      39.933  24.010  26.864  1.00  0.00     0.060 A 
ATOM     34  C   UNL A   1      40.386  24.978  25.955  1.00  0.00     0.016 A 
ATOM     35  C   UNL A   1      39.524  24.377  28.146  1.00  0.00     0.016 A 
ATOM     36  C   UNL A   1      40.469  26.313  26.340  1.00  0.00     0.010 A 
ATOM     37  C   UNL A   1      39.630  25.716  28.537  1.00  0.00     0.010 A 
ATOM     38  C   UNL A   1      40.145  26.680  27.651  1.00  0.00    -0.014 A 
BRANCH  38  39
ATOM     39  C   UNL A   1      40.546  28.019  28.146  1.00  0.00     0.031 A 
ATOM     40  C   UNL A   1      42.011  28.368  28.156  1.00  0.00     0.074 A 
ATOM     41  C   UNL A   1      39.634  28.919  28.555  1.00  0.00     0.049 A 
ATOM     42  N   UNL A   1      42.601  29.465  28.556  1.00  0.00    -0.248 NA
ATOM     43  C   UNL A   1      42.936  27.339  27.649  1.00  0.00     0.031 C 
ATOM     44  C   UNL A   1      38.189  28.706  28.578  1.00  0.00     0.029 A 
ATOM     45  N   UNL A   1      39.799  30.187  29.051  1.00  0.00    -0.354 N 
ATOM     46  C   UNL A   1      43.962  29.247  28.383  1.00  0.00     0.074 A 
ATOM     47  C   UNL A   1      44.114  27.909  27.854  1.00  0.00     0.031 C 
ATOM     48  C   UNL A   1      37.598  29.800  29.093  1.00  0.00     0.029 A 
ATOM     49  C   UNL A   1      38.625  30.775  29.456  1.00  0.00     0.049 A 
ATOM     50  H   UNL A   1      40.674  30.634  29.110  1.00  0.00     0.167 HD
ATOM     51  C   UNL A   1      44.995  30.086  28.628  1.00  0.00     0.034 A 
ATOM     52  C   UNL A   1      38.409  31.955  30.072  1.00  0.00     0.034 A 
ATOM     53  C   UNL A   1      44.843  31.420  29.144  1.00  0.00     0.049 A 
ATOM     54  C   UNL A   1      39.579  32.862  30.362  1.00  0.00     0.074 A 
ATOM     55  C   UNL A   1      45.824  32.364  29.391  1.00  0.00     0.029 A 
ATOM     56  N   UNL A   1      43.635  31.993  29.510  1.00  0.00    -0.354 N 
ATOM     57  N   UNL A   1      40.850  32.684  30.098  1.00  0.00    -0.248 NA
ATOM     58  C   UNL A   1      39.276  34.151  31.003  1.00  0.00     0.031 C 
ATOM     59  C   UNL A   1      45.213  33.494  29.943  1.00  0.00     0.029 A 
ATOM     60  C   UNL A   1      43.846  33.274  29.990  1.00  0.00     0.049 A 
ATOM     61  H   UNL A   1      42.757  31.555  29.438  1.00  0.00     0.167 HD
ATOM     62  C   UNL A   1      41.491  33.855  30.493  1.00  0.00     0.074 A 
ATOM     63  C   UNL A   1      40.465  34.740  31.001  1.00  0.00     0.031 C 
ATOM     64  C   UNL A   1      42.810  34.167  30.443  1.00  0.00     0.034 A 
BRANCH  51  65
ATOM     65  C   UNL A   1      46.386  29.587  28.338  1.00  0.00     0.023 A 
ATOM     66  C   UNL A   1      46.865  29.567  27.011  1.00  0.00     0.012 A 
ATOM     67  C   UNL A   1      47.236  29.178  29.385  1.00  0.00     0.148 A 
ATOM     68  C   UNL A   1      48.153  29.115  26.728  1.00  0.00     0.002 A 
ATOM     69  C   UNL A   1      48.535  28.776  29.099  1.00  0.00     0.091 A 
ATOM     70  F   UNL A   1      46.755  29.182  30.635  1.00  0.00    -0.205 F 
ATOM     71  C   UNL A   1      48.991  28.730  27.772  1.00  0.00     0.022 A 
BRANCH  69  72
ATOM     72  S   UNL A   1      49.717  28.342  30.379  1.00  0.00     0.127 S 
ATOM     73  O   UNL A   1      49.394  26.936  30.615  1.00  0.00    -0.237 OA
ATOM     74  O   UNL A   1      50.995  28.570  29.704  1.00  0.00    -0.237 OA
ATOM     75  O   UNL A   1      49.450  29.238  31.496  1.00  0.00    -0.744 OA
ENDBRANCH  69  72
ENDBRANCH  51  65
BRANCH  52  76
ATOM     76  C   UNL A   1      37.023  32.367  30.438  1.00  0.00     0.023 A 
ATOM     77  C   UNL A   1      36.526  32.083  31.724  1.00  0.00     0.012 A 
ATOM     78  C   UNL A   1      36.196  33.033  29.513  1.00  0.00     0.148 A 
ATOM     79  C   UNL A   1      35.217  32.419  32.071  1.00  0.00     0.002 A 
ATOM     80  C   UNL A   1      34.913  33.416  29.884  1.00  0.00     0.091 A 
ATOM     81  F   UNL A   1      36.684  33.282  28.290  1.00  0.00    -0.205 F 
ATOM     82  C   UNL A   1      34.414  33.093  31.155  1.00  0.00     0.022 A 
BRANCH  80  83
ATOM     83  S   UNL A   1      33.850  34.391  28.814  1.00  0.00     0.127 S 
ATOM     84  O   UNL A   1      33.374  33.385  27.869  1.00  0.00    -0.237 OA
ATOM     85  O   UNL A   1      32.843  34.878  29.757  1.00  0.00    -0.237 OA
ATOM     86  O   UNL A   1      34.702  35.431  28.252  1.00  0.00    -0.744 OA
ENDBRANCH  80  83
ENDBRANCH  52  76
BRANCH  64  87
ATOM     87  C   UNL A   1      43.223  35.549  30.885  1.00  0.00     0.023 A 
ATOM     88  C   UNL A   1      43.595  35.790  32.222  1.00  0.00     0.012 A 
ATOM     89  C   UNL A   1      43.301  36.600  29.948  1.00  0.00     0.148 A 
ATOM     90  C   UNL A   1      43.994  37.064  32.629  1.00  0.00     0.002 A 
ATOM     91  C   UNL A   1      43.753  37.851  30.346  1.00  0.00     0.091 A 
ATOM     92  F   UNL A   1      42.928  36.356  28.683  1.00  0.00    -0.205 F 
ATOM     93  C   UNL A   1      44.084  38.090  31.689  1.00  0.00     0.022 A 
BRANCH  91  94
ATOM     94  S   UNL A   1      43.998  39.200  29.186  1.00  0.00     0.127 S 
ATOM     95  O   UNL A   1      42.632  39.452  28.730  1.00  0.00    -0.237 OA
ATOM     96  O   UNL A   1      44.558  40.247  30.042  1.00  0.00    -0.237 OA
ATOM     97  O   UNL A   1      44.914  38.696  28.171  1.00  0.00    -0.744 OA
ENDBRANCH  91  94
ENDBRANCH  64  87
ENDBRANCH  38  39
ENDBRANCH  31  33
ENDBRANCH  30  31
ENDBRANCH  29  30
ENDBRANCH  28  29
ENDBRANCH  27  28
ENDBRANCH  26  27
ENDBRANCH   1  26
TORSDOF 25
ENDMDL
