MODEL 1
REMARK VINA RESULT:     -10.8      0.000      0.000
REMARK SMILES O=C(OCCOCCOCCOC(=O)c1cccnc1Nc1cccc(C(F)(F)F)c1)c1ccc(-c2c3nc(c(-c4cccc(S(=O)(=O)[O-])c4F)c4ccc([nH]4)c(-c4cccc(S(=O)(=O)[O-])c4F)c4nc(c(-c5cccc(S(=O)(=O)[O-])c5F)c5ccc2[nH]5)C=C4)C=C3)cc1
REMARK SMILES IDX 7 1 6 2 5 3 4 4 3 5 2 6 1 7 32 8 33 9 94 10 34 11 93 12
REMARK SMILES IDX 35 13 36 14 37 15 87 16 38 17 92 18 86 19 88 20 39 21 91 22
REMARK SMILES IDX 85 23 84 24 40 26 72 27 52 28 71 29 53 30 56 31 70 32 89 33
REMARK SMILES IDX 54 34 55 35 69 37 90 38 57 39 41 40 42 41 50 42 43 43 45 44
REMARK SMILES IDX 51 45 44 46 46 47 47 48 48 49 49 50 73 51 74 52 82 53 75 54
REMARK SMILES IDX 77 55 83 56 76 57 78 58 79 59 80 60 81 61 58 62 59 63 67 64
REMARK SMILES IDX 60 65 62 66 68 67 61 68 63 69 64 70 65 71 66 72 8 73 9 74
REMARK SMILES IDX 10 75 11 76 12 77 13 78 14 79 15 80 16 81 20 82 17 83 19 84
REMARK SMILES IDX 18 85 21 86 22 88 23 89 31 90 24 91 26 92 25 93 27 94 28 95
REMARK SMILES IDX 29 96 30 97
REMARK H PARENT 88 25 56 36 21 87
REMARK Flexibility Score: inf
ROOT
ATOM      1  C   UNL A   1      35.982  23.102  25.969  1.00  0.00     0.188 C 
ENDROOT
BRANCH   1   2
ATOM      2  O   UNL A   1      36.072  21.674  25.934  1.00  0.00    -0.376 OA
BRANCH   2   3
ATOM      3  C   UNL A   1      36.711  21.164  24.764  1.00  0.00     0.202 C 
BRANCH   3   4
ATOM      4  C   UNL A   1      37.605  19.945  25.022  1.00  0.00     0.261 C 
BRANCH   4   5
ATOM      5  O   UNL A   1      39.002  20.289  25.010  1.00  0.00    -0.460 OA
BRANCH   5   6
ATOM      6  C   UNL A   1      39.823  20.483  26.074  1.00  0.00     0.338 C 
ATOM      7  O   UNL A   1      40.344  19.496  26.592  1.00  0.00    -0.246 OA
BRANCH   6   8
ATOM      8  C   UNL A   1      40.168  21.834  26.624  1.00  0.00     0.060 A 
ATOM      9  C   UNL A   1      39.719  23.046  26.104  1.00  0.00     0.016 A 
ATOM     10  C   UNL A   1      40.970  21.877  27.780  1.00  0.00     0.016 A 
ATOM     11  C   UNL A   1      40.186  24.259  26.598  1.00  0.00     0.010 A 
ATOM     12  C   UNL A   1      41.369  23.099  28.340  1.00  0.00     0.010 A 
ATOM     13  C   UNL A   1      41.030  24.299  27.709  1.00  0.00    -0.014 A 
BRANCH  13  14
ATOM     14  C   UNL A   1      41.611  25.606  28.096  1.00  0.00     0.031 A 
ATOM     15  C   UNL A   1      42.980  25.976  27.599  1.00  0.00     0.074 A 
ATOM     16  C   UNL A   1      40.850  26.506  28.747  1.00  0.00     0.049 A 
ATOM     17  N   UNL A   1      43.614  27.114  27.706  1.00  0.00    -0.248 NA
ATOM     18  C   UNL A   1      43.728  24.939  26.867  1.00  0.00     0.031 C 
ATOM     19  C   UNL A   1      39.493  26.259  29.236  1.00  0.00     0.029 A 
ATOM     20  N   UNL A   1      41.087  27.818  29.072  1.00  0.00    -0.354 N 
ATOM     21  C   UNL A   1      44.838  26.923  27.077  1.00  0.00     0.074 A 
ATOM     22  C   UNL A   1      44.868  25.559  26.602  1.00  0.00     0.031 C 
ATOM     23  C   UNL A   1      39.004  27.393  29.760  1.00  0.00     0.029 A 
ATOM     24  C   UNL A   1      40.027  28.430  29.696  1.00  0.00     0.049 A 
ATOM     25  H   UNL A   1      41.937  28.276  28.877  1.00  0.00     0.167 HD
ATOM     26  C   UNL A   1      45.839  27.813  26.888  1.00  0.00     0.034 A 
ATOM     27  C   UNL A   1      39.895  29.685  30.170  1.00  0.00     0.034 A 
ATOM     28  C   UNL A   1      45.798  29.172  27.346  1.00  0.00     0.049 A 
ATOM     29  C   UNL A   1      41.034  30.646  29.968  1.00  0.00     0.074 A 
ATOM     30  C   UNL A   1      46.777  30.145  27.256  1.00  0.00     0.029 A 
ATOM     31  N   UNL A   1      44.710  29.753  27.981  1.00  0.00    -0.354 N 
ATOM     32  N   UNL A   1      42.163  30.460  29.327  1.00  0.00    -0.248 NA
ATOM     33  C   UNL A   1      40.875  31.995  30.527  1.00  0.00     0.031 C 
ATOM     34  C   UNL A   1      46.279  31.315  27.841  1.00  0.00     0.029 A 
ATOM     35  C   UNL A   1      44.989  31.072  28.286  1.00  0.00     0.049 A 
ATOM     36  H   UNL A   1      43.864  29.293  28.186  1.00  0.00     0.167 HD
ATOM     37  C   UNL A   1      42.845  31.667  29.397  1.00  0.00     0.074 A 
ATOM     38  C   UNL A   1      41.982  32.592  30.105  1.00  0.00     0.031 C 
ATOM     39  C   UNL A   1      44.086  31.979  28.948  1.00  0.00     0.034 A 
BRANCH  26  40
ATOM     40  C   UNL A   1      47.047  27.330  26.133  1.00  0.00     0.023 A 
ATOM     41  C   UNL A   1      48.030  26.578  26.810  1.00  0.00     0.012 A 
ATOM     42  C   UNL A   1      47.219  27.627  24.768  1.00  0.00     0.148 A 
ATOM     43  C   UNL A   1      49.180  26.155  26.145  1.00  0.00     0.002 A 
ATOM     44  C   UNL A   1      48.354  27.175  24.105  1.00  0.00     0.091 A 
ATOM     45  F   UNL A   1      46.284  28.365  24.153  1.00  0.00    -0.205 F 
ATOM     46  C   UNL A   1      49.339  26.448  24.794  1.00  0.00     0.022 A 
BRANCH  44  47
ATOM     47  S   UNL A   1      48.636  27.466  22.356  1.00  0.00     0.127 S 
ATOM     48  O   UNL A   1      47.495  28.314  22.011  1.00  0.00    -0.237 OA
ATOM     49  O   UNL A   1      49.927  28.154  22.363  1.00  0.00    -0.237 OA
ATOM     50  O   UNL A   1      48.650  26.153  21.726  1.00  0.00    -0.744 OA
ENDBRANCH  44  47
ENDBRANCH  26  40
BRANCH  27  51
ATOM     51  C   UNL A   1      38.637  30.101  30.855  1.00  0.00     0.023 A 
ATOM     52  C   UNL A   1      38.434  29.791  32.214  1.00  0.00     0.012 A 
ATOM     53  C   UNL A   1      37.646  30.835  30.172  1.00  0.00     0.148 A 
ATOM     54  C   UNL A   1      37.261  30.178  32.868  1.00  0.00     0.002 A 
ATOM     55  C   UNL A   1      36.512  31.274  30.845  1.00  0.00     0.091 A 
ATOM     56  F   UNL A   1      37.835  31.108  28.872  1.00  0.00    -0.205 F 
ATOM     57  C   UNL A   1      36.307  30.931  32.188  1.00  0.00     0.022 A 
BRANCH  55  58
ATOM     58  S   UNL A   1      35.345  32.397  30.069  1.00  0.00     0.127 S 
ATOM     59  O   UNL A   1      36.204  33.510  29.682  1.00  0.00    -0.237 OA
ATOM     60  O   UNL A   1      34.831  31.590  28.961  1.00  0.00    -0.237 OA
ATOM     61  O   UNL A   1      34.352  32.673  31.101  1.00  0.00    -0.744 OA
ENDBRANCH  55  58
ENDBRANCH  27  51
BRANCH  39  62
ATOM     62  C   UNL A   1      44.579  33.374  29.210  1.00  0.00     0.023 A 
ATOM     63  C   UNL A   1      45.177  33.672  30.450  1.00  0.00     0.012 A 
ATOM     64  C   UNL A   1      44.517  34.363  28.212  1.00  0.00     0.148 A 
ATOM     65  C   UNL A   1      45.685  34.945  30.701  1.00  0.00     0.002 A 
ATOM     66  C   UNL A   1      45.063  35.617  28.455  1.00  0.00     0.091 A 
ATOM     67  F   UNL A   1      43.917  34.067  27.049  1.00  0.00    -0.205 F 
ATOM     68  C   UNL A   1      45.639  35.913  29.702  1.00  0.00     0.022 A 
BRANCH  66  69
ATOM     69  S   UNL A   1      45.122  36.884  27.184  1.00  0.00     0.127 S 
ATOM     70  O   UNL A   1      43.705  37.062  26.873  1.00  0.00    -0.237 OA
ATOM     71  O   UNL A   1      45.739  38.010  27.886  1.00  0.00    -0.237 OA
ATOM     72  O   UNL A   1      45.940  36.326  26.114  1.00  0.00    -0.744 OA
ENDBRANCH  66  69
ENDBRANCH  39  62
ENDBRANCH  13  14
ENDBRANCH   6   8
ENDBRANCH   5   6
ENDBRANCH   4   5
ENDBRANCH   3   4
ENDBRANCH   2   3
ENDBRANCH   1   2
BRANCH   1  73
ATOM     73  C   UNL A   1      34.673  23.538  26.627  1.00  0.00     0.188 C 
BRANCH  73  74
ATOM     74  O   UNL A   1      33.956  22.490  27.279  1.00  0.00    -0.376 OA
BRANCH  74  75
ATOM     75  C   UNL A   1      32.631  22.798  27.713  1.00  0.00     0.202 C 
BRANCH  75  76
ATOM     76  C   UNL A   1      32.002  24.069  27.125  1.00  0.00     0.261 C 
BRANCH  76  77
ATOM     77  O   UNL A   1      30.810  23.873  26.341  1.00  0.00    -0.460 OA
BRANCH  77  78
ATOM     78  C   UNL A   1      30.840  22.806  25.503  1.00  0.00     0.341 C 
ATOM     79  O   UNL A   1      30.327  21.714  25.688  1.00  0.00    -0.246 OA
BRANCH  78  80
ATOM     80  C   UNL A   1      31.595  23.113  24.285  1.00  0.00     0.102 A 
ATOM     81  C   UNL A   1      31.301  24.299  23.610  1.00  0.00     0.021 A 
ATOM     82  C   UNL A   1      32.717  22.357  23.924  1.00  0.00     0.144 A 
ATOM     83  C   UNL A   1      32.138  24.709  22.583  1.00  0.00     0.021 A 
ATOM     84  N   UNL A   1      33.499  22.739  22.883  1.00  0.00    -0.238 NA
ATOM     85  C   UNL A   1      33.210  23.903  22.251  1.00  0.00     0.113 A 
BRANCH  82  86
ATOM     86  N   UNL A   1      33.025  21.147  24.591  1.00  0.00    -0.340 N 
ATOM     87  H   UNL A   1      33.284  21.204  25.540  1.00  0.00     0.168 HD
BRANCH  86  88
ATOM     88  C   UNL A   1      32.989  19.870  24.000  1.00  0.00     0.040 A 
ATOM     89  C   UNL A   1      32.356  19.679  22.772  1.00  0.00     0.026 A 
ATOM     90  C   UNL A   1      33.495  18.758  24.680  1.00  0.00     0.039 A 
ATOM     91  C   UNL A   1      32.262  18.406  22.205  1.00  0.00     0.003 A 
ATOM     92  C   UNL A   1      33.393  17.468  24.135  1.00  0.00     0.058 A 
ATOM     93  C   UNL A   1      32.778  17.305  22.885  1.00  0.00     0.013 A 
BRANCH  92  94
ATOM     94  C   UNL A   1      33.918  16.272  24.883  1.00  0.00     0.416 C 
ATOM     95  F   UNL A   1      33.065  15.208  24.812  1.00  0.00    -0.166 F 
ATOM     96  F   UNL A   1      35.106  15.818  24.397  1.00  0.00    -0.166 F 
ATOM     97  F   UNL A   1      34.114  16.489  26.213  1.00  0.00    -0.166 F 
ENDBRANCH  92  94
ENDBRANCH  86  88
ENDBRANCH  82  86
ENDBRANCH  78  80
ENDBRANCH  77  78
ENDBRANCH  76  77
ENDBRANCH  75  76
ENDBRANCH  74  75
ENDBRANCH  73  74
ENDBRANCH   1  73
TORSDOF 23
ENDMDL
MODEL 2
REMARK VINA RESULT:     -10.7      3.145      4.621
REMARK SMILES O=C(OCCOCCOCCOC(=O)c1cccnc1Nc1cccc(C(F)(F)F)c1)c1ccc(-c2c3nc(c(-c4cccc(S(=O)(=O)[O-])c4F)c4ccc([nH]4)c(-c4cccc(S(=O)(=O)[O-])c4F)c4nc(c(-c5cccc(S(=O)(=O)[O-])c5F)c5ccc2[nH]5)C=C4)C=C3)cc1
REMARK SMILES IDX 7 1 6 2 5 3 4 4 3 5 2 6 1 7 32 8 33 9 94 10 34 11 93 12
REMARK SMILES IDX 35 13 36 14 37 15 87 16 38 17 92 18 86 19 88 20 39 21 91 22
REMARK SMILES IDX 85 23 84 24 40 26 72 27 52 28 71 29 53 30 56 31 70 32 89 33
REMARK SMILES IDX 54 34 55 35 69 37 90 38 57 39 41 40 42 41 50 42 43 43 45 44
REMARK SMILES IDX 51 45 44 46 46 47 47 48 48 49 49 50 73 51 74 52 82 53 75 54
REMARK SMILES IDX 77 55 83 56 76 57 78 58 79 59 80 60 81 61 58 62 59 63 67 64
REMARK SMILES IDX 60 65 62 66 68 67 61 68 63 69 64 70 65 71 66 72 8 73 9 74
REMARK SMILES IDX 10 75 11 76 12 77 13 78 14 79 15 80 16 81 20 82 17 83 19 84
REMARK SMILES IDX 18 85 21 86 22 88 23 89 31 90 24 91 26 92 25 93 27 94 28 95
REMARK SMILES IDX 29 96 30 97
REMARK H PARENT 88 25 56 36 21 87
REMARK Flexibility Score: inf
ROOT
ATOM      1  C   UNL A   1      33.787  22.680  24.049  1.00  0.00     0.188 C 
ENDROOT
BRANCH   1   2
ATOM      2  O   UNL A   1      35.194  22.492  23.869  1.00  0.00    -0.376 OA
BRANCH   2   3
ATOM      3  C   UNL A   1      35.740  21.428  24.648  1.00  0.00     0.202 C 
BRANCH   3   4
ATOM      4  C   UNL A   1      36.833  21.870  25.628  1.00  0.00     0.261 C 
BRANCH   4   5
ATOM      5  O   UNL A   1      38.076  21.186  25.393  1.00  0.00    -0.460 OA
BRANCH   5   6
ATOM      6  C   UNL A   1      39.257  21.353  26.043  1.00  0.00     0.338 C 
ATOM      7  O   UNL A   1      40.018  20.388  26.120  1.00  0.00    -0.246 OA
BRANCH   6   8
ATOM      8  C   UNL A   1      39.708  22.657  26.628  1.00  0.00     0.060 A 
ATOM      9  C   UNL A   1      39.236  23.910  26.245  1.00  0.00     0.016 A 
ATOM     10  C   UNL A   1      40.646  22.606  27.677  1.00  0.00     0.016 A 
ATOM     11  C   UNL A   1      39.796  25.078  26.752  1.00  0.00     0.010 A 
ATOM     12  C   UNL A   1      41.147  23.779  28.259  1.00  0.00     0.010 A 
ATOM     13  C   UNL A   1      40.771  25.025  27.750  1.00  0.00    -0.014 A 
BRANCH  13  14
ATOM     14  C   UNL A   1      41.434  26.290  28.143  1.00  0.00     0.031 A 
ATOM     15  C   UNL A   1      42.814  26.586  27.625  1.00  0.00     0.074 A 
ATOM     16  C   UNL A   1      40.739  27.225  28.819  1.00  0.00     0.049 A 
ATOM     17  N   UNL A   1      43.515  27.684  27.735  1.00  0.00    -0.248 NA
ATOM     18  C   UNL A   1      43.486  25.518  26.867  1.00  0.00     0.031 C 
ATOM     19  C   UNL A   1      39.378  27.051  29.330  1.00  0.00     0.029 A 
ATOM     20  N   UNL A   1      41.058  28.516  29.155  1.00  0.00    -0.354 N 
ATOM     21  C   UNL A   1      44.714  27.430  27.081  1.00  0.00     0.074 A 
ATOM     22  C   UNL A   1      44.656  26.074  26.589  1.00  0.00     0.031 C 
ATOM     23  C   UNL A   1      38.966  28.204  29.877  1.00  0.00     0.029 A 
ATOM     24  C   UNL A   1      40.047  29.181  29.807  1.00  0.00     0.049 A 
ATOM     25  H   UNL A   1      41.930  28.926  28.951  1.00  0.00     0.167 HD
ATOM     26  C   UNL A   1      45.763  28.263  26.885  1.00  0.00     0.034 A 
ATOM     27  C   UNL A   1      39.997  30.435  30.299  1.00  0.00     0.034 A 
ATOM     28  C   UNL A   1      45.810  29.616  27.361  1.00  0.00     0.049 A 
ATOM     29  C   UNL A   1      41.187  31.330  30.088  1.00  0.00     0.074 A 
ATOM     30  C   UNL A   1      46.842  30.531  27.265  1.00  0.00     0.029 A 
ATOM     31  N   UNL A   1      44.769  30.250  28.023  1.00  0.00    -0.354 N 
ATOM     32  N   UNL A   1      42.292  31.087  29.424  1.00  0.00    -0.248 NA
ATOM     33  C   UNL A   1      41.118  32.677  30.668  1.00  0.00     0.031 C 
ATOM     34  C   UNL A   1      46.424  31.720  27.874  1.00  0.00     0.029 A 
ATOM     35  C   UNL A   1      45.130  31.547  28.339  1.00  0.00     0.049 A 
ATOM     36  H   UNL A   1      43.901  29.838  28.237  1.00  0.00     0.167 HD
ATOM     37  C   UNL A   1      43.045  32.251  29.498  1.00  0.00     0.074 A 
ATOM     38  C   UNL A   1      42.250  33.215  30.233  1.00  0.00     0.031 C 
ATOM     39  C   UNL A   1      44.294  32.496  29.030  1.00  0.00     0.034 A 
BRANCH  26  40
ATOM     40  C   UNL A   1      46.927  27.720  26.102  1.00  0.00     0.023 A 
ATOM     41  C   UNL A   1      46.973  27.917  24.707  1.00  0.00     0.012 A 
ATOM     42  C   UNL A   1      47.963  27.010  26.738  1.00  0.00     0.148 A 
ATOM     43  C   UNL A   1      48.019  27.388  23.951  1.00  0.00     0.002 A 
ATOM     44  C   UNL A   1      49.018  26.512  25.982  1.00  0.00     0.091 A 
ATOM     45  F   UNL A   1      47.884  26.814  28.062  1.00  0.00    -0.205 F 
ATOM     46  C   UNL A   1      49.042  26.692  24.589  1.00  0.00     0.022 A 
BRANCH  44  47
ATOM     47  S   UNL A   1      50.404  25.635  26.711  1.00  0.00     0.127 S 
ATOM     48  O   UNL A   1      50.873  26.600  27.706  1.00  0.00    -0.237 OA
ATOM     49  O   UNL A   1      49.757  24.449  27.271  1.00  0.00    -0.237 OA
ATOM     50  O   UNL A   1      51.329  25.365  25.620  1.00  0.00    -0.744 OA
ENDBRANCH  44  47
ENDBRANCH  26  40
BRANCH  27  51
ATOM     51  C   UNL A   1      38.778  30.914  31.013  1.00  0.00     0.023 A 
ATOM     52  C   UNL A   1      38.549  30.542  32.352  1.00  0.00     0.012 A 
ATOM     53  C   UNL A   1      37.854  31.768  30.378  1.00  0.00     0.148 A 
ATOM     54  C   UNL A   1      37.412  30.987  33.032  1.00  0.00     0.002 A 
ATOM     55  C   UNL A   1      36.760  32.260  31.080  1.00  0.00     0.091 A 
ATOM     56  F   UNL A   1      38.065  32.099  29.095  1.00  0.00    -0.205 F 
ATOM     57  C   UNL A   1      36.525  31.857  32.401  1.00  0.00     0.022 A 
BRANCH  55  58
ATOM     58  S   UNL A   1      35.692  33.521  30.376  1.00  0.00     0.127 S 
ATOM     59  O   UNL A   1      35.357  34.325  31.545  1.00  0.00    -0.237 OA
ATOM     60  O   UNL A   1      36.577  34.168  29.406  1.00  0.00    -0.237 OA
ATOM     61  O   UNL A   1      34.596  32.780  29.763  1.00  0.00    -0.744 OA
ENDBRANCH  55  58
ENDBRANCH  27  51
BRANCH  39  62
ATOM     62  C   UNL A   1      44.872  33.856  29.300  1.00  0.00     0.023 A 
ATOM     63  C   UNL A   1      45.546  34.089  30.515  1.00  0.00     0.012 A 
ATOM     64  C   UNL A   1      44.813  34.874  28.331  1.00  0.00     0.148 A 
ATOM     65  C   UNL A   1      46.132  35.326  30.771  1.00  0.00     0.002 A 
ATOM     66  C   UNL A   1      45.437  36.090  28.576  1.00  0.00     0.091 A 
ATOM     67  F   UNL A   1      44.142  34.640  27.193  1.00  0.00    -0.205 F 
ATOM     68  C   UNL A   1      46.089  36.322  29.799  1.00  0.00     0.022 A 
BRANCH  66  69
ATOM     69  S   UNL A   1      45.499  37.386  27.335  1.00  0.00     0.127 S 
ATOM     70  O   UNL A   1      44.081  37.663  27.119  1.00  0.00    -0.237 OA
ATOM     71  O   UNL A   1      46.230  38.451  28.024  1.00  0.00    -0.237 OA
ATOM     72  O   UNL A   1      46.212  36.808  26.202  1.00  0.00    -0.744 OA
ENDBRANCH  66  69
ENDBRANCH  39  62
ENDBRANCH  13  14
ENDBRANCH   6   8
ENDBRANCH   5   6
ENDBRANCH   4   5
ENDBRANCH   3   4
ENDBRANCH   2   3
ENDBRANCH   1   2
BRANCH   1  73
ATOM     73  C   UNL A   1      33.094  21.338  24.281  1.00  0.00     0.188 C 
BRANCH  73  74
ATOM     74  O   UNL A   1      32.196  21.316  25.391  1.00  0.00    -0.376 OA
BRANCH  74  75
ATOM     75  C   UNL A   1      31.976  22.559  26.058  1.00  0.00     0.202 C 
BRANCH  75  76
ATOM     76  C   UNL A   1      30.642  23.259  25.768  1.00  0.00     0.261 C 
BRANCH  76  77
ATOM     77  O   UNL A   1      30.584  24.659  26.098  1.00  0.00    -0.460 OA
BRANCH  77  78
ATOM     78  C   UNL A   1      30.289  25.485  25.063  1.00  0.00     0.341 C 
ATOM     79  O   UNL A   1      29.245  26.091  24.882  1.00  0.00    -0.246 OA
BRANCH  78  80
ATOM     80  C   UNL A   1      31.413  25.580  24.127  1.00  0.00     0.102 A 
ATOM     81  C   UNL A   1      31.182  25.266  22.786  1.00  0.00     0.021 A 
ATOM     82  C   UNL A   1      32.623  26.170  24.514  1.00  0.00     0.144 A 
ATOM     83  C   UNL A   1      32.170  25.550  21.854  1.00  0.00     0.021 A 
ATOM     84  N   UNL A   1      33.603  26.393  23.603  1.00  0.00    -0.238 NA
ATOM     85  C   UNL A   1      33.355  26.100  22.302  1.00  0.00     0.113 A 
BRANCH  82  86
ATOM     86  N   UNL A   1      32.877  26.486  25.870  1.00  0.00    -0.340 N 
ATOM     87  H   UNL A   1      32.974  25.737  26.502  1.00  0.00     0.168 HD
BRANCH  86  88
ATOM     88  C   UNL A   1      33.003  27.791  26.381  1.00  0.00     0.040 A 
ATOM     89  C   UNL A   1      31.923  28.673  26.338  1.00  0.00     0.026 A 
ATOM     90  C   UNL A   1      34.237  28.257  26.845  1.00  0.00     0.039 A 
ATOM     91  C   UNL A   1      32.053  29.989  26.788  1.00  0.00     0.003 A 
ATOM     92  C   UNL A   1      34.393  29.582  27.283  1.00  0.00     0.058 A 
ATOM     93  C   UNL A   1      33.284  30.442  27.258  1.00  0.00     0.013 A 
BRANCH  92  94
ATOM     94  C   UNL A   1      35.730  30.084  27.758  1.00  0.00     0.416 C 
ATOM     95  F   UNL A   1      35.834  30.053  29.120  1.00  0.00    -0.166 F 
ATOM     96  F   UNL A   1      36.774  29.341  27.297  1.00  0.00    -0.166 F 
ATOM     97  F   UNL A   1      35.999  31.372  27.405  1.00  0.00    -0.166 F 
ENDBRANCH  92  94
ENDBRANCH  86  88
ENDBRANCH  82  86
ENDBRANCH  78  80
ENDBRANCH  77  78
ENDBRANCH  76  77
ENDBRANCH  75  76
ENDBRANCH  74  75
ENDBRANCH  73  74
ENDBRANCH   1  73
TORSDOF 23
ENDMDL
MODEL 3
REMARK VINA RESULT:     -10.5      2.935      4.376
REMARK SMILES O=C(OCCOCCOCCOC(=O)c1cccnc1Nc1cccc(C(F)(F)F)c1)c1ccc(-c2c3nc(c(-c4cccc(S(=O)(=O)[O-])c4F)c4ccc([nH]4)c(-c4cccc(S(=O)(=O)[O-])c4F)c4nc(c(-c5cccc(S(=O)(=O)[O-])c5F)c5ccc2[nH]5)C=C4)C=C3)cc1
REMARK SMILES IDX 7 1 6 2 5 3 4 4 3 5 2 6 1 7 32 8 33 9 94 10 34 11 93 12
REMARK SMILES IDX 35 13 36 14 37 15 87 16 38 17 92 18 86 19 88 20 39 21 91 22
REMARK SMILES IDX 85 23 84 24 40 26 72 27 52 28 71 29 53 30 56 31 70 32 89 33
REMARK SMILES IDX 54 34 55 35 69 37 90 38 57 39 41 40 42 41 50 42 43 43 45 44
REMARK SMILES IDX 51 45 44 46 46 47 47 48 48 49 49 50 73 51 74 52 82 53 75 54
REMARK SMILES IDX 77 55 83 56 76 57 78 58 79 59 80 60 81 61 58 62 59 63 67 64
REMARK SMILES IDX 60 65 62 66 68 67 61 68 63 69 64 70 65 71 66 72 8 73 9 74
REMARK SMILES IDX 10 75 11 76 12 77 13 78 14 79 15 80 16 81 20 82 17 83 19 84
REMARK SMILES IDX 18 85 21 86 22 88 23 89 31 90 24 91 26 92 25 93 27 94 28 95
REMARK SMILES IDX 29 96 30 97
REMARK H PARENT 88 25 56 36 21 87
REMARK Flexibility Score: inf
ROOT
ATOM      1  C   UNL A   1      34.420  21.010  25.966  1.00  0.00     0.188 C 
ENDROOT
BRANCH   1   2
ATOM      2  O   UNL A   1      35.124  21.147  24.728  1.00  0.00    -0.376 OA
BRANCH   2   3
ATOM      3  C   UNL A   1      36.436  21.692  24.866  1.00  0.00     0.202 C 
BRANCH   3   4
ATOM      4  C   UNL A   1      37.561  20.666  24.684  1.00  0.00     0.261 C 
BRANCH   4   5
ATOM      5  O   UNL A   1      38.290  20.444  25.904  1.00  0.00    -0.460 OA
BRANCH   5   6
ATOM      6  C   UNL A   1      39.571  20.792  26.186  1.00  0.00     0.338 C 
ATOM      7  O   UNL A   1      40.464  19.989  25.915  1.00  0.00    -0.246 OA
BRANCH   6   8
ATOM      8  C   UNL A   1      39.966  22.117  26.766  1.00  0.00     0.060 A 
ATOM      9  C   UNL A   1      39.395  23.340  26.421  1.00  0.00     0.016 A 
ATOM     10  C   UNL A   1      40.956  22.118  27.766  1.00  0.00     0.016 A 
ATOM     11  C   UNL A   1      39.903  24.537  26.914  1.00  0.00     0.010 A 
ATOM     12  C   UNL A   1      41.408  23.316  28.337  1.00  0.00     0.010 A 
ATOM     13  C   UNL A   1      40.927  24.539  27.863  1.00  0.00    -0.014 A 
BRANCH  13  14
ATOM     14  C   UNL A   1      41.526  25.842  28.238  1.00  0.00     0.031 A 
ATOM     15  C   UNL A   1      42.906  26.182  27.751  1.00  0.00     0.074 A 
ATOM     16  C   UNL A   1      40.774  26.764  28.868  1.00  0.00     0.049 A 
ATOM     17  N   UNL A   1      43.558  27.310  27.850  1.00  0.00    -0.248 NA
ATOM     18  C   UNL A   1      43.645  25.123  27.042  1.00  0.00     0.031 C 
ATOM     19  C   UNL A   1      39.407  26.546  29.345  1.00  0.00     0.029 A 
ATOM     20  N   UNL A   1      41.029  28.076  29.177  1.00  0.00    -0.354 N 
ATOM     21  C   UNL A   1      44.786  27.090  27.237  1.00  0.00     0.074 A 
ATOM     22  C   UNL A   1      44.798  25.719  26.781  1.00  0.00     0.031 C 
ATOM     23  C   UNL A   1      38.931  27.696  29.848  1.00  0.00     0.029 A 
ATOM     24  C   UNL A   1      39.973  28.715  29.781  1.00  0.00     0.049 A 
ATOM     25  H   UNL A   1      41.889  28.517  28.986  1.00  0.00     0.167 HD
ATOM     26  C   UNL A   1      45.804  27.960  27.046  1.00  0.00     0.034 A 
ATOM     27  C   UNL A   1      39.857  29.978  30.236  1.00  0.00     0.034 A 
ATOM     28  C   UNL A   1      45.781  29.326  27.486  1.00  0.00     0.049 A 
ATOM     29  C   UNL A   1      41.014  30.917  30.034  1.00  0.00     0.074 A 
ATOM     30  C   UNL A   1      46.777  30.281  27.393  1.00  0.00     0.029 A 
ATOM     31  N   UNL A   1      44.696  29.934  28.100  1.00  0.00    -0.354 N 
ATOM     32  N   UNL A   1      42.147  30.703  29.408  1.00  0.00    -0.248 NA
ATOM     33  C   UNL A   1      40.873  32.276  30.573  1.00  0.00     0.031 C 
ATOM     34  C   UNL A   1      46.293  31.467  27.956  1.00  0.00     0.029 A 
ATOM     35  C   UNL A   1      44.994  31.253  28.390  1.00  0.00     0.049 A 
ATOM     36  H   UNL A   1      43.840  29.491  28.302  1.00  0.00     0.167 HD
ATOM     37  C   UNL A   1      42.849  31.899  29.469  1.00  0.00     0.074 A 
ATOM     38  C   UNL A   1      41.993  32.848  30.155  1.00  0.00     0.031 C 
ATOM     39  C   UNL A   1      44.100  32.184  29.029  1.00  0.00     0.034 A 
BRANCH  26  40
ATOM     40  C   UNL A   1      47.012  27.446  26.312  1.00  0.00     0.023 A 
ATOM     41  C   UNL A   1      47.981  26.700  27.014  1.00  0.00     0.012 A 
ATOM     42  C   UNL A   1      47.196  27.709  24.941  1.00  0.00     0.148 A 
ATOM     43  C   UNL A   1      49.131  26.248  26.367  1.00  0.00     0.002 A 
ATOM     44  C   UNL A   1      48.331  27.230  24.298  1.00  0.00     0.091 A 
ATOM     45  F   UNL A   1      46.275  28.444  24.303  1.00  0.00    -0.205 F 
ATOM     46  C   UNL A   1      49.303  26.508  25.011  1.00  0.00     0.022 A 
BRANCH  44  47
ATOM     47  S   UNL A   1      48.628  27.476  22.545  1.00  0.00     0.127 S 
ATOM     48  O   UNL A   1      47.492  28.317  22.168  1.00  0.00    -0.237 OA
ATOM     49  O   UNL A   1      49.920  28.163  22.546  1.00  0.00    -0.237 OA
ATOM     50  O   UNL A   1      48.646  26.149  21.948  1.00  0.00    -0.744 OA
ENDBRANCH  44  47
ENDBRANCH  26  40
BRANCH  27  51
ATOM     51  C   UNL A   1      38.599  30.425  30.902  1.00  0.00     0.023 A 
ATOM     52  C   UNL A   1      38.441  30.273  32.293  1.00  0.00     0.012 A 
ATOM     53  C   UNL A   1      37.563  31.032  30.163  1.00  0.00     0.148 A 
ATOM     54  C   UNL A   1      37.268  30.691  32.928  1.00  0.00     0.002 A 
ATOM     55  C   UNL A   1      36.427  31.504  30.811  1.00  0.00     0.091 A 
ATOM     56  F   UNL A   1      37.710  31.152  28.836  1.00  0.00    -0.205 F 
ATOM     57  C   UNL A   1      36.267  31.319  32.190  1.00  0.00     0.022 A 
BRANCH  55  58
ATOM     58  S   UNL A   1      35.196  32.479  29.939  1.00  0.00     0.127 S 
ATOM     59  O   UNL A   1      34.274  32.836  31.010  1.00  0.00    -0.237 OA
ATOM     60  O   UNL A   1      35.997  33.586  29.411  1.00  0.00    -0.237 OA
ATOM     61  O   UNL A   1      34.678  31.588  28.907  1.00  0.00    -0.744 OA
ENDBRANCH  55  58
ENDBRANCH  27  51
BRANCH  39  62
ATOM     62  C   UNL A   1      44.613  33.574  29.278  1.00  0.00     0.023 A 
ATOM     63  C   UNL A   1      45.209  33.877  30.518  1.00  0.00     0.012 A 
ATOM     64  C   UNL A   1      44.573  34.552  28.267  1.00  0.00     0.148 A 
ATOM     65  C   UNL A   1      45.735  35.144  30.757  1.00  0.00     0.002 A 
ATOM     66  C   UNL A   1      45.138  35.800  28.498  1.00  0.00     0.091 A 
ATOM     67  F   UNL A   1      43.975  34.251  27.105  1.00  0.00    -0.205 F 
ATOM     68  C   UNL A   1      45.711  36.101  29.745  1.00  0.00     0.022 A 
BRANCH  66  69
ATOM     69  S   UNL A   1      45.224  37.050  27.212  1.00  0.00     0.127 S 
ATOM     70  O   UNL A   1      45.943  36.342  26.154  1.00  0.00    -0.237 OA
ATOM     71  O   UNL A   1      43.812  37.306  26.924  1.00  0.00    -0.237 OA
ATOM     72  O   UNL A   1      45.927  38.178  27.811  1.00  0.00    -0.744 OA
ENDBRANCH  66  69
ENDBRANCH  39  62
ENDBRANCH  13  14
ENDBRANCH   6   8
ENDBRANCH   5   6
ENDBRANCH   4   5
ENDBRANCH   3   4
ENDBRANCH   2   3
ENDBRANCH   1   2
BRANCH   1  73
ATOM     73  C   UNL A   1      32.968  20.607  25.712  1.00  0.00     0.188 C 
BRANCH  73  74
ATOM     74  O   UNL A   1      32.116  21.677  25.302  1.00  0.00    -0.376 OA
BRANCH  74  75
ATOM     75  C   UNL A   1      31.613  22.523  26.337  1.00  0.00     0.202 C 
BRANCH  75  76
ATOM     76  C   UNL A   1      32.352  23.852  26.547  1.00  0.00     0.261 C 
BRANCH  76  77
ATOM     77  O   UNL A   1      32.311  24.773  25.442  1.00  0.00    -0.460 OA
BRANCH  77  78
ATOM     78  C   UNL A   1      33.517  25.076  24.899  1.00  0.00     0.341 C 
ATOM     79  O   UNL A   1      34.507  25.480  25.488  1.00  0.00    -0.246 OA
BRANCH  78  80
ATOM     80  C   UNL A   1      33.513  24.857  23.450  1.00  0.00     0.102 A 
ATOM     81  C   UNL A   1      33.363  23.550  22.981  1.00  0.00     0.021 A 
ATOM     82  C   UNL A   1      33.446  25.937  22.559  1.00  0.00     0.144 A 
ATOM     83  C   UNL A   1      33.147  23.347  21.626  1.00  0.00     0.021 A 
ATOM     84  N   UNL A   1      33.288  25.723  21.229  1.00  0.00    -0.238 NA
ATOM     85  C   UNL A   1      33.125  24.449  20.793  1.00  0.00     0.113 A 
BRANCH  82  86
ATOM     86  N   UNL A   1      33.605  27.267  23.015  1.00  0.00    -0.340 N 
ATOM     87  H   UNL A   1      34.513  27.648  23.001  1.00  0.00     0.168 HD
BRANCH  86  88
ATOM     88  C   UNL A   1      32.562  28.085  23.488  1.00  0.00     0.040 A 
ATOM     89  C   UNL A   1      31.393  28.240  22.742  1.00  0.00     0.026 A 
ATOM     90  C   UNL A   1      32.722  28.835  24.658  1.00  0.00     0.039 A 
ATOM     91  C   UNL A   1      30.377  29.096  23.173  1.00  0.00     0.003 A 
ATOM     92  C   UNL A   1      31.719  29.715  25.096  1.00  0.00     0.058 A 
ATOM     93  C   UNL A   1      30.540  29.831  24.345  1.00  0.00     0.013 A 
BRANCH  92  94
ATOM     94  C   UNL A   1      31.908  30.537  26.343  1.00  0.00     0.416 C 
ATOM     95  F   UNL A   1      31.705  29.803  27.476  1.00  0.00    -0.166 F 
ATOM     96  F   UNL A   1      33.164  31.048  26.461  1.00  0.00    -0.166 F 
ATOM     97  F   UNL A   1      31.059  31.598  26.444  1.00  0.00    -0.166 F 
ENDBRANCH  92  94
ENDBRANCH  86  88
ENDBRANCH  82  86
ENDBRANCH  78  80
ENDBRANCH  77  78
ENDBRANCH  76  77
ENDBRANCH  75  76
ENDBRANCH  74  75
ENDBRANCH  73  74
ENDBRANCH   1  73
TORSDOF 23
ENDMDL
