MODEL 1
REMARK VINA RESULT:     -11.0      0.000      0.000
REMARK SMILES CC(=O)Nc1ccc2sc(C(=O)OCCOCCOCCOC(=O)c3ccc(-c4c5nc(c(-c6cccc(S(=O)(=O)[O-])c6F)c6ccc([nH]6)c(-c6cccc(S(=O)(=O)[O-])c6F)c6nc(c(-c7cccc(S(=O)(=O)[O-])c7F)c7ccc4[nH]7)C=C6)C=C5)cc3)cc2c1
REMARK SMILES IDX 18 1 17 2 16 3 15 4 14 5 13 6 11 7 12 8 10 9 5 10 6 11 90 12
REMARK SMILES IDX 7 13 89 14 8 15 88 16 9 17 4 18 1 19 2 20 3 21 19 23 20 24
REMARK SMILES IDX 21 25 22 26 23 27 24 28 25 29 26 30 87 31 27 32 86 33 28 34
REMARK SMILES IDX 29 35 30 36 80 37 31 38 85 39 79 40 81 41 32 42 84 43 78 44
REMARK SMILES IDX 77 45 33 47 65 48 45 49 64 50 46 51 49 52 63 53 82 54 47 55
REMARK SMILES IDX 48 56 62 58 83 59 50 60 34 61 35 62 43 63 36 64 38 65 44 66
REMARK SMILES IDX 37 67 39 68 40 69 41 70 42 71 66 72 67 73 75 74 68 75 70 76
REMARK SMILES IDX 76 77 69 78 71 79 72 80 73 81 74 82 51 83 52 84 60 85 53 86
REMARK SMILES IDX 55 87 61 88 54 89 56 90 57 91 58 92 59 93
REMARK H PARENT 4 22 81 46 49 57
REMARK Flexibility Score: inf
ROOT
ATOM      1  C   UNL A   1      32.359  28.743  26.747  1.00  0.00     0.188 C 
ENDROOT
BRANCH   1   2
ATOM      2  C   UNL A   1      31.413  27.579  26.380  1.00  0.00     0.188 C 
BRANCH   2   3
ATOM      3  O   UNL A   1      30.963  27.397  25.050  1.00  0.00    -0.376 OA
BRANCH   3   4
ATOM      4  C   UNL A   1      31.332  28.313  24.033  1.00  0.00     0.202 C 
BRANCH   4   5
ATOM      5  C   UNL A   1      31.965  27.797  22.744  1.00  0.00     0.261 C 
BRANCH   5   6
ATOM      6  O   UNL A   1      31.702  26.406  22.524  1.00  0.00    -0.459 OA
BRANCH   6   7
ATOM      7  C   UNL A   1      32.800  25.654  22.230  1.00  0.00     0.348 C 
ATOM      8  O   UNL A   1      33.708  26.002  21.484  1.00  0.00    -0.245 OA
BRANCH   7   9
ATOM      9  C   UNL A   1      32.831  24.450  23.026  1.00  0.00     0.113 A 
ATOM     10  C   UNL A   1      33.872  20.173  24.788  1.00  0.00     0.041 A 
ATOM     11  C   UNL A   1      32.544  20.186  25.205  1.00  0.00     0.027 A 
ATOM     12  C   UNL A   1      34.436  21.321  24.227  1.00  0.00     0.035 A 
ATOM     13  C   UNL A   1      31.739  21.312  25.006  1.00  0.00     0.022 A 
ATOM     14  C   UNL A   1      33.618  22.434  23.923  1.00  0.00    -0.005 A 
ATOM     15  C   UNL A   1      32.280  22.415  24.323  1.00  0.00     0.035 A 
ATOM     16  C   UNL A   1      33.918  23.619  23.185  1.00  0.00     0.036 A 
ATOM     17  S   UNL A   1      31.465  23.862  23.856  1.00  0.00    -0.128 S 
BRANCH  10  18
ATOM     18  N   UNL A   1      34.691  19.040  24.902  1.00  0.00    -0.326 N 
ATOM     19  C   UNL A   1      33.415  17.571  23.360  1.00  0.00     0.114 C 
ATOM     20  C   UNL A   1      34.495  17.787  24.390  1.00  0.00     0.221 C 
ATOM     21  O   UNL A   1      35.248  16.868  24.712  1.00  0.00    -0.275 OA
ATOM     22  H   UNL A   1      35.519  19.165  25.420  1.00  0.00     0.169 HD
ENDBRANCH  10  18
ENDBRANCH   7   9
ENDBRANCH   6   7
ENDBRANCH   5   6
ENDBRANCH   4   5
ENDBRANCH   3   4
ENDBRANCH   2   3
ENDBRANCH   1   2
BRANCH   1  23
ATOM     23  O   UNL A   1      31.872  29.974  27.246  1.00  0.00    -0.376 OA
BRANCH  23  24
ATOM     24  C   UNL A   1      31.731  31.099  26.395  1.00  0.00     0.202 C 
BRANCH  24  25
ATOM     25  C   UNL A   1      31.659  32.524  26.944  1.00  0.00     0.261 C 
BRANCH  25  26
ATOM     26  O   UNL A   1      32.857  33.288  26.794  1.00  0.00    -0.460 OA
BRANCH  26  27
ATOM     27  C   UNL A   1      33.365  33.774  27.953  1.00  0.00     0.338 C 
ATOM     28  O   UNL A   1      32.877  34.623  28.677  1.00  0.00    -0.246 OA
BRANCH  27  29
ATOM     29  C   UNL A   1      34.561  32.999  28.320  1.00  0.00     0.060 A 
ATOM     30  C   UNL A   1      34.387  31.684  28.767  1.00  0.00     0.016 A 
ATOM     31  C   UNL A   1      35.828  33.584  28.288  1.00  0.00     0.016 A 
ATOM     32  C   UNL A   1      35.485  30.954  29.215  1.00  0.00     0.010 A 
ATOM     33  C   UNL A   1      36.924  32.857  28.753  1.00  0.00     0.010 A 
ATOM     34  C   UNL A   1      36.752  31.551  29.247  1.00  0.00    -0.014 A 
BRANCH  34  35
ATOM     35  C   UNL A   1      37.872  30.879  29.941  1.00  0.00     0.031 A 
ATOM     36  C   UNL A   1      38.199  31.293  31.349  1.00  0.00     0.074 A 
ATOM     37  C   UNL A   1      38.602  29.935  29.320  1.00  0.00     0.049 A 
ATOM     38  N   UNL A   1      39.167  30.886  32.127  1.00  0.00    -0.248 NA
ATOM     39  C   UNL A   1      37.317  32.302  31.961  1.00  0.00     0.031 C 
ATOM     40  C   UNL A   1      38.378  29.453  27.958  1.00  0.00     0.029 A 
ATOM     41  N   UNL A   1      39.703  29.238  29.749  1.00  0.00    -0.354 N 
ATOM     42  C   UNL A   1      39.027  31.602  33.309  1.00  0.00     0.074 A 
ATOM     43  C   UNL A   1      37.886  32.475  33.146  1.00  0.00     0.031 C 
ATOM     44  C   UNL A   1      39.336  28.561  27.650  1.00  0.00     0.029 A 
ATOM     45  C   UNL A   1      40.251  28.428  28.782  1.00  0.00     0.049 A 
ATOM     46  H   UNL A   1      40.066  29.311  30.661  1.00  0.00     0.167 HD
ATOM     47  C   UNL A   1      39.771  31.526  34.437  1.00  0.00     0.034 A 
ATOM     48  C   UNL A   1      41.376  27.685  28.808  1.00  0.00     0.034 A 
ATOM     49  C   UNL A   1      40.900  30.653  34.602  1.00  0.00     0.049 A 
ATOM     50  C   UNL A   1      42.206  27.648  30.066  1.00  0.00     0.074 A 
ATOM     51  C   UNL A   1      41.700  30.484  35.717  1.00  0.00     0.029 A 
ATOM     52  N   UNL A   1      41.392  29.805  33.622  1.00  0.00    -0.354 N 
ATOM     53  N   UNL A   1      41.991  28.237  31.217  1.00  0.00    -0.248 NA
ATOM     54  C   UNL A   1      43.420  26.817  30.037  1.00  0.00     0.031 C 
ATOM     55  C   UNL A   1      42.688  29.544  35.406  1.00  0.00     0.029 A 
ATOM     56  C   UNL A   1      42.490  29.115  34.102  1.00  0.00     0.049 A 
ATOM     57  H   UNL A   1      41.016  29.711  32.717  1.00  0.00     0.167 HD
ATOM     58  C   UNL A   1      43.015  27.817  32.059  1.00  0.00     0.074 A 
ATOM     59  C   UNL A   1      43.842  26.910  31.291  1.00  0.00     0.031 C 
ATOM     60  C   UNL A   1      43.260  28.163  33.348  1.00  0.00     0.034 A 
BRANCH  47  61
ATOM     61  C   UNL A   1      39.364  32.390  35.599  1.00  0.00     0.023 A 
ATOM     62  C   UNL A   1      38.560  31.840  36.617  1.00  0.00     0.012 A 
ATOM     63  C   UNL A   1      39.823  33.716  35.716  1.00  0.00     0.148 A 
ATOM     64  C   UNL A   1      38.200  32.604  37.726  1.00  0.00     0.002 A 
ATOM     65  C   UNL A   1      39.490  34.459  36.842  1.00  0.00     0.091 A 
ATOM     66  F   UNL A   1      40.565  34.226  34.723  1.00  0.00    -0.205 F 
ATOM     67  C   UNL A   1      38.673  33.908  37.844  1.00  0.00     0.022 A 
BRANCH  65  68
ATOM     68  S   UNL A   1      40.104  36.124  37.120  1.00  0.00     0.127 S 
ATOM     69  O   UNL A   1      41.524  35.877  37.370  1.00  0.00    -0.237 OA
ATOM     70  O   UNL A   1      39.816  36.776  35.843  1.00  0.00    -0.237 OA
ATOM     71  O   UNL A   1      39.352  36.646  38.252  1.00  0.00    -0.744 OA
ENDBRANCH  65  68
ENDBRANCH  47  61
BRANCH  48  72
ATOM     72  C   UNL A   1      41.771  26.883  27.616  1.00  0.00     0.023 A 
ATOM     73  C   UNL A   1      42.323  27.535  26.496  1.00  0.00     0.012 A 
ATOM     74  C   UNL A   1      41.600  25.486  27.580  1.00  0.00     0.148 A 
ATOM     75  C   UNL A   1      42.664  26.816  25.350  1.00  0.00     0.002 A 
ATOM     76  C   UNL A   1      41.992  24.768  26.455  1.00  0.00     0.091 A 
ATOM     77  F   UNL A   1      41.053  24.884  28.646  1.00  0.00    -0.205 F 
ATOM     78  C   UNL A   1      42.507  25.433  25.332  1.00  0.00     0.022 A 
BRANCH  76  79
ATOM     79  S   UNL A   1      41.933  22.973  26.398  1.00  0.00     0.127 S 
ATOM     80  O   UNL A   1      42.522  22.695  25.092  1.00  0.00    -0.237 OA
ATOM     81  O   UNL A   1      42.767  22.604  27.543  1.00  0.00    -0.237 OA
ATOM     82  O   UNL A   1      40.526  22.628  26.551  1.00  0.00    -0.744 OA
ENDBRANCH  76  79
ENDBRANCH  48  72
BRANCH  60  83
ATOM     83  C   UNL A   1      44.443  27.531  34.034  1.00  0.00     0.023 A 
ATOM     84  C   UNL A   1      45.694  28.178  34.009  1.00  0.00     0.012 A 
ATOM     85  C   UNL A   1      44.292  26.346  34.781  1.00  0.00     0.148 A 
ATOM     86  C   UNL A   1      46.782  27.642  34.697  1.00  0.00     0.002 A 
ATOM     87  C   UNL A   1      45.369  25.842  35.501  1.00  0.00     0.091 A 
ATOM     88  F   UNL A   1      43.098  25.735  34.778  1.00  0.00    -0.205 F 
ATOM     89  C   UNL A   1      46.617  26.483  35.452  1.00  0.00     0.022 A 
BRANCH  87  90
ATOM     90  S   UNL A   1      45.221  24.409  36.575  1.00  0.00     0.127 S 
ATOM     91  O   UNL A   1      46.593  24.254  37.054  1.00  0.00    -0.237 OA
ATOM     92  O   UNL A   1      44.270  24.874  37.586  1.00  0.00    -0.237 OA
ATOM     93  O   UNL A   1      44.724  23.329  35.734  1.00  0.00    -0.744 OA
ENDBRANCH  87  90
ENDBRANCH  60  83
ENDBRANCH  34  35
ENDBRANCH  27  29
ENDBRANCH  26  27
ENDBRANCH  25  26
ENDBRANCH  24  25
ENDBRANCH  23  24
ENDBRANCH   1  23
TORSDOF 21
ENDMDL
MODEL 2
REMARK VINA RESULT:     -10.5      2.045      7.723
REMARK SMILES CC(=O)Nc1ccc2sc(C(=O)OCCOCCOCCOC(=O)c3ccc(-c4c5nc(c(-c6cccc(S(=O)(=O)[O-])c6F)c6ccc([nH]6)c(-c6cccc(S(=O)(=O)[O-])c6F)c6nc(c(-c7cccc(S(=O)(=O)[O-])c7F)c7ccc4[nH]7)C=C6)C=C5)cc3)cc2c1
REMARK SMILES IDX 18 1 17 2 16 3 15 4 14 5 13 6 11 7 12 8 10 9 5 10 6 11 90 12
REMARK SMILES IDX 7 13 89 14 8 15 88 16 9 17 4 18 1 19 2 20 3 21 19 23 20 24
REMARK SMILES IDX 21 25 22 26 23 27 24 28 25 29 26 30 87 31 27 32 86 33 28 34
REMARK SMILES IDX 29 35 30 36 80 37 31 38 85 39 79 40 81 41 32 42 84 43 78 44
REMARK SMILES IDX 77 45 33 47 65 48 45 49 64 50 46 51 49 52 63 53 82 54 47 55
REMARK SMILES IDX 48 56 62 58 83 59 50 60 34 61 35 62 43 63 36 64 38 65 44 66
REMARK SMILES IDX 37 67 39 68 40 69 41 70 42 71 66 72 67 73 75 74 68 75 70 76
REMARK SMILES IDX 76 77 69 78 71 79 72 80 73 81 74 82 51 83 52 84 60 85 53 86
REMARK SMILES IDX 55 87 61 88 54 89 56 90 57 91 58 92 59 93
REMARK H PARENT 4 22 81 46 49 57
REMARK Flexibility Score: inf
ROOT
ATOM      1  C   UNL A   1      31.887  28.632  26.084  1.00  0.00     0.188 C 
ENDROOT
BRANCH   1   2
ATOM      2  C   UNL A   1      30.995  27.372  26.089  1.00  0.00     0.188 C 
BRANCH   2   3
ATOM      3  O   UNL A   1      30.594  26.757  24.878  1.00  0.00    -0.376 OA
BRANCH   3   4
ATOM      4  C   UNL A   1      30.580  27.495  23.667  1.00  0.00     0.202 C 
BRANCH   4   5
ATOM      5  C   UNL A   1      31.209  26.897  22.411  1.00  0.00     0.261 C 
BRANCH   5   6
ATOM      6  O   UNL A   1      32.610  26.641  22.569  1.00  0.00    -0.459 OA
BRANCH   6   7
ATOM      7  C   UNL A   1      33.056  25.501  21.971  1.00  0.00     0.348 C 
ATOM      8  O   UNL A   1      33.283  25.382  20.772  1.00  0.00    -0.245 OA
BRANCH   7   9
ATOM      9  C   UNL A   1      33.367  24.489  22.953  1.00  0.00     0.113 A 
ATOM     10  C   UNL A   1      33.302  20.618  25.690  1.00  0.00     0.041 A 
ATOM     11  C   UNL A   1      33.964  21.434  26.603  1.00  0.00     0.027 A 
ATOM     12  C   UNL A   1      33.064  21.077  24.393  1.00  0.00     0.035 A 
ATOM     13  C   UNL A   1      34.334  22.740  26.263  1.00  0.00     0.022 A 
ATOM     14  C   UNL A   1      33.336  22.424  24.058  1.00  0.00    -0.005 A 
ATOM     15  C   UNL A   1      33.973  23.236  24.999  1.00  0.00     0.035 A 
ATOM     16  C   UNL A   1      33.003  23.162  22.881  1.00  0.00     0.036 A 
ATOM     17  S   UNL A   1      34.209  24.833  24.392  1.00  0.00    -0.128 S 
BRANCH  10  18
ATOM     18  N   UNL A   1      32.849  19.332  26.014  1.00  0.00    -0.326 N 
ATOM     19  C   UNL A   1      34.205  18.091  24.344  1.00  0.00     0.114 C 
ATOM     20  C   UNL A   1      33.110  18.147  25.381  1.00  0.00     0.221 C 
ATOM     21  O   UNL A   1      32.508  17.126  25.714  1.00  0.00    -0.275 OA
ATOM     22  H   UNL A   1      32.265  19.273  26.804  1.00  0.00     0.169 HD
ENDBRANCH  10  18
ENDBRANCH   7   9
ENDBRANCH   6   7
ENDBRANCH   5   6
ENDBRANCH   4   5
ENDBRANCH   3   4
ENDBRANCH   2   3
ENDBRANCH   1   2
BRANCH   1  23
ATOM     23  O   UNL A   1      32.210  29.325  27.274  1.00  0.00    -0.376 OA
BRANCH  23  24
ATOM     24  C   UNL A   1      33.011  30.494  27.240  1.00  0.00     0.202 C 
BRANCH  24  25
ATOM     25  C   UNL A   1      32.398  31.893  27.186  1.00  0.00     0.261 C 
BRANCH  25  26
ATOM     26  O   UNL A   1      33.343  32.962  27.115  1.00  0.00    -0.460 OA
BRANCH  26  27
ATOM     27  C   UNL A   1      33.297  33.825  28.160  1.00  0.00     0.338 C 
ATOM     28  O   UNL A   1      32.410  34.617  28.428  1.00  0.00    -0.246 OA
BRANCH  27  29
ATOM     29  C   UNL A   1      34.436  33.566  29.054  1.00  0.00     0.060 A 
ATOM     30  C   UNL A   1      35.716  33.924  28.617  1.00  0.00     0.016 A 
ATOM     31  C   UNL A   1      34.249  32.919  30.277  1.00  0.00     0.016 A 
ATOM     32  C   UNL A   1      36.827  33.606  29.395  1.00  0.00     0.010 A 
ATOM     33  C   UNL A   1      35.365  32.586  31.045  1.00  0.00     0.010 A 
ATOM     34  C   UNL A   1      36.659  32.901  30.593  1.00  0.00    -0.014 A 
BRANCH  34  35
ATOM     35  C   UNL A   1      37.835  32.347  31.300  1.00  0.00     0.031 A 
ATOM     36  C   UNL A   1      38.559  31.180  30.689  1.00  0.00     0.074 A 
ATOM     37  C   UNL A   1      38.236  32.858  32.477  1.00  0.00     0.049 A 
ATOM     38  N   UNL A   1      39.572  30.498  31.156  1.00  0.00    -0.248 NA
ATOM     39  C   UNL A   1      38.074  30.717  29.377  1.00  0.00     0.031 C 
ATOM     40  C   UNL A   1      37.613  33.988  33.165  1.00  0.00     0.029 A 
ATOM     41  N   UNL A   1      39.246  32.466  33.319  1.00  0.00    -0.354 N 
ATOM     42  C   UNL A   1      39.833  29.515  30.210  1.00  0.00     0.074 A 
ATOM     43  C   UNL A   1      38.868  29.681  29.145  1.00  0.00     0.031 C 
ATOM     44  C   UNL A   1      38.235  34.177  34.342  1.00  0.00     0.029 A 
ATOM     45  C   UNL A   1      39.282  33.169  34.499  1.00  0.00     0.049 A 
ATOM     46  H   UNL A   1      39.885  31.750  33.097  1.00  0.00     0.167 HD
ATOM     47  C   UNL A   1      40.801  28.569  30.217  1.00  0.00     0.034 A 
ATOM     48  C   UNL A   1      40.058  32.998  35.588  1.00  0.00     0.034 A 
ATOM     49  C   UNL A   1      41.765  28.410  31.271  1.00  0.00     0.049 A 
ATOM     50  C   UNL A   1      41.105  31.913  35.585  1.00  0.00     0.074 A 
ATOM     51  C   UNL A   1      42.801  27.499  31.356  1.00  0.00     0.029 A 
ATOM     52  N   UNL A   1      41.806  29.176  32.425  1.00  0.00    -0.354 N 
ATOM     53  N   UNL A   1      41.419  31.070  34.631  1.00  0.00    -0.248 NA
ATOM     54  C   UNL A   1      41.925  31.775  36.798  1.00  0.00     0.031 C 
ATOM     55  C   UNL A   1      43.462  27.704  32.572  1.00  0.00     0.029 A 
ATOM     56  C   UNL A   1      42.846  28.755  33.234  1.00  0.00     0.049 A 
ATOM     57  H   UNL A   1      41.185  29.909  32.639  1.00  0.00     0.167 HD
ATOM     58  C   UNL A   1      42.497  30.333  35.111  1.00  0.00     0.074 A 
ATOM     59  C   UNL A   1      42.792  30.839  36.436  1.00  0.00     0.031 C 
ATOM     60  C   UNL A   1      43.171  29.317  34.518  1.00  0.00     0.034 A 
BRANCH  47  61
ATOM     61  C   UNL A   1      40.888  27.652  29.029  1.00  0.00     0.023 A 
ATOM     62  C   UNL A   1      40.002  26.560  28.935  1.00  0.00     0.012 A 
ATOM     63  C   UNL A   1      41.796  27.901  27.982  1.00  0.00     0.148 A 
ATOM     64  C   UNL A   1      40.032  25.716  27.827  1.00  0.00     0.002 A 
ATOM     65  C   UNL A   1      41.795  27.077  26.864  1.00  0.00     0.091 A 
ATOM     66  F   UNL A   1      42.647  28.930  28.105  1.00  0.00    -0.205 F 
ATOM     67  C   UNL A   1      40.920  25.980  26.787  1.00  0.00     0.022 A 
BRANCH  65  68
ATOM     68  S   UNL A   1      42.854  27.372  25.442  1.00  0.00     0.127 S 
ATOM     69  O   UNL A   1      42.784  26.085  24.751  1.00  0.00    -0.237 OA
ATOM     70  O   UNL A   1      42.160  28.467  24.764  1.00  0.00    -0.237 OA
ATOM     71  O   UNL A   1      44.161  27.721  25.981  1.00  0.00    -0.744 OA
ENDBRANCH  65  68
ENDBRANCH  47  61
BRANCH  48  72
ATOM     72  C   UNL A   1      39.904  33.897  36.767  1.00  0.00     0.023 A 
ATOM     73  C   UNL A   1      40.414  35.208  36.708  1.00  0.00     0.012 A 
ATOM     74  C   UNL A   1      39.265  33.463  37.944  1.00  0.00     0.148 A 
ATOM     75  C   UNL A   1      40.323  36.058  37.811  1.00  0.00     0.002 A 
ATOM     76  C   UNL A   1      39.129  34.332  39.021  1.00  0.00     0.091 A 
ATOM     77  F   UNL A   1      38.805  32.204  37.992  1.00  0.00    -0.205 F 
ATOM     78  C   UNL A   1      39.673  35.625  38.963  1.00  0.00     0.022 A 
BRANCH  76  79
ATOM     79  S   UNL A   1      38.203  33.891  40.495  1.00  0.00     0.127 S 
ATOM     80  O   UNL A   1      38.037  35.188  41.145  1.00  0.00    -0.237 OA
ATOM     81  O   UNL A   1      36.978  33.324  39.928  1.00  0.00    -0.237 OA
ATOM     82  O   UNL A   1      39.035  32.926  41.200  1.00  0.00    -0.744 OA
ENDBRANCH  76  79
ENDBRANCH  48  72
BRANCH  60  83
ATOM     83  C   UNL A   1      44.326  28.706  35.268  1.00  0.00     0.023 A 
ATOM     84  C   UNL A   1      45.628  29.210  35.078  1.00  0.00     0.012 A 
ATOM     85  C   UNL A   1      44.107  27.699  36.229  1.00  0.00     0.148 A 
ATOM     86  C   UNL A   1      46.697  28.703  35.816  1.00  0.00     0.002 A 
ATOM     87  C   UNL A   1      45.170  27.230  36.991  1.00  0.00     0.091 A 
ATOM     88  F   UNL A   1      42.864  27.219  36.382  1.00  0.00    -0.205 F 
ATOM     89  C   UNL A   1      46.467  27.724  36.779  1.00  0.00     0.022 A 
BRANCH  87  90
ATOM     90  S   UNL A   1      44.950  26.040  38.320  1.00  0.00     0.127 S 
ATOM     91  O   UNL A   1      46.332  25.684  38.633  1.00  0.00    -0.237 OA
ATOM     92  O   UNL A   1      44.278  26.839  39.346  1.00  0.00    -0.237 OA
ATOM     93  O   UNL A   1      44.135  24.968  37.764  1.00  0.00    -0.744 OA
ENDBRANCH  87  90
ENDBRANCH  60  83
ENDBRANCH  34  35
ENDBRANCH  27  29
ENDBRANCH  26  27
ENDBRANCH  25  26
ENDBRANCH  24  25
ENDBRANCH  23  24
ENDBRANCH   1  23
TORSDOF 21
ENDMDL
MODEL 3
REMARK VINA RESULT:     -10.3      5.508     11.119
REMARK SMILES CC(=O)Nc1ccc2sc(C(=O)OCCOCCOCCOC(=O)c3ccc(-c4c5nc(c(-c6cccc(S(=O)(=O)[O-])c6F)c6ccc([nH]6)c(-c6cccc(S(=O)(=O)[O-])c6F)c6nc(c(-c7cccc(S(=O)(=O)[O-])c7F)c7ccc4[nH]7)C=C6)C=C5)cc3)cc2c1
REMARK SMILES IDX 18 1 17 2 16 3 15 4 14 5 13 6 11 7 12 8 10 9 5 10 6 11 90 12
REMARK SMILES IDX 7 13 89 14 8 15 88 16 9 17 4 18 1 19 2 20 3 21 19 23 20 24
REMARK SMILES IDX 21 25 22 26 23 27 24 28 25 29 26 30 87 31 27 32 86 33 28 34
REMARK SMILES IDX 29 35 30 36 80 37 31 38 85 39 79 40 81 41 32 42 84 43 78 44
REMARK SMILES IDX 77 45 33 47 65 48 45 49 64 50 46 51 49 52 63 53 82 54 47 55
REMARK SMILES IDX 48 56 62 58 83 59 50 60 34 61 35 62 43 63 36 64 38 65 44 66
REMARK SMILES IDX 37 67 39 68 40 69 41 70 42 71 66 72 67 73 75 74 68 75 70 76
REMARK SMILES IDX 76 77 69 78 71 79 72 80 73 81 74 82 51 83 52 84 60 85 53 86
REMARK SMILES IDX 55 87 61 88 54 89 56 90 57 91 58 92 59 93
REMARK H PARENT 4 22 81 46 49 57
REMARK Flexibility Score: inf
ROOT
ATOM      1  C   UNL A   1      35.979  22.438  25.422  1.00  0.00     0.188 C 
ENDROOT
BRANCH   1   2
ATOM      2  C   UNL A   1      35.248  22.370  24.063  1.00  0.00     0.188 C 
BRANCH   2   3
ATOM      3  O   UNL A   1      33.987  21.738  23.944  1.00  0.00    -0.376 OA
BRANCH   3   4
ATOM      4  C   UNL A   1      33.312  21.256  25.094  1.00  0.00     0.202 C 
BRANCH   4   5
ATOM      5  C   UNL A   1      31.977  21.875  25.500  1.00  0.00     0.261 C 
BRANCH   5   6
ATOM      6  O   UNL A   1      32.140  23.057  26.294  1.00  0.00    -0.459 OA
BRANCH   6   7
ATOM      7  C   UNL A   1      30.978  23.660  26.670  1.00  0.00     0.348 C 
ATOM      8  O   UNL A   1      30.179  23.200  27.478  1.00  0.00    -0.245 OA
BRANCH   7   9
ATOM      9  C   UNL A   1      30.876  24.985  26.104  1.00  0.00     0.113 A 
ATOM     10  C   UNL A   1      30.079  28.662  23.219  1.00  0.00     0.041 A 
ATOM     11  C   UNL A   1      31.116  29.255  23.933  1.00  0.00     0.027 A 
ATOM     12  C   UNL A   1      29.564  27.431  23.634  1.00  0.00     0.035 A 
ATOM     13  C   UNL A   1      31.704  28.604  25.022  1.00  0.00     0.022 A 
ATOM     14  C   UNL A   1      30.207  26.708  24.666  1.00  0.00    -0.005 A 
ATOM     15  C   UNL A   1      31.266  27.309  25.349  1.00  0.00     0.035 A 
ATOM     16  C   UNL A   1      29.991  25.372  25.122  1.00  0.00     0.036 A 
ATOM     17  S   UNL A   1      31.905  26.262  26.563  1.00  0.00    -0.128 S 
BRANCH  10  18
ATOM     18  N   UNL A   1      29.512  29.247  22.078  1.00  0.00    -0.326 N 
ATOM     19  C   UNL A   1      27.712  30.509  23.232  1.00  0.00     0.114 C 
ATOM     20  C   UNL A   1      28.371  29.996  21.976  1.00  0.00     0.221 C 
ATOM     21  O   UNL A   1      27.939  30.309  20.867  1.00  0.00    -0.275 OA
ATOM     22  H   UNL A   1      30.001  29.099  21.237  1.00  0.00     0.169 HD
ENDBRANCH  10  18
ENDBRANCH   7   9
ENDBRANCH   6   7
ENDBRANCH   5   6
ENDBRANCH   4   5
ENDBRANCH   3   4
ENDBRANCH   2   3
ENDBRANCH   1   2
BRANCH   1  23
ATOM     23  O   UNL A   1      36.969  21.496  25.786  1.00  0.00    -0.376 OA
BRANCH  23  24
ATOM     24  C   UNL A   1      38.318  21.667  25.385  1.00  0.00     0.202 C 
BRANCH  24  25
ATOM     25  C   UNL A   1      39.486  21.215  26.262  1.00  0.00     0.261 C 
BRANCH  25  26
ATOM     26  O   UNL A   1      40.107  19.994  25.856  1.00  0.00    -0.460 OA
BRANCH  26  27
ATOM     27  C   UNL A   1      41.384  19.842  26.283  1.00  0.00     0.338 C 
ATOM     28  O   UNL A   1      42.026  18.809  26.345  1.00  0.00    -0.246 OA
BRANCH  27  29
ATOM     29  C   UNL A   1      41.975  21.167  26.527  1.00  0.00     0.060 A 
ATOM     30  C   UNL A   1      42.119  21.594  27.853  1.00  0.00     0.016 A 
ATOM     31  C   UNL A   1      42.319  22.002  25.463  1.00  0.00     0.016 A 
ATOM     32  C   UNL A   1      42.583  22.879  28.120  1.00  0.00     0.010 A 
ATOM     33  C   UNL A   1      42.768  23.295  25.733  1.00  0.00     0.010 A 
ATOM     34  C   UNL A   1      42.872  23.749  27.060  1.00  0.00    -0.014 A 
BRANCH  34  35
ATOM     35  C   UNL A   1      43.130  25.182  27.325  1.00  0.00     0.031 A 
ATOM     36  C   UNL A   1      44.488  25.740  27.007  1.00  0.00     0.074 A 
ATOM     37  C   UNL A   1      42.179  25.965  27.865  1.00  0.00     0.049 A 
ATOM     38  N   UNL A   1      44.956  26.944  27.208  1.00  0.00    -0.248 NA
ATOM     39  C   UNL A   1      45.449  24.817  26.378  1.00  0.00     0.031 C 
ATOM     40  C   UNL A   1      40.827  25.534  28.216  1.00  0.00     0.029 A 
ATOM     41  N   UNL A   1      42.223  27.283  28.244  1.00  0.00    -0.354 N 
ATOM     42  C   UNL A   1      46.268  26.920  26.754  1.00  0.00     0.074 A 
ATOM     43  C   UNL A   1      46.528  25.581  26.273  1.00  0.00     0.031 C 
ATOM     44  C   UNL A   1      40.178  26.563  28.791  1.00  0.00     0.029 A 
ATOM     45  C   UNL A   1      41.077  27.714  28.869  1.00  0.00     0.049 A 
ATOM     46  H   UNL A   1      43.001  27.865  28.082  1.00  0.00     0.167 HD
ATOM     47  C   UNL A   1      47.172  27.927  26.722  1.00  0.00     0.034 A 
ATOM     48  C   UNL A   1      40.800  28.895  29.456  1.00  0.00     0.034 A 
ATOM     49  C   UNL A   1      46.911  29.259  27.193  1.00  0.00     0.049 A 
ATOM     50  C   UNL A   1      41.838  29.988  29.439  1.00  0.00     0.074 A 
ATOM     51  C   UNL A   1      47.753  30.356  27.178  1.00  0.00     0.029 A 
ATOM     52  N   UNL A   1      45.720  29.674  27.768  1.00  0.00    -0.354 N 
ATOM     53  N   UNL A   1      43.031  29.987  28.896  1.00  0.00    -0.248 NA
ATOM     54  C   UNL A   1      41.479  31.257  30.091  1.00  0.00     0.031 C 
ATOM     55  C   UNL A   1      47.076  31.433  27.760  1.00  0.00     0.029 A 
ATOM     56  C   UNL A   1      45.806  31.009  28.120  1.00  0.00     0.049 A 
ATOM     57  H   UNL A   1      44.931  29.102  27.908  1.00  0.00     0.167 HD
ATOM     58  C   UNL A   1      43.547  31.263  29.103  1.00  0.00     0.074 A 
ATOM     59  C   UNL A   1      42.530  32.015  29.808  1.00  0.00     0.031 C 
ATOM     60  C   UNL A   1      44.759  31.763  28.757  1.00  0.00     0.034 A 
BRANCH  47  61
ATOM     61  C   UNL A   1      48.521  27.635  26.126  1.00  0.00     0.023 A 
ATOM     62  C   UNL A   1      49.566  27.200  26.966  1.00  0.00     0.012 A 
ATOM     63  C   UNL A   1      48.739  27.728  24.738  1.00  0.00     0.148 A 
ATOM     64  C   UNL A   1      50.815  26.884  26.437  1.00  0.00     0.002 A 
ATOM     65  C   UNL A   1      49.976  27.375  24.214  1.00  0.00     0.091 A 
ATOM     66  F   UNL A   1      47.738  28.168  23.962  1.00  0.00    -0.205 F 
ATOM     67  C   UNL A   1      51.018  26.961  25.062  1.00  0.00     0.022 A 
BRANCH  65  68
ATOM     68  S   UNL A   1      50.316  27.376  22.450  1.00  0.00     0.127 S 
ATOM     69  O   UNL A   1      50.133  28.788  22.115  1.00  0.00    -0.237 OA
ATOM     70  O   UNL A   1      51.703  26.913  22.403  1.00  0.00    -0.237 OA
ATOM     71  O   UNL A   1      49.350  26.462  21.855  1.00  0.00    -0.744 OA
ENDBRANCH  65  68
ENDBRANCH  47  61
BRANCH  48  72
ATOM     72  C   UNL A   1      39.467  29.127  30.083  1.00  0.00     0.023 A 
ATOM     73  C   UNL A   1      39.189  28.564  31.343  1.00  0.00     0.012 A 
ATOM     74  C   UNL A   1      38.476  29.892  29.439  1.00  0.00     0.148 A 
ATOM     75  C   UNL A   1      37.936  28.728  31.935  1.00  0.00     0.002 A 
ATOM     76  C   UNL A   1      37.248  30.097  30.059  1.00  0.00     0.091 A 
ATOM     77  F   UNL A   1      38.749  30.402  28.230  1.00  0.00    -0.205 F 
ATOM     78  C   UNL A   1      36.969  29.501  31.299  1.00  0.00     0.022 A 
BRANCH  76  79
ATOM     79  S   UNL A   1      35.993  31.176  29.360  1.00  0.00     0.127 S 
ATOM     80  O   UNL A   1      35.156  31.455  30.523  1.00  0.00    -0.237 OA
ATOM     81  O   UNL A   1      36.792  32.310  28.890  1.00  0.00    -0.237 OA
ATOM     82  O   UNL A   1      35.370  30.405  28.294  1.00  0.00    -0.744 OA
ENDBRANCH  76  79
ENDBRANCH  48  72
BRANCH  60  83
ATOM     83  C   UNL A   1      45.048  33.203  29.090  1.00  0.00     0.023 A 
ATOM     84  C   UNL A   1      45.572  33.537  30.354  1.00  0.00     0.012 A 
ATOM     85  C   UNL A   1      44.890  34.211  28.118  1.00  0.00     0.148 A 
ATOM     86  C   UNL A   1      45.910  34.856  30.654  1.00  0.00     0.002 A 
ATOM     87  C   UNL A   1      45.271  35.516  28.409  1.00  0.00     0.091 A 
ATOM     88  F   UNL A   1      44.373  33.876  26.927  1.00  0.00    -0.205 F 
ATOM     89  C   UNL A   1      45.772  35.841  29.679  1.00  0.00     0.022 A 
BRANCH  87  90
ATOM     90  S   UNL A   1      45.217  36.829  27.184  1.00  0.00     0.127 S 
ATOM     91  O   UNL A   1      46.050  36.275  26.118  1.00  0.00    -0.237 OA
ATOM     92  O   UNL A   1      43.790  36.903  26.868  1.00  0.00    -0.237 OA
ATOM     93  O   UNL A   1      45.748  38.013  27.845  1.00  0.00    -0.744 OA
ENDBRANCH  87  90
ENDBRANCH  60  83
ENDBRANCH  34  35
ENDBRANCH  27  29
ENDBRANCH  26  27
ENDBRANCH  25  26
ENDBRANCH  24  25
ENDBRANCH  23  24
ENDBRANCH   1  23
TORSDOF 21
ENDMDL
