MODEL 1
REMARK VINA RESULT:      -8.8      0.000      0.000
REMARK SMILES C[C@@H](Oc1ccc(/C=C2\C(=O)[NH+]=C(OCCOCCOCCOC(=O)c3ccc(-c4c5nc(c(-c6cccc(S(=O)(=O)[O-])c6F)c6ccc([nH]6)c(-c6cccc(S(=O)(=O)[O-])c6F)c6nc(c(-c7cccc(S(=O)(=O)[O-])c7F)c7ccc4[nH]7)C=C6)C=C5)cc3)N(c3ccc4c(c3)OCO4)C2=O)cc1)C(=O)[O-]
REMARK SMILES IDX 18 1 17 2 16 3 15 4 14 5 13 6 8 7 9 8 10 9 99 10 11 11 12 12
REMARK SMILES IDX 89 13 100 14 7 16 4 17 5 18 102 19 6 20 101 21 3 22 2 23
REMARK SMILES IDX 1 24 103 25 104 26 105 27 90 28 91 29 95 30 92 31 94 32
REMARK SMILES IDX 93 33 96 34 98 35 97 36 19 37 20 38 21 39 22 40 23 41 24 42
REMARK SMILES IDX 25 43 26 44 27 45 88 46 28 47 87 48 29 49 30 50 31 51 81 52
REMARK SMILES IDX 32 53 86 54 80 55 82 56 33 57 85 58 79 59 78 60 34 62 66 63
REMARK SMILES IDX 46 64 65 65 47 66 50 67 64 68 83 69 48 70 49 71 63 73 84 74
REMARK SMILES IDX 51 75 35 76 36 77 44 78 37 79 39 80 45 81 38 82 40 83 41 84
REMARK SMILES IDX 42 85 43 86 67 87 68 88 76 89 69 90 71 91 77 92 70 93 72 94
REMARK SMILES IDX 73 95 74 96 75 97 52 98 53 99 61 100 54 101 56 102 62 103
REMARK SMILES IDX 55 104 57 105 58 106 59 107 60 108
REMARK H PARENT 12 15 82 61 50 72
REMARK Flexibility Score: inf
ROOT
ATOM      1  C   UNL A   1      37.059  33.121  37.629  1.00  0.00     0.188 C 
ENDROOT
BRANCH   1   2
ATOM      2  O   UNL A   1      37.337  32.392  36.439  1.00  0.00    -0.376 OA
BRANCH   2   3
ATOM      3  C   UNL A   1      38.145  31.233  36.640  1.00  0.00     0.202 C 
BRANCH   3   4
ATOM      4  C   UNL A   1      38.762  30.815  35.299  1.00  0.00     0.266 C 
BRANCH   4   5
ATOM      5  O   UNL A   1      37.810  30.373  34.294  1.00  0.00    -0.428 OA
BRANCH   5   6
ATOM      6  C   UNL A   1      38.278  30.077  33.049  1.00  0.00     0.465 C 
ATOM      7  C   UNL A   1      38.977  28.811  29.302  1.00  0.00     0.032 C 
ATOM      8  C   UNL A   1      39.028  29.326  30.551  1.00  0.00     0.155 C 
ATOM      9  C   UNL A   1      39.610  28.726  31.763  1.00  0.00     0.349 C 
ATOM     10  C   UNL A   1      38.426  30.677  30.729  1.00  0.00     0.357 C 
ATOM     11  O   UNL A   1      40.682  28.139  31.747  1.00  0.00    -0.240 OA
ATOM     12  N   UNL A   1      38.950  28.985  32.931  1.00  0.00    -0.171 N 
ATOM     13  N   UNL A   1      38.020  30.968  32.023  1.00  0.00    -0.123 N 
ATOM     14  O   UNL A   1      38.274  31.423  29.763  1.00  0.00    -0.240 OA
ATOM     15  H   UNL A   1      38.988  28.343  33.677  1.00  0.00     0.319 HD
BRANCH   7  16
ATOM     16  C   UNL A   1      39.365  27.529  28.665  1.00  0.00    -0.024 A 
ATOM     17  C   UNL A   1      40.211  25.222  27.253  1.00  0.00     0.120 A 
ATOM     18  C   UNL A   1      39.433  25.101  28.398  1.00  0.00     0.047 A 
ATOM     19  C   UNL A   1      40.556  26.482  26.789  1.00  0.00     0.047 A 
ATOM     20  C   UNL A   1      39.017  26.245  29.098  1.00  0.00     0.012 A 
ATOM     21  C   UNL A   1      40.151  27.619  27.498  1.00  0.00     0.012 A 
BRANCH  17  22
ATOM     22  O   UNL A   1      40.504  24.095  26.540  1.00  0.00    -0.485 OA
BRANCH  22  23
ATOM     23  C   UNL A   1      40.412  22.892  27.317  1.00  0.00     0.216 C 
ATOM     24  C   UNL A   1      41.776  22.480  27.861  1.00  0.00     0.059 C 
BRANCH  23  25
ATOM     25  C   UNL A   1      39.907  21.779  26.406  1.00  0.00     0.082 C 
ATOM     26  O   UNL A   1      40.585  20.889  25.911  1.00  0.00    -0.546 OA
ATOM     27  O   UNL A   1      38.591  21.856  26.109  1.00  0.00    -0.546 OA
ENDBRANCH  23  25
ENDBRANCH  22  23
ENDBRANCH  17  22
ENDBRANCH   7  16
BRANCH  13  28
ATOM     28  C   UNL A   1      37.261  32.158  32.219  1.00  0.00     0.144 A 
ATOM     29  C   UNL A   1      37.916  33.346  32.623  1.00  0.00     0.056 A 
ATOM     30  C   UNL A   1      35.878  32.163  31.985  1.00  0.00     0.103 A 
ATOM     31  C   UNL A   1      37.203  34.533  32.804  1.00  0.00     0.055 A 
ATOM     32  C   UNL A   1      35.211  33.360  32.131  1.00  0.00     0.170 A 
ATOM     33  C   UNL A   1      35.853  34.510  32.534  1.00  0.00     0.166 A 
ATOM     34  O   UNL A   1      33.888  33.569  31.890  1.00  0.00    -0.453 OA
ATOM     35  O   UNL A   1      35.008  35.573  32.608  1.00  0.00    -0.454 OA
ATOM     36  C   UNL A   1      33.828  35.008  32.001  1.00  0.00     0.468 C 
ENDBRANCH  13  28
ENDBRANCH   5   6
ENDBRANCH   4   5
ENDBRANCH   3   4
ENDBRANCH   2   3
ENDBRANCH   1   2
BRANCH   1  37
ATOM     37  C   UNL A   1      37.875  32.760  38.874  1.00  0.00     0.188 C 
BRANCH  37  38
ATOM     38  O   UNL A   1      37.660  33.530  40.048  1.00  0.00    -0.376 OA
BRANCH  38  39
ATOM     39  C   UNL A   1      38.805  34.129  40.659  1.00  0.00     0.202 C 
BRANCH  39  40
ATOM     40  C   UNL A   1      40.124  33.975  39.898  1.00  0.00     0.261 C 
BRANCH  40  41
ATOM     41  O   UNL A   1      40.662  35.273  39.572  1.00  0.00    -0.460 OA
BRANCH  41  42
ATOM     42  C   UNL A   1      40.123  35.900  38.502  1.00  0.00     0.338 C 
ATOM     43  O   UNL A   1      39.298  36.797  38.513  1.00  0.00    -0.246 OA
BRANCH  42  44
ATOM     44  C   UNL A   1      40.725  35.377  37.262  1.00  0.00     0.060 A 
ATOM     45  C   UNL A   1      39.884  34.815  36.293  1.00  0.00     0.016 A 
ATOM     46  C   UNL A   1      42.114  35.328  37.115  1.00  0.00     0.016 A 
ATOM     47  C   UNL A   1      40.437  34.158  35.191  1.00  0.00     0.010 A 
ATOM     48  C   UNL A   1      42.663  34.662  36.019  1.00  0.00     0.010 A 
ATOM     49  C   UNL A   1      41.828  34.043  35.074  1.00  0.00    -0.014 A 
BRANCH  49  50
ATOM     50  C   UNL A   1      42.435  33.163  34.046  1.00  0.00     0.031 A 
ATOM     51  C   UNL A   1      42.657  33.703  32.662  1.00  0.00     0.074 A 
ATOM     52  C   UNL A   1      42.703  31.876  34.321  1.00  0.00     0.049 A 
ATOM     53  N   UNL A   1      43.063  33.081  31.587  1.00  0.00    -0.248 NA
ATOM     54  C   UNL A   1      42.369  35.134  32.460  1.00  0.00     0.031 C 
ATOM     55  C   UNL A   1      42.493  31.234  35.614  1.00  0.00     0.029 A 
ATOM     56  N   UNL A   1      43.160  30.866  33.511  1.00  0.00    -0.354 N 
ATOM     57  C   UNL A   1      43.055  34.031  30.576  1.00  0.00     0.074 A 
ATOM     58  C   UNL A   1      42.601  35.274  31.162  1.00  0.00     0.031 C 
ATOM     59  C   UNL A   1      42.773  29.925  35.503  1.00  0.00     0.029 A 
ATOM     60  C   UNL A   1      43.158  29.635  34.123  1.00  0.00     0.049 A 
ATOM     61  H   UNL A   1      43.460  31.009  32.584  1.00  0.00     0.167 HD
ATOM     62  C   UNL A   1      43.410  33.888  29.277  1.00  0.00     0.034 A 
ATOM     63  C   UNL A   1      43.401  28.409  33.619  1.00  0.00     0.034 A 
ATOM     64  C   UNL A   1      43.880  32.660  28.697  1.00  0.00     0.049 A 
ATOM     65  C   UNL A   1      43.794  28.271  32.172  1.00  0.00     0.074 A 
ATOM     66  C   UNL A   1      44.323  32.428  27.408  1.00  0.00     0.029 A 
ATOM     67  N   UNL A   1      43.954  31.450  29.370  1.00  0.00    -0.354 N 
ATOM     68  N   UNL A   1      43.928  29.207  31.264  1.00  0.00    -0.248 NA
ATOM     69  C   UNL A   1      44.097  26.916  31.688  1.00  0.00     0.031 C 
ATOM     70  C   UNL A   1      44.664  31.075  27.299  1.00  0.00     0.029 A 
ATOM     71  C   UNL A   1      44.431  30.465  28.522  1.00  0.00     0.049 A 
ATOM     72  H   UNL A   1      43.704  31.311  30.312  1.00  0.00     0.167 HD
ATOM     73  C   UNL A   1      44.352  28.560  30.108  1.00  0.00     0.074 A 
ATOM     74  C   UNL A   1      44.472  27.154  30.438  1.00  0.00     0.031 C 
ATOM     75  C   UNL A   1      44.600  29.080  28.881  1.00  0.00     0.034 A 
BRANCH  62  76
ATOM     76  C   UNL A   1      43.352  35.114  28.409  1.00  0.00     0.023 A 
ATOM     77  C   UNL A   1      42.113  35.509  27.866  1.00  0.00     0.012 A 
ATOM     78  C   UNL A   1      44.498  35.887  28.152  1.00  0.00     0.148 A 
ATOM     79  C   UNL A   1      42.021  36.644  27.061  1.00  0.00     0.002 A 
ATOM     80  C   UNL A   1      44.393  37.034  27.371  1.00  0.00     0.091 A 
ATOM     81  F   UNL A   1      45.677  35.479  28.647  1.00  0.00    -0.205 F 
ATOM     82  C   UNL A   1      43.159  37.410  26.820  1.00  0.00     0.022 A 
BRANCH  80  83
ATOM     83  S   UNL A   1      45.814  38.092  27.071  1.00  0.00     0.127 S 
ATOM     84  O   UNL A   1      46.679  37.216  26.283  1.00  0.00    -0.237 OA
ATOM     85  O   UNL A   1      45.233  39.207  26.321  1.00  0.00    -0.237 OA
ATOM     86  O   UNL A   1      46.302  38.455  28.395  1.00  0.00    -0.744 OA
ENDBRANCH  80  83
ENDBRANCH  62  76
BRANCH  63  87
ATOM     87  C   UNL A   1      43.315  27.224  34.516  1.00  0.00     0.023 A 
ATOM     88  C   UNL A   1      42.070  26.598  34.712  1.00  0.00     0.012 A 
ATOM     89  C   UNL A   1      44.466  26.675  35.116  1.00  0.00     0.148 A 
ATOM     90  C   UNL A   1      41.970  25.451  35.499  1.00  0.00     0.002 A 
ATOM     91  C   UNL A   1      44.367  25.504  35.859  1.00  0.00     0.091 A 
ATOM     92  F   UNL A   1      45.638  27.298  34.931  1.00  0.00    -0.205 F 
ATOM     93  C   UNL A   1      43.117  24.897  36.061  1.00  0.00     0.022 A 
BRANCH  91  94
ATOM     94  S   UNL A   1      45.805  24.652  36.518  1.00  0.00     0.127 S 
ATOM     95  O   UNL A   1      46.592  24.419  35.311  1.00  0.00    -0.237 OA
ATOM     96  O   UNL A   1      46.361  25.652  37.430  1.00  0.00    -0.237 OA
ATOM     97  O   UNL A   1      45.291  23.459  37.177  1.00  0.00    -0.744 OA
ENDBRANCH  91  94
ENDBRANCH  63  87
BRANCH  75  98
ATOM     98  C   UNL A   1      45.040  28.135  27.795  1.00  0.00     0.023 A 
ATOM     99  C   UNL A   1      44.067  27.445  27.048  1.00  0.00     0.012 A 
ATOM    100  C   UNL A   1      46.400  28.002  27.454  1.00  0.00     0.148 A 
ATOM    101  C   UNL A   1      44.441  26.624  25.984  1.00  0.00     0.002 A 
ATOM    102  C   UNL A   1      46.763  27.208  26.371  1.00  0.00     0.091 A 
ATOM    103  F   UNL A   1      47.314  28.647  28.193  1.00  0.00    -0.205 F 
ATOM    104  C   UNL A   1      45.787  26.515  25.639  1.00  0.00     0.022 A 
BRANCH 102 105
ATOM    105  S   UNL A   1      48.470  27.087  25.819  1.00  0.00     0.127 S 
ATOM    106  O   UNL A   1      49.119  26.485  26.981  1.00  0.00    -0.237 OA
ATOM    107  O   UNL A   1      48.367  26.208  24.653  1.00  0.00    -0.237 OA
ATOM    108  O   UNL A   1      48.872  28.452  25.502  1.00  0.00    -0.744 OA
ENDBRANCH 102 105
ENDBRANCH  75  98
ENDBRANCH  49  50
ENDBRANCH  42  44
ENDBRANCH  41  42
ENDBRANCH  40  41
ENDBRANCH  39  40
ENDBRANCH  38  39
ENDBRANCH  37  38
ENDBRANCH   1  37
TORSDOF 24
ENDMDL
MODEL 2
REMARK VINA RESULT:      -6.8      3.573      8.706
REMARK SMILES C[C@@H](Oc1ccc(/C=C2\C(=O)[NH+]=C(OCCOCCOCCOC(=O)c3ccc(-c4c5nc(c(-c6cccc(S(=O)(=O)[O-])c6F)c6ccc([nH]6)c(-c6cccc(S(=O)(=O)[O-])c6F)c6nc(c(-c7cccc(S(=O)(=O)[O-])c7F)c7ccc4[nH]7)C=C6)C=C5)cc3)N(c3ccc4c(c3)OCO4)C2=O)cc1)C(=O)[O-]
REMARK SMILES IDX 18 1 17 2 16 3 15 4 14 5 13 6 8 7 9 8 10 9 99 10 11 11 12 12
REMARK SMILES IDX 89 13 100 14 7 16 4 17 5 18 102 19 6 20 101 21 3 22 2 23
REMARK SMILES IDX 1 24 103 25 104 26 105 27 90 28 91 29 95 30 92 31 94 32
REMARK SMILES IDX 93 33 96 34 98 35 97 36 19 37 20 38 21 39 22 40 23 41 24 42
REMARK SMILES IDX 25 43 26 44 27 45 88 46 28 47 87 48 29 49 30 50 31 51 81 52
REMARK SMILES IDX 32 53 86 54 80 55 82 56 33 57 85 58 79 59 78 60 34 62 66 63
REMARK SMILES IDX 46 64 65 65 47 66 50 67 64 68 83 69 48 70 49 71 63 73 84 74
REMARK SMILES IDX 51 75 35 76 36 77 44 78 37 79 39 80 45 81 38 82 40 83 41 84
REMARK SMILES IDX 42 85 43 86 67 87 68 88 76 89 69 90 71 91 77 92 70 93 72 94
REMARK SMILES IDX 73 95 74 96 75 97 52 98 53 99 61 100 54 101 56 102 62 103
REMARK SMILES IDX 55 104 57 105 58 106 59 107 60 108
REMARK H PARENT 12 15 82 61 50 72
REMARK Flexibility Score: inf
ROOT
ATOM      1  C   UNL A   1      38.602  34.028  35.223  1.00  0.00     0.188 C 
ENDROOT
BRANCH   1   2
ATOM      2  O   UNL A   1      39.608  33.066  35.519  1.00  0.00    -0.376 OA
BRANCH   2   3
ATOM      3  C   UNL A   1      39.677  32.699  36.897  1.00  0.00     0.202 C 
BRANCH   3   4
ATOM      4  C   UNL A   1      41.139  32.417  37.266  1.00  0.00     0.266 C 
BRANCH   4   5
ATOM      5  O   UNL A   1      41.747  31.299  36.564  1.00  0.00    -0.428 OA
BRANCH   5   6
ATOM      6  C   UNL A   1      42.495  31.564  35.456  1.00  0.00     0.465 C 
ATOM      7  C   UNL A   1      45.288  32.453  32.710  1.00  0.00     0.032 C 
ATOM      8  C   UNL A   1      44.160  32.174  33.402  1.00  0.00     0.155 C 
ATOM      9  C   UNL A   1      43.130  33.108  33.887  1.00  0.00     0.349 C 
ATOM     10  C   UNL A   1      43.918  30.736  33.709  1.00  0.00     0.357 C 
ATOM     11  O   UNL A   1      42.719  34.034  33.203  1.00  0.00    -0.240 OA
ATOM     12  N   UNL A   1      42.564  32.797  35.090  1.00  0.00    -0.171 N 
ATOM     13  N   UNL A   1      43.099  30.504  34.804  1.00  0.00    -0.123 N 
ATOM     14  O   UNL A   1      44.466  29.857  33.046  1.00  0.00    -0.240 OA
ATOM     15  H   UNL A   1      42.210  33.508  35.672  1.00  0.00     0.319 HD
BRANCH   7  16
ATOM     16  C   UNL A   1      45.970  33.685  32.244  1.00  0.00    -0.024 A 
ATOM     17  C   UNL A   1      47.047  36.165  31.392  1.00  0.00     0.120 A 
ATOM     18  C   UNL A   1      47.792  34.998  31.281  1.00  0.00     0.047 A 
ATOM     19  C   UNL A   1      45.759  36.109  31.904  1.00  0.00     0.047 A 
ATOM     20  C   UNL A   1      47.258  33.770  31.706  1.00  0.00     0.012 A 
ATOM     21  C   UNL A   1      45.237  34.885  32.340  1.00  0.00     0.012 A 
BRANCH  17  22
ATOM     22  O   UNL A   1      47.555  37.318  30.870  1.00  0.00    -0.485 OA
BRANCH  22  23
ATOM     23  C   UNL A   1      47.143  38.494  31.583  1.00  0.00     0.216 C 
ATOM     24  C   UNL A   1      46.943  39.672  30.636  1.00  0.00     0.059 C 
BRANCH  23  25
ATOM     25  C   UNL A   1      48.247  38.859  32.569  1.00  0.00     0.082 C 
ATOM     26  O   UNL A   1      49.412  38.494  32.515  1.00  0.00    -0.546 OA
ATOM     27  O   UNL A   1      47.836  39.618  33.609  1.00  0.00    -0.546 OA
ENDBRANCH  23  25
ENDBRANCH  22  23
ENDBRANCH  17  22
ENDBRANCH   7  16
BRANCH  13  28
ATOM     28  C   UNL A   1      42.990  29.162  35.268  1.00  0.00     0.144 A 
ATOM     29  C   UNL A   1      43.942  28.660  36.187  1.00  0.00     0.056 A 
ATOM     30  C   UNL A   1      41.929  28.349  34.842  1.00  0.00     0.103 A 
ATOM     31  C   UNL A   1      43.851  27.355  36.675  1.00  0.00     0.055 A 
ATOM     32  C   UNL A   1      41.842  27.081  35.376  1.00  0.00     0.170 A 
ATOM     33  C   UNL A   1      42.779  26.597  36.262  1.00  0.00     0.166 A 
ATOM     34  O   UNL A   1      40.855  26.179  35.127  1.00  0.00    -0.453 OA
ATOM     35  O   UNL A   1      42.499  25.328  36.664  1.00  0.00    -0.454 OA
ATOM     36  C   UNL A   1      41.180  25.164  36.103  1.00  0.00     0.468 C 
ENDBRANCH  13  28
ENDBRANCH   5   6
ENDBRANCH   4   5
ENDBRANCH   3   4
ENDBRANCH   2   3
ENDBRANCH   1   2
BRANCH   1  37
ATOM     37  C   UNL A   1      38.559  34.575  33.793  1.00  0.00     0.188 C 
BRANCH  37  38
ATOM     38  O   UNL A   1      37.338  34.449  33.077  1.00  0.00    -0.376 OA
BRANCH  38  39
ATOM     39  C   UNL A   1      36.240  33.834  33.755  1.00  0.00     0.202 C 
BRANCH  39  40
ATOM     40  C   UNL A   1      35.577  32.664  33.024  1.00  0.00     0.261 C 
BRANCH  40  41
ATOM     41  O   UNL A   1      36.347  32.308  31.858  1.00  0.00    -0.460 OA
BRANCH  41  42
ATOM     42  C   UNL A   1      36.842  31.050  31.820  1.00  0.00     0.338 C 
ATOM     43  O   UNL A   1      36.243  30.015  32.057  1.00  0.00    -0.246 OA
BRANCH  42  44
ATOM     44  C   UNL A   1      38.249  31.082  31.382  1.00  0.00     0.060 A 
ATOM     45  C   UNL A   1      39.246  31.294  32.342  1.00  0.00     0.016 A 
ATOM     46  C   UNL A   1      38.569  31.027  30.023  1.00  0.00     0.016 A 
ATOM     47  C   UNL A   1      40.567  31.501  31.937  1.00  0.00     0.010 A 
ATOM     48  C   UNL A   1      39.887  31.244  29.621  1.00  0.00     0.010 A 
ATOM     49  C   UNL A   1      40.884  31.520  30.573  1.00  0.00    -0.014 A 
BRANCH  49  50
ATOM     50  C   UNL A   1      42.221  31.959  30.108  1.00  0.00     0.031 A 
ATOM     51  C   UNL A   1      42.451  33.414  29.818  1.00  0.00     0.074 A 
ATOM     52  C   UNL A   1      43.189  31.059  29.865  1.00  0.00     0.049 A 
ATOM     53  N   UNL A   1      43.499  33.998  29.297  1.00  0.00    -0.248 NA
ATOM     54  C   UNL A   1      41.349  34.334  30.147  1.00  0.00     0.031 C 
ATOM     55  C   UNL A   1      43.066  29.620  30.072  1.00  0.00     0.029 A 
ATOM     56  N   UNL A   1      44.447  31.221  29.340  1.00  0.00    -0.354 N 
ATOM     57  C   UNL A   1      43.175  35.345  29.209  1.00  0.00     0.074 A 
ATOM     58  C   UNL A   1      41.833  35.495  29.728  1.00  0.00     0.031 C 
ATOM     59  C   UNL A   1      44.184  29.018  29.634  1.00  0.00     0.029 A 
ATOM     60  C   UNL A   1      45.090  30.031  29.093  1.00  0.00     0.049 A 
ATOM     61  H   UNL A   1      44.850  32.101  29.159  1.00  0.00     0.167 HD
ATOM     62  C   UNL A   1      43.933  36.369  28.753  1.00  0.00     0.034 A 
ATOM     63  C   UNL A   1      46.257  29.783  28.468  1.00  0.00     0.034 A 
ATOM     64  C   UNL A   1      45.274  36.225  28.255  1.00  0.00     0.049 A 
ATOM     65  C   UNL A   1      47.086  30.936  27.967  1.00  0.00     0.074 A 
ATOM     66  C   UNL A   1      46.147  37.210  27.830  1.00  0.00     0.029 A 
ATOM     67  N   UNL A   1      45.931  35.014  28.104  1.00  0.00    -0.354 N 
ATOM     68  N   UNL A   1      46.830  32.220  28.030  1.00  0.00    -0.248 NA
ATOM     69  C   UNL A   1      48.374  30.610  27.337  1.00  0.00     0.031 C 
ATOM     70  C   UNL A   1      47.334  36.593  27.418  1.00  0.00     0.029 A 
ATOM     71  C   UNL A   1      47.197  35.224  27.587  1.00  0.00     0.049 A 
ATOM     72  H   UNL A   1      45.553  34.133  28.332  1.00  0.00     0.167 HD
ATOM     73  C   UNL A   1      47.932  32.858  27.470  1.00  0.00     0.074 A 
ATOM     74  C   UNL A   1      48.867  31.817  27.092  1.00  0.00     0.031 C 
ATOM     75  C   UNL A   1      48.141  34.182  27.270  1.00  0.00     0.034 A 
BRANCH  62  76
ATOM     76  C   UNL A   1      43.340  37.749  28.824  1.00  0.00     0.023 A 
ATOM     77  C   UNL A   1      43.506  38.504  30.002  1.00  0.00     0.012 A 
ATOM     78  C   UNL A   1      42.650  38.309  27.734  1.00  0.00     0.148 A 
ATOM     79  C   UNL A   1      42.975  39.789  30.102  1.00  0.00     0.002 A 
ATOM     80  C   UNL A   1      42.147  39.603  27.831  1.00  0.00     0.091 A 
ATOM     81  F   UNL A   1      42.470  37.566  26.632  1.00  0.00    -0.205 F 
ATOM     82  C   UNL A   1      42.302  40.341  29.014  1.00  0.00     0.022 A 
BRANCH  80  83
ATOM     83  S   UNL A   1      41.319  40.389  26.444  1.00  0.00     0.127 S 
ATOM     84  O   UNL A   1      42.426  41.075  25.782  1.00  0.00    -0.237 OA
ATOM     85  O   UNL A   1      40.780  39.249  25.701  1.00  0.00    -0.237 OA
ATOM     86  O   UNL A   1      40.301  41.242  27.045  1.00  0.00    -0.744 OA
ENDBRANCH  80  83
ENDBRANCH  62  76
BRANCH  63  87
ATOM     87  C   UNL A   1      46.720  28.375  28.322  1.00  0.00     0.023 A 
ATOM     88  C   UNL A   1      47.467  27.786  29.359  1.00  0.00     0.012 A 
ATOM     89  C   UNL A   1      46.365  27.600  27.200  1.00  0.00     0.148 A 
ATOM     90  C   UNL A   1      47.863  26.450  29.277  1.00  0.00     0.002 A 
ATOM     91  C   UNL A   1      46.721  26.257  27.147  1.00  0.00     0.091 A 
ATOM     92  F   UNL A   1      45.670  28.187  26.217  1.00  0.00    -0.205 F 
ATOM     93  C   UNL A   1      47.479  25.683  28.179  1.00  0.00     0.022 A 
BRANCH  91  94
ATOM     94  S   UNL A   1      46.168  25.161  25.834  1.00  0.00     0.127 S 
ATOM     95  O   UNL A   1      46.694  25.829  24.647  1.00  0.00    -0.237 OA
ATOM     96  O   UNL A   1      46.839  23.908  26.181  1.00  0.00    -0.237 OA
ATOM     97  O   UNL A   1      44.717  25.115  25.943  1.00  0.00    -0.744 OA
ENDBRANCH  91  94
ENDBRANCH  63  87
BRANCH  75  98
ATOM     98  C   UNL A   1      49.435  34.597  26.622  1.00  0.00     0.023 A 
ATOM     99  C   UNL A   1      49.468  34.823  25.234  1.00  0.00     0.012 A 
ATOM    100  C   UNL A   1      50.585  34.852  27.395  1.00  0.00     0.148 A 
ATOM    101  C   UNL A   1      50.632  35.285  24.619  1.00  0.00     0.002 A 
ATOM    102  C   UNL A   1      51.731  35.344  26.780  1.00  0.00     0.091 A 
ATOM    103  F   UNL A   1      50.542  34.607  28.712  1.00  0.00    -0.205 F 
ATOM    104  C   UNL A   1      51.758  35.556  25.392  1.00  0.00     0.022 A 
BRANCH 102 105
ATOM    105  S   UNL A   1      53.192  35.793  27.726  1.00  0.00     0.127 S 
ATOM    106  O   UNL A   1      54.127  36.179  26.672  1.00  0.00    -0.237 OA
ATOM    107  O   UNL A   1      52.710  36.902  28.551  1.00  0.00    -0.237 OA
ATOM    108  O   UNL A   1      53.546  34.598  28.483  1.00  0.00    -0.744 OA
ENDBRANCH 102 105
ENDBRANCH  75  98
ENDBRANCH  49  50
ENDBRANCH  42  44
ENDBRANCH  41  42
ENDBRANCH  40  41
ENDBRANCH  39  40
ENDBRANCH  38  39
ENDBRANCH  37  38
ENDBRANCH   1  37
TORSDOF 24
ENDMDL
MODEL 3
REMARK VINA RESULT:      -6.7      6.754     11.922
REMARK SMILES C[C@@H](Oc1ccc(/C=C2\C(=O)[NH+]=C(OCCOCCOCCOC(=O)c3ccc(-c4c5nc(c(-c6cccc(S(=O)(=O)[O-])c6F)c6ccc([nH]6)c(-c6cccc(S(=O)(=O)[O-])c6F)c6nc(c(-c7cccc(S(=O)(=O)[O-])c7F)c7ccc4[nH]7)C=C6)C=C5)cc3)N(c3ccc4c(c3)OCO4)C2=O)cc1)C(=O)[O-]
REMARK SMILES IDX 18 1 17 2 16 3 15 4 14 5 13 6 8 7 9 8 10 9 99 10 11 11 12 12
REMARK SMILES IDX 89 13 100 14 7 16 4 17 5 18 102 19 6 20 101 21 3 22 2 23
REMARK SMILES IDX 1 24 103 25 104 26 105 27 90 28 91 29 95 30 92 31 94 32
REMARK SMILES IDX 93 33 96 34 98 35 97 36 19 37 20 38 21 39 22 40 23 41 24 42
REMARK SMILES IDX 25 43 26 44 27 45 88 46 28 47 87 48 29 49 30 50 31 51 81 52
REMARK SMILES IDX 32 53 86 54 80 55 82 56 33 57 85 58 79 59 78 60 34 62 66 63
REMARK SMILES IDX 46 64 65 65 47 66 50 67 64 68 83 69 48 70 49 71 63 73 84 74
REMARK SMILES IDX 51 75 35 76 36 77 44 78 37 79 39 80 45 81 38 82 40 83 41 84
REMARK SMILES IDX 42 85 43 86 67 87 68 88 76 89 69 90 71 91 77 92 70 93 72 94
REMARK SMILES IDX 73 95 74 96 75 97 52 98 53 99 61 100 54 101 56 102 62 103
REMARK SMILES IDX 55 104 57 105 58 106 59 107 60 108
REMARK H PARENT 12 15 82 61 50 72
REMARK Flexibility Score: inf
ROOT
ATOM      1  C   UNL A   1      38.524  28.543  30.359  1.00  0.00     0.188 C 
ENDROOT
BRANCH   1   2
ATOM      2  O   UNL A   1      38.158  28.972  31.665  1.00  0.00    -0.376 OA
BRANCH   2   3
ATOM      3  C   UNL A   1      38.707  30.236  32.038  1.00  0.00     0.202 C 
BRANCH   3   4
ATOM      4  C   UNL A   1      38.179  31.312  31.080  1.00  0.00     0.266 C 
BRANCH   4   5
ATOM      5  O   UNL A   1      36.734  31.473  31.070  1.00  0.00    -0.428 OA
BRANCH   5   6
ATOM      6  C   UNL A   1      36.069  31.246  29.903  1.00  0.00     0.465 C 
ATOM      7  C   UNL A   1      33.672  30.079  26.899  1.00  0.00     0.032 C 
ATOM      8  C   UNL A   1      34.635  30.603  27.690  1.00  0.00     0.155 C 
ATOM      9  C   UNL A   1      36.003  30.108  27.915  1.00  0.00     0.349 C 
ATOM     10  C   UNL A   1      34.273  31.847  28.427  1.00  0.00     0.357 C 
ATOM     11  O   UNL A   1      36.702  29.692  27.002  1.00  0.00    -0.240 OA
ATOM     12  N   UNL A   1      36.494  30.269  29.179  1.00  0.00    -0.171 N 
ATOM     13  N   UNL A   1      35.015  32.080  29.576  1.00  0.00    -0.123 N 
ATOM     14  O   UNL A   1      33.346  32.554  28.037  1.00  0.00    -0.240 OA
ATOM     15  H   UNL A   1      37.168  29.645  29.534  1.00  0.00     0.319 HD
BRANCH   7  16
ATOM     16  C   UNL A   1      33.534  28.868  26.054  1.00  0.00    -0.024 A 
ATOM     17  C   UNL A   1      33.211  26.423  24.657  1.00  0.00     0.120 A 
ATOM     18  C   UNL A   1      33.685  27.552  24.001  1.00  0.00     0.047 A 
ATOM     19  C   UNL A   1      32.916  26.491  26.011  1.00  0.00     0.047 A 
ATOM     20  C   UNL A   1      33.842  28.763  24.693  1.00  0.00     0.012 A 
ATOM     21  C   UNL A   1      33.060  27.705  26.693  1.00  0.00     0.012 A 
BRANCH  17  22
ATOM     22  O   UNL A   1      33.175  25.238  23.980  1.00  0.00    -0.485 OA
BRANCH  22  23
ATOM     23  C   UNL A   1      32.241  25.237  22.889  1.00  0.00     0.216 C 
ATOM     24  C   UNL A   1      31.172  24.167  23.081  1.00  0.00     0.059 C 
BRANCH  23  25
ATOM     25  C   UNL A   1      33.008  24.920  21.611  1.00  0.00     0.082 C 
ATOM     26  O   UNL A   1      32.987  25.571  20.577  1.00  0.00    -0.546 OA
ATOM     27  O   UNL A   1      33.724  23.775  21.661  1.00  0.00    -0.546 OA
ENDBRANCH  23  25
ENDBRANCH  22  23
ENDBRANCH  17  22
ENDBRANCH   7  16
BRANCH  13  28
ATOM     28  C   UNL A   1      34.589  33.140  30.427  1.00  0.00     0.144 A 
ATOM     29  C   UNL A   1      34.725  33.008  31.830  1.00  0.00     0.056 A 
ATOM     30  C   UNL A   1      34.066  34.321  29.880  1.00  0.00     0.103 A 
ATOM     31  C   UNL A   1      34.336  34.037  32.689  1.00  0.00     0.055 A 
ATOM     32  C   UNL A   1      33.732  35.335  30.753  1.00  0.00     0.170 A 
ATOM     33  C   UNL A   1      33.858  35.195  32.117  1.00  0.00     0.166 A 
ATOM     34  O   UNL A   1      33.270  36.566  30.403  1.00  0.00    -0.453 OA
ATOM     35  O   UNL A   1      33.476  36.315  32.787  1.00  0.00    -0.454 OA
ATOM     36  C   UNL A   1      33.309  37.231  31.685  1.00  0.00     0.468 C 
ENDBRANCH  13  28
ENDBRANCH   5   6
ENDBRANCH   4   5
ENDBRANCH   3   4
ENDBRANCH   2   3
ENDBRANCH   1   2
BRANCH   1  37
ATOM     37  C   UNL A   1      39.726  27.600  30.245  1.00  0.00     0.188 C 
BRANCH  37  38
ATOM     38  O   UNL A   1      40.301  27.420  28.959  1.00  0.00    -0.376 OA
BRANCH  38  39
ATOM     39  C   UNL A   1      40.161  26.134  28.352  1.00  0.00     0.202 C 
BRANCH  39  40
ATOM     40  C   UNL A   1      41.423  25.269  28.323  1.00  0.00     0.261 C 
BRANCH  40  41
ATOM     41  O   UNL A   1      42.370  25.804  27.376  1.00  0.00    -0.460 OA
BRANCH  41  42
ATOM     42  C   UNL A   1      43.099  24.906  26.676  1.00  0.00     0.338 C 
ATOM     43  O   UNL A   1      42.684  24.075  25.887  1.00  0.00    -0.246 OA
BRANCH  42  44
ATOM     44  C   UNL A   1      44.533  25.102  26.956  1.00  0.00     0.060 A 
ATOM     45  C   UNL A   1      44.979  26.381  27.310  1.00  0.00     0.016 A 
ATOM     46  C   UNL A   1      45.443  24.062  26.749  1.00  0.00     0.016 A 
ATOM     47  C   UNL A   1      46.349  26.634  27.413  1.00  0.00     0.010 A 
ATOM     48  C   UNL A   1      46.811  24.320  26.841  1.00  0.00     0.010 A 
ATOM     49  C   UNL A   1      47.270  25.615  27.136  1.00  0.00    -0.014 A 
BRANCH  49  50
ATOM     50  C   UNL A   1      48.717  25.910  27.014  1.00  0.00     0.031 A 
ATOM     51  C   UNL A   1      49.570  25.905  28.251  1.00  0.00     0.074 A 
ATOM     52  C   UNL A   1      49.246  26.262  25.830  1.00  0.00     0.049 A 
ATOM     53  N   UNL A   1      50.824  26.243  28.392  1.00  0.00    -0.248 NA
ATOM     54  C   UNL A   1      48.917  25.472  29.498  1.00  0.00     0.031 C 
ATOM     55  C   UNL A   1      48.508  26.339  24.574  1.00  0.00     0.029 A 
ATOM     56  N   UNL A   1      50.515  26.672  25.505  1.00  0.00    -0.354 N 
ATOM     57  C   UNL A   1      51.106  26.093  29.742  1.00  0.00     0.074 A 
ATOM     58  C   UNL A   1      49.892  25.634  30.382  1.00  0.00     0.031 C 
ATOM     59  C   UNL A   1      49.322  26.817  23.618  1.00  0.00     0.029 A 
ATOM     60  C   UNL A   1      50.630  27.103  24.204  1.00  0.00     0.049 A 
ATOM     61  H   UNL A   1      51.268  26.659  26.139  1.00  0.00     0.167 HD
ATOM     62  C   UNL A   1      52.276  26.301  30.391  1.00  0.00     0.034 A 
ATOM     63  C   UNL A   1      51.660  27.695  23.569  1.00  0.00     0.034 A 
ATOM     64  C   UNL A   1      53.488  26.738  29.754  1.00  0.00     0.049 A 
ATOM     65  C   UNL A   1      52.953  27.918  24.308  1.00  0.00     0.074 A 
ATOM     66  C   UNL A   1      54.740  26.917  30.313  1.00  0.00     0.029 A 
ATOM     67  N   UNL A   1      53.595  27.077  28.415  1.00  0.00    -0.354 N 
ATOM     68  N   UNL A   1      53.249  27.628  25.552  1.00  0.00    -0.248 NA
ATOM     69  C   UNL A   1      54.060  28.522  23.552  1.00  0.00     0.031 C 
ATOM     70  C   UNL A   1      55.606  27.368  29.310  1.00  0.00     0.029 A 
ATOM     71  C   UNL A   1      54.890  27.471  28.128  1.00  0.00     0.049 A 
ATOM     72  H   UNL A   1      52.857  27.044  27.762  1.00  0.00     0.167 HD
ATOM     73  C   UNL A   1      54.581  27.992  25.723  1.00  0.00     0.074 A 
ATOM     74  C   UNL A   1      55.039  28.505  24.447  1.00  0.00     0.031 C 
ATOM     75  C   UNL A   1      55.347  27.924  26.838  1.00  0.00     0.034 A 
BRANCH  62  76
ATOM     76  C   UNL A   1      52.307  26.004  31.865  1.00  0.00     0.023 A 
ATOM     77  C   UNL A   1      52.659  24.708  32.293  1.00  0.00     0.012 A 
ATOM     78  C   UNL A   1      52.022  26.996  32.820  1.00  0.00     0.148 A 
ATOM     79  C   UNL A   1      52.704  24.399  33.652  1.00  0.00     0.002 A 
ATOM     80  C   UNL A   1      52.097  26.686  34.175  1.00  0.00     0.091 A 
ATOM     81  F   UNL A   1      51.655  28.214  32.397  1.00  0.00    -0.205 F 
ATOM     82  C   UNL A   1      52.431  25.389  34.592  1.00  0.00     0.022 A 
BRANCH  80  83
ATOM     83  S   UNL A   1      51.809  27.934  35.435  1.00  0.00     0.127 S 
ATOM     84  O   UNL A   1      50.365  28.134  35.334  1.00  0.00    -0.237 OA
ATOM     85  O   UNL A   1      52.246  27.263  36.660  1.00  0.00    -0.237 OA
ATOM     86  O   UNL A   1      52.643  29.065  35.045  1.00  0.00    -0.744 OA
ENDBRANCH  80  83
ENDBRANCH  62  76
BRANCH  63  87
ATOM     87  C   UNL A   1      51.509  28.077  22.137  1.00  0.00     0.023 A 
ATOM     88  C   UNL A   1      51.141  29.396  21.813  1.00  0.00     0.012 A 
ATOM     89  C   UNL A   1      51.796  27.165  21.102  1.00  0.00     0.148 A 
ATOM     90  C   UNL A   1      51.050  29.799  20.481  1.00  0.00     0.002 A 
ATOM     91  C   UNL A   1      51.750  27.586  19.778  1.00  0.00     0.091 A 
ATOM     92  F   UNL A   1      52.126  25.910  21.434  1.00  0.00    -0.205 F 
ATOM     93  C   UNL A   1      51.367  28.900  19.465  1.00  0.00     0.022 A 
BRANCH  91  94
ATOM     94  S   UNL A   1      52.259  26.536  18.411  1.00  0.00     0.127 S 
ATOM     95  O   UNL A   1      51.481  25.326  18.658  1.00  0.00    -0.237 OA
ATOM     96  O   UNL A   1      51.829  27.317  17.251  1.00  0.00    -0.237 OA
ATOM     97  O   UNL A   1      53.703  26.396  18.537  1.00  0.00    -0.744 OA
ENDBRANCH  91  94
ENDBRANCH  63  87
BRANCH  75  98
ATOM     98  C   UNL A   1      56.770  28.404  26.741  1.00  0.00     0.023 A 
ATOM     99  C   UNL A   1      57.772  27.507  26.327  1.00  0.00     0.012 A 
ATOM    100  C   UNL A   1      57.099  29.755  26.969  1.00  0.00     0.148 A 
ATOM    101  C   UNL A   1      59.086  27.944  26.152  1.00  0.00     0.002 A 
ATOM    102  C   UNL A   1      58.403  30.190  26.759  1.00  0.00     0.091 A 
ATOM    103  F   UNL A   1      56.136  30.589  27.387  1.00  0.00    -0.205 F 
ATOM    104  C   UNL A   1      59.398  29.286  26.357  1.00  0.00     0.022 A 
BRANCH 102 105
ATOM    105  S   UNL A   1      58.859  31.921  26.925  1.00  0.00     0.127 S 
ATOM    106  O   UNL A   1      58.591  32.169  28.340  1.00  0.00    -0.237 OA
ATOM    107  O   UNL A   1      60.278  31.915  26.564  1.00  0.00    -0.237 OA
ATOM    108  O   UNL A   1      58.009  32.638  25.982  1.00  0.00    -0.744 OA
ENDBRANCH 102 105
ENDBRANCH  75  98
ENDBRANCH  49  50
ENDBRANCH  42  44
ENDBRANCH  41  42
ENDBRANCH  40  41
ENDBRANCH  39  40
ENDBRANCH  38  39
ENDBRANCH  37  38
ENDBRANCH   1  37
TORSDOF 24
ENDMDL
