MODEL 1
REMARK VINA RESULT:     -10.1      0.000      0.000
REMARK SMILES NS(=O)(=O)CCNC(=O)N1[C@@H]2CC[C@H]1C[C@H](CC(=O)OCCOCCOCCOC(=O)c1ccc(-c3c4nc(c(-c5cccc(S(=O)(=O)[O-])c5F)c5ccc([nH]5)c(-c5cccc(S(=O)(=O)[O-])c5F)c5nc(c(-c6cccc(S(=O)(=O)[O-])c6F)c6ccc3[nH]6)C=C5)C=C4)cc1)C2
REMARK SMILES IDX 23 1 22 2 21 3 20 4 18 5 19 6 17 7 16 8 10 9 11 10 14 11
REMARK SMILES IDX 12 12 95 13 13 14 15 15 8 16 7 17 9 19 6 20 5 21 2 22 3 23
REMARK SMILES IDX 4 24 1 25 24 28 25 29 26 30 27 31 28 32 29 33 30 34 31 35
REMARK SMILES IDX 32 36 33 37 94 38 34 39 93 40 35 41 36 42 37 43 87 44 38 45
REMARK SMILES IDX 92 46 86 47 88 48 39 49 91 50 85 51 84 52 40 54 72 55 52 56
REMARK SMILES IDX 71 57 53 58 56 59 70 60 89 61 54 62 55 63 69 65 90 66 57 67
REMARK SMILES IDX 41 68 42 69 50 70 43 71 45 72 51 73 44 74 46 75 47 76 48 77
REMARK SMILES IDX 49 78 73 79 74 80 82 81 75 82 77 83 83 84 76 85 78 86 79 87
REMARK SMILES IDX 80 88 81 89 58 90 59 91 67 92 60 93 62 94 68 95 61 96 63 97
REMARK SMILES IDX 64 98 65 99 66 100
REMARK H PARENT 7 18 1 26 1 27 88 53 56 64
REMARK Flexibility Score: inf
ROOT
ATOM      1  O   UNL A   1      35.310  22.403  25.214  1.00  0.00    -0.376 OA
ENDROOT
BRANCH   1   2
ATOM      2  C   UNL A   1      34.525  21.272  24.844  1.00  0.00     0.202 C 
BRANCH   2   3
ATOM      3  C   UNL A   1      33.509  21.492  23.716  1.00  0.00     0.261 C 
BRANCH   3   4
ATOM      4  O   UNL A   1      32.925  22.812  23.720  1.00  0.00    -0.463 OA
BRANCH   4   5
ATOM      5  C   UNL A   1      33.023  23.518  22.567  1.00  0.00     0.306 C 
ATOM      6  O   UNL A   1      33.868  23.316  21.701  1.00  0.00    -0.252 OA
BRANCH   5   7
ATOM      7  C   UNL A   1      31.945  24.575  22.379  1.00  0.00     0.126 C 
BRANCH   7   8
ATOM      8  C   UNL A   1      32.212  26.083  22.594  1.00  0.00     0.004 C 
ATOM      9  N   UNL A   1      31.953  27.857  24.847  1.00  0.00    -0.319 N 
ATOM     10  C   UNL A   1      33.315  27.613  24.400  1.00  0.00     0.087 C 
ATOM     11  C   UNL A   1      31.209  28.207  23.659  1.00  0.00     0.087 C 
ATOM     12  C   UNL A   1      33.572  28.742  23.404  1.00  0.00     0.027 C 
ATOM     13  C   UNL A   1      33.310  26.238  23.703  1.00  0.00     0.029 C 
ATOM     14  C   UNL A   1      32.180  29.119  22.893  1.00  0.00     0.027 C 
ATOM     15  C   UNL A   1      30.938  26.898  22.906  1.00  0.00     0.029 C 
BRANCH   9  16
ATOM     16  C   UNL A   1      31.581  27.772  26.144  1.00  0.00     0.317 C 
ATOM     17  N   UNL A   1      30.719  26.821  26.573  1.00  0.00    -0.337 N 
ATOM     18  H   UNL A   1      30.202  27.087  27.367  1.00  0.00     0.165 HD
ATOM     19  O   UNL A   1      32.017  28.539  27.005  1.00  0.00    -0.249 OA
BRANCH  17  20
ATOM     20  C   UNL A   1      30.405  25.478  26.096  1.00  0.00     0.135 C 
BRANCH  20  21
ATOM     21  C   UNL A   1      31.572  24.518  26.271  1.00  0.00     0.175 C 
BRANCH  21  22
ATOM     22  S   UNL A   1      31.085  23.032  27.134  1.00  0.00     0.210 S 
ATOM     23  O   UNL A   1      29.730  23.177  27.618  1.00  0.00    -0.213 OA
ATOM     24  O   UNL A   1      32.156  22.596  27.996  1.00  0.00    -0.213 OA
BRANCH  22  25
ATOM     25  N   UNL A   1      30.996  21.895  25.907  1.00  0.00    -0.229 NA
ATOM     26  H   UNL A   1      31.398  22.283  25.054  1.00  0.00     0.137 HD
ATOM     27  H   UNL A   1      30.020  21.649  25.742  1.00  0.00     0.137 HD
ENDBRANCH  22  25
ENDBRANCH  21  22
ENDBRANCH  20  21
ENDBRANCH  17  20
ENDBRANCH   9  16
ENDBRANCH   7   8
ENDBRANCH   5   7
ENDBRANCH   4   5
ENDBRANCH   3   4
ENDBRANCH   2   3
ENDBRANCH   1   2
BRANCH   1  28
ATOM     28  C   UNL A   1      36.621  22.480  24.666  1.00  0.00     0.188 C 
BRANCH  28  29
ATOM     29  C   UNL A   1      37.752  22.718  25.667  1.00  0.00     0.188 C 
BRANCH  29  30
ATOM     30  O   UNL A   1      38.433  21.568  26.150  1.00  0.00    -0.376 OA
BRANCH  30  31
ATOM     31  C   UNL A   1      38.462  20.432  25.281  1.00  0.00     0.202 C 
BRANCH  31  32
ATOM     32  C   UNL A   1      39.447  19.285  25.602  1.00  0.00     0.261 C 
BRANCH  32  33
ATOM     33  O   UNL A   1      40.450  19.547  26.609  1.00  0.00    -0.460 OA
BRANCH  33  34
ATOM     34  C   UNL A   1      41.662  20.002  26.215  1.00  0.00     0.338 C 
ATOM     35  O   UNL A   1      42.420  19.441  25.442  1.00  0.00    -0.246 OA
BRANCH  34  36
ATOM     36  C   UNL A   1      41.802  21.429  26.642  1.00  0.00     0.060 A 
ATOM     37  C   UNL A   1      41.508  22.430  25.702  1.00  0.00     0.016 A 
ATOM     38  C   UNL A   1      42.125  21.794  27.953  1.00  0.00     0.016 A 
ATOM     39  C   UNL A   1      41.583  23.783  26.054  1.00  0.00     0.010 A 
ATOM     40  C   UNL A   1      42.214  23.151  28.299  1.00  0.00     0.010 A 
ATOM     41  C   UNL A   1      41.979  24.157  27.343  1.00  0.00    -0.014 A 
BRANCH  41  42
ATOM     42  C   UNL A   1      42.340  25.573  27.632  1.00  0.00     0.031 A 
ATOM     43  C   UNL A   1      43.692  26.072  27.181  1.00  0.00     0.074 A 
ATOM     44  C   UNL A   1      41.504  26.418  28.266  1.00  0.00     0.049 A 
ATOM     45  N   UNL A   1      44.240  27.249  27.337  1.00  0.00    -0.248 NA
ATOM     46  C   UNL A   1      44.539  25.109  26.455  1.00  0.00     0.031 C 
ATOM     47  C   UNL A   1      40.162  26.089  28.743  1.00  0.00     0.029 A 
ATOM     48  N   UNL A   1      41.677  27.732  28.639  1.00  0.00    -0.354 N 
ATOM     49  C   UNL A   1      45.505  27.157  26.771  1.00  0.00     0.074 A 
ATOM     50  C   UNL A   1      45.646  25.810  26.262  1.00  0.00     0.031 C 
ATOM     51  C   UNL A   1      39.644  27.164  29.366  1.00  0.00     0.029 A 
ATOM     52  C   UNL A   1      40.625  28.249  29.362  1.00  0.00     0.049 A 
ATOM     53  H   UNL A   1      42.480  28.254  28.412  1.00  0.00     0.167 HD
ATOM     54  C   UNL A   1      46.466  28.106  26.672  1.00  0.00     0.034 A 
ATOM     55  C   UNL A   1      40.480  29.446  29.968  1.00  0.00     0.034 A 
ATOM     56  C   UNL A   1      46.329  29.455  27.148  1.00  0.00     0.049 A 
ATOM     57  C   UNL A   1      41.586  30.472  29.874  1.00  0.00     0.074 A 
ATOM     58  C   UNL A   1      47.230  30.500  27.031  1.00  0.00     0.029 A 
ATOM     59  N   UNL A   1      45.242  29.942  27.850  1.00  0.00    -0.354 N 
ATOM     60  N   UNL A   1      42.722  30.409  29.221  1.00  0.00    -0.248 NA
ATOM     61  C   UNL A   1      41.376  31.748  30.577  1.00  0.00     0.031 C 
ATOM     62  C   UNL A   1      46.707  31.606  27.705  1.00  0.00     0.029 A 
ATOM     63  C   UNL A   1      45.459  31.265  28.196  1.00  0.00     0.049 A 
ATOM     64  H   UNL A   1      44.434  29.426  28.072  1.00  0.00     0.167 HD
ATOM     65  C   UNL A   1      43.334  31.648  29.397  1.00  0.00     0.074 A 
ATOM     66  C   UNL A   1      42.436  32.449  30.200  1.00  0.00     0.031 C 
ATOM     67  C   UNL A   1      44.537  32.080  28.943  1.00  0.00     0.034 A 
BRANCH  54  68
ATOM     68  C   UNL A   1      47.769  27.727  26.017  1.00  0.00     0.023 A 
ATOM     69  C   UNL A   1      48.829  27.221  26.794  1.00  0.00     0.012 A 
ATOM     70  C   UNL A   1      47.904  27.795  24.616  1.00  0.00     0.148 A 
ATOM     71  C   UNL A   1      50.015  26.807  26.187  1.00  0.00     0.002 A 
ATOM     72  C   UNL A   1      49.069  27.335  24.016  1.00  0.00     0.091 A 
ATOM     73  F   UNL A   1      46.890  28.299  23.901  1.00  0.00    -0.205 F 
ATOM     74  C   UNL A   1      50.129  26.852  24.800  1.00  0.00     0.022 A 
BRANCH  72  75
ATOM     75  S   UNL A   1      49.280  27.273  22.234  1.00  0.00     0.127 S 
ATOM     76  O   UNL A   1      50.736  27.202  22.113  1.00  0.00    -0.237 OA
ATOM     77  O   UNL A   1      48.578  26.037  21.887  1.00  0.00    -0.237 OA
ATOM     78  O   UNL A   1      48.672  28.488  21.711  1.00  0.00    -0.744 OA
ENDBRANCH  72  75
ENDBRANCH  54  68
BRANCH  55  79
ATOM     79  C   UNL A   1      39.234  29.774  30.725  1.00  0.00     0.023 A 
ATOM     80  C   UNL A   1      39.034  29.231  32.010  1.00  0.00     0.012 A 
ATOM     81  C   UNL A   1      38.223  30.576  30.158  1.00  0.00     0.148 A 
ATOM     82  C   UNL A   1      37.837  29.442  32.697  1.00  0.00     0.002 A 
ATOM     83  C   UNL A   1      37.057  30.830  30.871  1.00  0.00     0.091 A 
ATOM     84  F   UNL A   1      38.417  31.063  28.925  1.00  0.00    -0.205 F 
ATOM     85  C   UNL A   1      36.852  30.246  32.131  1.00  0.00     0.022 A 
BRANCH  83  86
ATOM     86  S   UNL A   1      35.784  31.945  30.271  1.00  0.00     0.127 S 
ATOM     87  O   UNL A   1      34.866  31.991  31.406  1.00  0.00    -0.237 OA
ATOM     88  O   UNL A   1      36.545  33.174  30.044  1.00  0.00    -0.237 OA
ATOM     89  O   UNL A   1      35.263  31.329  29.059  1.00  0.00    -0.744 OA
ENDBRANCH  83  86
ENDBRANCH  55  79
BRANCH  67  90
ATOM     90  C   UNL A   1      44.941  33.503  29.241  1.00  0.00     0.023 A 
ATOM     91  C   UNL A   1      45.976  33.771  30.158  1.00  0.00     0.012 A 
ATOM     92  C   UNL A   1      44.341  34.575  28.547  1.00  0.00     0.148 A 
ATOM     93  C   UNL A   1      46.380  35.083  30.411  1.00  0.00     0.002 A 
ATOM     94  C   UNL A   1      44.786  35.875  28.763  1.00  0.00     0.091 A 
ATOM     95  F   UNL A   1      43.349  34.305  27.686  1.00  0.00    -0.205 F 
ATOM     96  C   UNL A   1      45.794  36.132  29.706  1.00  0.00     0.022 A 
BRANCH  94  97
ATOM     97  S   UNL A   1      44.162  37.276  27.828  1.00  0.00     0.127 S 
ATOM     98  O   UNL A   1      43.610  36.621  26.642  1.00  0.00    -0.237 OA
ATOM     99  O   UNL A   1      43.162  37.834  28.738  1.00  0.00    -0.237 OA
ATOM    100  O   UNL A   1      45.309  38.142  27.585  1.00  0.00    -0.744 OA
ENDBRANCH  94  97
ENDBRANCH  67  90
ENDBRANCH  41  42
ENDBRANCH  34  36
ENDBRANCH  33  34
ENDBRANCH  32  33
ENDBRANCH  31  32
ENDBRANCH  30  31
ENDBRANCH  29  30
ENDBRANCH  28  29
ENDBRANCH   1  28
TORSDOF 26
ENDMDL
MODEL 2
REMARK VINA RESULT:      -9.7      5.322     10.513
REMARK SMILES NS(=O)(=O)CCNC(=O)N1[C@@H]2CC[C@H]1C[C@H](CC(=O)OCCOCCOCCOC(=O)c1ccc(-c3c4nc(c(-c5cccc(S(=O)(=O)[O-])c5F)c5ccc([nH]5)c(-c5cccc(S(=O)(=O)[O-])c5F)c5nc(c(-c6cccc(S(=O)(=O)[O-])c6F)c6ccc3[nH]6)C=C5)C=C4)cc1)C2
REMARK SMILES IDX 23 1 22 2 21 3 20 4 18 5 19 6 17 7 16 8 10 9 11 10 14 11
REMARK SMILES IDX 12 12 95 13 13 14 15 15 8 16 7 17 9 19 6 20 5 21 2 22 3 23
REMARK SMILES IDX 4 24 1 25 24 28 25 29 26 30 27 31 28 32 29 33 30 34 31 35
REMARK SMILES IDX 32 36 33 37 94 38 34 39 93 40 35 41 36 42 37 43 87 44 38 45
REMARK SMILES IDX 92 46 86 47 88 48 39 49 91 50 85 51 84 52 40 54 72 55 52 56
REMARK SMILES IDX 71 57 53 58 56 59 70 60 89 61 54 62 55 63 69 65 90 66 57 67
REMARK SMILES IDX 41 68 42 69 50 70 43 71 45 72 51 73 44 74 46 75 47 76 48 77
REMARK SMILES IDX 49 78 73 79 74 80 82 81 75 82 77 83 83 84 76 85 78 86 79 87
REMARK SMILES IDX 80 88 81 89 58 90 59 91 67 92 60 93 62 94 68 95 61 96 63 97
REMARK SMILES IDX 64 98 65 99 66 100
REMARK H PARENT 7 18 1 26 1 27 88 53 56 64
REMARK Flexibility Score: inf
ROOT
ATOM      1  O   UNL A   1      30.375  28.080  24.159  1.00  0.00    -0.376 OA
ENDROOT
BRANCH   1   2
ATOM      2  C   UNL A   1      30.367  27.322  22.953  1.00  0.00     0.202 C 
BRANCH   2   3
ATOM      3  C   UNL A   1      30.912  25.891  23.048  1.00  0.00     0.261 C 
BRANCH   3   4
ATOM      4  O   UNL A   1      31.912  25.591  22.052  1.00  0.00    -0.463 OA
BRANCH   4   5
ATOM      5  C   UNL A   1      33.133  26.151  22.237  1.00  0.00     0.306 C 
ATOM      6  O   UNL A   1      33.787  26.695  21.353  1.00  0.00    -0.252 OA
BRANCH   5   7
ATOM      7  C   UNL A   1      33.636  26.113  23.673  1.00  0.00     0.126 C 
BRANCH   7   8
ATOM      8  C   UNL A   1      34.350  24.880  24.273  1.00  0.00     0.004 C 
ATOM      9  N   UNL A   1      33.479  22.248  25.051  1.00  0.00    -0.319 N 
ATOM     10  C   UNL A   1      34.377  22.294  23.909  1.00  0.00     0.087 C 
ATOM     11  C   UNL A   1      34.108  23.051  26.075  1.00  0.00     0.087 C 
ATOM     12  C   UNL A   1      35.761  22.139  24.536  1.00  0.00     0.027 C 
ATOM     13  C   UNL A   1      34.203  23.686  23.268  1.00  0.00     0.029 C 
ATOM     14  C   UNL A   1      35.591  22.664  25.963  1.00  0.00     0.027 C 
ATOM     15  C   UNL A   1      33.869  24.517  25.695  1.00  0.00     0.029 C 
BRANCH   9  16
ATOM     16  C   UNL A   1      32.327  21.539  25.050  1.00  0.00     0.317 C 
ATOM     17  N   UNL A   1      32.328  20.187  25.030  1.00  0.00    -0.337 N 
ATOM     18  H   UNL A   1      31.525  19.799  24.613  1.00  0.00     0.165 HD
ATOM     19  O   UNL A   1      31.222  22.083  25.087  1.00  0.00    -0.249 OA
BRANCH  17  20
ATOM     20  C   UNL A   1      33.279  19.188  25.504  1.00  0.00     0.135 C 
BRANCH  20  21
ATOM     21  C   UNL A   1      34.075  18.565  24.366  1.00  0.00     0.175 C 
BRANCH  21  22
ATOM     22  S   UNL A   1      33.242  17.144  23.676  1.00  0.00     0.210 S 
ATOM     23  O   UNL A   1      32.579  16.411  24.732  1.00  0.00    -0.213 OA
ATOM     24  O   UNL A   1      34.106  16.488  22.725  1.00  0.00    -0.213 OA
BRANCH  22  25
ATOM     25  N   UNL A   1      32.009  17.830  22.774  1.00  0.00    -0.229 NA
ATOM     26  H   UNL A   1      32.266  17.825  21.787  1.00  0.00     0.137 HD
ATOM     27  H   UNL A   1      31.857  18.791  23.081  1.00  0.00     0.137 HD
ENDBRANCH  22  25
ENDBRANCH  21  22
ENDBRANCH  20  21
ENDBRANCH  17  20
ENDBRANCH   9  16
ENDBRANCH   7   8
ENDBRANCH   5   7
ENDBRANCH   4   5
ENDBRANCH   3   4
ENDBRANCH   2   3
ENDBRANCH   1   2
BRANCH   1  28
ATOM     28  C   UNL A   1      31.081  29.315  24.135  1.00  0.00     0.188 C 
BRANCH  28  29
ATOM     29  C   UNL A   1      31.722  29.746  25.455  1.00  0.00     0.188 C 
BRANCH  29  30
ATOM     30  O   UNL A   1      31.525  31.095  25.852  1.00  0.00    -0.376 OA
BRANCH  30  31
ATOM     31  C   UNL A   1      31.877  31.422  27.200  1.00  0.00     0.202 C 
BRANCH  31  32
ATOM     32  C   UNL A   1      33.227  32.130  27.457  1.00  0.00     0.261 C 
BRANCH  32  33
ATOM     33  O   UNL A   1      33.219  33.575  27.454  1.00  0.00    -0.460 OA
BRANCH  33  34
ATOM     34  C   UNL A   1      33.453  34.228  28.617  1.00  0.00     0.338 C 
ATOM     35  O   UNL A   1      32.712  35.041  29.143  1.00  0.00    -0.246 OA
BRANCH  34  36
ATOM     36  C   UNL A   1      34.617  33.585  29.303  1.00  0.00     0.060 A 
ATOM     37  C   UNL A   1      35.907  33.894  28.843  1.00  0.00     0.016 A 
ATOM     38  C   UNL A   1      34.469  32.766  30.428  1.00  0.00     0.016 A 
ATOM     39  C   UNL A   1      37.037  33.354  29.469  1.00  0.00     0.010 A 
ATOM     40  C   UNL A   1      35.602  32.214  31.045  1.00  0.00     0.010 A 
ATOM     41  C   UNL A   1      36.894  32.474  30.547  1.00  0.00    -0.014 A 
BRANCH  41  42
ATOM     42  C   UNL A   1      38.060  31.679  31.022  1.00  0.00     0.031 A 
ATOM     43  C   UNL A   1      38.652  32.016  32.370  1.00  0.00     0.074 A 
ATOM     44  C   UNL A   1      38.591  30.672  30.302  1.00  0.00     0.049 A 
ATOM     45  N   UNL A   1      39.678  31.486  32.984  1.00  0.00    -0.248 NA
ATOM     46  C   UNL A   1      37.996  33.098  33.124  1.00  0.00     0.031 C 
ATOM     47  C   UNL A   1      38.117  30.218  28.997  1.00  0.00     0.029 A 
ATOM     48  N   UNL A   1      39.671  29.860  30.566  1.00  0.00    -0.354 N 
ATOM     49  C   UNL A   1      39.816  32.194  34.172  1.00  0.00     0.074 A 
ATOM     50  C   UNL A   1      38.768  33.192  34.196  1.00  0.00     0.031 C 
ATOM     51  C   UNL A   1      38.917  29.225  28.562  1.00  0.00     0.029 A 
ATOM     52  C   UNL A   1      39.977  28.992  29.541  1.00  0.00     0.049 A 
ATOM     53  H   UNL A   1      40.179  29.897  31.408  1.00  0.00     0.167 HD
ATOM     54  C   UNL A   1      40.726  32.031  35.161  1.00  0.00     0.034 A 
ATOM     55  C   UNL A   1      41.006  28.129  29.400  1.00  0.00     0.034 A 
ATOM     56  C   UNL A   1      41.755  31.027  35.162  1.00  0.00     0.049 A 
ATOM     57  C   UNL A   1      42.029  27.996  30.504  1.00  0.00     0.074 A 
ATOM     58  C   UNL A   1      42.680  30.751  36.155  1.00  0.00     0.029 A 
ATOM     59  N   UNL A   1      42.015  30.156  34.120  1.00  0.00    -0.354 N 
ATOM     60  N   UNL A   1      42.066  28.584  31.676  1.00  0.00    -0.248 NA
ATOM     61  C   UNL A   1      43.139  27.055  30.278  1.00  0.00     0.031 C 
ATOM     62  C   UNL A   1      43.530  29.742  35.692  1.00  0.00     0.029 A 
ATOM     63  C   UNL A   1      43.102  29.357  34.433  1.00  0.00     0.049 A 
ATOM     64  H   UNL A   1      41.505  30.111  33.280  1.00  0.00     0.167 HD
ATOM     65  C   UNL A   1      43.170  28.050  32.338  1.00  0.00     0.074 A 
ATOM     66  C   UNL A   1      43.763  27.078  31.447  1.00  0.00     0.031 C 
ATOM     67  C   UNL A   1      43.654  28.347  33.570  1.00  0.00     0.034 A 
BRANCH  54  68
ATOM     68  C   UNL A   1      40.659  32.961  36.344  1.00  0.00     0.023 A 
ATOM     69  C   UNL A   1      39.742  32.715  37.384  1.00  0.00     0.012 A 
ATOM     70  C   UNL A   1      41.570  34.030  36.458  1.00  0.00     0.148 A 
ATOM     71  C   UNL A   1      39.718  33.534  38.514  1.00  0.00     0.002 A 
ATOM     72  C   UNL A   1      41.572  34.810  37.607  1.00  0.00     0.091 A 
ATOM     73  F   UNL A   1      42.419  34.256  35.446  1.00  0.00    -0.205 F 
ATOM     74  C   UNL A   1      40.641  34.571  38.630  1.00  0.00     0.022 A 
BRANCH  72  75
ATOM     75  S   UNL A   1      42.774  36.114  37.889  1.00  0.00     0.127 S 
ATOM     76  O   UNL A   1      44.027  35.360  37.905  1.00  0.00    -0.237 OA
ATOM     77  O   UNL A   1      42.586  36.962  36.712  1.00  0.00    -0.237 OA
ATOM     78  O   UNL A   1      42.408  36.736  39.154  1.00  0.00    -0.744 OA
ENDBRANCH  72  75
ENDBRANCH  54  68
BRANCH  55  79
ATOM     79  C   UNL A   1      41.140  27.295  28.167  1.00  0.00     0.023 A 
ATOM     80  C   UNL A   1      41.621  27.880  26.978  1.00  0.00     0.012 A 
ATOM     81  C   UNL A   1      40.745  25.943  28.152  1.00  0.00     0.148 A 
ATOM     82  C   UNL A   1      41.663  27.149  25.789  1.00  0.00     0.002 A 
ATOM     83  C   UNL A   1      40.844  25.204  26.978  1.00  0.00     0.091 A 
ATOM     84  F   UNL A   1      40.266  25.409  29.283  1.00  0.00    -0.205 F 
ATOM     85  C   UNL A   1      41.282  25.810  25.791  1.00  0.00     0.022 A 
BRANCH  83  86
ATOM     86  S   UNL A   1      40.484  23.446  26.913  1.00  0.00     0.127 S 
ATOM     87  O   UNL A   1      39.025  23.442  26.841  1.00  0.00    -0.237 OA
ATOM     88  O   UNL A   1      41.163  23.046  25.681  1.00  0.00    -0.237 OA
ATOM     89  O   UNL A   1      41.059  22.883  28.127  1.00  0.00    -0.744 OA
ENDBRANCH  83  86
ENDBRANCH  55  79
BRANCH  67  90
ATOM     90  C   UNL A   1      44.850  27.575  34.070  1.00  0.00     0.023 A 
ATOM     91  C   UNL A   1      46.154  28.056  33.842  1.00  0.00     0.012 A 
ATOM     92  C   UNL A   1      44.673  26.403  34.837  1.00  0.00     0.148 A 
ATOM     93  C   UNL A   1      47.263  27.366  34.333  1.00  0.00     0.002 A 
ATOM     94  C   UNL A   1      45.780  25.752  35.370  1.00  0.00     0.091 A 
ATOM     95  F   UNL A   1      43.427  25.951  35.035  1.00  0.00    -0.205 F 
ATOM     96  C   UNL A   1      47.076  26.222  35.105  1.00  0.00     0.022 A 
BRANCH  94  97
ATOM     97  S   UNL A   1      45.631  24.331  36.460  1.00  0.00     0.127 S 
ATOM     98  O   UNL A   1      46.978  24.245  37.023  1.00  0.00    -0.237 OA
ATOM     99  O   UNL A   1      44.603  24.772  37.403  1.00  0.00    -0.237 OA
ATOM    100  O   UNL A   1      45.235  23.213  35.614  1.00  0.00    -0.744 OA
ENDBRANCH  94  97
ENDBRANCH  67  90
ENDBRANCH  41  42
ENDBRANCH  34  36
ENDBRANCH  33  34
ENDBRANCH  32  33
ENDBRANCH  31  32
ENDBRANCH  30  31
ENDBRANCH  29  30
ENDBRANCH  28  29
ENDBRANCH   1  28
TORSDOF 26
ENDMDL
MODEL 3
REMARK VINA RESULT:      -9.6      5.528     11.036
REMARK SMILES NS(=O)(=O)CCNC(=O)N1[C@@H]2CC[C@H]1C[C@H](CC(=O)OCCOCCOCCOC(=O)c1ccc(-c3c4nc(c(-c5cccc(S(=O)(=O)[O-])c5F)c5ccc([nH]5)c(-c5cccc(S(=O)(=O)[O-])c5F)c5nc(c(-c6cccc(S(=O)(=O)[O-])c6F)c6ccc3[nH]6)C=C5)C=C4)cc1)C2
REMARK SMILES IDX 23 1 22 2 21 3 20 4 18 5 19 6 17 7 16 8 10 9 11 10 14 11
REMARK SMILES IDX 12 12 95 13 13 14 15 15 8 16 7 17 9 19 6 20 5 21 2 22 3 23
REMARK SMILES IDX 4 24 1 25 24 28 25 29 26 30 27 31 28 32 29 33 30 34 31 35
REMARK SMILES IDX 32 36 33 37 94 38 34 39 93 40 35 41 36 42 37 43 87 44 38 45
REMARK SMILES IDX 92 46 86 47 88 48 39 49 91 50 85 51 84 52 40 54 72 55 52 56
REMARK SMILES IDX 71 57 53 58 56 59 70 60 89 61 54 62 55 63 69 65 90 66 57 67
REMARK SMILES IDX 41 68 42 69 50 70 43 71 45 72 51 73 44 74 46 75 47 76 48 77
REMARK SMILES IDX 49 78 73 79 74 80 82 81 75 82 77 83 83 84 76 85 78 86 79 87
REMARK SMILES IDX 80 88 81 89 58 90 59 91 67 92 60 93 62 94 68 95 61 96 63 97
REMARK SMILES IDX 64 98 65 99 66 100
REMARK H PARENT 7 18 1 26 1 27 88 53 56 64
REMARK Flexibility Score: inf
ROOT
ATOM      1  O   UNL A   1      30.297  28.308  24.007  1.00  0.00    -0.376 OA
ENDROOT
BRANCH   1   2
ATOM      2  C   UNL A   1      30.647  27.538  22.860  1.00  0.00     0.202 C 
BRANCH   2   3
ATOM      3  C   UNL A   1      31.464  26.266  23.121  1.00  0.00     0.261 C 
BRANCH   3   4
ATOM      4  O   UNL A   1      32.885  26.454  22.960  1.00  0.00    -0.463 OA
BRANCH   4   5
ATOM      5  C   UNL A   1      33.524  27.109  23.960  1.00  0.00     0.306 C 
ATOM      6  O   UNL A   1      34.244  28.089  23.798  1.00  0.00    -0.252 OA
BRANCH   5   7
ATOM      7  C   UNL A   1      33.237  26.570  25.354  1.00  0.00     0.126 C 
BRANCH   7   8
ATOM      8  C   UNL A   1      33.751  25.193  25.836  1.00  0.00     0.004 C 
ATOM      9  N   UNL A   1      33.372  22.488  24.926  1.00  0.00    -0.319 N 
ATOM     10  C   UNL A   1      34.720  23.012  24.777  1.00  0.00     0.087 C 
ATOM     11  C   UNL A   1      32.992  22.771  26.291  1.00  0.00     0.087 C 
ATOM     12  C   UNL A   1      35.411  22.593  26.073  1.00  0.00     0.027 C 
ATOM     13  C   UNL A   1      34.588  24.545  24.680  1.00  0.00     0.029 C 
ATOM     14  C   UNL A   1      34.270  22.458  27.084  1.00  0.00     0.027 C 
ATOM     15  C   UNL A   1      32.632  24.261  26.349  1.00  0.00     0.029 C 
BRANCH   9  16
ATOM     16  C   UNL A   1      32.716  21.856  23.926  1.00  0.00     0.317 C 
ATOM     17  N   UNL A   1      32.788  20.515  23.769  1.00  0.00    -0.337 N 
ATOM     18  H   UNL A   1      32.661  20.219  22.839  1.00  0.00     0.165 HD
ATOM     19  O   UNL A   1      32.007  22.462  23.120  1.00  0.00    -0.249 OA
BRANCH  17  20
ATOM     20  C   UNL A   1      33.013  19.417  24.703  1.00  0.00     0.135 C 
BRANCH  20  21
ATOM     21  C   UNL A   1      32.598  18.073  24.123  1.00  0.00     0.175 C 
BRANCH  21  22
ATOM     22  S   UNL A   1      33.840  16.819  24.398  1.00  0.00     0.210 S 
ATOM     23  O   UNL A   1      34.094  16.111  23.163  1.00  0.00    -0.213 OA
ATOM     24  O   UNL A   1      33.562  16.121  25.630  1.00  0.00    -0.213 OA
BRANCH  22  25
ATOM     25  N   UNL A   1      35.225  17.717  24.685  1.00  0.00    -0.229 NA
ATOM     26  H   UNL A   1      34.996  18.710  24.668  1.00  0.00     0.137 HD
ATOM     27  H   UNL A   1      35.916  17.515  23.962  1.00  0.00     0.137 HD
ENDBRANCH  22  25
ENDBRANCH  21  22
ENDBRANCH  20  21
ENDBRANCH  17  20
ENDBRANCH   9  16
ENDBRANCH   7   8
ENDBRANCH   5   7
ENDBRANCH   4   5
ENDBRANCH   3   4
ENDBRANCH   2   3
ENDBRANCH   1   2
BRANCH   1  28
ATOM     28  C   UNL A   1      30.697  29.674  24.008  1.00  0.00     0.188 C 
BRANCH  28  29
ATOM     29  C   UNL A   1      31.302  30.193  25.312  1.00  0.00     0.188 C 
BRANCH  29  30
ATOM     30  O   UNL A   1      31.044  31.551  25.642  1.00  0.00    -0.376 OA
BRANCH  30  31
ATOM     31  C   UNL A   1      31.371  31.958  26.974  1.00  0.00     0.202 C 
BRANCH  31  32
ATOM     32  C   UNL A   1      32.854  32.218  27.321  1.00  0.00     0.261 C 
BRANCH  32  33
ATOM     33  O   UNL A   1      33.287  33.596  27.349  1.00  0.00    -0.460 OA
BRANCH  33  34
ATOM     34  C   UNL A   1      33.391  34.220  28.547  1.00  0.00     0.338 C 
ATOM     35  O   UNL A   1      32.572  34.985  29.028  1.00  0.00    -0.246 OA
BRANCH  34  36
ATOM     36  C   UNL A   1      34.517  33.603  29.314  1.00  0.00     0.060 A 
ATOM     37  C   UNL A   1      35.829  33.937  28.943  1.00  0.00     0.016 A 
ATOM     38  C   UNL A   1      34.308  32.784  30.429  1.00  0.00     0.016 A 
ATOM     39  C   UNL A   1      36.924  33.421  29.648  1.00  0.00     0.010 A 
ATOM     40  C   UNL A   1      35.406  32.257  31.125  1.00  0.00     0.010 A 
ATOM     41  C   UNL A   1      36.723  32.541  30.718  1.00  0.00    -0.014 A 
BRANCH  41  42
ATOM     42  C   UNL A   1      37.869  31.770  31.276  1.00  0.00     0.031 A 
ATOM     43  C   UNL A   1      38.372  32.135  32.652  1.00  0.00     0.074 A 
ATOM     44  C   UNL A   1      38.459  30.762  30.604  1.00  0.00     0.049 A 
ATOM     45  N   UNL A   1      39.365  31.629  33.337  1.00  0.00    -0.248 NA
ATOM     46  C   UNL A   1      37.655  33.217  33.348  1.00  0.00     0.031 C 
ATOM     47  C   UNL A   1      38.073  30.282  29.279  1.00  0.00     0.029 A 
ATOM     48  N   UNL A   1      39.532  29.971  30.946  1.00  0.00    -0.354 N 
ATOM     49  C   UNL A   1      39.419  32.356  34.520  1.00  0.00     0.074 A 
ATOM     50  C   UNL A   1      38.357  33.337  34.465  1.00  0.00     0.031 C 
ATOM     51  C   UNL A   1      38.913  29.297  28.909  1.00  0.00     0.029 A 
ATOM     52  C   UNL A   1      39.914  29.093  29.956  1.00  0.00     0.049 A 
ATOM     53  H   UNL A   1      39.986  30.026  31.818  1.00  0.00     0.167 HD
ATOM     54  C   UNL A   1      40.268  32.220  35.566  1.00  0.00     0.034 A 
ATOM     55  C   UNL A   1      40.962  28.244  29.891  1.00  0.00     0.034 A 
ATOM     56  C   UNL A   1      41.310  31.232  35.646  1.00  0.00     0.049 A 
ATOM     57  C   UNL A   1      41.917  28.142  31.058  1.00  0.00     0.074 A 
ATOM     58  C   UNL A   1      42.174  30.984  36.698  1.00  0.00     0.029 A 
ATOM     59  N   UNL A   1      41.646  30.351  34.634  1.00  0.00    -0.354 N 
ATOM     60  N   UNL A   1      41.872  28.747  32.221  1.00  0.00    -0.248 NA
ATOM     61  C   UNL A   1      43.052  27.216  30.914  1.00  0.00     0.031 C 
ATOM     62  C   UNL A   1      43.066  29.983  36.303  1.00  0.00     0.029 A 
ATOM     63  C   UNL A   1      42.723  29.574  35.026  1.00  0.00     0.049 A 
ATOM     64  H   UNL A   1      41.190  30.287  33.765  1.00  0.00     0.167 HD
ATOM     65  C   UNL A   1      42.940  28.239  32.958  1.00  0.00     0.074 A 
ATOM     66  C   UNL A   1      43.602  27.264  32.119  1.00  0.00     0.031 C 
ATOM     67  C   UNL A   1      43.343  28.560  34.213  1.00  0.00     0.034 A 
BRANCH  54  68
ATOM     68  C   UNL A   1      40.114  33.165  36.729  1.00  0.00     0.023 A 
ATOM     69  C   UNL A   1      40.676  34.455  36.671  1.00  0.00     0.012 A 
ATOM     70  C   UNL A   1      39.334  32.796  37.843  1.00  0.00     0.148 A 
ATOM     71  C   UNL A   1      40.482  35.359  37.716  1.00  0.00     0.002 A 
ATOM     72  C   UNL A   1      39.106  33.718  38.857  1.00  0.00     0.091 A 
ATOM     73  F   UNL A   1      38.827  31.556  37.885  1.00  0.00    -0.205 F 
ATOM     74  C   UNL A   1      39.688  34.994  38.800  1.00  0.00     0.022 A 
BRANCH  72  75
ATOM     75  S   UNL A   1      38.029  33.375  40.252  1.00  0.00     0.127 S 
ATOM     76  O   UNL A   1      36.746  33.155  39.586  1.00  0.00    -0.237 OA
ATOM     77  O   UNL A   1      38.637  32.170  40.818  1.00  0.00    -0.237 OA
ATOM     78  O   UNL A   1      38.091  34.550  41.110  1.00  0.00    -0.744 OA
ENDBRANCH  72  75
ENDBRANCH  54  68
BRANCH  55  79
ATOM     79  C   UNL A   1      41.185  27.396  28.681  1.00  0.00     0.023 A 
ATOM     80  C   UNL A   1      40.421  26.226  28.497  1.00  0.00     0.012 A 
ATOM     81  C   UNL A   1      42.184  27.714  27.739  1.00  0.00     0.148 A 
ATOM     82  C   UNL A   1      40.676  25.366  27.427  1.00  0.00     0.002 A 
ATOM     83  C   UNL A   1      42.394  26.884  26.644  1.00  0.00     0.091 A 
ATOM     84  F   UNL A   1      42.919  28.816  27.940  1.00  0.00    -0.205 F 
ATOM     85  C   UNL A   1      41.657  25.698  26.497  1.00  0.00     0.022 A 
BRANCH  83  86
ATOM     86  S   UNL A   1      43.556  27.289  25.336  1.00  0.00     0.127 S 
ATOM     87  O   UNL A   1      44.180  25.995  25.077  1.00  0.00    -0.237 OA
ATOM     88  O   UNL A   1      42.664  27.765  24.278  1.00  0.00    -0.237 OA
ATOM     89  O   UNL A   1      44.429  28.313  25.891  1.00  0.00    -0.744 OA
ENDBRANCH  83  86
ENDBRANCH  55  79
BRANCH  67  90
ATOM     90  C   UNL A   1      44.516  27.814  34.797  1.00  0.00     0.023 A 
ATOM     91  C   UNL A   1      45.814  28.355  34.719  1.00  0.00     0.012 A 
ATOM     92  C   UNL A   1      44.316  26.604  35.495  1.00  0.00     0.148 A 
ATOM     93  C   UNL A   1      46.899  27.688  35.289  1.00  0.00     0.002 A 
ATOM     94  C   UNL A   1      45.393  25.972  36.108  1.00  0.00     0.091 A 
ATOM     95  F   UNL A   1      43.077  26.094  35.550  1.00  0.00    -0.205 F 
ATOM     96  C   UNL A   1      46.687  26.504  35.992  1.00  0.00     0.022 A 
BRANCH  94  97
ATOM     97  S   UNL A   1      45.199  24.500  37.120  1.00  0.00     0.127 S 
ATOM     98  O   UNL A   1      44.499  23.599  36.205  1.00  0.00    -0.237 OA
ATOM     99  O   UNL A   1      46.588  24.130  37.396  1.00  0.00    -0.237 OA
ATOM    100  O   UNL A   1      44.439  24.913  38.292  1.00  0.00    -0.744 OA
ENDBRANCH  94  97
ENDBRANCH  67  90
ENDBRANCH  41  42
ENDBRANCH  34  36
ENDBRANCH  33  34
ENDBRANCH  32  33
ENDBRANCH  31  32
ENDBRANCH  30  31
ENDBRANCH  29  30
ENDBRANCH  28  29
ENDBRANCH   1  28
TORSDOF 26
ENDMDL
