MODEL 1
REMARK VINA RESULT:     -10.5      0.000      0.000
REMARK SMILES O=C(OCCOCCOCCOC(=O)c1cccc(N2CCCCC2)n1)c1ccc(-c2c3nc(c(-c4cccc(S(=O)(=O)[O-])c4F)c4ccc([nH]4)c(-c4cccc(S(=O)(=O)[O-])c4F)c4nc(c(-c5cccc(S(=O)(=O)[O-])c5F)c5ccc2[nH]5)C=C4)C=C3)cc1
REMARK SMILES IDX 7 1 6 2 5 3 4 4 3 5 2 6 1 7 27 8 28 9 89 10 29 11 88 12
REMARK SMILES IDX 30 13 31 14 32 15 82 16 33 17 87 18 81 19 83 20 34 21 86 22
REMARK SMILES IDX 80 23 79 24 35 26 67 27 47 28 66 29 48 30 51 31 65 32 84 33
REMARK SMILES IDX 49 34 50 35 64 37 85 38 52 39 36 40 37 41 45 42 38 43 40 44
REMARK SMILES IDX 46 45 39 46 41 47 42 48 43 49 44 50 68 51 69 52 77 53 70 54
REMARK SMILES IDX 72 55 78 56 71 57 73 58 74 59 75 60 76 61 53 62 54 63 62 64
REMARK SMILES IDX 55 65 57 66 63 67 56 68 58 69 59 70 60 71 61 72 8 73 9 74
REMARK SMILES IDX 10 75 11 76 12 77 13 78 14 79 15 80 16 81 26 82 17 83 19 84
REMARK SMILES IDX 18 85 20 86 21 87 25 88 22 89 24 90 23 91
REMARK H PARENT 83 25 51 36
REMARK Flexibility Score: inf
ROOT
ATOM      1  C   UNL A   1      31.946  30.009  25.465  1.00  0.00     0.188 C 
ENDROOT
BRANCH   1   2
ATOM      2  O   UNL A   1      31.720  30.517  26.781  1.00  0.00    -0.376 OA
BRANCH   2   3
ATOM      3  C   UNL A   1      31.522  31.928  26.861  1.00  0.00     0.202 C 
BRANCH   3   4
ATOM      4  C   UNL A   1      32.737  32.772  27.286  1.00  0.00     0.261 C 
BRANCH   4   5
ATOM      5  O   UNL A   1      32.395  33.997  27.955  1.00  0.00    -0.460 OA
BRANCH   5   6
ATOM      6  C   UNL A   1      33.133  34.641  28.900  1.00  0.00     0.338 C 
ATOM      7  O   UNL A   1      32.801  35.772  29.246  1.00  0.00    -0.246 OA
BRANCH   6   8
ATOM      8  C   UNL A   1      34.330  34.020  29.540  1.00  0.00     0.060 A 
ATOM      9  C   UNL A   1      34.261  33.026  30.512  1.00  0.00     0.016 A 
ATOM     10  C   UNL A   1      35.600  34.391  29.074  1.00  0.00     0.016 A 
ATOM     11  C   UNL A   1      35.396  32.497  31.105  1.00  0.00     0.010 A 
ATOM     12  C   UNL A   1      36.753  33.786  29.595  1.00  0.00     0.010 A 
ATOM     13  C   UNL A   1      36.654  32.852  30.637  1.00  0.00    -0.014 A 
BRANCH  13  14
ATOM     14  C   UNL A   1      37.844  32.282  31.305  1.00  0.00     0.031 A 
ATOM     15  C   UNL A   1      38.567  31.150  30.644  1.00  0.00     0.074 A 
ATOM     16  C   UNL A   1      38.320  32.829  32.442  1.00  0.00     0.049 A 
ATOM     17  N   UNL A   1      39.576  30.451  31.086  1.00  0.00    -0.248 NA
ATOM     18  C   UNL A   1      38.108  30.763  29.297  1.00  0.00     0.031 C 
ATOM     19  C   UNL A   1      37.768  34.010  33.110  1.00  0.00     0.029 A 
ATOM     20  N   UNL A   1      39.378  32.467  33.237  1.00  0.00    -0.354 N 
ATOM     21  C   UNL A   1      39.837  29.510  30.100  1.00  0.00     0.074 A 
ATOM     22  C   UNL A   1      38.889  29.728  29.032  1.00  0.00     0.031 C 
ATOM     23  C   UNL A   1      38.486  34.263  34.214  1.00  0.00     0.029 A 
ATOM     24  C   UNL A   1      39.473  33.215  34.388  1.00  0.00     0.049 A 
ATOM     25  H   UNL A   1      40.006  31.744  33.009  1.00  0.00     0.167 HD
ATOM     26  C   UNL A   1      40.794  28.556  30.089  1.00  0.00     0.034 A 
ATOM     27  C   UNL A   1      40.225  33.043  35.491  1.00  0.00     0.034 A 
ATOM     28  C   UNL A   1      41.750  28.377  31.144  1.00  0.00     0.049 A 
ATOM     29  C   UNL A   1      41.205  31.910  35.499  1.00  0.00     0.074 A 
ATOM     30  C   UNL A   1      42.775  27.455  31.228  1.00  0.00     0.029 A 
ATOM     31  N   UNL A   1      41.789  29.133  32.306  1.00  0.00    -0.354 N 
ATOM     32  N   UNL A   1      41.474  31.056  34.542  1.00  0.00    -0.248 NA
ATOM     33  C   UNL A   1      42.006  31.731  36.716  1.00  0.00     0.031 C 
ATOM     34  C   UNL A   1      43.412  27.630  32.460  1.00  0.00     0.029 A 
ATOM     35  C   UNL A   1      42.804  28.681  33.128  1.00  0.00     0.049 A 
ATOM     36  H   UNL A   1      41.184  29.882  32.515  1.00  0.00     0.167 HD
ATOM     37  C   UNL A   1      42.499  30.259  35.025  1.00  0.00     0.074 A 
ATOM     38  C   UNL A   1      42.814  30.744  36.355  1.00  0.00     0.031 C 
ATOM     39  C   UNL A   1      43.118  29.213  34.429  1.00  0.00     0.034 A 
BRANCH  26  40
ATOM     40  C   UNL A   1      40.824  27.623  28.914  1.00  0.00     0.023 A 
ATOM     41  C   UNL A   1      39.908  26.555  28.831  1.00  0.00     0.012 A 
ATOM     42  C   UNL A   1      41.759  27.822  27.881  1.00  0.00     0.148 A 
ATOM     43  C   UNL A   1      39.942  25.681  27.745  1.00  0.00     0.002 A 
ATOM     44  C   UNL A   1      41.760  26.972  26.785  1.00  0.00     0.091 A 
ATOM     45  F   UNL A   1      42.635  28.829  28.001  1.00  0.00    -0.205 F 
ATOM     46  C   UNL A   1      40.861  25.895  26.719  1.00  0.00     0.022 A 
BRANCH  44  47
ATOM     47  S   UNL A   1      42.866  27.193  25.388  1.00  0.00     0.127 S 
ATOM     48  O   UNL A   1      42.235  28.309  24.686  1.00  0.00    -0.237 OA
ATOM     49  O   UNL A   1      44.127  27.521  26.051  1.00  0.00    -0.237 OA
ATOM     50  O   UNL A   1      42.861  25.929  24.664  1.00  0.00    -0.744 OA
ENDBRANCH  44  47
ENDBRANCH  26  40
BRANCH  27  51
ATOM     51  C   UNL A   1      40.046  33.920  36.684  1.00  0.00     0.023 A 
ATOM     52  C   UNL A   1      38.915  33.772  37.508  1.00  0.00     0.012 A 
ATOM     53  C   UNL A   1      40.991  34.921  36.993  1.00  0.00     0.148 A 
ATOM     54  C   UNL A   1      38.710  34.625  38.595  1.00  0.00     0.002 A 
ATOM     55  C   UNL A   1      40.802  35.739  38.100  1.00  0.00     0.091 A 
ATOM     56  F   UNL A   1      42.061  35.053  36.197  1.00  0.00    -0.205 F 
ATOM     57  C   UNL A   1      39.656  35.602  38.896  1.00  0.00     0.022 A 
BRANCH  55  58
ATOM     58  S   UNL A   1      42.029  36.941  38.630  1.00  0.00     0.127 S 
ATOM     59  O   UNL A   1      42.871  36.145  39.517  1.00  0.00    -0.237 OA
ATOM     60  O   UNL A   1      42.645  37.315  37.356  1.00  0.00    -0.237 OA
ATOM     61  O   UNL A   1      41.276  38.016  39.263  1.00  0.00    -0.744 OA
ENDBRANCH  55  58
ENDBRANCH  27  51
BRANCH  39  62
ATOM     62  C   UNL A   1      44.223  28.549  35.196  1.00  0.00     0.023 A 
ATOM     63  C   UNL A   1      45.550  28.993  35.038  1.00  0.00     0.012 A 
ATOM     64  C   UNL A   1      43.931  27.532  36.123  1.00  0.00     0.148 A 
ATOM     65  C   UNL A   1      46.577  28.414  35.777  1.00  0.00     0.002 A 
ATOM     66  C   UNL A   1      44.951  26.999  36.896  1.00  0.00     0.091 A 
ATOM     67  F   UNL A   1      42.661  27.113  36.233  1.00  0.00    -0.205 F 
ATOM     68  C   UNL A   1      46.276  27.427  36.716  1.00  0.00     0.022 A 
BRANCH  66  69
ATOM     69  S   UNL A   1      44.638  25.804  38.198  1.00  0.00     0.127 S 
ATOM     70  O   UNL A   1      45.994  25.402  38.566  1.00  0.00    -0.237 OA
ATOM     71  O   UNL A   1      43.947  26.615  39.201  1.00  0.00    -0.237 OA
ATOM     72  O   UNL A   1      43.818  24.760  37.596  1.00  0.00    -0.744 OA
ENDBRANCH  66  69
ENDBRANCH  39  62
ENDBRANCH  13  14
ENDBRANCH   6   8
ENDBRANCH   5   6
ENDBRANCH   4   5
ENDBRANCH   3   4
ENDBRANCH   2   3
ENDBRANCH   1   2
BRANCH   1  73
ATOM     73  C   UNL A   1      33.062  28.963  25.433  1.00  0.00     0.188 C 
BRANCH  73  74
ATOM     74  O   UNL A   1      32.707  27.651  25.873  1.00  0.00    -0.376 OA
BRANCH  74  75
ATOM     75  C   UNL A   1      33.697  26.638  25.732  1.00  0.00     0.202 C 
BRANCH  75  76
ATOM     76  C   UNL A   1      33.903  25.996  24.351  1.00  0.00     0.261 C 
BRANCH  76  77
ATOM     77  O   UNL A   1      32.725  25.575  23.646  1.00  0.00    -0.459 OA
BRANCH  77  78
ATOM     78  C   UNL A   1      32.340  26.437  22.664  1.00  0.00     0.357 C 
ATOM     79  O   UNL A   1      33.084  26.953  21.839  1.00  0.00    -0.244 OA
BRANCH  78  80
ATOM     80  C   UNL A   1      30.925  26.860  22.808  1.00  0.00     0.150 A 
ATOM     81  C   UNL A   1      30.143  26.031  23.598  1.00  0.00     0.036 A 
ATOM     82  N   UNL A   1      30.542  28.086  22.345  1.00  0.00    -0.224 NA
ATOM     83  C   UNL A   1      28.889  26.482  23.951  1.00  0.00     0.006 A 
ATOM     84  C   UNL A   1      29.329  28.542  22.754  1.00  0.00     0.129 A 
ATOM     85  C   UNL A   1      28.479  27.738  23.522  1.00  0.00     0.047 A 
BRANCH  84  86
ATOM     86  N   UNL A   1      28.997  29.867  22.503  1.00  0.00    -0.357 N 
ATOM     87  C   UNL A   1      28.981  30.793  23.625  1.00  0.00     0.118 C 
ATOM     88  C   UNL A   1      29.270  30.437  21.186  1.00  0.00     0.118 C 
ATOM     89  C   UNL A   1      27.981  31.922  23.355  1.00  0.00     0.022 C 
ATOM     90  C   UNL A   1      28.207  31.488  20.879  1.00  0.00     0.022 C 
ATOM     91  C   UNL A   1      28.157  32.552  21.970  1.00  0.00     0.004 C 
ENDBRANCH  84  86
ENDBRANCH  78  80
ENDBRANCH  77  78
ENDBRANCH  76  77
ENDBRANCH  75  76
ENDBRANCH  74  75
ENDBRANCH  73  74
ENDBRANCH   1  73
TORSDOF 21
ENDMDL
MODEL 2
REMARK VINA RESULT:     -10.3      5.558     10.197
REMARK SMILES O=C(OCCOCCOCCOC(=O)c1cccc(N2CCCCC2)n1)c1ccc(-c2c3nc(c(-c4cccc(S(=O)(=O)[O-])c4F)c4ccc([nH]4)c(-c4cccc(S(=O)(=O)[O-])c4F)c4nc(c(-c5cccc(S(=O)(=O)[O-])c5F)c5ccc2[nH]5)C=C4)C=C3)cc1
REMARK SMILES IDX 7 1 6 2 5 3 4 4 3 5 2 6 1 7 27 8 28 9 89 10 29 11 88 12
REMARK SMILES IDX 30 13 31 14 32 15 82 16 33 17 87 18 81 19 83 20 34 21 86 22
REMARK SMILES IDX 80 23 79 24 35 26 67 27 47 28 66 29 48 30 51 31 65 32 84 33
REMARK SMILES IDX 49 34 50 35 64 37 85 38 52 39 36 40 37 41 45 42 38 43 40 44
REMARK SMILES IDX 46 45 39 46 41 47 42 48 43 49 44 50 68 51 69 52 77 53 70 54
REMARK SMILES IDX 72 55 78 56 71 57 73 58 74 59 75 60 76 61 53 62 54 63 62 64
REMARK SMILES IDX 55 65 57 66 63 67 56 68 58 69 59 70 60 71 61 72 8 73 9 74
REMARK SMILES IDX 10 75 11 76 12 77 13 78 14 79 15 80 16 81 26 82 17 83 19 84
REMARK SMILES IDX 18 85 20 86 21 87 25 88 22 89 24 90 23 91
REMARK H PARENT 83 25 51 36
REMARK Flexibility Score: inf
ROOT
ATOM      1  C   UNL A   1      32.682  20.226  24.984  1.00  0.00     0.188 C 
ENDROOT
BRANCH   1   2
ATOM      2  O   UNL A   1      34.004  19.830  24.615  1.00  0.00    -0.376 OA
BRANCH   2   3
ATOM      3  C   UNL A   1      34.993  20.856  24.711  1.00  0.00     0.202 C 
BRANCH   3   4
ATOM      4  C   UNL A   1      36.438  20.396  24.976  1.00  0.00     0.261 C 
BRANCH   4   5
ATOM      5  O   UNL A   1      37.183  21.274  25.836  1.00  0.00    -0.460 OA
BRANCH   5   6
ATOM      6  C   UNL A   1      38.536  21.323  25.973  1.00  0.00     0.338 C 
ATOM      7  O   UNL A   1      39.198  20.321  25.710  1.00  0.00    -0.246 OA
BRANCH   6   8
ATOM      8  C   UNL A   1      39.250  22.554  26.423  1.00  0.00     0.060 A 
ATOM      9  C   UNL A   1      38.847  23.847  26.098  1.00  0.00     0.016 A 
ATOM     10  C   UNL A   1      40.337  22.409  27.297  1.00  0.00     0.016 A 
ATOM     11  C   UNL A   1      39.556  24.963  26.510  1.00  0.00     0.010 A 
ATOM     12  C   UNL A   1      40.997  23.538  27.803  1.00  0.00     0.010 A 
ATOM     13  C   UNL A   1      40.624  24.824  27.387  1.00  0.00    -0.014 A 
BRANCH  13  14
ATOM     14  C   UNL A   1      41.369  26.036  27.791  1.00  0.00     0.031 A 
ATOM     15  C   UNL A   1      40.655  27.088  28.582  1.00  0.00     0.074 A 
ATOM     16  C   UNL A   1      42.686  26.150  27.530  1.00  0.00     0.049 A 
ATOM     17  N   UNL A   1      41.086  28.257  28.969  1.00  0.00    -0.248 NA
ATOM     18  C   UNL A   1      39.279  26.779  29.012  1.00  0.00     0.031 C 
ATOM     19  C   UNL A   1      43.511  25.133  26.873  1.00  0.00     0.029 A 
ATOM     20  N   UNL A   1      43.567  27.171  27.787  1.00  0.00    -0.354 N 
ATOM     21  C   UNL A   1      40.022  28.843  29.639  1.00  0.00     0.074 A 
ATOM     22  C   UNL A   1      38.926  27.903  29.615  1.00  0.00     0.031 C 
ATOM     23  C   UNL A   1      44.769  25.588  26.773  1.00  0.00     0.029 A 
ATOM     24  C   UNL A   1      44.818  26.955  27.256  1.00  0.00     0.049 A 
ATOM     25  H   UNL A   1      43.328  27.977  28.298  1.00  0.00     0.167 HD
ATOM     26  C   UNL A   1      39.975  30.057  30.230  1.00  0.00     0.034 A 
ATOM     27  C   UNL A   1      45.871  27.782  27.116  1.00  0.00     0.034 A 
ATOM     28  C   UNL A   1      41.086  30.963  30.276  1.00  0.00     0.049 A 
ATOM     29  C   UNL A   1      45.755  29.162  27.685  1.00  0.00     0.074 A 
ATOM     30  C   UNL A   1      41.155  32.211  30.864  1.00  0.00     0.029 A 
ATOM     31  N   UNL A   1      42.323  30.720  29.697  1.00  0.00    -0.354 N 
ATOM     32  N   UNL A   1      44.760  29.688  28.357  1.00  0.00    -0.248 NA
ATOM     33  C   UNL A   1      46.907  30.054  27.510  1.00  0.00     0.031 C 
ATOM     34  C   UNL A   1      42.424  32.739  30.610  1.00  0.00     0.029 A 
ATOM     35  C   UNL A   1      43.154  31.806  29.890  1.00  0.00     0.049 A 
ATOM     36  H   UNL A   1      42.571  29.895  29.219  1.00  0.00     0.167 HD
ATOM     37  C   UNL A   1      45.177  30.960  28.716  1.00  0.00     0.074 A 
ATOM     38  C   UNL A   1      46.523  31.118  28.201  1.00  0.00     0.031 C 
ATOM     39  C   UNL A   1      44.505  31.915  29.400  1.00  0.00     0.034 A 
BRANCH  26  40
ATOM     40  C   UNL A   1      38.670  30.475  30.843  1.00  0.00     0.023 A 
ATOM     41  C   UNL A   1      38.383  30.165  32.187  1.00  0.00     0.012 A 
ATOM     42  C   UNL A   1      37.732  31.194  30.078  1.00  0.00     0.148 A 
ATOM     43  C   UNL A   1      37.167  30.544  32.754  1.00  0.00     0.002 A 
ATOM     44  C   UNL A   1      36.541  31.603  30.660  1.00  0.00     0.091 A 
ATOM     45  F   UNL A   1      38.020  31.451  28.794  1.00  0.00    -0.205 F 
ATOM     46  C   UNL A   1      36.251  31.270  31.994  1.00  0.00     0.022 A 
BRANCH  44  47
ATOM     47  S   UNL A   1      35.321  32.586  29.785  1.00  0.00     0.127 S 
ATOM     48  O   UNL A   1      34.928  31.678  28.708  1.00  0.00    -0.237 OA
ATOM     49  O   UNL A   1      34.303  32.789  30.815  1.00  0.00    -0.237 OA
ATOM     50  O   UNL A   1      36.009  33.794  29.352  1.00  0.00    -0.744 OA
ENDBRANCH  44  47
ENDBRANCH  26  40
BRANCH  27  51
ATOM     51  C   UNL A   1      47.088  27.352  26.370  1.00  0.00     0.023 A 
ATOM     52  C   UNL A   1      47.195  27.598  24.988  1.00  0.00     0.012 A 
ATOM     53  C   UNL A   1      48.138  26.677  27.028  1.00  0.00     0.148 A 
ATOM     54  C   UNL A   1      48.306  27.150  24.270  1.00  0.00     0.002 A 
ATOM     55  C   UNL A   1      49.260  26.271  26.315  1.00  0.00     0.091 A 
ATOM     56  F   UNL A   1      48.021  26.447  28.343  1.00  0.00    -0.205 F 
ATOM     57  C   UNL A   1      49.341  26.495  24.933  1.00  0.00     0.022 A 
BRANCH  55  58
ATOM     58  S   UNL A   1      50.690  25.530  27.111  1.00  0.00     0.127 S 
ATOM     59  O   UNL A   1      50.127  24.304  27.666  1.00  0.00    -0.237 OA
ATOM     60  O   UNL A   1      51.595  25.342  25.976  1.00  0.00    -0.237 OA
ATOM     61  O   UNL A   1      51.151  26.515  28.081  1.00  0.00    -0.744 OA
ENDBRANCH  55  58
ENDBRANCH  27  51
BRANCH  39  62
ATOM     62  C   UNL A   1      45.231  33.201  29.663  1.00  0.00     0.023 A 
ATOM     63  C   UNL A   1      46.110  33.297  30.759  1.00  0.00     0.012 A 
ATOM     64  C   UNL A   1      45.091  34.288  28.781  1.00  0.00     0.148 A 
ATOM     65  C   UNL A   1      46.822  34.471  30.988  1.00  0.00     0.002 A 
ATOM     66  C   UNL A   1      45.846  35.433  28.983  1.00  0.00     0.091 A 
ATOM     67  F   UNL A   1      44.227  34.176  27.761  1.00  0.00    -0.205 F 
ATOM     68  C   UNL A   1      46.701  35.533  30.092  1.00  0.00     0.022 A 
BRANCH  66  69
ATOM     69  S   UNL A   1      45.831  36.804  27.825  1.00  0.00     0.127 S 
ATOM     70  O   UNL A   1      46.107  36.128  26.559  1.00  0.00    -0.237 OA
ATOM     71  O   UNL A   1      44.464  37.309  27.963  1.00  0.00    -0.237 OA
ATOM     72  O   UNL A   1      46.863  37.726  28.280  1.00  0.00    -0.744 OA
ENDBRANCH  66  69
ENDBRANCH  39  62
ENDBRANCH  13  14
ENDBRANCH   6   8
ENDBRANCH   5   6
ENDBRANCH   4   5
ENDBRANCH   3   4
ENDBRANCH   2   3
ENDBRANCH   1   2
BRANCH   1  73
ATOM     73  C   UNL A   1      32.073  21.211  23.983  1.00  0.00     0.188 C 
BRANCH  73  74
ATOM     74  O   UNL A   1      32.150  22.594  24.335  1.00  0.00    -0.376 OA
BRANCH  74  75
ATOM     75  C   UNL A   1      31.322  23.028  25.408  1.00  0.00     0.202 C 
BRANCH  75  76
ATOM     76  C   UNL A   1      31.899  24.020  26.430  1.00  0.00     0.261 C 
BRANCH  76  77
ATOM     77  O   UNL A   1      32.365  25.281  25.923  1.00  0.00    -0.459 OA
BRANCH  77  78
ATOM     78  C   UNL A   1      31.419  26.260  25.946  1.00  0.00     0.357 C 
ATOM     79  O   UNL A   1      30.382  26.233  26.597  1.00  0.00    -0.244 OA
BRANCH  78  80
ATOM     80  C   UNL A   1      31.672  27.312  24.930  1.00  0.00     0.150 A 
ATOM     81  C   UNL A   1      32.786  27.100  24.131  1.00  0.00     0.036 A 
ATOM     82  N   UNL A   1      30.729  28.276  24.715  1.00  0.00    -0.224 NA
ATOM     83  C   UNL A   1      32.949  27.916  23.032  1.00  0.00     0.006 A 
ATOM     84  C   UNL A   1      30.871  29.029  23.592  1.00  0.00     0.129 A 
ATOM     85  C   UNL A   1      31.992  28.888  22.766  1.00  0.00     0.047 A 
BRANCH  84  86
ATOM     86  N   UNL A   1      29.824  29.857  23.210  1.00  0.00    -0.357 N 
ATOM     87  C   UNL A   1      28.754  29.282  22.409  1.00  0.00     0.118 C 
ATOM     88  C   UNL A   1      29.474  31.002  24.046  1.00  0.00     0.118 C 
ATOM     89  C   UNL A   1      28.122  30.366  21.529  1.00  0.00     0.022 C 
ATOM     90  C   UNL A   1      28.942  32.118  23.150  1.00  0.00     0.022 C 
ATOM     91  C   UNL A   1      27.764  31.632  22.312  1.00  0.00     0.004 C 
ENDBRANCH  84  86
ENDBRANCH  78  80
ENDBRANCH  77  78
ENDBRANCH  76  77
ENDBRANCH  75  76
ENDBRANCH  74  75
ENDBRANCH  73  74
ENDBRANCH   1  73
TORSDOF 21
ENDMDL
MODEL 3
REMARK VINA RESULT:     -10.2      5.639      8.958
REMARK SMILES O=C(OCCOCCOCCOC(=O)c1cccc(N2CCCCC2)n1)c1ccc(-c2c3nc(c(-c4cccc(S(=O)(=O)[O-])c4F)c4ccc([nH]4)c(-c4cccc(S(=O)(=O)[O-])c4F)c4nc(c(-c5cccc(S(=O)(=O)[O-])c5F)c5ccc2[nH]5)C=C4)C=C3)cc1
REMARK SMILES IDX 7 1 6 2 5 3 4 4 3 5 2 6 1 7 27 8 28 9 89 10 29 11 88 12
REMARK SMILES IDX 30 13 31 14 32 15 82 16 33 17 87 18 81 19 83 20 34 21 86 22
REMARK SMILES IDX 80 23 79 24 35 26 67 27 47 28 66 29 48 30 51 31 65 32 84 33
REMARK SMILES IDX 49 34 50 35 64 37 85 38 52 39 36 40 37 41 45 42 38 43 40 44
REMARK SMILES IDX 46 45 39 46 41 47 42 48 43 49 44 50 68 51 69 52 77 53 70 54
REMARK SMILES IDX 72 55 78 56 71 57 73 58 74 59 75 60 76 61 53 62 54 63 62 64
REMARK SMILES IDX 55 65 57 66 63 67 56 68 58 69 59 70 60 71 61 72 8 73 9 74
REMARK SMILES IDX 10 75 11 76 12 77 13 78 14 79 15 80 16 81 26 82 17 83 19 84
REMARK SMILES IDX 18 85 20 86 21 87 25 88 22 89 24 90 23 91
REMARK H PARENT 83 25 51 36
REMARK Flexibility Score: inf
ROOT
ATOM      1  C   UNL A   1      36.876  21.959  25.866  1.00  0.00     0.188 C 
ENDROOT
BRANCH   1   2
ATOM      2  O   UNL A   1      37.827  21.422  24.944  1.00  0.00    -0.376 OA
BRANCH   2   3
ATOM      3  C   UNL A   1      37.827  19.999  24.834  1.00  0.00     0.202 C 
BRANCH   3   4
ATOM      4  C   UNL A   1      38.945  19.250  25.582  1.00  0.00     0.261 C 
BRANCH   4   5
ATOM      5  O   UNL A   1      40.141  20.023  25.775  1.00  0.00    -0.460 OA
BRANCH   5   6
ATOM      6  C   UNL A   1      40.637  20.473  26.960  1.00  0.00     0.338 C 
ATOM      7  O   UNL A   1      40.814  19.670  27.874  1.00  0.00    -0.246 OA
BRANCH   6   8
ATOM      8  C   UNL A   1      40.983  21.906  27.190  1.00  0.00     0.060 A 
ATOM      9  C   UNL A   1      40.507  22.954  26.406  1.00  0.00     0.016 A 
ATOM     10  C   UNL A   1      41.756  22.230  28.315  1.00  0.00     0.016 A 
ATOM     11  C   UNL A   1      40.877  24.270  26.635  1.00  0.00     0.010 A 
ATOM     12  C   UNL A   1      42.049  23.568  28.614  1.00  0.00     0.010 A 
ATOM     13  C   UNL A   1      41.631  24.595  27.754  1.00  0.00    -0.014 A 
BRANCH  13  14
ATOM     14  C   UNL A   1      42.022  26.007  27.957  1.00  0.00     0.031 A 
ATOM     15  C   UNL A   1      43.386  26.446  27.520  1.00  0.00     0.074 A 
ATOM     16  C   UNL A   1      41.137  26.901  28.442  1.00  0.00     0.049 A 
ATOM     17  N   UNL A   1      43.963  27.606  27.674  1.00  0.00    -0.248 NA
ATOM     18  C   UNL A   1      44.204  25.454  26.798  1.00  0.00     0.031 C 
ATOM     19  C   UNL A   1      39.743  26.612  28.787  1.00  0.00     0.029 A 
ATOM     20  N   UNL A   1      41.275  28.236  28.729  1.00  0.00    -0.354 N 
ATOM     21  C   UNL A   1      45.226  27.469  27.118  1.00  0.00     0.074 A 
ATOM     22  C   UNL A   1      45.334  26.118  26.616  1.00  0.00     0.031 C 
ATOM     23  C   UNL A   1      39.164  27.731  29.245  1.00  0.00     0.029 A 
ATOM     24  C   UNL A   1      40.162  28.781  29.326  1.00  0.00     0.049 A 
ATOM     25  H   UNL A   1      42.089  28.752  28.529  1.00  0.00     0.167 HD
ATOM     26  C   UNL A   1      46.203  28.397  27.028  1.00  0.00     0.034 A 
ATOM     27  C   UNL A   1      39.978  29.970  29.929  1.00  0.00     0.034 A 
ATOM     28  C   UNL A   1      46.065  29.745  27.500  1.00  0.00     0.049 A 
ATOM     29  C   UNL A   1      41.116  30.945  29.911  1.00  0.00     0.074 A 
ATOM     30  C   UNL A   1      46.984  30.775  27.443  1.00  0.00     0.029 A 
ATOM     31  N   UNL A   1      44.935  30.246  28.129  1.00  0.00    -0.354 N 
ATOM     32  N   UNL A   1      42.290  30.821  29.341  1.00  0.00    -0.248 NA
ATOM     33  C   UNL A   1      40.901  32.231  30.585  1.00  0.00     0.031 C 
ATOM     34  C   UNL A   1      46.422  31.890  28.071  1.00  0.00     0.029 A 
ATOM     35  C   UNL A   1      45.142  31.563  28.491  1.00  0.00     0.049 A 
ATOM     36  H   UNL A   1      44.106  29.738  28.293  1.00  0.00     0.167 HD
ATOM     37  C   UNL A   1      42.943  32.023  29.557  1.00  0.00     0.074 A 
ATOM     38  C   UNL A   1      42.026  32.870  30.295  1.00  0.00     0.031 C 
ATOM     39  C   UNL A   1      44.192  32.392  29.188  1.00  0.00     0.034 A 
BRANCH  26  40
ATOM     40  C   UNL A   1      47.509  27.969  26.424  1.00  0.00     0.023 A 
ATOM     41  C   UNL A   1      48.598  27.632  27.252  1.00  0.00     0.012 A 
ATOM     42  C   UNL A   1      47.644  27.886  25.026  1.00  0.00     0.148 A 
ATOM     43  C   UNL A   1      49.815  27.243  26.692  1.00  0.00     0.002 A 
ATOM     44  C   UNL A   1      48.845  27.461  24.477  1.00  0.00     0.091 A 
ATOM     45  F   UNL A   1      46.600  28.239  24.263  1.00  0.00    -0.205 F 
ATOM     46  C   UNL A   1      49.935  27.149  25.306  1.00  0.00     0.022 A 
BRANCH  44  47
ATOM     47  S   UNL A   1      49.085  27.256  22.710  1.00  0.00     0.127 S 
ATOM     48  O   UNL A   1      48.343  26.023  22.452  1.00  0.00    -0.237 OA
ATOM     49  O   UNL A   1      48.463  28.467  22.178  1.00  0.00    -0.237 OA
ATOM     50  O   UNL A   1      50.524  27.162  22.504  1.00  0.00    -0.744 OA
ENDBRANCH  44  47
ENDBRANCH  26  40
BRANCH  27  51
ATOM     51  C   UNL A   1      38.703  30.282  30.637  1.00  0.00     0.023 A 
ATOM     52  C   UNL A   1      38.472  29.780  31.931  1.00  0.00     0.012 A 
ATOM     53  C   UNL A   1      37.704  31.061  30.017  1.00  0.00     0.148 A 
ATOM     54  C   UNL A   1      37.259  30.019  32.581  1.00  0.00     0.002 A 
ATOM     55  C   UNL A   1      36.516  31.331  30.685  1.00  0.00     0.091 A 
ATOM     56  F   UNL A   1      37.937  31.529  28.783  1.00  0.00    -0.205 F 
ATOM     57  C   UNL A   1      36.285  30.799  31.962  1.00  0.00     0.022 A 
BRANCH  55  58
ATOM     58  S   UNL A   1      35.260  32.426  30.013  1.00  0.00     0.127 S 
ATOM     59  O   UNL A   1      34.763  31.656  28.877  1.00  0.00    -0.237 OA
ATOM     60  O   UNL A   1      34.334  32.541  31.140  1.00  0.00    -0.237 OA
ATOM     61  O   UNL A   1      35.955  33.664  29.687  1.00  0.00    -0.744 OA
ENDBRANCH  55  58
ENDBRANCH  27  51
BRANCH  39  62
ATOM     62  C   UNL A   1      44.624  33.783  29.545  1.00  0.00     0.023 A 
ATOM     63  C   UNL A   1      45.329  34.013  30.742  1.00  0.00     0.012 A 
ATOM     64  C   UNL A   1      44.389  34.848  28.655  1.00  0.00     0.148 A 
ATOM     65  C   UNL A   1      45.772  35.292  31.061  1.00  0.00     0.002 A 
ATOM     66  C   UNL A   1      44.883  36.109  28.954  1.00  0.00     0.091 A 
ATOM     67  F   UNL A   1      43.693  34.604  27.535  1.00  0.00    -0.205 F 
ATOM     68  C   UNL A   1      45.562  36.337  30.162  1.00  0.00     0.022 A 
BRANCH  66  69
ATOM     69  S   UNL A   1      44.750  37.484  27.808  1.00  0.00     0.127 S 
ATOM     70  O   UNL A   1      46.098  37.535  27.247  1.00  0.00    -0.237 OA
ATOM     71  O   UNL A   1      43.719  37.014  26.882  1.00  0.00    -0.237 OA
ATOM     72  O   UNL A   1      44.362  38.637  28.608  1.00  0.00    -0.744 OA
ENDBRANCH  66  69
ENDBRANCH  39  62
ENDBRANCH  13  14
ENDBRANCH   6   8
ENDBRANCH   5   6
ENDBRANCH   4   5
ENDBRANCH   3   4
ENDBRANCH   2   3
ENDBRANCH   1   2
BRANCH   1  73
ATOM     73  C   UNL A   1      36.273  23.276  25.371  1.00  0.00     0.188 C 
BRANCH  73  74
ATOM     74  O   UNL A   1      36.352  23.515  23.965  1.00  0.00    -0.376 OA
BRANCH  74  75
ATOM     75  C   UNL A   1      35.216  23.149  23.189  1.00  0.00     0.202 C 
BRANCH  75  76
ATOM     76  C   UNL A   1      33.925  23.968  23.339  1.00  0.00     0.261 C 
BRANCH  76  77
ATOM     77  O   UNL A   1      34.060  25.398  23.358  1.00  0.00    -0.459 OA
BRANCH  77  78
ATOM     78  C   UNL A   1      33.545  25.979  24.478  1.00  0.00     0.357 C 
ATOM     79  O   UNL A   1      34.185  26.296  25.473  1.00  0.00    -0.244 OA
BRANCH  78  80
ATOM     80  C   UNL A   1      32.062  26.019  24.461  1.00  0.00     0.150 A 
ATOM     81  C   UNL A   1      31.444  25.300  25.473  1.00  0.00     0.036 A 
ATOM     82  N   UNL A   1      31.425  26.881  23.616  1.00  0.00    -0.224 NA
ATOM     83  C   UNL A   1      30.088  25.475  25.645  1.00  0.00     0.006 A 
ATOM     84  C   UNL A   1      30.101  27.091  23.840  1.00  0.00     0.129 A 
ATOM     85  C   UNL A   1      29.414  26.368  24.822  1.00  0.00     0.047 A 
BRANCH  84  86
ATOM     86  N   UNL A   1      29.466  28.123  23.163  1.00  0.00    -0.357 N 
ATOM     87  C   UNL A   1      30.211  28.821  22.125  1.00  0.00     0.118 C 
ATOM     88  C   UNL A   1      28.012  28.102  23.024  1.00  0.00     0.118 C 
ATOM     89  C   UNL A   1      29.703  30.261  21.998  1.00  0.00     0.022 C 
ATOM     90  C   UNL A   1      27.503  29.541  23.003  1.00  0.00     0.022 C 
ATOM     91  C   UNL A   1      28.178  30.345  21.897  1.00  0.00     0.004 C 
ENDBRANCH  84  86
ENDBRANCH  78  80
ENDBRANCH  77  78
ENDBRANCH  76  77
ENDBRANCH  75  76
ENDBRANCH  74  75
ENDBRANCH  73  74
ENDBRANCH   1  73
TORSDOF 21
ENDMDL
