MODEL 1
REMARK VINA RESULT:      -9.0      0.000      0.000
REMARK SMILES CC1=C[C@@H]([C@@H]2N=N[C@H](S)N2/N=C/c2ccc(C(=O)OCCOCCOCCOC(=O)c3ccc(-c4c5nc(c(-c6cccc(S(=O)(=O)[O-])c6F)c6ccc([nH]6)c(-c6cccc(S(=O)(=O)[O-])c6F)c6nc(c(-c7cccc(S(=O)(=O)[O-])c7F)c7ccc4[nH]7)C=C6)C=C5)cc3)cc2)N=N1
REMARK SMILES IDX 23 1 22 2 21 3 20 4 19 5 17 6 18 7 16 8 13 9 14 10 95 11
REMARK SMILES IDX 15 12 94 13 12 14 11 15 10 16 5 17 6 18 7 19 8 20 4 21 1 22
REMARK SMILES IDX 2 23 3 24 97 25 96 26 9 27 24 29 25 30 26 31 27 32 28 33
REMARK SMILES IDX 29 34 30 35 31 36 32 37 93 38 33 39 92 40 34 41 35 42 36 43
REMARK SMILES IDX 86 44 37 45 91 46 85 47 87 48 38 49 90 50 84 51 83 52 39 54
REMARK SMILES IDX 71 55 51 56 70 57 52 58 55 59 69 60 88 61 53 62 54 63 68 65
REMARK SMILES IDX 89 66 56 67 40 68 41 69 49 70 42 71 44 72 50 73 43 74 45 75
REMARK SMILES IDX 46 76 47 77 48 78 72 79 73 80 81 81 74 82 76 83 82 84 75 85
REMARK SMILES IDX 77 86 78 87 79 88 80 89 57 90 58 91 66 92 59 93 61 94 67 95
REMARK SMILES IDX 60 96 62 97 63 98 64 99 65 100
REMARK H PARENT 9 28 87 53 55 64
REMARK Flexibility Score: inf
ROOT
ATOM      1  C   UNL A   1      46.730  38.825  28.525  1.00  0.00     0.188 C 
ENDROOT
BRANCH   1   2
ATOM      2  O   UNL A   1      45.835  37.761  28.223  1.00  0.00    -0.376 OA
BRANCH   2   3
ATOM      3  C   UNL A   1      44.434  37.940  28.391  1.00  0.00     0.202 C 
BRANCH   3   4
ATOM      4  C   UNL A   1      43.515  38.086  27.163  1.00  0.00     0.261 C 
BRANCH   4   5
ATOM      5  O   UNL A   1      42.160  38.468  27.450  1.00  0.00    -0.460 OA
BRANCH   5   6
ATOM      6  C   UNL A   1      41.969  39.755  27.809  1.00  0.00     0.338 C 
ATOM      7  O   UNL A   1      41.634  40.172  28.912  1.00  0.00    -0.246 OA
BRANCH   6   8
ATOM      8  C   UNL A   1      42.380  40.663  26.717  1.00  0.00     0.060 A 
ATOM      9  C   UNL A   1      43.107  42.228  24.532  1.00  0.00    -0.005 A 
ATOM     10  C   UNL A   1      41.877  41.566  24.524  1.00  0.00     0.010 A 
ATOM     11  C   UNL A   1      43.951  42.158  25.647  1.00  0.00     0.010 A 
ATOM     12  C   UNL A   1      41.526  40.767  25.609  1.00  0.00     0.016 A 
ATOM     13  C   UNL A   1      43.577  41.387  26.755  1.00  0.00     0.016 A 
BRANCH   9  14
ATOM     14  C   UNL A   1      43.515  42.934  23.306  1.00  0.00     0.141 C 
ATOM     15  N   UNL A   1      44.483  42.480  22.576  1.00  0.00    -0.180 NA
BRANCH  15  16
ATOM     16  N   UNL A   1      44.785  43.129  21.418  1.00  0.00    -0.233 NA
ATOM     17  C   UNL A   1      43.753  44.007  20.846  1.00  0.00     0.274 C 
ATOM     18  N   UNL A   1      44.430  45.092  20.092  1.00  0.00    -0.161 NA
ATOM     19  N   UNL A   1      45.669  45.026  20.255  1.00  0.00    -0.153 NA
ATOM     20  C   UNL A   1      46.017  43.861  21.100  1.00  0.00     0.298 C 
BRANCH  17  21
ATOM     21  C   UNL A   1      42.772  43.228  19.938  1.00  0.00     0.201 C 
ATOM     22  C   UNL A   1      41.122  44.842  17.039  1.00  0.00     0.068 C 
ATOM     23  C   UNL A   1      41.581  44.184  18.288  1.00  0.00     0.058 C 
ATOM     24  C   UNL A   1      42.780  43.652  18.508  1.00  0.00     0.031 C 
ATOM     25  N   UNL A   1      40.753  44.082  19.376  1.00  0.00    -0.160 NA
ATOM     26  N   UNL A   1      41.358  43.515  20.333  1.00  0.00    -0.177 NA
ENDBRANCH  17  21
BRANCH  20  27
ATOM     27  S   UNL A   1      47.222  42.734  20.306  1.00  0.00    -0.128 SA
ATOM     28  H   UNL A   1      48.391  43.397  20.093  1.00  0.00     0.106 HD
ENDBRANCH  20  27
ENDBRANCH  15  16
ENDBRANCH   9  14
ENDBRANCH   6   8
ENDBRANCH   5   6
ENDBRANCH   4   5
ENDBRANCH   3   4
ENDBRANCH   2   3
ENDBRANCH   1   2
BRANCH   1  29
ATOM     29  C   UNL A   1      47.882  38.614  29.533  1.00  0.00     0.188 C 
BRANCH  29  30
ATOM     30  O   UNL A   1      47.496  37.964  30.727  1.00  0.00    -0.376 OA
BRANCH  30  31
ATOM     31  C   UNL A   1      47.482  38.688  31.947  1.00  0.00     0.202 C 
BRANCH  31  32
ATOM     32  C   UNL A   1      46.259  39.493  32.399  1.00  0.00     0.261 C 
BRANCH  32  33
ATOM     33  O   UNL A   1      45.144  39.499  31.524  1.00  0.00    -0.460 OA
BRANCH  33  34
ATOM     34  C   UNL A   1      43.943  39.458  32.124  1.00  0.00     0.338 C 
ATOM     35  O   UNL A   1      43.143  40.387  32.222  1.00  0.00    -0.246 OA
BRANCH  34  36
ATOM     36  C   UNL A   1      43.736  38.121  32.685  1.00  0.00     0.060 A 
ATOM     37  C   UNL A   1      43.947  37.025  31.844  1.00  0.00     0.016 A 
ATOM     38  C   UNL A   1      43.125  37.983  33.942  1.00  0.00     0.016 A 
ATOM     39  C   UNL A   1      43.377  35.817  32.183  1.00  0.00     0.010 A 
ATOM     40  C   UNL A   1      42.549  36.775  34.274  1.00  0.00     0.010 A 
ATOM     41  C   UNL A   1      42.607  35.736  33.347  1.00  0.00    -0.014 A 
BRANCH  41  42
ATOM     42  C   UNL A   1      41.751  34.577  33.498  1.00  0.00     0.031 A 
ATOM     43  C   UNL A   1      40.551  34.523  32.641  1.00  0.00     0.074 A 
ATOM     44  C   UNL A   1      42.099  33.568  34.321  1.00  0.00     0.049 A 
ATOM     45  N   UNL A   1      39.313  34.481  33.012  1.00  0.00    -0.248 NA
ATOM     46  C   UNL A   1      40.754  34.594  31.189  1.00  0.00     0.031 C 
ATOM     47  C   UNL A   1      43.405  33.357  34.958  1.00  0.00     0.029 A 
ATOM     48  N   UNL A   1      41.409  32.435  34.631  1.00  0.00    -0.354 N 
ATOM     49  C   UNL A   1      38.588  34.303  31.839  1.00  0.00     0.074 A 
ATOM     50  C   UNL A   1      39.499  34.530  30.746  1.00  0.00     0.031 C 
ATOM     51  C   UNL A   1      43.495  32.070  35.350  1.00  0.00     0.029 A 
ATOM     52  C   UNL A   1      42.220  31.417  35.110  1.00  0.00     0.049 A 
ATOM     53  H   UNL A   1      40.434  32.347  34.526  1.00  0.00     0.167 HD
ATOM     54  C   UNL A   1      37.344  33.756  31.836  1.00  0.00     0.034 A 
ATOM     55  C   UNL A   1      41.898  30.107  35.202  1.00  0.00     0.034 A 
ATOM     56  C   UNL A   1      36.736  33.749  33.136  1.00  0.00     0.049 A 
ATOM     57  C   UNL A   1      40.421  29.996  35.159  1.00  0.00     0.074 A 
ATOM     58  C   UNL A   1      36.387  34.708  34.064  1.00  0.00     0.029 A 
ATOM     59  N   UNL A   1      36.665  32.542  33.785  1.00  0.00    -0.354 N 
ATOM     60  N   UNL A   1      39.623  30.403  36.106  1.00  0.00    -0.248 NA
ATOM     61  C   UNL A   1      39.786  29.720  33.881  1.00  0.00     0.031 C 
ATOM     62  C   UNL A   1      36.527  34.073  35.330  1.00  0.00     0.029 A 
ATOM     63  C   UNL A   1      36.957  32.763  35.103  1.00  0.00     0.049 A 
ATOM     64  H   UNL A   1      36.443  31.674  33.375  1.00  0.00     0.167 HD
ATOM     65  C   UNL A   1      38.480  30.828  35.441  1.00  0.00     0.074 A 
ATOM     66  C   UNL A   1      38.582  30.251  34.107  1.00  0.00     0.031 C 
ATOM     67  C   UNL A   1      37.708  31.843  35.934  1.00  0.00     0.034 A 
BRANCH  54  68
ATOM     68  C   UNL A   1      36.793  32.931  30.706  1.00  0.00     0.023 A 
ATOM     69  C   UNL A   1      35.522  33.272  30.196  1.00  0.00     0.012 A 
ATOM     70  C   UNL A   1      37.344  31.697  30.296  1.00  0.00     0.148 A 
ATOM     71  C   UNL A   1      34.829  32.418  29.332  1.00  0.00     0.002 A 
ATOM     72  C   UNL A   1      36.693  30.897  29.363  1.00  0.00     0.091 A 
ATOM     73  F   UNL A   1      38.436  31.214  30.901  1.00  0.00    -0.205 F 
ATOM     74  C   UNL A   1      35.423  31.238  28.898  1.00  0.00     0.022 A 
BRANCH  72  75
ATOM     75  S   UNL A   1      37.493  29.425  28.721  1.00  0.00     0.127 S 
ATOM     76  O   UNL A   1      37.611  28.603  29.920  1.00  0.00    -0.237 OA
ATOM     77  O   UNL A   1      36.522  28.948  27.735  1.00  0.00    -0.237 OA
ATOM     78  O   UNL A   1      38.736  29.914  28.136  1.00  0.00    -0.744 OA
ENDBRANCH  72  75
ENDBRANCH  54  68
BRANCH  55  79
ATOM     79  C   UNL A   1      42.786  28.929  35.098  1.00  0.00     0.023 A 
ATOM     80  C   UNL A   1      42.741  27.933  36.090  1.00  0.00     0.012 A 
ATOM     81  C   UNL A   1      43.518  28.661  33.918  1.00  0.00     0.148 A 
ATOM     82  C   UNL A   1      43.388  26.705  35.909  1.00  0.00     0.002 A 
ATOM     83  C   UNL A   1      44.181  27.449  33.751  1.00  0.00     0.091 A 
ATOM     84  F   UNL A   1      43.491  29.554  32.920  1.00  0.00    -0.205 F 
ATOM     85  C   UNL A   1      44.108  26.463  34.742  1.00  0.00     0.022 A 
BRANCH  83  86
ATOM     86  S   UNL A   1      45.138  27.084  32.274  1.00  0.00     0.127 S 
ATOM     87  O   UNL A   1      46.227  28.059  32.364  1.00  0.00    -0.237 OA
ATOM     88  O   UNL A   1      45.537  25.699  32.504  1.00  0.00    -0.237 OA
ATOM     89  O   UNL A   1      44.232  27.310  31.154  1.00  0.00    -0.744 OA
ENDBRANCH  83  86
ENDBRANCH  55  79
BRANCH  67  90
ATOM     90  C   UNL A   1      37.904  32.273  37.367  1.00  0.00     0.023 A 
ATOM     91  C   UNL A   1      37.200  31.658  38.423  1.00  0.00     0.012 A 
ATOM     92  C   UNL A   1      38.965  33.144  37.673  1.00  0.00     0.148 A 
ATOM     93  C   UNL A   1      37.536  31.918  39.753  1.00  0.00     0.002 A 
ATOM     94  C   UNL A   1      39.329  33.361  38.997  1.00  0.00     0.091 A 
ATOM     95  F   UNL A   1      39.631  33.717  36.658  1.00  0.00    -0.205 F 
ATOM     96  C   UNL A   1      38.611  32.756  40.041  1.00  0.00     0.022 A 
BRANCH  94  97
ATOM     97  S   UNL A   1      40.798  34.302  39.428  1.00  0.00     0.127 S 
ATOM     98  O   UNL A   1      41.868  33.346  39.152  1.00  0.00    -0.237 OA
ATOM     99  O   UNL A   1      40.735  35.433  38.500  1.00  0.00    -0.237 OA
ATOM    100  O   UNL A   1      40.632  34.676  40.827  1.00  0.00    -0.744 OA
ENDBRANCH  94  97
ENDBRANCH  67  90
ENDBRANCH  41  42
ENDBRANCH  34  36
ENDBRANCH  33  34
ENDBRANCH  32  33
ENDBRANCH  31  32
ENDBRANCH  30  31
ENDBRANCH  29  30
ENDBRANCH   1  29
TORSDOF 24
ENDMDL
MODEL 2
REMARK VINA RESULT:      -8.8      7.680     15.500
REMARK SMILES CC1=C[C@@H]([C@@H]2N=N[C@H](S)N2/N=C/c2ccc(C(=O)OCCOCCOCCOC(=O)c3ccc(-c4c5nc(c(-c6cccc(S(=O)(=O)[O-])c6F)c6ccc([nH]6)c(-c6cccc(S(=O)(=O)[O-])c6F)c6nc(c(-c7cccc(S(=O)(=O)[O-])c7F)c7ccc4[nH]7)C=C6)C=C5)cc3)cc2)N=N1
REMARK SMILES IDX 23 1 22 2 21 3 20 4 19 5 17 6 18 7 16 8 13 9 14 10 95 11
REMARK SMILES IDX 15 12 94 13 12 14 11 15 10 16 5 17 6 18 7 19 8 20 4 21 1 22
REMARK SMILES IDX 2 23 3 24 97 25 96 26 9 27 24 29 25 30 26 31 27 32 28 33
REMARK SMILES IDX 29 34 30 35 31 36 32 37 93 38 33 39 92 40 34 41 35 42 36 43
REMARK SMILES IDX 86 44 37 45 91 46 85 47 87 48 38 49 90 50 84 51 83 52 39 54
REMARK SMILES IDX 71 55 51 56 70 57 52 58 55 59 69 60 88 61 53 62 54 63 68 65
REMARK SMILES IDX 89 66 56 67 40 68 41 69 49 70 42 71 44 72 50 73 43 74 45 75
REMARK SMILES IDX 46 76 47 77 48 78 72 79 73 80 81 81 74 82 76 83 82 84 75 85
REMARK SMILES IDX 77 86 78 87 79 88 80 89 57 90 58 91 66 92 59 93 61 94 67 95
REMARK SMILES IDX 60 96 62 97 63 98 64 99 65 100
REMARK H PARENT 9 28 87 53 55 64
REMARK Flexibility Score: inf
ROOT
ATOM      1  C   UNL A   1      45.975  29.589  38.184  1.00  0.00     0.188 C 
ENDROOT
BRANCH   1   2
ATOM      2  O   UNL A   1      44.635  30.048  38.313  1.00  0.00    -0.376 OA
BRANCH   2   3
ATOM      3  C   UNL A   1      43.998  30.700  37.221  1.00  0.00     0.202 C 
BRANCH   3   4
ATOM      4  C   UNL A   1      42.797  30.043  36.515  1.00  0.00     0.261 C 
BRANCH   4   5
ATOM      5  O   UNL A   1      42.410  28.757  37.026  1.00  0.00    -0.460 OA
BRANCH   5   6
ATOM      6  C   UNL A   1      41.723  27.963  36.178  1.00  0.00     0.338 C 
ATOM      7  O   UNL A   1      40.808  28.296  35.432  1.00  0.00    -0.246 OA
BRANCH   6   8
ATOM      8  C   UNL A   1      42.326  26.614  36.128  1.00  0.00     0.060 A 
ATOM      9  C   UNL A   1      43.640  24.161  36.051  1.00  0.00    -0.005 A 
ATOM     10  C   UNL A   1      43.971  25.086  37.043  1.00  0.00     0.010 A 
ATOM     11  C   UNL A   1      42.620  24.431  35.131  1.00  0.00     0.010 A 
ATOM     12  C   UNL A   1      43.327  26.321  37.066  1.00  0.00     0.016 A 
ATOM     13  C   UNL A   1      41.944  25.656  35.182  1.00  0.00     0.016 A 
BRANCH   9  14
ATOM     14  C   UNL A   1      44.449  22.933  35.959  1.00  0.00     0.141 C 
ATOM     15  N   UNL A   1      45.591  22.850  36.562  1.00  0.00    -0.180 NA
BRANCH  15  16
ATOM     16  N   UNL A   1      46.274  21.675  36.503  1.00  0.00    -0.233 NA
ATOM     17  C   UNL A   1      46.152  20.762  37.649  1.00  0.00     0.274 C 
ATOM     18  N   UNL A   1      46.322  19.371  37.159  1.00  0.00    -0.161 NA
ATOM     19  N   UNL A   1      46.399  19.358  35.910  1.00  0.00    -0.153 NA
ATOM     20  C   UNL A   1      46.341  20.737  35.374  1.00  0.00     0.298 C 
BRANCH  17  21
ATOM     21  C   UNL A   1      47.178  21.089  38.759  1.00  0.00     0.201 C 
ATOM     22  C   UNL A   1      47.965  24.586  39.698  1.00  0.00     0.068 C 
ATOM     23  C   UNL A   1      47.857  23.176  39.248  1.00  0.00     0.058 C 
ATOM     24  C   UNL A   1      46.878  22.324  39.539  1.00  0.00     0.031 C 
ATOM     25  N   UNL A   1      48.815  22.619  38.439  1.00  0.00    -0.160 NA
ATOM     26  N   UNL A   1      48.507  21.423  38.157  1.00  0.00    -0.177 NA
ENDBRANCH  17  21
BRANCH  20  27
ATOM     27  S   UNL A   1      47.769  21.152  34.306  1.00  0.00    -0.128 SA
ATOM     28  H   UNL A   1      48.106  20.067  33.559  1.00  0.00     0.106 HD
ENDBRANCH  20  27
ENDBRANCH  15  16
ENDBRANCH   9  14
ENDBRANCH   6   8
ENDBRANCH   5   6
ENDBRANCH   4   5
ENDBRANCH   3   4
ENDBRANCH   2   3
ENDBRANCH   1   2
BRANCH   1  29
ATOM     29  C   UNL A   1      46.395  28.227  38.780  1.00  0.00     0.188 C 
BRANCH  29  30
ATOM     30  O   UNL A   1      47.757  28.151  39.150  1.00  0.00    -0.376 OA
BRANCH  30  31
ATOM     31  C   UNL A   1      48.743  28.741  38.318  1.00  0.00     0.202 C 
BRANCH  31  32
ATOM     32  C   UNL A   1      49.335  28.003  37.113  1.00  0.00     0.261 C 
BRANCH  32  33
ATOM     33  O   UNL A   1      48.453  27.733  36.037  1.00  0.00    -0.460 OA
BRANCH  33  34
ATOM     34  C   UNL A   1      48.221  26.432  35.797  1.00  0.00     0.338 C 
ATOM     35  O   UNL A   1      48.949  25.491  36.108  1.00  0.00    -0.246 OA
BRANCH  34  36
ATOM     36  C   UNL A   1      46.960  26.300  35.065  1.00  0.00     0.060 A 
ATOM     37  C   UNL A   1      46.832  25.226  34.180  1.00  0.00     0.016 A 
ATOM     38  C   UNL A   1      46.028  27.351  35.092  1.00  0.00     0.016 A 
ATOM     39  C   UNL A   1      45.872  25.297  33.193  1.00  0.00     0.010 A 
ATOM     40  C   UNL A   1      45.075  27.424  34.099  1.00  0.00     0.010 A 
ATOM     41  C   UNL A   1      45.071  26.440  33.112  1.00  0.00    -0.014 A 
BRANCH  41  42
ATOM     42  C   UNL A   1      44.325  26.642  31.886  1.00  0.00     0.031 A 
ATOM     43  C   UNL A   1      44.498  25.626  30.830  1.00  0.00     0.074 A 
ATOM     44  C   UNL A   1      43.454  27.663  31.772  1.00  0.00     0.049 A 
ATOM     45  N   UNL A   1      44.952  25.797  29.632  1.00  0.00    -0.248 NA
ATOM     46  C   UNL A   1      44.191  24.232  31.176  1.00  0.00     0.031 C 
ATOM     47  C   UNL A   1      42.955  28.525  32.851  1.00  0.00     0.029 A 
ATOM     48  N   UNL A   1      42.709  28.042  30.695  1.00  0.00    -0.354 N 
ATOM     49  C   UNL A   1      44.787  24.569  29.000  1.00  0.00     0.074 A 
ATOM     50  C   UNL A   1      44.461  23.613  30.028  1.00  0.00     0.031 C 
ATOM     51  C   UNL A   1      41.825  29.133  32.436  1.00  0.00     0.029 A 
ATOM     52  C   UNL A   1      41.602  28.803  31.039  1.00  0.00     0.049 A 
ATOM     53  H   UNL A   1      42.934  27.798  29.768  1.00  0.00     0.167 HD
ATOM     54  C   UNL A   1      44.701  24.458  27.650  1.00  0.00     0.034 A 
ATOM     55  C   UNL A   1      40.526  29.057  30.260  1.00  0.00     0.034 A 
ATOM     56  C   UNL A   1      45.170  25.629  26.964  1.00  0.00     0.049 A 
ATOM     57  C   UNL A   1      40.910  28.799  28.853  1.00  0.00     0.074 A 
ATOM     58  C   UNL A   1      46.362  26.320  26.901  1.00  0.00     0.029 A 
ATOM     59  N   UNL A   1      44.222  26.447  26.405  1.00  0.00    -0.354 N 
ATOM     60  N   UNL A   1      41.751  29.527  28.172  1.00  0.00    -0.248 NA
ATOM     61  C   UNL A   1      40.603  27.499  28.279  1.00  0.00     0.031 C 
ATOM     62  C   UNL A   1      45.998  27.679  26.687  1.00  0.00     0.029 A 
ATOM     63  C   UNL A   1      44.603  27.741  26.636  1.00  0.00     0.049 A 
ATOM     64  H   UNL A   1      43.413  26.156  25.924  1.00  0.00     0.167 HD
ATOM     65  C   UNL A   1      42.386  28.629  27.323  1.00  0.00     0.074 A 
ATOM     66  C   UNL A   1      41.541  27.441  27.332  1.00  0.00     0.031 C 
ATOM     67  C   UNL A   1      43.680  28.820  26.928  1.00  0.00     0.034 A 
BRANCH  54  68
ATOM     68  C   UNL A   1      43.891  23.406  26.943  1.00  0.00     0.023 A 
ATOM     69  C   UNL A   1      42.509  23.341  27.216  1.00  0.00     0.012 A 
ATOM     70  C   UNL A   1      44.459  22.329  26.227  1.00  0.00     0.148 A 
ATOM     71  C   UNL A   1      41.734  22.249  26.808  1.00  0.00     0.002 A 
ATOM     72  C   UNL A   1      43.668  21.296  25.741  1.00  0.00     0.091 A 
ATOM     73  F   UNL A   1      45.789  22.221  26.121  1.00  0.00    -0.205 F 
ATOM     74  C   UNL A   1      42.309  21.234  26.052  1.00  0.00     0.022 A 
BRANCH  72  75
ATOM     75  S   UNL A   1      44.378  20.035  24.681  1.00  0.00     0.127 S 
ATOM     76  O   UNL A   1      45.538  19.611  25.458  1.00  0.00    -0.237 OA
ATOM     77  O   UNL A   1      43.297  19.052  24.595  1.00  0.00    -0.237 OA
ATOM     78  O   UNL A   1      44.648  20.726  23.425  1.00  0.00    -0.744 OA
ENDBRANCH  72  75
ENDBRANCH  54  68
BRANCH  55  79
ATOM     79  C   UNL A   1      39.125  29.290  30.671  1.00  0.00     0.023 A 
ATOM     80  C   UNL A   1      38.591  28.574  31.758  1.00  0.00     0.012 A 
ATOM     81  C   UNL A   1      38.375  30.370  30.151  1.00  0.00     0.148 A 
ATOM     82  C   UNL A   1      37.359  28.930  32.319  1.00  0.00     0.002 A 
ATOM     83  C   UNL A   1      37.139  30.706  30.696  1.00  0.00     0.091 A 
ATOM     84  F   UNL A   1      38.910  31.127  29.184  1.00  0.00    -0.205 F 
ATOM     85  C   UNL A   1      36.633  29.994  31.790  1.00  0.00     0.022 A 
BRANCH  83  86
ATOM     86  S   UNL A   1      36.150  32.059  30.046  1.00  0.00     0.127 S 
ATOM     87  O   UNL A   1      37.072  33.192  30.148  1.00  0.00    -0.237 OA
ATOM     88  O   UNL A   1      35.880  31.611  28.682  1.00  0.00    -0.237 OA
ATOM     89  O   UNL A   1      34.992  32.156  30.926  1.00  0.00    -0.744 OA
ENDBRANCH  83  86
ENDBRANCH  55  79
BRANCH  67  90
ATOM     90  C   UNL A   1      44.309  30.176  27.133  1.00  0.00     0.023 A 
ATOM     91  C   UNL A   1      44.166  31.206  26.182  1.00  0.00     0.012 A 
ATOM     92  C   UNL A   1      44.856  30.483  28.393  1.00  0.00     0.148 A 
ATOM     93  C   UNL A   1      44.573  32.509  26.473  1.00  0.00     0.002 A 
ATOM     94  C   UNL A   1      45.213  31.792  28.697  1.00  0.00     0.091 A 
ATOM     95  F   UNL A   1      44.980  29.493  29.291  1.00  0.00    -0.205 F 
ATOM     96  C   UNL A   1      45.081  32.807  27.736  1.00  0.00     0.022 A 
BRANCH  94  97
ATOM     97  S   UNL A   1      45.726  32.268  30.352  1.00  0.00     0.127 S 
ATOM     98  O   UNL A   1      45.954  33.703  30.201  1.00  0.00    -0.237 OA
ATOM     99  O   UNL A   1      44.556  31.917  31.160  1.00  0.00    -0.237 OA
ATOM    100  O   UNL A   1      46.909  31.468  30.646  1.00  0.00    -0.744 OA
ENDBRANCH  94  97
ENDBRANCH  67  90
ENDBRANCH  41  42
ENDBRANCH  34  36
ENDBRANCH  33  34
ENDBRANCH  32  33
ENDBRANCH  31  32
ENDBRANCH  30  31
ENDBRANCH  29  30
ENDBRANCH   1  29
TORSDOF 24
ENDMDL
MODEL 3
REMARK VINA RESULT:      -8.8      6.871     11.437
REMARK SMILES CC1=C[C@@H]([C@@H]2N=N[C@H](S)N2/N=C/c2ccc(C(=O)OCCOCCOCCOC(=O)c3ccc(-c4c5nc(c(-c6cccc(S(=O)(=O)[O-])c6F)c6ccc([nH]6)c(-c6cccc(S(=O)(=O)[O-])c6F)c6nc(c(-c7cccc(S(=O)(=O)[O-])c7F)c7ccc4[nH]7)C=C6)C=C5)cc3)cc2)N=N1
REMARK SMILES IDX 23 1 22 2 21 3 20 4 19 5 17 6 18 7 16 8 13 9 14 10 95 11
REMARK SMILES IDX 15 12 94 13 12 14 11 15 10 16 5 17 6 18 7 19 8 20 4 21 1 22
REMARK SMILES IDX 2 23 3 24 97 25 96 26 9 27 24 29 25 30 26 31 27 32 28 33
REMARK SMILES IDX 29 34 30 35 31 36 32 37 93 38 33 39 92 40 34 41 35 42 36 43
REMARK SMILES IDX 86 44 37 45 91 46 85 47 87 48 38 49 90 50 84 51 83 52 39 54
REMARK SMILES IDX 71 55 51 56 70 57 52 58 55 59 69 60 88 61 53 62 54 63 68 65
REMARK SMILES IDX 89 66 56 67 40 68 41 69 49 70 42 71 44 72 50 73 43 74 45 75
REMARK SMILES IDX 46 76 47 77 48 78 72 79 73 80 81 81 74 82 76 83 82 84 75 85
REMARK SMILES IDX 77 86 78 87 79 88 80 89 57 90 58 91 66 92 59 93 61 94 67 95
REMARK SMILES IDX 60 96 62 97 63 98 64 99 65 100
REMARK H PARENT 9 28 87 53 55 64
REMARK Flexibility Score: inf
ROOT
ATOM      1  C   UNL A   1      48.025  31.234  34.390  1.00  0.00     0.188 C 
ENDROOT
BRANCH   1   2
ATOM      2  O   UNL A   1      48.254  30.095  33.569  1.00  0.00    -0.376 OA
BRANCH   2   3
ATOM      3  C   UNL A   1      47.282  29.703  32.608  1.00  0.00     0.202 C 
BRANCH   3   4
ATOM      4  C   UNL A   1      47.308  28.285  32.007  1.00  0.00     0.261 C 
BRANCH   4   5
ATOM      5  O   UNL A   1      46.035  27.624  31.931  1.00  0.00    -0.460 OA
BRANCH   5   6
ATOM      6  C   UNL A   1      45.922  26.471  32.623  1.00  0.00     0.338 C 
ATOM      7  O   UNL A   1      46.200  26.287  33.803  1.00  0.00    -0.246 OA
BRANCH   6   8
ATOM      8  C   UNL A   1      45.246  25.441  31.805  1.00  0.00     0.060 A 
ATOM      9  C   UNL A   1      43.883  23.649  30.167  1.00  0.00    -0.005 A 
ATOM     10  C   UNL A   1      44.546  24.736  29.593  1.00  0.00     0.010 A 
ATOM     11  C   UNL A   1      43.942  23.421  31.547  1.00  0.00     0.010 A 
ATOM     12  C   UNL A   1      45.209  25.642  30.417  1.00  0.00     0.016 A 
ATOM     13  C   UNL A   1      44.645  24.310  32.370  1.00  0.00     0.016 A 
BRANCH   9  14
ATOM     14  C   UNL A   1      43.061  22.802  29.286  1.00  0.00     0.141 C 
ATOM     15  N   UNL A   1      42.967  23.064  28.022  1.00  0.00    -0.180 NA
BRANCH  15  16
ATOM     16  N   UNL A   1      42.249  22.217  27.234  1.00  0.00    -0.233 NA
ATOM     17  C   UNL A   1      42.941  21.030  26.710  1.00  0.00     0.274 C 
ATOM     18  N   UNL A   1      41.939  19.951  26.522  1.00  0.00    -0.161 NA
ATOM     19  N   UNL A   1      40.827  20.309  26.970  1.00  0.00    -0.153 NA
ATOM     20  C   UNL A   1      40.898  21.697  27.481  1.00  0.00     0.298 C 
BRANCH  17  21
ATOM     21  C   UNL A   1      43.685  21.333  25.388  1.00  0.00     0.201 C 
ATOM     22  C   UNL A   1      46.359  23.891  25.215  1.00  0.00     0.068 C 
ATOM     23  C   UNL A   1      45.173  23.002  25.153  1.00  0.00     0.058 C 
ATOM     24  C   UNL A   1      45.110  21.736  25.555  1.00  0.00     0.031 C 
ATOM     25  N   UNL A   1      43.977  23.455  24.657  1.00  0.00    -0.160 NA
ATOM     26  N   UNL A   1      43.102  22.543  24.728  1.00  0.00    -0.177 NA
ENDBRANCH  17  21
BRANCH  20  27
ATOM     27  S   UNL A   1      39.656  22.807  26.722  1.00  0.00    -0.128 SA
ATOM     28  H   UNL A   1      40.028  23.096  25.446  1.00  0.00     0.106 HD
ENDBRANCH  20  27
ENDBRANCH  15  16
ENDBRANCH   9  14
ENDBRANCH   6   8
ENDBRANCH   5   6
ENDBRANCH   4   5
ENDBRANCH   3   4
ENDBRANCH   2   3
ENDBRANCH   1   2
BRANCH   1  29
ATOM     29  C   UNL A   1      47.600  32.579  33.759  1.00  0.00     0.188 C 
BRANCH  29  30
ATOM     30  O   UNL A   1      48.390  32.977  32.657  1.00  0.00    -0.376 OA
BRANCH  30  31
ATOM     31  C   UNL A   1      49.072  34.221  32.696  1.00  0.00     0.202 C 
BRANCH  31  32
ATOM     32  C   UNL A   1      48.330  35.547  32.894  1.00  0.00     0.261 C 
BRANCH  32  33
ATOM     33  O   UNL A   1      48.141  36.348  31.740  1.00  0.00    -0.460 OA
BRANCH  33  34
ATOM     34  C   UNL A   1      47.105  37.201  31.796  1.00  0.00     0.338 C 
ATOM     35  O   UNL A   1      47.140  38.369  32.180  1.00  0.00    -0.246 OA
BRANCH  34  36
ATOM     36  C   UNL A   1      45.894  36.510  31.349  1.00  0.00     0.060 A 
ATOM     37  C   UNL A   1      44.960  36.144  32.321  1.00  0.00     0.016 A 
ATOM     38  C   UNL A   1      45.811  36.039  30.028  1.00  0.00     0.016 A 
ATOM     39  C   UNL A   1      44.047  35.156  32.017  1.00  0.00     0.010 A 
ATOM     40  C   UNL A   1      44.903  35.046  29.730  1.00  0.00     0.010 A 
ATOM     41  C   UNL A   1      44.096  34.557  30.755  1.00  0.00    -0.014 A 
BRANCH  41  42
ATOM     42  C   UNL A   1      43.374  33.313  30.583  1.00  0.00     0.031 A 
ATOM     43  C   UNL A   1      41.901  33.397  30.573  1.00  0.00     0.074 A 
ATOM     44  C   UNL A   1      44.034  32.161  30.355  1.00  0.00     0.049 A 
ATOM     45  N   UNL A   1      41.068  32.832  31.385  1.00  0.00    -0.248 NA
ATOM     46  C   UNL A   1      41.281  34.277  29.575  1.00  0.00     0.031 C 
ATOM     47  C   UNL A   1      45.454  32.008  30.014  1.00  0.00     0.029 A 
ATOM     48  N   UNL A   1      43.539  30.898  30.221  1.00  0.00    -0.354 N 
ATOM     49  C   UNL A   1      39.808  33.113  30.870  1.00  0.00     0.074 A 
ATOM     50  C   UNL A   1      39.988  34.120  29.855  1.00  0.00     0.031 C 
ATOM     51  C   UNL A   1      45.642  30.789  29.467  1.00  0.00     0.029 A 
ATOM     52  C   UNL A   1      44.396  30.046  29.541  1.00  0.00     0.049 A 
ATOM     53  H   UNL A   1      42.662  30.619  30.571  1.00  0.00     0.167 HD
ATOM     54  C   UNL A   1      38.727  32.338  31.145  1.00  0.00     0.034 A 
ATOM     55  C   UNL A   1      44.075  28.856  28.985  1.00  0.00     0.034 A 
ATOM     56  C   UNL A   1      38.931  31.480  32.277  1.00  0.00     0.049 A 
ATOM     57  C   UNL A   1      42.812  28.389  29.603  1.00  0.00     0.074 A 
ATOM     58  C   UNL A   1      39.224  31.665  33.612  1.00  0.00     0.029 A 
ATOM     59  N   UNL A   1      39.131  30.147  32.022  1.00  0.00    -0.354 N 
ATOM     60  N   UNL A   1      42.697  28.000  30.842  1.00  0.00    -0.248 NA
ATOM     61  C   UNL A   1      41.561  28.672  28.918  1.00  0.00     0.031 C 
ATOM     62  C   UNL A   1      39.983  30.523  33.993  1.00  0.00     0.029 A 
ATOM     63  C   UNL A   1      40.114  29.707  32.866  1.00  0.00     0.049 A 
ATOM     64  H   UNL A   1      38.654  29.605  31.352  1.00  0.00     0.167 HD
ATOM     65  C   UNL A   1      41.414  28.384  31.213  1.00  0.00     0.074 A 
ATOM     66  C   UNL A   1      40.724  28.653  29.957  1.00  0.00     0.031 C 
ATOM     67  C   UNL A   1      41.122  28.730  32.502  1.00  0.00     0.034 A 
BRANCH  54  68
ATOM     68  C   UNL A   1      37.584  32.122  30.192  1.00  0.00     0.023 A 
ATOM     69  C   UNL A   1      37.688  31.067  29.261  1.00  0.00     0.012 A 
ATOM     70  C   UNL A   1      36.538  33.052  29.999  1.00  0.00     0.148 A 
ATOM     71  C   UNL A   1      36.803  30.952  28.184  1.00  0.00     0.002 A 
ATOM     72  C   UNL A   1      35.604  32.879  28.984  1.00  0.00     0.091 A 
ATOM     73  F   UNL A   1      36.509  34.187  30.708  1.00  0.00    -0.205 F 
ATOM     74  C   UNL A   1      35.747  31.847  28.056  1.00  0.00     0.022 A 
BRANCH  72  75
ATOM     75  S   UNL A   1      34.183  33.967  28.869  1.00  0.00     0.127 S 
ATOM     76  O   UNL A   1      33.323  33.237  27.944  1.00  0.00    -0.237 OA
ATOM     77  O   UNL A   1      33.709  34.010  30.253  1.00  0.00    -0.237 OA
ATOM     78  O   UNL A   1      34.732  35.232  28.394  1.00  0.00    -0.744 OA
ENDBRANCH  72  75
ENDBRANCH  54  68
BRANCH  55  79
ATOM     79  C   UNL A   1      44.665  28.204  27.795  1.00  0.00     0.023 A 
ATOM     80  C   UNL A   1      43.912  28.106  26.611  1.00  0.00     0.012 A 
ATOM     81  C   UNL A   1      46.040  27.880  27.740  1.00  0.00     0.148 A 
ATOM     82  C   UNL A   1      44.510  27.713  25.408  1.00  0.00     0.002 A 
ATOM     83  C   UNL A   1      46.626  27.465  26.548  1.00  0.00     0.091 A 
ATOM     84  F   UNL A   1      46.795  28.063  28.832  1.00  0.00    -0.205 F 
ATOM     85  C   UNL A   1      45.865  27.392  25.376  1.00  0.00     0.022 A 
BRANCH  83  86
ATOM     86  S   UNL A   1      48.366  27.023  26.448  1.00  0.00     0.127 S 
ATOM     87  O   UNL A   1      48.542  26.790  25.012  1.00  0.00    -0.237 OA
ATOM     88  O   UNL A   1      49.016  28.228  26.956  1.00  0.00    -0.237 OA
ATOM     89  O   UNL A   1      48.514  25.826  27.265  1.00  0.00    -0.744 OA
ENDBRANCH  83  86
ENDBRANCH  55  79
BRANCH  67  90
ATOM     90  C   UNL A   1      42.103  28.371  33.590  1.00  0.00     0.023 A 
ATOM     91  C   UNL A   1      43.251  29.151  33.834  1.00  0.00     0.012 A 
ATOM     92  C   UNL A   1      41.749  27.373  34.516  1.00  0.00     0.148 A 
ATOM     93  C   UNL A   1      44.038  28.931  34.966  1.00  0.00     0.002 A 
ATOM     94  C   UNL A   1      42.506  27.191  35.668  1.00  0.00     0.091 A 
ATOM     95  F   UNL A   1      40.649  26.642  34.275  1.00  0.00    -0.205 F 
ATOM     96  C   UNL A   1      43.657  27.963  35.892  1.00  0.00     0.022 A 
BRANCH  94  97
ATOM     97  S   UNL A   1      41.983  26.071  36.972  1.00  0.00     0.127 S 
ATOM     98  O   UNL A   1      42.056  24.771  36.309  1.00  0.00    -0.237 OA
ATOM     99  O   UNL A   1      42.999  26.288  38.004  1.00  0.00    -0.237 OA
ATOM    100  O   UNL A   1      40.647  26.508  37.358  1.00  0.00    -0.744 OA
ENDBRANCH  94  97
ENDBRANCH  67  90
ENDBRANCH  41  42
ENDBRANCH  34  36
ENDBRANCH  33  34
ENDBRANCH  32  33
ENDBRANCH  31  32
ENDBRANCH  30  31
ENDBRANCH  29  30
ENDBRANCH   1  29
TORSDOF 24
ENDMDL
