MODEL 1
REMARK VINA RESULT:     -11.2      0.000      0.000
REMARK SMILES Cc1c(C)c2c(c(C)c1O)CC[C@@](C)(C(=O)OCCOCCOCCOC(=O)c1ccc(-c3c4nc(c(-c5cccc(S(=O)(=O)[O-])c5F)c5ccc([nH]5)c(-c5cccc(S(=O)(=O)[O-])c5F)c5nc(c(-c6cccc(S(=O)(=O)[O-])c6F)c6ccc3[nH]6)C=C5)C=C4)cc1)O2
REMARK SMILES IDX 22 1 21 2 20 3 19 4 18 5 17 6 15 7 16 8 13 9 1 10 2 11 3 12
REMARK SMILES IDX 9 13 4 14 5 15 7 16 6 17 92 18 8 19 11 20 12 21 14 22 10 23
REMARK SMILES IDX 23 25 24 26 25 27 26 28 27 29 28 30 29 31 30 32 91 33 31 34
REMARK SMILES IDX 90 35 32 36 33 37 34 38 84 39 35 40 89 41 83 42 85 43 36 44
REMARK SMILES IDX 88 45 82 46 81 47 37 49 69 50 49 51 68 52 50 53 53 54 67 55
REMARK SMILES IDX 86 56 51 57 52 58 66 60 87 61 54 62 38 63 39 64 47 65 40 66
REMARK SMILES IDX 42 67 48 68 41 69 43 70 44 71 45 72 46 73 70 74 71 75 79 76
REMARK SMILES IDX 72 77 74 78 80 79 73 80 75 81 76 82 77 83 78 84 55 85 56 86
REMARK SMILES IDX 64 87 57 88 59 89 65 90 58 91 60 92 61 93 62 94 63 95
REMARK H PARENT 10 24 85 48 53 59
REMARK Flexibility Score: inf
ROOT
ATOM      1  C   UNL A   1      44.564  19.082  24.760  1.00  0.00     0.188 C 
ENDROOT
BRANCH   1   2
ATOM      2  C   UNL A   1      43.399  18.813  25.720  1.00  0.00     0.188 C 
BRANCH   2   3
ATOM      3  O   UNL A   1      42.109  19.305  25.378  1.00  0.00    -0.376 OA
BRANCH   3   4
ATOM      4  C   UNL A   1      41.180  19.623  26.403  1.00  0.00     0.202 C 
BRANCH   4   5
ATOM      5  C   UNL A   1      40.384  20.937  26.322  1.00  0.00     0.261 C 
BRANCH   5   6
ATOM      6  O   UNL A   1      39.042  20.878  25.779  1.00  0.00    -0.460 OA
BRANCH   6   7
ATOM      7  C   UNL A   1      38.348  22.054  25.801  1.00  0.00     0.350 C 
ATOM      8  O   UNL A   1      38.670  23.002  26.514  1.00  0.00    -0.247 OA
BRANCH   7   9
ATOM      9  C   UNL A   1      37.067  22.074  24.924  1.00  0.00     0.203 C 
ATOM     10  C   UNL A   1      31.282  22.950  26.886  1.00  0.00     0.049 C 
ATOM     11  C   UNL A   1      32.423  22.978  25.897  1.00  0.00    -0.002 A 
ATOM     12  C   UNL A   1      33.763  22.845  26.329  1.00  0.00    -0.002 A 
ATOM     13  C   UNL A   1      32.169  23.068  24.514  1.00  0.00     0.122 A 
ATOM     14  C   UNL A   1      34.095  22.780  27.803  1.00  0.00     0.049 C 
ATOM     15  C   UNL A   1      34.794  22.758  25.369  1.00  0.00     0.127 A 
ATOM     16  C   UNL A   1      33.205  23.075  23.561  1.00  0.00    -0.002 A 
ATOM     17  C   UNL A   1      34.538  22.929  23.998  1.00  0.00     0.001 A 
ATOM     18  O   UNL A   1      36.048  22.494  25.855  1.00  0.00    -0.475 OA
ATOM     19  C   UNL A   1      32.899  23.255  22.095  1.00  0.00     0.049 C 
ATOM     20  C   UNL A   1      35.679  22.919  23.009  1.00  0.00     0.044 C 
ATOM     21  C   UNL A   1      37.031  23.009  23.715  1.00  0.00     0.065 C 
ATOM     22  C   UNL A   1      36.855  20.604  24.519  1.00  0.00     0.069 C 
BRANCH  13  23
ATOM     23  O   UNL A   1      30.888  23.144  24.028  1.00  0.00    -0.507 OA
ATOM     24  H   UNL A   1      30.591  22.525  23.390  1.00  0.00     0.293 HD
ENDBRANCH  13  23
ENDBRANCH   7   9
ENDBRANCH   6   7
ENDBRANCH   5   6
ENDBRANCH   4   5
ENDBRANCH   3   4
ENDBRANCH   2   3
ENDBRANCH   1   2
BRANCH   1  25
ATOM     25  O   UNL A   1      45.638  19.799  25.328  1.00  0.00    -0.376 OA
BRANCH  25  26
ATOM     26  C   UNL A   1      45.806  21.153  24.965  1.00  0.00     0.202 C 
BRANCH  26  27
ATOM     27  C   UNL A   1      45.437  22.220  26.006  1.00  0.00     0.261 C 
BRANCH  27  28
ATOM     28  O   UNL A   1      45.038  23.500  25.491  1.00  0.00    -0.460 OA
BRANCH  28  29
ATOM     29  C   UNL A   1      43.754  23.636  25.087  1.00  0.00     0.338 C 
ATOM     30  O   UNL A   1      43.173  22.944  24.266  1.00  0.00    -0.246 OA
BRANCH  29  31
ATOM     31  C   UNL A   1      43.103  24.609  25.996  1.00  0.00     0.060 A 
ATOM     32  C   UNL A   1      43.538  25.943  25.989  1.00  0.00     0.016 A 
ATOM     33  C   UNL A   1      42.043  24.220  26.818  1.00  0.00     0.016 A 
ATOM     34  C   UNL A   1      42.926  26.888  26.816  1.00  0.00     0.010 A 
ATOM     35  C   UNL A   1      41.452  25.161  27.668  1.00  0.00     0.010 A 
ATOM     36  C   UNL A   1      41.908  26.492  27.692  1.00  0.00    -0.014 A 
BRANCH  36  37
ATOM     37  C   UNL A   1      41.473  27.401  28.782  1.00  0.00     0.031 A 
ATOM     38  C   UNL A   1      42.243  27.373  30.075  1.00  0.00     0.074 A 
ATOM     39  C   UNL A   1      40.422  28.230  28.645  1.00  0.00     0.049 A 
ATOM     40  N   UNL A   1      42.025  28.025  31.186  1.00  0.00    -0.248 NA
ATOM     41  C   UNL A   1      43.420  26.488  30.117  1.00  0.00     0.031 C 
ATOM     42  C   UNL A   1      39.609  28.376  27.440  1.00  0.00     0.029 A 
ATOM     43  N   UNL A   1      39.847  29.093  29.547  1.00  0.00    -0.354 N 
ATOM     44  C   UNL A   1      43.022  27.615  32.065  1.00  0.00     0.074 A 
ATOM     45  C   UNL A   1      43.834  26.645  31.366  1.00  0.00     0.031 C 
ATOM     46  C   UNL A   1      38.623  29.258  27.686  1.00  0.00     0.029 A 
ATOM     47  C   UNL A   1      38.718  29.718  29.073  1.00  0.00     0.049 A 
ATOM     48  H   UNL A   1      40.210  29.250  30.449  1.00  0.00     0.167 HD
ATOM     49  C   UNL A   1      43.255  28.024  33.333  1.00  0.00     0.034 A 
ATOM     50  C   UNL A   1      37.851  30.548  29.692  1.00  0.00     0.034 A 
ATOM     51  C   UNL A   1      42.458  28.997  34.026  1.00  0.00     0.049 A 
ATOM     52  C   UNL A   1      38.096  30.941  31.129  1.00  0.00     0.074 A 
ATOM     53  C   UNL A   1      42.635  29.494  35.305  1.00  0.00     0.029 A 
ATOM     54  N   UNL A   1      41.330  29.614  33.510  1.00  0.00    -0.354 N 
ATOM     55  N   UNL A   1      39.098  30.624  31.915  1.00  0.00    -0.248 NA
ATOM     56  C   UNL A   1      37.104  31.828  31.758  1.00  0.00     0.031 C 
ATOM     57  C   UNL A   1      41.595  30.388  35.574  1.00  0.00     0.029 A 
ATOM     58  C   UNL A   1      40.791  30.476  34.450  1.00  0.00     0.049 A 
ATOM     59  H   UNL A   1      40.965  29.462  32.608  1.00  0.00     0.167 HD
ATOM     60  C   UNL A   1      38.874  31.296  33.115  1.00  0.00     0.074 A 
ATOM     61  C   UNL A   1      37.653  32.055  32.945  1.00  0.00     0.031 C 
ATOM     62  C   UNL A   1      39.604  31.271  34.258  1.00  0.00     0.034 A 
BRANCH  49  63
ATOM     63  C   UNL A   1      44.445  27.444  34.049  1.00  0.00     0.023 A 
ATOM     64  C   UNL A   1      45.679  28.127  34.011  1.00  0.00     0.012 A 
ATOM     65  C   UNL A   1      44.326  26.273  34.823  1.00  0.00     0.148 A 
ATOM     66  C   UNL A   1      46.780  27.642  34.714  1.00  0.00     0.002 A 
ATOM     67  C   UNL A   1      45.415  25.824  35.560  1.00  0.00     0.091 A 
ATOM     68  F   UNL A   1      43.151  25.628  34.827  1.00  0.00    -0.205 F 
ATOM     69  C   UNL A   1      46.644  26.500  35.497  1.00  0.00     0.022 A 
BRANCH  67  70
ATOM     70  S   UNL A   1      45.321  24.414  36.669  1.00  0.00     0.127 S 
ATOM     71  O   UNL A   1      46.655  24.423  37.272  1.00  0.00    -0.237 OA
ATOM     72  O   UNL A   1      44.241  24.809  37.574  1.00  0.00    -0.237 OA
ATOM     73  O   UNL A   1      45.026  23.260  35.833  1.00  0.00    -0.744 OA
ENDBRANCH  67  70
ENDBRANCH  49  63
BRANCH  50  74
ATOM     74  C   UNL A   1      36.686  31.103  28.941  1.00  0.00     0.023 A 
ATOM     75  C   UNL A   1      36.608  32.492  28.720  1.00  0.00     0.012 A 
ATOM     76  C   UNL A   1      35.674  30.269  28.428  1.00  0.00     0.148 A 
ATOM     77  C   UNL A   1      35.532  33.043  28.020  1.00  0.00     0.002 A 
ATOM     78  C   UNL A   1      34.635  30.817  27.685  1.00  0.00     0.091 A 
ATOM     79  F   UNL A   1      35.754  28.953  28.668  1.00  0.00    -0.205 F 
ATOM     80  C   UNL A   1      34.555  32.205  27.493  1.00  0.00     0.022 A 
BRANCH  78  81
ATOM     81  S   UNL A   1      33.391  29.813  26.864  1.00  0.00     0.127 S 
ATOM     82  O   UNL A   1      32.761  29.134  27.993  1.00  0.00    -0.237 OA
ATOM     83  O   UNL A   1      32.565  30.832  26.218  1.00  0.00    -0.237 OA
ATOM     84  O   UNL A   1      34.122  28.952  25.944  1.00  0.00    -0.744 OA
ENDBRANCH  78  81
ENDBRANCH  50  74
BRANCH  62  85
ATOM     85  C   UNL A   1      39.134  32.099  35.430  1.00  0.00     0.023 A 
ATOM     86  C   UNL A   1      38.222  31.549  36.352  1.00  0.00     0.012 A 
ATOM     87  C   UNL A   1      39.691  33.370  35.686  1.00  0.00     0.148 A 
ATOM     88  C   UNL A   1      37.854  32.258  37.496  1.00  0.00     0.002 A 
ATOM     89  C   UNL A   1      39.361  34.047  36.855  1.00  0.00     0.091 A 
ATOM     90  F   UNL A   1      40.550  33.882  34.793  1.00  0.00    -0.205 F 
ATOM     91  C   UNL A   1      38.433  33.497  37.755  1.00  0.00     0.022 A 
BRANCH  89  92
ATOM     92  S   UNL A   1      40.135  35.597  37.330  1.00  0.00     0.127 S 
ATOM     93  O   UNL A   1      39.643  36.506  36.295  1.00  0.00    -0.237 OA
ATOM     94  O   UNL A   1      39.573  35.828  38.662  1.00  0.00    -0.237 OA
ATOM     95  O   UNL A   1      41.572  35.354  37.311  1.00  0.00    -0.744 OA
ENDBRANCH  89  92
ENDBRANCH  62  85
ENDBRANCH  36  37
ENDBRANCH  29  31
ENDBRANCH  28  29
ENDBRANCH  27  28
ENDBRANCH  26  27
ENDBRANCH  25  26
ENDBRANCH   1  25
TORSDOF 21
ENDMDL
MODEL 2
REMARK VINA RESULT:     -11.1      2.761      9.208
REMARK SMILES Cc1c(C)c2c(c(C)c1O)CC[C@@](C)(C(=O)OCCOCCOCCOC(=O)c1ccc(-c3c4nc(c(-c5cccc(S(=O)(=O)[O-])c5F)c5ccc([nH]5)c(-c5cccc(S(=O)(=O)[O-])c5F)c5nc(c(-c6cccc(S(=O)(=O)[O-])c6F)c6ccc3[nH]6)C=C5)C=C4)cc1)O2
REMARK SMILES IDX 22 1 21 2 20 3 19 4 18 5 17 6 15 7 16 8 13 9 1 10 2 11 3 12
REMARK SMILES IDX 9 13 4 14 5 15 7 16 6 17 92 18 8 19 11 20 12 21 14 22 10 23
REMARK SMILES IDX 23 25 24 26 25 27 26 28 27 29 28 30 29 31 30 32 91 33 31 34
REMARK SMILES IDX 90 35 32 36 33 37 34 38 84 39 35 40 89 41 83 42 85 43 36 44
REMARK SMILES IDX 88 45 82 46 81 47 37 49 69 50 49 51 68 52 50 53 53 54 67 55
REMARK SMILES IDX 86 56 51 57 52 58 66 60 87 61 54 62 38 63 39 64 47 65 40 66
REMARK SMILES IDX 42 67 48 68 41 69 43 70 44 71 45 72 46 73 70 74 71 75 79 76
REMARK SMILES IDX 72 77 74 78 80 79 73 80 75 81 76 82 77 83 78 84 55 85 56 86
REMARK SMILES IDX 64 87 57 88 59 89 65 90 58 91 60 92 61 93 62 94 63 95
REMARK H PARENT 10 24 85 48 53 59
REMARK Flexibility Score: inf
ROOT
ATOM      1  C   UNL A   1      32.025  29.896  26.768  1.00  0.00     0.188 C 
ENDROOT
BRANCH   1   2
ATOM      2  C   UNL A   1      31.885  29.201  25.409  1.00  0.00     0.188 C 
BRANCH   2   3
ATOM      3  O   UNL A   1      32.943  28.360  24.964  1.00  0.00    -0.376 OA
BRANCH   3   4
ATOM      4  C   UNL A   1      33.655  28.687  23.780  1.00  0.00     0.202 C 
BRANCH   4   5
ATOM      5  C   UNL A   1      33.129  28.194  22.421  1.00  0.00     0.261 C 
BRANCH   5   6
ATOM      6  O   UNL A   1      32.292  27.012  22.411  1.00  0.00    -0.460 OA
BRANCH   6   7
ATOM      7  C   UNL A   1      32.955  25.824  22.297  1.00  0.00     0.350 C 
ATOM      8  O   UNL A   1      33.438  25.432  21.238  1.00  0.00    -0.247 OA
BRANCH   7   9
ATOM      9  C   UNL A   1      32.978  24.961  23.588  1.00  0.00     0.203 C 
ATOM     10  C   UNL A   1      32.140  18.857  23.943  1.00  0.00     0.049 C 
ATOM     11  C   UNL A   1      32.665  20.206  24.376  1.00  0.00    -0.002 A 
ATOM     12  C   UNL A   1      32.673  21.303  23.484  1.00  0.00    -0.002 A 
ATOM     13  C   UNL A   1      33.092  20.415  25.702  1.00  0.00     0.122 A 
ATOM     14  C   UNL A   1      32.258  21.126  22.040  1.00  0.00     0.049 C 
ATOM     15  C   UNL A   1      33.061  22.575  23.956  1.00  0.00     0.127 A 
ATOM     16  C   UNL A   1      33.567  21.663  26.148  1.00  0.00    -0.002 A 
ATOM     17  C   UNL A   1      33.561  22.756  25.256  1.00  0.00     0.001 A 
ATOM     18  O   UNL A   1      32.914  23.614  23.073  1.00  0.00    -0.475 OA
ATOM     19  C   UNL A   1      34.092  21.828  27.552  1.00  0.00     0.049 C 
ATOM     20  C   UNL A   1      34.049  24.116  25.697  1.00  0.00     0.044 C 
ATOM     21  C   UNL A   1      34.192  25.068  24.511  1.00  0.00     0.065 C 
ATOM     22  C   UNL A   1      31.671  25.323  24.316  1.00  0.00     0.069 C 
BRANCH  13  23
ATOM     23  O   UNL A   1      33.057  19.405  26.631  1.00  0.00    -0.507 OA
ATOM     24  H   UNL A   1      33.054  19.609  27.545  1.00  0.00     0.293 HD
ENDBRANCH  13  23
ENDBRANCH   7   9
ENDBRANCH   6   7
ENDBRANCH   5   6
ENDBRANCH   4   5
ENDBRANCH   3   4
ENDBRANCH   2   3
ENDBRANCH   1   2
BRANCH   1  25
ATOM     25  O   UNL A   1      31.712  31.272  26.758  1.00  0.00    -0.376 OA
BRANCH  25  26
ATOM     26  C   UNL A   1      32.727  32.192  27.098  1.00  0.00     0.202 C 
BRANCH  26  27
ATOM     27  C   UNL A   1      32.311  33.647  27.354  1.00  0.00     0.261 C 
BRANCH  27  28
ATOM     28  O   UNL A   1      32.538  34.151  28.680  1.00  0.00    -0.460 OA
BRANCH  28  29
ATOM     29  C   UNL A   1      33.659  34.880  28.885  1.00  0.00     0.338 C 
ATOM     30  O   UNL A   1      33.732  36.096  28.967  1.00  0.00    -0.246 OA
BRANCH  29  31
ATOM     31  C   UNL A   1      34.743  33.934  29.244  1.00  0.00     0.060 A 
ATOM     32  C   UNL A   1      34.443  32.834  30.061  1.00  0.00     0.016 A 
ATOM     33  C   UNL A   1      36.035  34.105  28.743  1.00  0.00     0.016 A 
ATOM     34  C   UNL A   1      35.437  31.911  30.393  1.00  0.00     0.010 A 
ATOM     35  C   UNL A   1      37.038  33.198  29.103  1.00  0.00     0.010 A 
ATOM     36  C   UNL A   1      36.751  32.113  29.951  1.00  0.00    -0.014 A 
BRANCH  36  37
ATOM     37  C   UNL A   1      37.862  31.329  30.547  1.00  0.00     0.031 A 
ATOM     38  C   UNL A   1      38.265  31.639  31.964  1.00  0.00     0.074 A 
ATOM     39  C   UNL A   1      38.508  30.369  29.860  1.00  0.00     0.049 A 
ATOM     40  N   UNL A   1      39.236  31.137  32.680  1.00  0.00    -0.248 NA
ATOM     41  C   UNL A   1      37.462  32.655  32.666  1.00  0.00     0.031 C 
ATOM     42  C   UNL A   1      38.201  29.951  28.494  1.00  0.00     0.029 A 
ATOM     43  N   UNL A   1      39.579  29.586  30.221  1.00  0.00    -0.354 N 
ATOM     44  C   UNL A   1      39.173  31.787  33.907  1.00  0.00     0.074 A 
ATOM     45  C   UNL A   1      38.083  32.734  33.833  1.00  0.00     0.031 C 
ATOM     46  C   UNL A   1      39.081  29.003  28.122  1.00  0.00     0.029 A 
ATOM     47  C   UNL A   1      40.030  28.768  29.212  1.00  0.00     0.049 A 
ATOM     48  H   UNL A   1      39.984  29.608  31.118  1.00  0.00     0.167 HD
ATOM     49  C   UNL A   1      39.940  31.600  35.005  1.00  0.00     0.034 A 
ATOM     50  C   UNL A   1      41.096  27.941  29.167  1.00  0.00     0.034 A 
ATOM     51  C   UNL A   1      41.015  30.652  35.087  1.00  0.00     0.049 A 
ATOM     52  C   UNL A   1      41.977  27.796  30.385  1.00  0.00     0.074 A 
ATOM     53  C   UNL A   1      41.830  30.374  36.170  1.00  0.00     0.029 A 
ATOM     54  N   UNL A   1      41.436  29.836  34.050  1.00  0.00    -0.354 N 
ATOM     55  N   UNL A   1      41.847  28.342  31.571  1.00  0.00    -0.248 NA
ATOM     56  C   UNL A   1      43.138  26.899  30.268  1.00  0.00     0.031 C 
ATOM     57  C   UNL A   1      42.764  29.412  35.777  1.00  0.00     0.029 A 
ATOM     58  C   UNL A   1      42.508  29.064  34.462  1.00  0.00     0.049 A 
ATOM     59  H   UNL A   1      41.030  29.809  33.153  1.00  0.00     0.167 HD
ATOM     60  C   UNL A   1      42.886  27.833  32.347  1.00  0.00     0.074 A 
ATOM     61  C   UNL A   1      43.624  26.916  31.504  1.00  0.00     0.031 C 
ATOM     62  C   UNL A   1      43.207  28.113  33.634  1.00  0.00     0.034 A 
BRANCH  49  63
ATOM     63  C   UNL A   1      39.622  32.418  36.229  1.00  0.00     0.023 A 
ATOM     64  C   UNL A   1      40.240  33.673  36.406  1.00  0.00     0.012 A 
ATOM     65  C   UNL A   1      38.655  31.986  37.159  1.00  0.00     0.148 A 
ATOM     66  C   UNL A   1      39.918  34.475  37.500  1.00  0.00     0.002 A 
ATOM     67  C   UNL A   1      38.305  32.812  38.220  1.00  0.00     0.091 A 
ATOM     68  F   UNL A   1      38.097  30.779  36.984  1.00  0.00    -0.205 F 
ATOM     69  C   UNL A   1      38.943  34.050  38.397  1.00  0.00     0.022 A 
BRANCH  67  70
ATOM     70  S   UNL A   1      36.999  32.399  39.382  1.00  0.00     0.127 S 
ATOM     71  O   UNL A   1      37.356  31.030  39.753  1.00  0.00    -0.237 OA
ATOM     72  O   UNL A   1      37.206  33.390  40.438  1.00  0.00    -0.237 OA
ATOM     73  O   UNL A   1      35.748  32.538  38.650  1.00  0.00    -0.744 OA
ENDBRANCH  67  70
ENDBRANCH  49  63
BRANCH  50  74
ATOM     74  C   UNL A   1      41.370  27.146  27.933  1.00  0.00     0.023 A 
ATOM     75  C   UNL A   1      41.920  27.790  26.807  1.00  0.00     0.012 A 
ATOM     76  C   UNL A   1      41.112  25.763  27.874  1.00  0.00     0.148 A 
ATOM     77  C   UNL A   1      42.190  27.074  25.639  1.00  0.00     0.002 A 
ATOM     78  C   UNL A   1      41.435  25.046  26.727  1.00  0.00     0.091 A 
ATOM     79  F   UNL A   1      40.568  25.173  28.947  1.00  0.00    -0.205 F 
ATOM     80  C   UNL A   1      41.960  25.703  25.603  1.00  0.00     0.022 A 
BRANCH  78  81
ATOM     81  S   UNL A   1      41.287  23.258  26.624  1.00  0.00     0.127 S 
ATOM     82  O   UNL A   1      41.862  22.836  27.899  1.00  0.00    -0.237 OA
ATOM     83  O   UNL A   1      39.838  23.085  26.515  1.00  0.00    -0.237 OA
ATOM     84  O   UNL A   1      42.036  22.867  25.438  1.00  0.00    -0.744 OA
ENDBRANCH  78  81
ENDBRANCH  50  74
BRANCH  62  85
ATOM     85  C   UNL A   1      44.401  27.417  34.246  1.00  0.00     0.023 A 
ATOM     86  C   UNL A   1      45.660  28.047  34.229  1.00  0.00     0.012 A 
ATOM     87  C   UNL A   1      44.247  26.201  34.944  1.00  0.00     0.148 A 
ATOM     88  C   UNL A   1      46.752  27.469  34.877  1.00  0.00     0.002 A 
ATOM     89  C   UNL A   1      45.326  25.658  35.631  1.00  0.00     0.091 A 
ATOM     90  F   UNL A   1      43.044  25.609  34.939  1.00  0.00    -0.205 F 
ATOM     91  C   UNL A   1      46.582  26.284  35.590  1.00  0.00     0.022 A 
BRANCH  89  92
ATOM     92  S   UNL A   1      45.181  24.196  36.666  1.00  0.00     0.127 S 
ATOM     93  O   UNL A   1      44.355  23.322  35.834  1.00  0.00    -0.237 OA
ATOM     94  O   UNL A   1      46.575  23.771  36.798  1.00  0.00    -0.237 OA
ATOM     95  O   UNL A   1      44.561  24.638  37.908  1.00  0.00    -0.744 OA
ENDBRANCH  89  92
ENDBRANCH  62  85
ENDBRANCH  36  37
ENDBRANCH  29  31
ENDBRANCH  28  29
ENDBRANCH  27  28
ENDBRANCH  26  27
ENDBRANCH  25  26
ENDBRANCH   1  25
TORSDOF 21
ENDMDL
MODEL 3
REMARK VINA RESULT:     -11.0      2.320      9.336
REMARK SMILES Cc1c(C)c2c(c(C)c1O)CC[C@@](C)(C(=O)OCCOCCOCCOC(=O)c1ccc(-c3c4nc(c(-c5cccc(S(=O)(=O)[O-])c5F)c5ccc([nH]5)c(-c5cccc(S(=O)(=O)[O-])c5F)c5nc(c(-c6cccc(S(=O)(=O)[O-])c6F)c6ccc3[nH]6)C=C5)C=C4)cc1)O2
REMARK SMILES IDX 22 1 21 2 20 3 19 4 18 5 17 6 15 7 16 8 13 9 1 10 2 11 3 12
REMARK SMILES IDX 9 13 4 14 5 15 7 16 6 17 92 18 8 19 11 20 12 21 14 22 10 23
REMARK SMILES IDX 23 25 24 26 25 27 26 28 27 29 28 30 29 31 30 32 91 33 31 34
REMARK SMILES IDX 90 35 32 36 33 37 34 38 84 39 35 40 89 41 83 42 85 43 36 44
REMARK SMILES IDX 88 45 82 46 81 47 37 49 69 50 49 51 68 52 50 53 53 54 67 55
REMARK SMILES IDX 86 56 51 57 52 58 66 60 87 61 54 62 38 63 39 64 47 65 40 66
REMARK SMILES IDX 42 67 48 68 41 69 43 70 44 71 45 72 46 73 70 74 71 75 79 76
REMARK SMILES IDX 72 77 74 78 80 79 73 80 75 81 76 82 77 83 78 84 55 85 56 86
REMARK SMILES IDX 64 87 57 88 59 89 65 90 58 91 60 92 61 93 62 94 63 95
REMARK H PARENT 10 24 85 48 53 59
REMARK Flexibility Score: inf
ROOT
ATOM      1  C   UNL A   1      32.094  29.926  25.503  1.00  0.00     0.188 C 
ENDROOT
BRANCH   1   2
ATOM      2  C   UNL A   1      31.106  29.301  24.510  1.00  0.00     0.188 C 
BRANCH   2   3
ATOM      3  O   UNL A   1      30.681  27.961  24.727  1.00  0.00    -0.376 OA
BRANCH   3   4
ATOM      4  C   UNL A   1      30.502  27.089  23.621  1.00  0.00     0.202 C 
BRANCH   4   5
ATOM      5  C   UNL A   1      31.423  27.224  22.396  1.00  0.00     0.261 C 
BRANCH   5   6
ATOM      6  O   UNL A   1      32.249  26.086  22.046  1.00  0.00    -0.460 OA
BRANCH   6   7
ATOM      7  C   UNL A   1      33.022  25.591  23.056  1.00  0.00     0.350 C 
ATOM      8  O   UNL A   1      33.720  26.306  23.771  1.00  0.00    -0.247 OA
BRANCH   7   9
ATOM      9  C   UNL A   1      33.024  24.042  23.179  1.00  0.00     0.203 C 
ATOM     10  C   UNL A   1      37.738  20.508  25.014  1.00  0.00     0.049 C 
ATOM     11  C   UNL A   1      36.288  20.872  24.799  1.00  0.00    -0.002 A 
ATOM     12  C   UNL A   1      35.907  22.205  24.518  1.00  0.00    -0.002 A 
ATOM     13  C   UNL A   1      35.291  19.876  24.804  1.00  0.00     0.122 A 
ATOM     14  C   UNL A   1      36.930  23.318  24.535  1.00  0.00     0.049 C 
ATOM     15  C   UNL A   1      34.560  22.488  24.208  1.00  0.00     0.127 A 
ATOM     16  C   UNL A   1      33.933  20.173  24.586  1.00  0.00    -0.002 A 
ATOM     17  C   UNL A   1      33.563  21.503  24.294  1.00  0.00     0.001 A 
ATOM     18  O   UNL A   1      34.291  23.774  23.814  1.00  0.00    -0.475 OA
ATOM     19  C   UNL A   1      32.885  19.094  24.680  1.00  0.00     0.049 C 
ATOM     20  C   UNL A   1      32.118  21.865  24.041  1.00  0.00     0.044 C 
ATOM     21  C   UNL A   1      31.921  23.379  24.002  1.00  0.00     0.065 C 
ATOM     22  C   UNL A   1      33.033  23.542  21.723  1.00  0.00     0.069 C 
BRANCH  13  23
ATOM     23  O   UNL A   1      35.604  18.556  25.016  1.00  0.00    -0.507 OA
ATOM     24  H   UNL A   1      35.263  17.896  24.444  1.00  0.00     0.293 HD
ENDBRANCH  13  23
ENDBRANCH   7   9
ENDBRANCH   6   7
ENDBRANCH   5   6
ENDBRANCH   4   5
ENDBRANCH   3   4
ENDBRANCH   2   3
ENDBRANCH   1   2
BRANCH   1  25
ATOM     25  O   UNL A   1      31.489  30.605  26.582  1.00  0.00    -0.376 OA
BRANCH  25  26
ATOM     26  C   UNL A   1      31.399  32.013  26.521  1.00  0.00     0.202 C 
BRANCH  26  27
ATOM     27  C   UNL A   1      32.613  32.824  26.996  1.00  0.00     0.261 C 
BRANCH  27  28
ATOM     28  O   UNL A   1      32.355  33.841  27.978  1.00  0.00    -0.460 OA
BRANCH  28  29
ATOM     29  C   UNL A   1      33.387  34.640  28.332  1.00  0.00     0.338 C 
ATOM     30  O   UNL A   1      33.350  35.849  28.494  1.00  0.00    -0.246 OA
BRANCH  29  31
ATOM     31  C   UNL A   1      34.511  33.759  28.733  1.00  0.00     0.060 A 
ATOM     32  C   UNL A   1      34.229  32.559  29.404  1.00  0.00     0.016 A 
ATOM     33  C   UNL A   1      35.829  34.092  28.413  1.00  0.00     0.016 A 
ATOM     34  C   UNL A   1      35.265  31.698  29.771  1.00  0.00     0.010 A 
ATOM     35  C   UNL A   1      36.868  33.243  28.809  1.00  0.00     0.010 A 
ATOM     36  C   UNL A   1      36.594  32.057  29.513  1.00  0.00    -0.014 A 
BRANCH  36  37
ATOM     37  C   UNL A   1      37.702  31.315  30.167  1.00  0.00     0.031 A 
ATOM     38  C   UNL A   1      38.050  31.673  31.587  1.00  0.00     0.074 A 
ATOM     39  C   UNL A   1      38.392  30.352  29.529  1.00  0.00     0.049 A 
ATOM     40  N   UNL A   1      39.007  31.213  32.349  1.00  0.00    -0.248 NA
ATOM     41  C   UNL A   1      37.201  32.689  32.233  1.00  0.00     0.031 C 
ATOM     42  C   UNL A   1      38.140  29.889  28.166  1.00  0.00     0.029 A 
ATOM     43  N   UNL A   1      39.467  29.604  29.947  1.00  0.00    -0.354 N 
ATOM     44  C   UNL A   1      38.889  31.895  33.554  1.00  0.00     0.074 A 
ATOM     45  C   UNL A   1      37.781  32.815  33.418  1.00  0.00     0.031 C 
ATOM     46  C   UNL A   1      39.053  28.953  27.850  1.00  0.00     0.029 A 
ATOM     47  C   UNL A   1      39.970  28.769  28.977  1.00  0.00     0.049 A 
ATOM     48  H   UNL A   1      39.841  29.660  30.856  1.00  0.00     0.167 HD
ATOM     49  C   UNL A   1      39.622  31.756  34.682  1.00  0.00     0.034 A 
ATOM     50  C   UNL A   1      41.055  27.966  28.990  1.00  0.00     0.034 A 
ATOM     51  C   UNL A   1      40.715  30.836  34.826  1.00  0.00     0.049 A 
ATOM     52  C   UNL A   1      41.897  27.875  30.240  1.00  0.00     0.074 A 
ATOM     53  C   UNL A   1      41.499  30.606  35.943  1.00  0.00     0.029 A 
ATOM     54  N   UNL A   1      41.188  30.001  33.827  1.00  0.00    -0.354 N 
ATOM     55  N   UNL A   1      41.715  28.451  31.405  1.00  0.00    -0.248 NA
ATOM     56  C   UNL A   1      43.081  27.002  30.187  1.00  0.00     0.031 C 
ATOM     57  C   UNL A   1      42.467  29.656  35.608  1.00  0.00     0.029 A 
ATOM     58  C   UNL A   1      42.263  29.266  34.295  1.00  0.00     0.049 A 
ATOM     59  H   UNL A   1      40.814  29.940  32.917  1.00  0.00     0.167 HD
ATOM     60  C   UNL A   1      42.739  27.987  32.229  1.00  0.00     0.074 A 
ATOM     61  C   UNL A   1      43.525  27.065  31.437  1.00  0.00     0.031 C 
ATOM     62  C   UNL A   1      43.011  28.310  33.518  1.00  0.00     0.034 A 
BRANCH  49  63
ATOM     63  C   UNL A   1      39.245  32.599  35.872  1.00  0.00     0.023 A 
ATOM     64  C   UNL A   1      38.477  32.032  36.909  1.00  0.00     0.012 A 
ATOM     65  C   UNL A   1      39.717  33.920  36.003  1.00  0.00     0.148 A 
ATOM     66  C   UNL A   1      38.164  32.773  38.047  1.00  0.00     0.002 A 
ATOM     67  C   UNL A   1      39.443  34.635  37.162  1.00  0.00     0.091 A 
ATOM     68  F   UNL A   1      40.427  34.447  34.995  1.00  0.00    -0.205 F 
ATOM     69  C   UNL A   1      38.658  34.068  38.179  1.00  0.00     0.022 A 
BRANCH  67  70
ATOM     70  S   UNL A   1      40.105  36.276  37.470  1.00  0.00     0.127 S 
ATOM     71  O   UNL A   1      41.471  35.969  37.893  1.00  0.00    -0.237 OA
ATOM     72  O   UNL A   1      40.001  36.900  36.151  1.00  0.00    -0.237 OA
ATOM     73  O   UNL A   1      39.257  36.869  38.495  1.00  0.00    -0.744 OA
ENDBRANCH  67  70
ENDBRANCH  49  63
BRANCH  50  74
ATOM     74  C   UNL A   1      41.388  27.144  27.789  1.00  0.00     0.023 A 
ATOM     75  C   UNL A   1      41.959  27.770  26.663  1.00  0.00     0.012 A 
ATOM     76  C   UNL A   1      41.165  25.754  27.761  1.00  0.00     0.148 A 
ATOM     77  C   UNL A   1      42.283  27.029  25.525  1.00  0.00     0.002 A 
ATOM     78  C   UNL A   1      41.542  25.014  26.646  1.00  0.00     0.091 A 
ATOM     79  F   UNL A   1      40.600  25.181  28.833  1.00  0.00    -0.205 F 
ATOM     80  C   UNL A   1      42.087  25.652  25.521  1.00  0.00     0.022 A 
BRANCH  78  81
ATOM     81  S   UNL A   1      41.440  23.221  26.590  1.00  0.00     0.127 S 
ATOM     82  O   UNL A   1      42.236  22.913  25.404  1.00  0.00    -0.237 OA
ATOM     83  O   UNL A   1      42.059  22.847  27.861  1.00  0.00    -0.237 OA
ATOM     84  O   UNL A   1      40.021  22.908  26.490  1.00  0.00    -0.744 OA
ENDBRANCH  78  81
ENDBRANCH  50  74
BRANCH  62  85
ATOM     85  C   UNL A   1      44.198  27.658  34.188  1.00  0.00     0.023 A 
ATOM     86  C   UNL A   1      45.446  28.310  34.183  1.00  0.00     0.012 A 
ATOM     87  C   UNL A   1      44.046  26.465  34.925  1.00  0.00     0.148 A 
ATOM     88  C   UNL A   1      46.529  27.776  34.882  1.00  0.00     0.002 A 
ATOM     89  C   UNL A   1      45.114  25.967  35.662  1.00  0.00     0.091 A 
ATOM     90  F   UNL A   1      42.853  25.851  34.909  1.00  0.00    -0.205 F 
ATOM     91  C   UNL A   1      46.360  26.615  35.633  1.00  0.00     0.022 A 
BRANCH  89  92
ATOM     92  S   UNL A   1      44.965  24.541  36.746  1.00  0.00     0.127 S 
ATOM     93  O   UNL A   1      46.317  24.442  37.296  1.00  0.00    -0.237 OA
ATOM     94  O   UNL A   1      43.949  24.984  37.702  1.00  0.00    -0.237 OA
ATOM     95  O   UNL A   1      44.557  23.429  35.897  1.00  0.00    -0.744 OA
ENDBRANCH  89  92
ENDBRANCH  62  85
ENDBRANCH  36  37
ENDBRANCH  29  31
ENDBRANCH  28  29
ENDBRANCH  27  28
ENDBRANCH  26  27
ENDBRANCH  25  26
ENDBRANCH   1  25
TORSDOF 21
ENDMDL
