MODEL 1
REMARK VINA RESULT:      -8.0      0.000      0.000
REMARK SMILES C[C@@H]1C[C@@]([NH2+]Cc2cccs2)(C(=O)OCCOCCOCCOC(=O)c2ccc(-c3c4nc(c(-c5cccc(S(=O)(=O)[O-])c5F)c5ccc([nH]5)c(-c5cccc(S(=O)(=O)[O-])c5F)c5nc(c(-c6cccc(S(=O)(=O)[O-])c6F)c6ccc3[nH]6)C=C5)C=C4)cc2)CS1
REMARK SMILES IDX 18 1 17 2 16 3 15 4 14 5 12 6 13 7 4 8 1 9 2 10 3 11 90 12
REMARK SMILES IDX 89 13 5 14 6 17 7 18 8 19 11 20 9 21 10 22 19 23 20 24 21 25
REMARK SMILES IDX 22 26 23 27 24 28 25 29 26 30 27 31 88 32 28 33 87 34 29 35
REMARK SMILES IDX 30 36 31 37 81 38 32 39 86 40 80 41 82 42 33 43 85 44 79 45
REMARK SMILES IDX 78 46 34 48 66 49 46 50 65 51 47 52 50 53 64 54 83 55 48 56
REMARK SMILES IDX 49 57 63 59 84 60 51 61 35 62 36 63 44 64 37 65 39 66 45 67
REMARK SMILES IDX 38 68 40 69 41 70 42 71 43 72 67 73 68 74 76 75 69 76 71 77
REMARK SMILES IDX 77 78 70 79 72 80 73 81 74 82 75 83 52 84 53 85 61 86 54 87
REMARK SMILES IDX 56 88 62 89 55 90 57 91 58 92 59 93 60 94
REMARK H PARENT 5 15 5 16 82 47 50 58
REMARK Flexibility Score: inf
ROOT
ATOM      1  C   UNL A   1      48.309  35.658  27.827  1.00  0.00     0.188 C 
ENDROOT
BRANCH   1   2
ATOM      2  O   UNL A   1      47.122  35.668  27.047  1.00  0.00    -0.376 OA
BRANCH   2   3
ATOM      3  C   UNL A   1      46.668  36.880  26.462  1.00  0.00     0.202 C 
BRANCH   3   4
ATOM      4  C   UNL A   1      45.183  37.271  26.562  1.00  0.00     0.261 C 
BRANCH   4   5
ATOM      5  O   UNL A   1      44.886  38.531  27.209  1.00  0.00    -0.459 OA
BRANCH   5   6
ATOM      6  C   UNL A   1      43.564  38.849  27.293  1.00  0.00     0.369 C 
ATOM      7  O   UNL A   1      42.682  38.082  26.911  1.00  0.00    -0.245 OA
BRANCH   6   8
ATOM      8  C   UNL A   1      43.234  40.213  27.983  1.00  0.00     0.204 C 
ATOM      9  C   UNL A   1      44.229  42.484  30.940  1.00  0.00     0.019 C 
ATOM     10  C   UNL A   1      43.747  41.183  30.320  1.00  0.00     0.050 C 
ATOM     11  C   UNL A   1      44.323  40.857  28.922  1.00  0.00     0.096 C 
ATOM     12  S   UNL A   1      41.962  41.232  30.099  1.00  0.00    -0.151 SA
ATOM     13  C   UNL A   1      42.026  39.895  28.902  1.00  0.00     0.150 C 
BRANCH   8  14
ATOM     14  N   UNL A   1      42.992  41.295  26.966  1.00  0.00    -0.327 N 
ATOM     15  H   UNL A   1      43.236  42.180  27.409  1.00  0.00     0.347 HD
ATOM     16  H   UNL A   1      42.015  41.168  26.704  1.00  0.00     0.347 HD
BRANCH  14  17
ATOM     17  C   UNL A   1      43.705  41.247  25.683  1.00  0.00     0.309 C 
BRANCH  17  18
ATOM     18  C   UNL A   1      44.099  42.591  25.160  1.00  0.00     0.059 A 
ATOM     19  C   UNL A   1      43.554  43.284  24.095  1.00  0.00     0.021 A 
ATOM     20  S   UNL A   1      45.355  43.491  25.911  1.00  0.00    -0.143 S 
ATOM     21  C   UNL A   1      44.054  44.614  24.006  1.00  0.00     0.012 A 
ATOM     22  C   UNL A   1      45.000  44.874  24.971  1.00  0.00     0.065 A 
ENDBRANCH  17  18
ENDBRANCH  14  17
ENDBRANCH   8  14
ENDBRANCH   6   8
ENDBRANCH   5   6
ENDBRANCH   4   5
ENDBRANCH   3   4
ENDBRANCH   2   3
ENDBRANCH   1   2
BRANCH   1  23
ATOM     23  C   UNL A   1      48.644  36.892  28.675  1.00  0.00     0.188 C 
BRANCH  23  24
ATOM     24  O   UNL A   1      49.582  36.671  29.699  1.00  0.00    -0.376 OA
BRANCH  24  25
ATOM     25  C   UNL A   1      49.219  36.926  31.041  1.00  0.00     0.202 C 
BRANCH  25  26
ATOM     26  C   UNL A   1      47.868  37.564  31.410  1.00  0.00     0.261 C 
BRANCH  26  27
ATOM     27  O   UNL A   1      46.767  36.685  31.684  1.00  0.00    -0.460 OA
BRANCH  27  28
ATOM     28  C   UNL A   1      45.677  36.791  30.886  1.00  0.00     0.338 C 
ATOM     29  O   UNL A   1      45.135  37.820  30.534  1.00  0.00    -0.246 OA
BRANCH  28  30
ATOM     30  C   UNL A   1      45.397  35.447  30.320  1.00  0.00     0.060 A 
ATOM     31  C   UNL A   1      44.296  35.297  29.467  1.00  0.00     0.016 A 
ATOM     32  C   UNL A   1      46.205  34.348  30.624  1.00  0.00     0.016 A 
ATOM     33  C   UNL A   1      43.970  34.039  28.955  1.00  0.00     0.010 A 
ATOM     34  C   UNL A   1      45.865  33.084  30.126  1.00  0.00     0.010 A 
ATOM     35  C   UNL A   1      44.722  32.916  29.323  1.00  0.00    -0.014 A 
BRANCH  35  36
ATOM     36  C   UNL A   1      44.194  31.558  29.029  1.00  0.00     0.031 A 
ATOM     37  C   UNL A   1      42.805  31.207  29.500  1.00  0.00     0.074 A 
ATOM     38  C   UNL A   1      44.912  30.657  28.335  1.00  0.00     0.049 A 
ATOM     39  N   UNL A   1      42.131  30.098  29.344  1.00  0.00    -0.248 NA
ATOM     40  C   UNL A   1      42.083  32.250  30.248  1.00  0.00     0.031 C 
ATOM     41  C   UNL A   1      46.262  30.865  27.818  1.00  0.00     0.029 A 
ATOM     42  N   UNL A   1      44.601  29.372  27.959  1.00  0.00    -0.354 N 
ATOM     43  C   UNL A   1      40.919  30.297  29.994  1.00  0.00     0.074 A 
ATOM     44  C   UNL A   1      40.955  31.628  30.560  1.00  0.00     0.031 C 
ATOM     45  C   UNL A   1      46.676  29.737  27.212  1.00  0.00     0.029 A 
ATOM     46  C   UNL A   1      45.627  28.722  27.314  1.00  0.00     0.049 A 
ATOM     47  H   UNL A   1      43.727  28.956  28.137  1.00  0.00     0.167 HD
ATOM     48  C   UNL A   1      39.860  29.459  30.098  1.00  0.00     0.034 A 
ATOM     49  C   UNL A   1      45.713  27.453  26.868  1.00  0.00     0.034 A 
ATOM     50  C   UNL A   1      39.809  28.142  29.520  1.00  0.00     0.049 A 
ATOM     51  C   UNL A   1      44.524  26.535  27.006  1.00  0.00     0.074 A 
ATOM     52  C   UNL A   1      38.761  27.238  29.534  1.00  0.00     0.029 A 
ATOM     53  N   UNL A   1      40.850  27.536  28.838  1.00  0.00    -0.354 N 
ATOM     54  N   UNL A   1      43.342  26.780  27.515  1.00  0.00    -0.248 NA
ATOM     55  C   UNL A   1      44.671  25.173  26.468  1.00  0.00     0.031 C 
ATOM     56  C   UNL A   1      39.181  26.072  28.885  1.00  0.00     0.029 A 
ATOM     57  C   UNL A   1      40.476  26.264  28.435  1.00  0.00     0.049 A 
ATOM     58  H   UNL A   1      41.727  27.948  28.663  1.00  0.00     0.167 HD
ATOM     59  C   UNL A   1      42.593  25.622  27.325  1.00  0.00     0.074 A 
ATOM     60  C   UNL A   1      43.450  24.683  26.630  1.00  0.00     0.031 C 
ATOM     61  C   UNL A   1      41.318  25.354  27.702  1.00  0.00     0.034 A 
BRANCH  48  62
ATOM     62  C   UNL A   1      38.655  29.950  30.856  1.00  0.00     0.023 A 
ATOM     63  C   UNL A   1      38.482  29.588  32.208  1.00  0.00     0.012 A 
ATOM     64  C   UNL A   1      37.721  30.809  30.245  1.00  0.00     0.148 A 
ATOM     65  C   UNL A   1      37.382  30.048  32.930  1.00  0.00     0.002 A 
ATOM     66  C   UNL A   1      36.652  31.300  30.985  1.00  0.00     0.091 A 
ATOM     67  F   UNL A   1      37.889  31.120  28.952  1.00  0.00    -0.205 F 
ATOM     68  C   UNL A   1      36.474  30.911  32.323  1.00  0.00     0.022 A 
BRANCH  66  69
ATOM     69  S   UNL A   1      35.473  32.478  30.316  1.00  0.00     0.127 S 
ATOM     70  O   UNL A   1      34.526  32.610  31.423  1.00  0.00    -0.237 OA
ATOM     71  O   UNL A   1      36.312  33.656  30.088  1.00  0.00    -0.237 OA
ATOM     72  O   UNL A   1      34.939  31.871  29.106  1.00  0.00    -0.744 OA
ENDBRANCH  66  69
ENDBRANCH  48  62
BRANCH  49  73
ATOM     73  C   UNL A   1      46.965  26.973  26.215  1.00  0.00     0.023 A 
ATOM     74  C   UNL A   1      47.083  27.012  24.812  1.00  0.00     0.012 A 
ATOM     75  C   UNL A   1      48.038  26.475  26.979  1.00  0.00     0.148 A 
ATOM     76  C   UNL A   1      48.228  26.529  24.179  1.00  0.00     0.002 A 
ATOM     77  C   UNL A   1      49.200  26.050  26.347  1.00  0.00     0.091 A 
ATOM     78  F   UNL A   1      47.900  26.428  28.312  1.00  0.00    -0.205 F 
ATOM     79  C   UNL A   1      49.290  26.058  24.947  1.00  0.00     0.022 A 
BRANCH  77  80
ATOM     80  S   UNL A   1      50.665  25.551  27.258  1.00  0.00     0.127 S 
ATOM     81  O   UNL A   1      51.475  24.939  26.208  1.00  0.00    -0.237 OA
ATOM     82  O   UNL A   1      51.162  26.835  27.751  1.00  0.00    -0.237 OA
ATOM     83  O   UNL A   1      50.194  24.648  28.299  1.00  0.00    -0.744 OA
ENDBRANCH  77  80
ENDBRANCH  49  73
BRANCH  61  84
ATOM     84  C   UNL A   1      40.748  24.004  27.336  1.00  0.00     0.023 A 
ATOM     85  C   UNL A   1      41.406  22.826  27.744  1.00  0.00     0.012 A 
ATOM     86  C   UNL A   1      39.535  23.903  26.627  1.00  0.00     0.148 A 
ATOM     87  C   UNL A   1      40.893  21.573  27.409  1.00  0.00     0.002 A 
ATOM     88  C   UNL A   1      39.002  22.650  26.343  1.00  0.00     0.091 A 
ATOM     89  F   UNL A   1      38.927  25.031  26.230  1.00  0.00    -0.205 F 
ATOM     90  C   UNL A   1      39.688  21.485  26.718  1.00  0.00     0.022 A 
BRANCH  88  91
ATOM     91  S   UNL A   1      37.405  22.448  25.544  1.00  0.00     0.127 S 
ATOM     92  O   UNL A   1      37.701  22.861  24.174  1.00  0.00    -0.237 OA
ATOM     93  O   UNL A   1      37.153  21.014  25.706  1.00  0.00    -0.237 OA
ATOM     94  O   UNL A   1      36.483  23.306  26.276  1.00  0.00    -0.744 OA
ENDBRANCH  88  91
ENDBRANCH  61  84
ENDBRANCH  35  36
ENDBRANCH  28  30
ENDBRANCH  27  28
ENDBRANCH  26  27
ENDBRANCH  25  26
ENDBRANCH  24  25
ENDBRANCH  23  24
ENDBRANCH   1  23
TORSDOF 23
ENDMDL
MODEL 2
REMARK VINA RESULT:      -7.9      4.261     10.040
REMARK SMILES C[C@@H]1C[C@@]([NH2+]Cc2cccs2)(C(=O)OCCOCCOCCOC(=O)c2ccc(-c3c4nc(c(-c5cccc(S(=O)(=O)[O-])c5F)c5ccc([nH]5)c(-c5cccc(S(=O)(=O)[O-])c5F)c5nc(c(-c6cccc(S(=O)(=O)[O-])c6F)c6ccc3[nH]6)C=C5)C=C4)cc2)CS1
REMARK SMILES IDX 18 1 17 2 16 3 15 4 14 5 12 6 13 7 4 8 1 9 2 10 3 11 90 12
REMARK SMILES IDX 89 13 5 14 6 17 7 18 8 19 11 20 9 21 10 22 19 23 20 24 21 25
REMARK SMILES IDX 22 26 23 27 24 28 25 29 26 30 27 31 88 32 28 33 87 34 29 35
REMARK SMILES IDX 30 36 31 37 81 38 32 39 86 40 80 41 82 42 33 43 85 44 79 45
REMARK SMILES IDX 78 46 34 48 66 49 46 50 65 51 47 52 50 53 64 54 83 55 48 56
REMARK SMILES IDX 49 57 63 59 84 60 51 61 35 62 36 63 44 64 37 65 39 66 45 67
REMARK SMILES IDX 38 68 40 69 41 70 42 71 43 72 67 73 68 74 76 75 69 76 71 77
REMARK SMILES IDX 77 78 70 79 72 80 73 81 74 82 75 83 52 84 53 85 61 86 54 87
REMARK SMILES IDX 56 88 62 89 55 90 57 91 58 92 59 93 60 94
REMARK H PARENT 5 15 5 16 82 47 50 58
REMARK Flexibility Score: inf
ROOT
ATOM      1  C   UNL A   1      43.475  34.985  35.577  1.00  0.00     0.188 C 
ENDROOT
BRANCH   1   2
ATOM      2  O   UNL A   1      42.754  36.002  36.256  1.00  0.00    -0.376 OA
BRANCH   2   3
ATOM      3  C   UNL A   1      41.719  35.653  37.164  1.00  0.00     0.202 C 
BRANCH   3   4
ATOM      4  C   UNL A   1      41.764  34.300  37.896  1.00  0.00     0.261 C 
BRANCH   4   5
ATOM      5  O   UNL A   1      41.428  33.128  37.117  1.00  0.00    -0.459 OA
BRANCH   5   6
ATOM      6  C   UNL A   1      40.107  32.799  37.094  1.00  0.00     0.369 C 
ATOM      7  O   UNL A   1      39.448  32.673  38.124  1.00  0.00    -0.245 OA
BRANCH   6   8
ATOM      8  C   UNL A   1      39.460  32.675  35.676  1.00  0.00     0.204 C 
ATOM      9  C   UNL A   1      37.824  34.733  32.851  1.00  0.00     0.019 C 
ATOM     10  C   UNL A   1      37.944  34.232  34.280  1.00  0.00     0.050 C 
ATOM     11  C   UNL A   1      39.386  33.966  34.774  1.00  0.00     0.096 C 
ATOM     12  S   UNL A   1      37.085  32.661  34.454  1.00  0.00    -0.151 SA
ATOM     13  C   UNL A   1      37.988  32.278  35.958  1.00  0.00     0.150 C 
BRANCH   8  14
ATOM     14  N   UNL A   1      40.224  31.710  34.809  1.00  0.00    -0.327 N 
ATOM     15  H   UNL A   1      41.207  31.798  35.060  1.00  0.00     0.347 HD
ATOM     16  H   UNL A   1      39.966  31.981  33.860  1.00  0.00     0.347 HD
BRANCH  14  17
ATOM     17  C   UNL A   1      39.893  30.280  34.865  1.00  0.00     0.309 C 
BRANCH  17  18
ATOM     18  C   UNL A   1      41.074  29.380  34.690  1.00  0.00     0.059 A 
ATOM     19  C   UNL A   1      41.176  28.252  33.898  1.00  0.00     0.021 A 
ATOM     20  S   UNL A   1      42.552  29.704  35.505  1.00  0.00    -0.143 S 
ATOM     21  C   UNL A   1      42.510  27.757  33.833  1.00  0.00     0.012 A 
ATOM     22  C   UNL A   1      43.369  28.492  34.619  1.00  0.00     0.065 A 
ENDBRANCH  17  18
ENDBRANCH  14  17
ENDBRANCH   8  14
ENDBRANCH   6   8
ENDBRANCH   5   6
ENDBRANCH   4   5
ENDBRANCH   3   4
ENDBRANCH   2   3
ENDBRANCH   1   2
BRANCH   1  23
ATOM     23  C   UNL A   1      44.416  35.387  34.433  1.00  0.00     0.188 C 
BRANCH  23  24
ATOM     24  O   UNL A   1      45.456  36.259  34.802  1.00  0.00    -0.376 OA
BRANCH  24  25
ATOM     25  C   UNL A   1      46.795  35.898  34.529  1.00  0.00     0.202 C 
BRANCH  25  26
ATOM     26  C   UNL A   1      47.625  36.611  33.446  1.00  0.00     0.261 C 
BRANCH  26  27
ATOM     27  O   UNL A   1      47.635  36.041  32.130  1.00  0.00    -0.460 OA
BRANCH  27  28
ATOM     28  C   UNL A   1      46.539  36.242  31.359  1.00  0.00     0.338 C 
ATOM     29  O   UNL A   1      46.076  37.316  31.026  1.00  0.00    -0.246 OA
BRANCH  28  30
ATOM     30  C   UNL A   1      46.134  34.930  30.795  1.00  0.00     0.060 A 
ATOM     31  C   UNL A   1      45.511  34.905  29.540  1.00  0.00     0.016 A 
ATOM     32  C   UNL A   1      46.364  33.739  31.489  1.00  0.00     0.016 A 
ATOM     33  C   UNL A   1      45.071  33.696  28.999  1.00  0.00     0.010 A 
ATOM     34  C   UNL A   1      45.903  32.530  30.954  1.00  0.00     0.010 A 
ATOM     35  C   UNL A   1      45.217  32.507  29.725  1.00  0.00    -0.014 A 
BRANCH  35  36
ATOM     36  C   UNL A   1      44.481  31.292  29.289  1.00  0.00     0.031 A 
ATOM     37  C   UNL A   1      45.197  30.288  28.422  1.00  0.00     0.074 A 
ATOM     38  C   UNL A   1      43.213  31.060  29.673  1.00  0.00     0.049 A 
ATOM     39  N   UNL A   1      44.767  29.152  27.939  1.00  0.00    -0.248 NA
ATOM     40  C   UNL A   1      46.585  30.613  28.050  1.00  0.00     0.031 C 
ATOM     41  C   UNL A   1      42.405  31.942  30.512  1.00  0.00     0.029 A 
ATOM     42  N   UNL A   1      42.377  30.007  29.387  1.00  0.00    -0.354 N 
ATOM     43  C   UNL A   1      45.818  28.639  27.187  1.00  0.00     0.074 A 
ATOM     44  C   UNL A   1      46.901  29.594  27.265  1.00  0.00     0.031 C 
ATOM     45  C   UNL A   1      41.179  31.406  30.654  1.00  0.00     0.029 A 
ATOM     46  C   UNL A   1      41.110  30.153  29.903  1.00  0.00     0.049 A 
ATOM     47  H   UNL A   1      42.657  29.223  28.862  1.00  0.00     0.167 HD
ATOM     48  C   UNL A   1      45.887  27.470  26.507  1.00  0.00     0.034 A 
ATOM     49  C   UNL A   1      40.019  29.372  29.772  1.00  0.00     0.034 A 
ATOM     50  C   UNL A   1      44.822  26.505  26.441  1.00  0.00     0.049 A 
ATOM     51  C   UNL A   1      40.119  28.080  29.000  1.00  0.00     0.074 A 
ATOM     52  C   UNL A   1      44.817  25.271  25.815  1.00  0.00     0.029 A 
ATOM     53  N   UNL A   1      43.570  26.669  27.011  1.00  0.00    -0.354 N 
ATOM     54  N   UNL A   1      41.156  27.551  28.397  1.00  0.00    -0.248 NA
ATOM     55  C   UNL A   1      38.902  27.256  28.924  1.00  0.00     0.031 C 
ATOM     56  C   UNL A   1      43.549  24.702  25.980  1.00  0.00     0.029 A 
ATOM     57  C   UNL A   1      42.778  25.564  26.741  1.00  0.00     0.049 A 
ATOM     58  H   UNL A   1      43.285  27.454  27.532  1.00  0.00     0.167 HD
ATOM     59  C   UNL A   1      40.730  26.320  27.907  1.00  0.00     0.074 A 
ATOM     60  C   UNL A   1      39.346  26.171  28.305  1.00  0.00     0.031 C 
ATOM     61  C   UNL A   1      41.417  25.402  27.182  1.00  0.00     0.034 A 
BRANCH  48  62
ATOM     62  C   UNL A   1      47.172  27.159  25.786  1.00  0.00     0.023 A 
ATOM     63  C   UNL A   1      48.186  26.431  26.442  1.00  0.00     0.012 A 
ATOM     64  C   UNL A   1      47.356  27.543  24.443  1.00  0.00     0.148 A 
ATOM     65  C   UNL A   1      49.375  26.119  25.784  1.00  0.00     0.002 A 
ATOM     66  C   UNL A   1      48.524  27.188  23.780  1.00  0.00     0.091 A 
ATOM     67  F   UNL A   1      46.391  28.256  23.845  1.00  0.00    -0.205 F 
ATOM     68  C   UNL A   1      49.539  26.487  24.452  1.00  0.00     0.022 A 
BRANCH  66  69
ATOM     69  S   UNL A   1      48.796  27.547  22.041  1.00  0.00     0.127 S 
ATOM     70  O   UNL A   1      48.299  26.328  21.406  1.00  0.00    -0.237 OA
ATOM     71  O   UNL A   1      47.955  28.728  21.837  1.00  0.00    -0.237 OA
ATOM     72  O   UNL A   1      50.225  27.788  21.899  1.00  0.00    -0.744 OA
ENDBRANCH  66  69
ENDBRANCH  48  62
BRANCH  49  73
ATOM     73  C   UNL A   1      38.734  29.768  30.416  1.00  0.00     0.023 A 
ATOM     74  C   UNL A   1      38.390  29.243  31.677  1.00  0.00     0.012 A 
ATOM     75  C   UNL A   1      37.849  30.662  29.782  1.00  0.00     0.148 A 
ATOM     76  C   UNL A   1      37.174  29.569  32.277  1.00  0.00     0.002 A 
ATOM     77  C   UNL A   1      36.666  31.029  30.410  1.00  0.00     0.091 A 
ATOM     78  F   UNL A   1      38.185  31.137  28.574  1.00  0.00    -0.205 F 
ATOM     79  C   UNL A   1      36.317  30.469  31.649  1.00  0.00     0.022 A 
BRANCH  77  80
ATOM     80  S   UNL A   1      35.565  32.278  29.739  1.00  0.00     0.127 S 
ATOM     81  O   UNL A   1      34.487  32.288  30.725  1.00  0.00    -0.237 OA
ATOM     82  O   UNL A   1      36.420  33.466  29.749  1.00  0.00    -0.237 OA
ATOM     83  O   UNL A   1      35.201  31.810  28.409  1.00  0.00    -0.744 OA
ENDBRANCH  77  80
ENDBRANCH  49  73
BRANCH  61  84
ATOM     84  C   UNL A   1      40.699  24.129  26.803  1.00  0.00     0.023 A 
ATOM     85  C   UNL A   1      39.368  24.179  26.343  1.00  0.00     0.012 A 
ATOM     86  C   UNL A   1      41.360  22.885  26.861  1.00  0.00     0.148 A 
ATOM     87  C   UNL A   1      38.691  23.010  25.994  1.00  0.00     0.002 A 
ATOM     88  C   UNL A   1      40.696  21.730  26.461  1.00  0.00     0.091 A 
ATOM     89  F   UNL A   1      42.621  22.848  27.317  1.00  0.00    -0.205 F 
ATOM     90  C   UNL A   1      39.358  21.788  26.043  1.00  0.00     0.022 A 
BRANCH  88  91
ATOM     91  S   UNL A   1      41.512  20.130  26.400  1.00  0.00     0.127 S 
ATOM     92  O   UNL A   1      40.498  19.303  25.748  1.00  0.00    -0.237 OA
ATOM     93  O   UNL A   1      42.691  20.410  25.578  1.00  0.00    -0.237 OA
ATOM     94  O   UNL A   1      41.813  19.784  27.783  1.00  0.00    -0.744 OA
ENDBRANCH  88  91
ENDBRANCH  61  84
ENDBRANCH  35  36
ENDBRANCH  28  30
ENDBRANCH  27  28
ENDBRANCH  26  27
ENDBRANCH  25  26
ENDBRANCH  24  25
ENDBRANCH  23  24
ENDBRANCH   1  23
TORSDOF 23
ENDMDL
MODEL 3
REMARK VINA RESULT:      -7.7      4.829     12.721
REMARK SMILES C[C@@H]1C[C@@]([NH2+]Cc2cccs2)(C(=O)OCCOCCOCCOC(=O)c2ccc(-c3c4nc(c(-c5cccc(S(=O)(=O)[O-])c5F)c5ccc([nH]5)c(-c5cccc(S(=O)(=O)[O-])c5F)c5nc(c(-c6cccc(S(=O)(=O)[O-])c6F)c6ccc3[nH]6)C=C5)C=C4)cc2)CS1
REMARK SMILES IDX 18 1 17 2 16 3 15 4 14 5 12 6 13 7 4 8 1 9 2 10 3 11 90 12
REMARK SMILES IDX 89 13 5 14 6 17 7 18 8 19 11 20 9 21 10 22 19 23 20 24 21 25
REMARK SMILES IDX 22 26 23 27 24 28 25 29 26 30 27 31 88 32 28 33 87 34 29 35
REMARK SMILES IDX 30 36 31 37 81 38 32 39 86 40 80 41 82 42 33 43 85 44 79 45
REMARK SMILES IDX 78 46 34 48 66 49 46 50 65 51 47 52 50 53 64 54 83 55 48 56
REMARK SMILES IDX 49 57 63 59 84 60 51 61 35 62 36 63 44 64 37 65 39 66 45 67
REMARK SMILES IDX 38 68 40 69 41 70 42 71 43 72 67 73 68 74 76 75 69 76 71 77
REMARK SMILES IDX 77 78 70 79 72 80 73 81 74 82 75 83 52 84 53 85 61 86 54 87
REMARK SMILES IDX 56 88 62 89 55 90 57 91 58 92 59 93 60 94
REMARK H PARENT 5 15 5 16 82 47 50 58
REMARK Flexibility Score: inf
ROOT
ATOM      1  C   UNL A   1      40.153  25.630  28.109  1.00  0.00     0.188 C 
ENDROOT
BRANCH   1   2
ATOM      2  O   UNL A   1      39.270  26.094  29.121  1.00  0.00    -0.376 OA
BRANCH   2   3
ATOM      3  C   UNL A   1      39.375  27.428  29.596  1.00  0.00     0.202 C 
BRANCH   3   4
ATOM      4  C   UNL A   1      39.007  28.603  28.673  1.00  0.00     0.261 C 
BRANCH   4   5
ATOM      5  O   UNL A   1      38.022  29.538  29.172  1.00  0.00    -0.459 OA
BRANCH   5   6
ATOM      6  C   UNL A   1      37.219  30.103  28.228  1.00  0.00     0.369 C 
ATOM      7  O   UNL A   1      37.374  29.892  27.027  1.00  0.00    -0.245 OA
BRANCH   6   8
ATOM      8  C   UNL A   1      36.034  30.968  28.770  1.00  0.00     0.204 C 
ATOM      9  C   UNL A   1      34.720  34.589  28.999  1.00  0.00     0.019 C 
ATOM     10  C   UNL A   1      35.749  33.493  29.225  1.00  0.00     0.050 C 
ATOM     11  C   UNL A   1      35.799  32.393  28.139  1.00  0.00     0.096 C 
ATOM     12  S   UNL A   1      35.398  32.628  30.763  1.00  0.00    -0.151 SA
ATOM     13  C   UNL A   1      36.395  31.224  30.257  1.00  0.00     0.150 C 
BRANCH   8  14
ATOM     14  N   UNL A   1      34.712  30.284  28.546  1.00  0.00    -0.327 N 
ATOM     15  H   UNL A   1      34.136  30.472  29.366  1.00  0.00     0.347 HD
ATOM     16  H   UNL A   1      34.967  29.311  28.378  1.00  0.00     0.347 HD
BRANCH  14  17
ATOM     17  C   UNL A   1      33.910  30.642  27.368  1.00  0.00     0.309 C 
BRANCH  17  18
ATOM     18  C   UNL A   1      33.194  29.484  26.751  1.00  0.00     0.059 A 
ATOM     19  C   UNL A   1      33.264  28.150  27.107  1.00  0.00     0.021 A 
ATOM     20  S   UNL A   1      32.100  29.723  25.447  1.00  0.00    -0.143 S 
ATOM     21  C   UNL A   1      32.299  27.358  26.422  1.00  0.00     0.012 A 
ATOM     22  C   UNL A   1      31.562  28.103  25.530  1.00  0.00     0.065 A 
ENDBRANCH  17  18
ENDBRANCH  14  17
ENDBRANCH   8  14
ENDBRANCH   6   8
ENDBRANCH   5   6
ENDBRANCH   4   5
ENDBRANCH   3   4
ENDBRANCH   2   3
ENDBRANCH   1   2
BRANCH   1  23
ATOM     23  C   UNL A   1      39.930  24.230  27.522  1.00  0.00     0.188 C 
BRANCH  23  24
ATOM     24  O   UNL A   1      40.936  23.295  27.822  1.00  0.00    -0.376 OA
BRANCH  24  25
ATOM     25  C   UNL A   1      41.758  22.800  26.784  1.00  0.00     0.202 C 
BRANCH  25  26
ATOM     26  C   UNL A   1      43.276  22.623  26.962  1.00  0.00     0.261 C 
BRANCH  26  27
ATOM     27  O   UNL A   1      44.098  22.686  25.788  1.00  0.00    -0.460 OA
BRANCH  27  28
ATOM     28  C   UNL A   1      45.437  22.572  25.962  1.00  0.00     0.338 C 
ATOM     29  O   UNL A   1      46.097  21.557  25.852  1.00  0.00    -0.246 OA
BRANCH  28  30
ATOM     30  C   UNL A   1      45.998  23.941  26.078  1.00  0.00     0.060 A 
ATOM     31  C   UNL A   1      45.714  24.868  25.066  1.00  0.00     0.016 A 
ATOM     32  C   UNL A   1      46.794  24.310  27.167  1.00  0.00     0.016 A 
ATOM     33  C   UNL A   1      46.265  26.150  25.115  1.00  0.00     0.010 A 
ATOM     34  C   UNL A   1      47.361  25.590  27.203  1.00  0.00     0.010 A 
ATOM     35  C   UNL A   1      47.134  26.502  26.156  1.00  0.00    -0.014 A 
BRANCH  35  36
ATOM     36  C   UNL A   1      47.948  27.740  26.038  1.00  0.00     0.031 A 
ATOM     37  C   UNL A   1      47.351  29.042  26.509  1.00  0.00     0.074 A 
ATOM     38  C   UNL A   1      49.202  27.716  25.552  1.00  0.00     0.049 A 
ATOM     39  N   UNL A   1      47.876  30.240  26.523  1.00  0.00    -0.248 NA
ATOM     40  C   UNL A   1      45.976  28.983  27.032  1.00  0.00     0.031 C 
ATOM     41  C   UNL A   1      49.902  26.530  25.067  1.00  0.00     0.029 A 
ATOM     42  N   UNL A   1      50.105  28.737  25.374  1.00  0.00    -0.354 N 
ATOM     43  C   UNL A   1      46.891  31.079  27.031  1.00  0.00     0.074 A 
ATOM     44  C   UNL A   1      45.731  30.258  27.298  1.00  0.00     0.031 C 
ATOM     45  C   UNL A   1      51.118  26.892  24.622  1.00  0.00     0.029 A 
ATOM     46  C   UNL A   1      51.277  28.338  24.775  1.00  0.00     0.049 A 
ATOM     47  H   UNL A   1      49.929  29.666  25.648  1.00  0.00     0.167 HD
ATOM     48  C   UNL A   1      46.948  32.411  27.272  1.00  0.00     0.034 A 
ATOM     49  C   UNL A   1      52.347  29.059  24.385  1.00  0.00     0.034 A 
ATOM     50  C   UNL A   1      48.105  33.230  27.027  1.00  0.00     0.049 A 
ATOM     51  C   UNL A   1      52.382  30.543  24.654  1.00  0.00     0.074 A 
ATOM     52  C   UNL A   1      48.272  34.580  27.283  1.00  0.00     0.029 A 
ATOM     53  N   UNL A   1      49.287  32.782  26.460  1.00  0.00    -0.354 N 
ATOM     54  N   UNL A   1      51.490  31.299  25.247  1.00  0.00    -0.248 NA
ATOM     55  C   UNL A   1      53.593  31.265  24.235  1.00  0.00     0.031 C 
ATOM     56  C   UNL A   1      49.546  34.955  26.841  1.00  0.00     0.029 A 
ATOM     57  C   UNL A   1      50.185  33.831  26.345  1.00  0.00     0.049 A 
ATOM     58  H   UNL A   1      49.463  31.855  26.180  1.00  0.00     0.167 HD
ATOM     59  C   UNL A   1      52.047  32.574  25.307  1.00  0.00     0.074 A 
ATOM     60  C   UNL A   1      53.364  32.481  24.712  1.00  0.00     0.031 C 
ATOM     61  C   UNL A   1      51.512  33.720  25.797  1.00  0.00     0.034 A 
BRANCH  48  62
ATOM     62  C   UNL A   1      45.722  33.067  27.847  1.00  0.00     0.023 A 
ATOM     63  C   UNL A   1      45.414  32.901  29.214  1.00  0.00     0.012 A 
ATOM     64  C   UNL A   1      44.902  33.888  27.049  1.00  0.00     0.148 A 
ATOM     65  C   UNL A   1      44.292  33.516  29.768  1.00  0.00     0.002 A 
ATOM     66  C   UNL A   1      43.812  34.534  27.619  1.00  0.00     0.091 A 
ATOM     67  F   UNL A   1      45.197  34.012  25.747  1.00  0.00    -0.205 F 
ATOM     68  C   UNL A   1      43.498  34.340  28.974  1.00  0.00     0.022 A 
BRANCH  66  69
ATOM     69  S   UNL A   1      42.776  35.677  26.699  1.00  0.00     0.127 S 
ATOM     70  O   UNL A   1      41.572  35.717  27.528  1.00  0.00    -0.237 OA
ATOM     71  O   UNL A   1      43.575  36.904  26.725  1.00  0.00    -0.237 OA
ATOM     72  O   UNL A   1      42.606  35.092  25.377  1.00  0.00    -0.744 OA
ENDBRANCH  66  69
ENDBRANCH  48  62
BRANCH  49  73
ATOM     73  C   UNL A   1      53.501  28.386  23.722  1.00  0.00     0.023 A 
ATOM     74  C   UNL A   1      54.609  27.976  24.489  1.00  0.00     0.012 A 
ATOM     75  C   UNL A   1      53.505  28.152  22.333  1.00  0.00     0.148 A 
ATOM     76  C   UNL A   1      55.716  27.383  23.881  1.00  0.00     0.002 A 
ATOM     77  C   UNL A   1      54.584  27.508  21.742  1.00  0.00     0.091 A 
ATOM     78  F   UNL A   1      52.450  28.566  21.616  1.00  0.00    -0.205 F 
ATOM     79  C   UNL A   1      55.700  27.139  22.511  1.00  0.00     0.022 A 
BRANCH  77  80
ATOM     80  S   UNL A   1      54.595  27.036  20.009  1.00  0.00     0.127 S 
ATOM     81  O   UNL A   1      54.781  28.326  19.349  1.00  0.00    -0.237 OA
ATOM     82  O   UNL A   1      55.751  26.141  19.950  1.00  0.00    -0.237 OA
ATOM     83  O   UNL A   1      53.315  26.383  19.771  1.00  0.00    -0.744 OA
ENDBRANCH  77  80
ENDBRANCH  49  73
BRANCH  61  84
ATOM     84  C   UNL A   1      52.364  34.966  25.753  1.00  0.00     0.023 A 
ATOM     85  C   UNL A   1      52.284  35.838  24.649  1.00  0.00     0.012 A 
ATOM     86  C   UNL A   1      53.213  35.296  26.829  1.00  0.00     0.148 A 
ATOM     87  C   UNL A   1      53.069  36.990  24.593  1.00  0.00     0.002 A 
ATOM     88  C   UNL A   1      53.953  36.473  26.791  1.00  0.00     0.091 A 
ATOM     89  F   UNL A   1      53.294  34.450  27.867  1.00  0.00    -0.205 F 
ATOM     90  C   UNL A   1      53.895  37.312  25.667  1.00  0.00     0.022 A 
BRANCH  88  91
ATOM     91  S   UNL A   1      54.965  37.013  28.173  1.00  0.00     0.127 S 
ATOM     92  O   UNL A   1      54.027  37.845  28.924  1.00  0.00    -0.237 OA
ATOM     93  O   UNL A   1      55.311  35.747  28.823  1.00  0.00    -0.237 OA
ATOM     94  O   UNL A   1      56.099  37.715  27.585  1.00  0.00    -0.744 OA
ENDBRANCH  88  91
ENDBRANCH  61  84
ENDBRANCH  35  36
ENDBRANCH  28  30
ENDBRANCH  27  28
ENDBRANCH  26  27
ENDBRANCH  25  26
ENDBRANCH  24  25
ENDBRANCH  23  24
ENDBRANCH   1  23
TORSDOF 23
ENDMDL
