MODEL 1
REMARK VINA RESULT:      -9.8      0.000      0.000
REMARK SMILES O=C(OCCOCCOCCOC(=O)c1cccn(Cc2ccc3c(c2)OC(F)(F)O3)c1=O)c1ccc(-c2c3nc(c(-c4cccc(S(=O)(=O)[O-])c4F)c4ccc([nH]4)c(-c4cccc(S(=O)(=O)[O-])c4F)c4nc(c(-c5cccc(S(=O)(=O)[O-])c5F)c5ccc2[nH]5)C=C4)C=C3)cc1
REMARK SMILES IDX 7 1 6 2 5 3 4 4 3 5 2 6 1 7 34 8 35 9 96 10 36 11 95 12
REMARK SMILES IDX 37 13 38 14 39 15 89 16 40 17 94 18 88 19 90 20 41 21 93 22
REMARK SMILES IDX 87 23 86 24 42 26 74 27 54 28 73 29 55 30 58 31 72 32 91 33
REMARK SMILES IDX 56 34 57 35 71 37 92 38 59 39 43 40 44 41 52 42 45 43 47 44
REMARK SMILES IDX 53 45 46 46 48 47 49 48 50 49 51 50 75 51 76 52 84 53 77 54
REMARK SMILES IDX 79 55 85 56 78 57 80 58 81 59 82 60 83 61 60 62 61 63 69 64
REMARK SMILES IDX 62 65 64 66 70 67 63 68 65 69 66 70 67 71 68 72 8 73 9 74
REMARK SMILES IDX 10 75 11 76 12 77 13 78 14 79 15 80 16 81 32 82 17 83 19 84
REMARK SMILES IDX 33 85 18 86 20 87 21 88 22 89 26 90 23 91 25 92 24 93 27 94
REMARK SMILES IDX 31 95 28 96 29 97 30 98
REMARK H PARENT 90 25 58 36
REMARK Flexibility Score: inf
ROOT
ATOM      1  C   UNL A   1      43.588  19.134  25.033  1.00  0.00     0.188 C 
ENDROOT
BRANCH   1   2
ATOM      2  O   UNL A   1      42.336  18.633  25.516  1.00  0.00    -0.376 OA
BRANCH   2   3
ATOM      3  C   UNL A   1      41.585  19.613  26.241  1.00  0.00     0.202 C 
BRANCH   3   4
ATOM      4  C   UNL A   1      42.302  20.952  26.453  1.00  0.00     0.261 C 
BRANCH   4   5
ATOM      5  O   UNL A   1      41.925  21.965  25.508  1.00  0.00    -0.460 OA
BRANCH   5   6
ATOM      6  C   UNL A   1      42.378  23.235  25.384  1.00  0.00     0.338 C 
ATOM      7  O   UNL A   1      43.194  23.454  24.486  1.00  0.00    -0.246 OA
BRANCH   6   8
ATOM      8  C   UNL A   1      41.995  24.392  26.267  1.00  0.00     0.060 A 
ATOM      9  C   UNL A   1      40.774  24.272  26.964  1.00  0.00     0.016 A 
ATOM     10  C   UNL A   1      42.719  25.570  26.460  1.00  0.00     0.016 A 
ATOM     11  C   UNL A   1      40.317  25.277  27.825  1.00  0.00     0.010 A 
ATOM     12  C   UNL A   1      42.285  26.564  27.338  1.00  0.00     0.010 A 
ATOM     13  C   UNL A   1      41.084  26.429  28.031  1.00  0.00    -0.014 A 
BRANCH  13  14
ATOM     14  C   UNL A   1      40.770  27.393  29.106  1.00  0.00     0.031 A 
ATOM     15  C   UNL A   1      39.725  28.459  28.958  1.00  0.00     0.074 A 
ATOM     16  C   UNL A   1      41.588  27.409  30.174  1.00  0.00     0.049 A 
ATOM     17  N   UNL A   1      39.209  29.223  29.885  1.00  0.00    -0.248 NA
ATOM     18  C   UNL A   1      39.196  28.717  27.612  1.00  0.00     0.031 C 
ATOM     19  C   UNL A   1      42.772  26.559  30.340  1.00  0.00     0.029 A 
ATOM     20  N   UNL A   1      41.596  28.213  31.280  1.00  0.00    -0.354 N 
ATOM     21  C   UNL A   1      38.233  29.984  29.253  1.00  0.00     0.074 A 
ATOM     22  C   UNL A   1      38.304  29.676  27.849  1.00  0.00     0.031 C 
ATOM     23  C   UNL A   1      43.421  26.928  31.454  1.00  0.00     0.029 A 
ATOM     24  C   UNL A   1      42.685  28.015  32.090  1.00  0.00     0.049 A 
ATOM     25  H   UNL A   1      40.889  28.870  31.476  1.00  0.00     0.167 HD
ATOM     26  C   UNL A   1      37.333  30.813  29.830  1.00  0.00     0.034 A 
ATOM     27  C   UNL A   1      43.051  28.642  33.223  1.00  0.00     0.034 A 
ATOM     28  C   UNL A   1      37.415  31.223  31.204  1.00  0.00     0.049 A 
ATOM     29  C   UNL A   1      42.126  29.665  33.808  1.00  0.00     0.074 A 
ATOM     30  C   UNL A   1      36.533  32.012  31.921  1.00  0.00     0.029 A 
ATOM     31  N   UNL A   1      38.494  30.962  32.028  1.00  0.00    -0.354 N 
ATOM     32  N   UNL A   1      40.972  30.081  33.346  1.00  0.00    -0.248 NA
ATOM     33  C   UNL A   1      42.518  30.267  35.089  1.00  0.00     0.031 C 
ATOM     34  C   UNL A   1      37.110  32.269  33.168  1.00  0.00     0.029 A 
ATOM     35  C   UNL A   1      38.338  31.629  33.227  1.00  0.00     0.049 A 
ATOM     36  H   UNL A   1      39.259  30.389  31.796  1.00  0.00     0.167 HD
ATOM     37  C   UNL A   1      40.481  30.967  34.293  1.00  0.00     0.074 A 
ATOM     38  C   UNL A   1      41.464  31.031  35.355  1.00  0.00     0.031 C 
ATOM     39  C   UNL A   1      39.316  31.660  34.282  1.00  0.00     0.034 A 
BRANCH  26  40
ATOM     40  C   UNL A   1      36.119  31.250  29.058  1.00  0.00     0.023 A 
ATOM     41  C   UNL A   1      35.275  30.232  28.560  1.00  0.00     0.012 A 
ATOM     42  C   UNL A   1      35.710  32.589  28.959  1.00  0.00     0.148 A 
ATOM     43  C   UNL A   1      34.064  30.537  27.944  1.00  0.00     0.002 A 
ATOM     44  C   UNL A   1      34.481  32.886  28.373  1.00  0.00     0.091 A 
ATOM     45  F   UNL A   1      36.520  33.540  29.443  1.00  0.00    -0.205 F 
ATOM     46  C   UNL A   1      33.665  31.865  27.854  1.00  0.00     0.022 A 
BRANCH  44  47
ATOM     47  S   UNL A   1      33.812  34.554  28.328  1.00  0.00     0.127 S 
ATOM     48  O   UNL A   1      34.639  35.180  27.298  1.00  0.00    -0.237 OA
ATOM     49  O   UNL A   1      32.421  34.321  27.935  1.00  0.00    -0.237 OA
ATOM     50  O   UNL A   1      33.979  35.081  29.675  1.00  0.00    -0.744 OA
ENDBRANCH  44  47
ENDBRANCH  26  40
BRANCH  27  51
ATOM     51  C   UNL A   1      44.305  28.218  33.893  1.00  0.00     0.023 A 
ATOM     52  C   UNL A   1      45.504  28.887  33.591  1.00  0.00     0.012 A 
ATOM     53  C   UNL A   1      44.283  27.262  34.927  1.00  0.00     0.148 A 
ATOM     54  C   UNL A   1      46.666  28.614  34.313  1.00  0.00     0.002 A 
ATOM     55  C   UNL A   1      45.435  27.020  35.666  1.00  0.00     0.091 A 
ATOM     56  F   UNL A   1      43.125  26.643  35.193  1.00  0.00    -0.205 F 
ATOM     57  C   UNL A   1      46.629  27.692  35.355  1.00  0.00     0.022 A 
BRANCH  55  58
ATOM     58  S   UNL A   1      45.455  25.940  37.102  1.00  0.00     0.127 S 
ATOM     59  O   UNL A   1      46.888  25.794  37.343  1.00  0.00    -0.237 OA
ATOM     60  O   UNL A   1      44.743  26.746  38.094  1.00  0.00    -0.237 OA
ATOM     61  O   UNL A   1      44.757  24.729  36.696  1.00  0.00    -0.744 OA
ENDBRANCH  55  58
ENDBRANCH  27  51
BRANCH  39  62
ATOM     62  C   UNL A   1      39.020  32.564  35.439  1.00  0.00     0.023 A 
ATOM     63  C   UNL A   1      38.344  32.048  36.561  1.00  0.00     0.012 A 
ATOM     64  C   UNL A   1      39.554  33.866  35.479  1.00  0.00     0.148 A 
ATOM     65  C   UNL A   1      38.204  32.821  37.711  1.00  0.00     0.002 A 
ATOM     66  C   UNL A   1      39.449  34.612  36.643  1.00  0.00     0.091 A 
ATOM     67  F   UNL A   1      40.184  34.330  34.389  1.00  0.00    -0.205 F 
ATOM     68  C   UNL A   1      38.769  34.094  37.758  1.00  0.00     0.022 A 
BRANCH  66  69
ATOM     69  S   UNL A   1      40.238  36.214  36.826  1.00  0.00     0.127 S 
ATOM     70  O   UNL A   1      41.649  35.841  36.918  1.00  0.00    -0.237 OA
ATOM     71  O   UNL A   1      39.863  36.888  35.582  1.00  0.00    -0.237 OA
ATOM     72  O   UNL A   1      39.670  36.808  38.028  1.00  0.00    -0.744 OA
ENDBRANCH  66  69
ENDBRANCH  39  62
ENDBRANCH  13  14
ENDBRANCH   6   8
ENDBRANCH   5   6
ENDBRANCH   4   5
ENDBRANCH   3   4
ENDBRANCH   2   3
ENDBRANCH   1   2
BRANCH   1  73
ATOM     73  C   UNL A   1      44.790  18.443  25.682  1.00  0.00     0.188 C 
BRANCH  73  74
ATOM     74  O   UNL A   1      46.023  18.510  24.971  1.00  0.00    -0.376 OA
BRANCH  74  75
ATOM     75  C   UNL A   1      46.344  19.735  24.314  1.00  0.00     0.202 C 
BRANCH  75  76
ATOM     76  C   UNL A   1      45.818  21.039  24.924  1.00  0.00     0.261 C 
BRANCH  76  77
ATOM     77  O   UNL A   1      46.815  22.059  25.083  1.00  0.00    -0.459 OA
BRANCH  77  78
ATOM     78  C   UNL A   1      46.328  23.318  25.176  1.00  0.00     0.343 C 
ATOM     79  O   UNL A   1      45.952  24.027  24.240  1.00  0.00    -0.246 OA
BRANCH  78  80
ATOM     80  C   UNL A   1      46.225  23.744  26.571  1.00  0.00     0.125 A 
ATOM     81  C   UNL A   1      45.333  23.183  27.405  1.00  0.00     0.023 A 
ATOM     82  C   UNL A   1      47.006  24.925  27.004  1.00  0.00     0.265 A 
ATOM     83  C   UNL A   1      45.101  23.743  28.714  1.00  0.00     0.019 A 
ATOM     84  N   UNL A   1      46.642  25.475  28.234  1.00  0.00    -0.310 N 
ATOM     85  O   UNL A   1      47.910  25.351  26.293  1.00  0.00    -0.268 OA
ATOM     86  C   UNL A   1      45.721  24.873  29.073  1.00  0.00     0.089 A 
BRANCH  84  87
ATOM     87  C   UNL A   1      47.303  26.701  28.652  1.00  0.00     0.161 C 
BRANCH  87  88
ATOM     88  C   UNL A   1      46.475  27.934  28.381  1.00  0.00    -0.024 A 
ATOM     89  C   UNL A   1      46.397  28.471  27.078  1.00  0.00     0.010 A 
ATOM     90  C   UNL A   1      45.723  28.508  29.422  1.00  0.00     0.056 A 
ATOM     91  C   UNL A   1      45.555  29.551  26.799  1.00  0.00     0.051 A 
ATOM     92  C   UNL A   1      44.895  29.560  29.115  1.00  0.00     0.173 A 
ATOM     93  C   UNL A   1      44.807  30.062  27.837  1.00  0.00     0.172 A 
ATOM     94  O   UNL A   1      44.065  30.193  29.986  1.00  0.00    -0.395 OA
ATOM     95  O   UNL A   1      43.896  31.070  27.742  1.00  0.00    -0.395 OA
ATOM     96  C   UNL A   1      43.341  31.011  29.065  1.00  0.00     0.586 C 
ATOM     97  F   UNL A   1      42.068  30.549  28.976  1.00  0.00    -0.125 F 
ATOM     98  F   UNL A   1      43.278  32.273  29.560  1.00  0.00    -0.125 F 
ENDBRANCH  87  88
ENDBRANCH  84  87
ENDBRANCH  78  80
ENDBRANCH  77  78
ENDBRANCH  76  77
ENDBRANCH  75  76
ENDBRANCH  74  75
ENDBRANCH  73  74
ENDBRANCH   1  73
TORSDOF 22
ENDMDL
MODEL 2
REMARK VINA RESULT:      -9.7      5.293     10.274
REMARK SMILES O=C(OCCOCCOCCOC(=O)c1cccn(Cc2ccc3c(c2)OC(F)(F)O3)c1=O)c1ccc(-c2c3nc(c(-c4cccc(S(=O)(=O)[O-])c4F)c4ccc([nH]4)c(-c4cccc(S(=O)(=O)[O-])c4F)c4nc(c(-c5cccc(S(=O)(=O)[O-])c5F)c5ccc2[nH]5)C=C4)C=C3)cc1
REMARK SMILES IDX 7 1 6 2 5 3 4 4 3 5 2 6 1 7 34 8 35 9 96 10 36 11 95 12
REMARK SMILES IDX 37 13 38 14 39 15 89 16 40 17 94 18 88 19 90 20 41 21 93 22
REMARK SMILES IDX 87 23 86 24 42 26 74 27 54 28 73 29 55 30 58 31 72 32 91 33
REMARK SMILES IDX 56 34 57 35 71 37 92 38 59 39 43 40 44 41 52 42 45 43 47 44
REMARK SMILES IDX 53 45 46 46 48 47 49 48 50 49 51 50 75 51 76 52 84 53 77 54
REMARK SMILES IDX 79 55 85 56 78 57 80 58 81 59 82 60 83 61 60 62 61 63 69 64
REMARK SMILES IDX 62 65 64 66 70 67 63 68 65 69 66 70 67 71 68 72 8 73 9 74
REMARK SMILES IDX 10 75 11 76 12 77 13 78 14 79 15 80 16 81 32 82 17 83 19 84
REMARK SMILES IDX 33 85 18 86 20 87 21 88 22 89 26 90 23 91 25 92 24 93 27 94
REMARK SMILES IDX 31 95 28 96 29 97 30 98
REMARK H PARENT 90 25 58 36
REMARK Flexibility Score: inf
ROOT
ATOM      1  C   UNL A   1      36.436  21.206  24.522  1.00  0.00     0.188 C 
ENDROOT
BRANCH   1   2
ATOM      2  O   UNL A   1      37.118  21.588  25.722  1.00  0.00    -0.376 OA
BRANCH   2   3
ATOM      3  C   UNL A   1      38.526  21.339  25.668  1.00  0.00     0.202 C 
BRANCH   3   4
ATOM      4  C   UNL A   1      38.917  19.907  25.281  1.00  0.00     0.261 C 
BRANCH   4   5
ATOM      5  O   UNL A   1      39.962  19.354  26.095  1.00  0.00    -0.460 OA
BRANCH   5   6
ATOM      6  C   UNL A   1      41.276  19.680  26.143  1.00  0.00     0.338 C 
ATOM      7  O   UNL A   1      42.084  18.790  25.869  1.00  0.00    -0.246 OA
BRANCH   6   8
ATOM      8  C   UNL A   1      41.832  21.023  26.532  1.00  0.00     0.060 A 
ATOM      9  C   UNL A   1      42.169  21.894  25.475  1.00  0.00     0.016 A 
ATOM     10  C   UNL A   1      42.053  21.490  27.829  1.00  0.00     0.016 A 
ATOM     11  C   UNL A   1      42.684  23.174  25.712  1.00  0.00     0.010 A 
ATOM     12  C   UNL A   1      42.538  22.775  28.075  1.00  0.00     0.010 A 
ATOM     13  C   UNL A   1      42.856  23.631  27.023  1.00  0.00    -0.014 A 
BRANCH  13  14
ATOM     14  C   UNL A   1      43.156  25.046  27.323  1.00  0.00     0.031 A 
ATOM     15  C   UNL A   1      42.089  26.049  27.649  1.00  0.00     0.074 A 
ATOM     16  C   UNL A   1      44.418  25.464  27.112  1.00  0.00     0.049 A 
ATOM     17  N   UNL A   1      42.230  27.255  28.132  1.00  0.00    -0.248 NA
ATOM     18  C   UNL A   1      40.693  25.670  27.395  1.00  0.00     0.031 C 
ATOM     19  C   UNL A   1      45.505  24.629  26.592  1.00  0.00     0.029 A 
ATOM     20  N   UNL A   1      44.979  26.706  27.235  1.00  0.00    -0.354 N 
ATOM     21  C   UNL A   1      40.942  27.742  28.326  1.00  0.00     0.074 A 
ATOM     22  C   UNL A   1      40.036  26.751  27.806  1.00  0.00     0.031 C 
ATOM     23  C   UNL A   1      46.585  25.397  26.387  1.00  0.00     0.029 A 
ATOM     24  C   UNL A   1      46.274  26.765  26.787  1.00  0.00     0.049 A 
ATOM     25  H   UNL A   1      44.499  27.481  27.607  1.00  0.00     0.167 HD
ATOM     26  C   UNL A   1      40.580  28.890  28.943  1.00  0.00     0.034 A 
ATOM     27  C   UNL A   1      47.119  27.809  26.709  1.00  0.00     0.034 A 
ATOM     28  C   UNL A   1      41.515  29.924  29.285  1.00  0.00     0.049 A 
ATOM     29  C   UNL A   1      46.683  29.129  27.266  1.00  0.00     0.074 A 
ATOM     30  C   UNL A   1      41.282  31.107  29.962  1.00  0.00     0.029 A 
ATOM     31  N   UNL A   1      42.838  29.939  28.878  1.00  0.00    -0.354 N 
ATOM     32  N   UNL A   1      45.537  29.442  27.820  1.00  0.00    -0.248 NA
ATOM     33  C   UNL A   1      47.662  30.223  27.240  1.00  0.00     0.031 C 
ATOM     34  C   UNL A   1      42.458  31.862  29.919  1.00  0.00     0.029 A 
ATOM     35  C   UNL A   1      43.420  31.141  29.229  1.00  0.00     0.049 A 
ATOM     36  H   UNL A   1      43.295  29.205  28.409  1.00  0.00     0.167 HD
ATOM     37  C   UNL A   1      45.666  30.758  28.241  1.00  0.00     0.074 A 
ATOM     38  C   UNL A   1      47.001  31.185  27.875  1.00  0.00     0.031 C 
ATOM     39  C   UNL A   1      44.758  31.537  28.878  1.00  0.00     0.034 A 
BRANCH  26  40
ATOM     40  C   UNL A   1      39.161  29.073  29.405  1.00  0.00     0.023 A 
ATOM     41  C   UNL A   1      38.866  28.694  30.734  1.00  0.00     0.012 A 
ATOM     42  C   UNL A   1      38.185  29.742  28.650  1.00  0.00     0.148 A 
ATOM     43  C   UNL A   1      37.614  28.943  31.293  1.00  0.00     0.002 A 
ATOM     44  C   UNL A   1      36.947  30.019  29.226  1.00  0.00     0.091 A 
ATOM     45  F   UNL A   1      38.485  30.099  27.394  1.00  0.00    -0.205 F 
ATOM     46  C   UNL A   1      36.656  29.609  30.540  1.00  0.00     0.022 A 
BRANCH  44  47
ATOM     47  S   UNL A   1      35.688  30.991  28.388  1.00  0.00     0.127 S 
ATOM     48  O   UNL A   1      34.810  31.362  29.496  1.00  0.00    -0.237 OA
ATOM     49  O   UNL A   1      36.468  32.097  27.830  1.00  0.00    -0.237 OA
ATOM     50  O   UNL A   1      35.104  30.102  27.393  1.00  0.00    -0.744 OA
ENDBRANCH  44  47
ENDBRANCH  26  40
BRANCH  27  51
ATOM     51  C   UNL A   1      48.480  27.577  26.165  1.00  0.00     0.023 A 
ATOM     52  C   UNL A   1      49.476  27.056  27.009  1.00  0.00     0.012 A 
ATOM     53  C   UNL A   1      48.744  27.733  24.790  1.00  0.00     0.148 A 
ATOM     54  C   UNL A   1      50.717  26.686  26.490  1.00  0.00     0.002 A 
ATOM     55  C   UNL A   1      49.969  27.330  24.274  1.00  0.00     0.091 A 
ATOM     56  F   UNL A   1      47.773  28.230  24.011  1.00  0.00    -0.205 F 
ATOM     57  C   UNL A   1      50.960  26.812  25.125  1.00  0.00     0.022 A 
BRANCH  55  58
ATOM     58  S   UNL A   1      50.330  27.342  22.514  1.00  0.00     0.127 S 
ATOM     59  O   UNL A   1      51.712  26.870  22.490  1.00  0.00    -0.237 OA
ATOM     60  O   UNL A   1      49.345  26.391  21.999  1.00  0.00    -0.237 OA
ATOM     61  O   UNL A   1      50.125  28.716  22.077  1.00  0.00    -0.744 OA
ENDBRANCH  55  58
ENDBRANCH  27  51
BRANCH  39  62
ATOM     62  C   UNL A   1      45.149  32.941  29.224  1.00  0.00     0.023 A 
ATOM     63  C   UNL A   1      45.772  33.198  30.459  1.00  0.00     0.012 A 
ATOM     64  C   UNL A   1      45.049  33.964  28.262  1.00  0.00     0.148 A 
ATOM     65  C   UNL A   1      46.292  34.461  30.733  1.00  0.00     0.002 A 
ATOM     66  C   UNL A   1      45.608  35.206  28.524  1.00  0.00     0.091 A 
ATOM     67  F   UNL A   1      44.441  33.688  27.098  1.00  0.00    -0.205 F 
ATOM     68  C   UNL A   1      46.225  35.458  29.761  1.00  0.00     0.022 A 
BRANCH  66  69
ATOM     69  S   UNL A   1      45.661  36.510  27.292  1.00  0.00     0.127 S 
ATOM     70  O   UNL A   1      44.301  37.040  27.361  1.00  0.00    -0.237 OA
ATOM     71  O   UNL A   1      46.693  37.399  27.826  1.00  0.00    -0.237 OA
ATOM     72  O   UNL A   1      46.016  35.862  26.036  1.00  0.00    -0.744 OA
ENDBRANCH  66  69
ENDBRANCH  39  62
ENDBRANCH  13  14
ENDBRANCH   6   8
ENDBRANCH   5   6
ENDBRANCH   4   5
ENDBRANCH   3   4
ENDBRANCH   2   3
ENDBRANCH   1   2
BRANCH   1  73
ATOM     73  C   UNL A   1      35.521  19.995  24.721  1.00  0.00     0.188 C 
BRANCH  73  74
ATOM     74  O   UNL A   1      34.420  20.168  25.609  1.00  0.00    -0.376 OA
BRANCH  74  75
ATOM     75  C   UNL A   1      33.146  19.684  25.188  1.00  0.00     0.202 C 
BRANCH  75  76
ATOM     76  C   UNL A   1      32.022  20.705  24.976  1.00  0.00     0.261 C 
BRANCH  76  77
ATOM     77  O   UNL A   1      32.205  21.938  25.690  1.00  0.00    -0.459 OA
BRANCH  77  78
ATOM     78  C   UNL A   1      32.547  22.994  24.915  1.00  0.00     0.343 C 
ATOM     79  O   UNL A   1      33.268  22.965  23.916  1.00  0.00    -0.246 OA
BRANCH  78  80
ATOM     80  C   UNL A   1      31.886  24.218  25.369  1.00  0.00     0.125 A 
ATOM     81  C   UNL A   1      30.647  24.186  25.890  1.00  0.00     0.023 A 
ATOM     82  C   UNL A   1      32.539  25.515  25.085  1.00  0.00     0.265 A 
ATOM     83  C   UNL A   1      29.929  25.410  26.147  1.00  0.00     0.019 A 
ATOM     84  N   UNL A   1      31.738  26.646  25.251  1.00  0.00    -0.310 N 
ATOM     85  O   UNL A   1      33.715  25.542  24.736  1.00  0.00    -0.268 OA
ATOM     86  C   UNL A   1      30.467  26.583  25.793  1.00  0.00     0.089 A 
BRANCH  84  87
ATOM     87  C   UNL A   1      32.298  27.936  24.879  1.00  0.00     0.161 C 
BRANCH  87  88
ATOM     88  C   UNL A   1      31.346  28.773  24.059  1.00  0.00    -0.024 A 
ATOM     89  C   UNL A   1      30.915  28.329  22.790  1.00  0.00     0.010 A 
ATOM     90  C   UNL A   1      30.834  29.967  24.595  1.00  0.00     0.056 A 
ATOM     91  C   UNL A   1      29.958  29.048  22.069  1.00  0.00     0.051 A 
ATOM     92  C   UNL A   1      29.886  30.647  23.869  1.00  0.00     0.173 A 
ATOM     93  C   UNL A   1      29.453  30.195  22.644  1.00  0.00     0.172 A 
ATOM     94  O   UNL A   1      29.253  31.783  24.263  1.00  0.00    -0.395 OA
ATOM     95  O   UNL A   1      28.480  30.988  22.117  1.00  0.00    -0.395 OA
ATOM     96  C   UNL A   1      28.271  31.873  23.229  1.00  0.00     0.586 C 
ATOM     97  F   UNL A   1      27.050  31.613  23.760  1.00  0.00    -0.125 F 
ATOM     98  F   UNL A   1      28.245  33.147  22.762  1.00  0.00    -0.125 F 
ENDBRANCH  87  88
ENDBRANCH  84  87
ENDBRANCH  78  80
ENDBRANCH  77  78
ENDBRANCH  76  77
ENDBRANCH  75  76
ENDBRANCH  74  75
ENDBRANCH  73  74
ENDBRANCH   1  73
TORSDOF 22
ENDMDL
MODEL 3
REMARK VINA RESULT:      -9.7      4.244     10.477
REMARK SMILES O=C(OCCOCCOCCOC(=O)c1cccn(Cc2ccc3c(c2)OC(F)(F)O3)c1=O)c1ccc(-c2c3nc(c(-c4cccc(S(=O)(=O)[O-])c4F)c4ccc([nH]4)c(-c4cccc(S(=O)(=O)[O-])c4F)c4nc(c(-c5cccc(S(=O)(=O)[O-])c5F)c5ccc2[nH]5)C=C4)C=C3)cc1
REMARK SMILES IDX 7 1 6 2 5 3 4 4 3 5 2 6 1 7 34 8 35 9 96 10 36 11 95 12
REMARK SMILES IDX 37 13 38 14 39 15 89 16 40 17 94 18 88 19 90 20 41 21 93 22
REMARK SMILES IDX 87 23 86 24 42 26 74 27 54 28 73 29 55 30 58 31 72 32 91 33
REMARK SMILES IDX 56 34 57 35 71 37 92 38 59 39 43 40 44 41 52 42 45 43 47 44
REMARK SMILES IDX 53 45 46 46 48 47 49 48 50 49 51 50 75 51 76 52 84 53 77 54
REMARK SMILES IDX 79 55 85 56 78 57 80 58 81 59 82 60 83 61 60 62 61 63 69 64
REMARK SMILES IDX 62 65 64 66 70 67 63 68 65 69 66 70 67 71 68 72 8 73 9 74
REMARK SMILES IDX 10 75 11 76 12 77 13 78 14 79 15 80 16 81 32 82 17 83 19 84
REMARK SMILES IDX 33 85 18 86 20 87 21 88 22 89 26 90 23 91 25 92 24 93 27 94
REMARK SMILES IDX 31 95 28 96 29 97 30 98
REMARK H PARENT 90 25 58 36
REMARK Flexibility Score: inf
ROOT
ATOM      1  C   UNL A   1      41.906  21.458  26.945  1.00  0.00     0.188 C 
ENDROOT
BRANCH   1   2
ATOM      2  O   UNL A   1      42.472  21.308  25.638  1.00  0.00    -0.376 OA
BRANCH   2   3
ATOM      3  C   UNL A   1      42.726  22.560  24.992  1.00  0.00     0.202 C 
BRANCH   3   4
ATOM      4  C   UNL A   1      44.190  22.801  24.601  1.00  0.00     0.261 C 
BRANCH   4   5
ATOM      5  O   UNL A   1      44.478  24.164  24.254  1.00  0.00    -0.460 OA
BRANCH   5   6
ATOM      6  C   UNL A   1      44.996  25.154  25.020  1.00  0.00     0.338 C 
ATOM      7  O   UNL A   1      46.201  25.383  24.899  1.00  0.00    -0.246 OA
BRANCH   6   8
ATOM      8  C   UNL A   1      44.233  25.975  26.025  1.00  0.00     0.060 A 
ATOM      9  C   UNL A   1      43.253  25.294  26.776  1.00  0.00     0.016 A 
ATOM     10  C   UNL A   1      44.394  27.337  26.283  1.00  0.00     0.016 A 
ATOM     11  C   UNL A   1      42.487  25.947  27.750  1.00  0.00     0.010 A 
ATOM     12  C   UNL A   1      43.655  27.990  27.272  1.00  0.00     0.010 A 
ATOM     13  C   UNL A   1      42.698  27.305  28.016  1.00  0.00    -0.014 A 
BRANCH  13  14
ATOM     14  C   UNL A   1      42.098  27.971  29.190  1.00  0.00     0.031 A 
ATOM     15  C   UNL A   1      42.634  27.798  30.581  1.00  0.00     0.074 A 
ATOM     16  C   UNL A   1      40.926  28.605  29.004  1.00  0.00     0.049 A 
ATOM     17  N   UNL A   1      42.338  28.481  31.655  1.00  0.00    -0.248 NA
ATOM     18  C   UNL A   1      43.608  26.723  30.810  1.00  0.00     0.031 C 
ATOM     19  C   UNL A   1      40.194  28.666  27.735  1.00  0.00     0.029 A 
ATOM     20  N   UNL A   1      40.109  29.249  29.892  1.00  0.00    -0.354 N 
ATOM     21  C   UNL A   1      43.155  27.982  32.663  1.00  0.00     0.074 A 
ATOM     22  C   UNL A   1      43.875  26.867  32.105  1.00  0.00     0.031 C 
ATOM     23  C   UNL A   1      39.011  29.262  27.941  1.00  0.00     0.029 A 
ATOM     24  C   UNL A   1      38.917  29.649  29.344  1.00  0.00     0.049 A 
ATOM     25  H   UNL A   1      40.353  29.410  30.833  1.00  0.00     0.167 HD
ATOM     26  C   UNL A   1      43.313  28.472  33.913  1.00  0.00     0.034 A 
ATOM     27  C   UNL A   1      37.862  30.261  29.912  1.00  0.00     0.034 A 
ATOM     28  C   UNL A   1      42.448  29.470  34.478  1.00  0.00     0.049 A 
ATOM     29  C   UNL A   1      37.967  30.693  31.343  1.00  0.00     0.074 A 
ATOM     30  C   UNL A   1      42.538  30.089  35.712  1.00  0.00     0.029 A 
ATOM     31  N   UNL A   1      41.279  29.910  33.884  1.00  0.00    -0.354 N 
ATOM     32  N   UNL A   1      38.969  30.531  32.173  1.00  0.00    -0.248 NA
ATOM     33  C   UNL A   1      36.829  31.433  31.904  1.00  0.00     0.031 C 
ATOM     34  C   UNL A   1      41.390  30.867  35.883  1.00  0.00     0.029 A 
ATOM     35  C   UNL A   1      40.599  30.741  34.751  1.00  0.00     0.049 A 
ATOM     36  H   UNL A   1      40.976  29.666  32.980  1.00  0.00     0.167 HD
ATOM     37  C   UNL A   1      38.600  31.178  33.344  1.00  0.00     0.074 A 
ATOM     38  C   UNL A   1      37.281  31.732  33.118  1.00  0.00     0.031 C 
ATOM     39  C   UNL A   1      39.299  31.303  34.498  1.00  0.00     0.034 A 
BRANCH  26  40
ATOM     40  C   UNL A   1      44.503  28.057  34.733  1.00  0.00     0.023 A 
ATOM     41  C   UNL A   1      45.687  28.811  34.572  1.00  0.00     0.012 A 
ATOM     42  C   UNL A   1      44.440  27.087  35.745  1.00  0.00     0.148 A 
ATOM     43  C   UNL A   1      46.800  28.585  35.378  1.00  0.00     0.002 A 
ATOM     44  C   UNL A   1      45.545  26.889  36.571  1.00  0.00     0.091 A 
ATOM     45  F   UNL A   1      43.307  26.386  35.888  1.00  0.00    -0.205 F 
ATOM     46  C   UNL A   1      46.728  27.626  36.380  1.00  0.00     0.022 A 
BRANCH  44  47
ATOM     47  S   UNL A   1      45.510  25.772  37.979  1.00  0.00     0.127 S 
ATOM     48  O   UNL A   1      44.664  26.504  38.920  1.00  0.00    -0.237 OA
ATOM     49  O   UNL A   1      44.894  24.572  37.411  1.00  0.00    -0.237 OA
ATOM     50  O   UNL A   1      46.900  25.605  38.382  1.00  0.00    -0.744 OA
ENDBRANCH  44  47
ENDBRANCH  26  40
BRANCH  27  51
ATOM     51  C   UNL A   1      36.683  30.570  29.066  1.00  0.00     0.023 A 
ATOM     52  C   UNL A   1      35.927  29.512  28.531  1.00  0.00     0.012 A 
ATOM     53  C   UNL A   1      36.230  31.895  28.915  1.00  0.00     0.148 A 
ATOM     54  C   UNL A   1      34.731  29.768  27.861  1.00  0.00     0.002 A 
ATOM     55  C   UNL A   1      35.020  32.141  28.277  1.00  0.00     0.091 A 
ATOM     56  F   UNL A   1      36.971  32.881  29.438  1.00  0.00    -0.205 F 
ATOM     57  C   UNL A   1      34.272  31.078  27.744  1.00  0.00     0.022 A 
BRANCH  55  58
ATOM     58  S   UNL A   1      34.291  33.780  28.184  1.00  0.00     0.127 S 
ATOM     59  O   UNL A   1      32.937  33.477  27.726  1.00  0.00    -0.237 OA
ATOM     60  O   UNL A   1      34.385  34.231  29.573  1.00  0.00    -0.237 OA
ATOM     61  O   UNL A   1      35.120  34.530  27.250  1.00  0.00    -0.744 OA
ENDBRANCH  55  58
ENDBRANCH  27  51
BRANCH  39  62
ATOM     62  C   UNL A   1      38.667  32.057  35.628  1.00  0.00     0.023 A 
ATOM     63  C   UNL A   1      38.417  33.434  35.483  1.00  0.00     0.012 A 
ATOM     64  C   UNL A   1      38.178  31.370  36.755  1.00  0.00     0.148 A 
ATOM     65  C   UNL A   1      37.685  34.120  36.449  1.00  0.00     0.002 A 
ATOM     66  C   UNL A   1      37.413  32.050  37.691  1.00  0.00     0.091 A 
ATOM     67  F   UNL A   1      38.443  30.060  36.868  1.00  0.00    -0.205 F 
ATOM     68  C   UNL A   1      37.169  33.426  37.542  1.00  0.00     0.022 A 
BRANCH  66  69
ATOM     69  S   UNL A   1      36.623  31.214  39.069  1.00  0.00     0.127 S 
ATOM     70  O   UNL A   1      35.478  32.085  39.329  1.00  0.00    -0.237 OA
ATOM     71  O   UNL A   1      36.282  29.914  38.489  1.00  0.00    -0.237 OA
ATOM     72  O   UNL A   1      37.619  31.158  40.130  1.00  0.00    -0.744 OA
ENDBRANCH  66  69
ENDBRANCH  39  62
ENDBRANCH  13  14
ENDBRANCH   6   8
ENDBRANCH   5   6
ENDBRANCH   4   5
ENDBRANCH   3   4
ENDBRANCH   2   3
ENDBRANCH   1   2
BRANCH   1  73
ATOM     73  C   UNL A   1      40.431  21.050  27.001  1.00  0.00     0.188 C 
BRANCH  73  74
ATOM     74  O   UNL A   1      39.524  21.840  26.238  1.00  0.00    -0.376 OA
BRANCH  74  75
ATOM     75  C   UNL A   1      38.612  21.158  25.377  1.00  0.00     0.202 C 
BRANCH  75  76
ATOM     76  C   UNL A   1      37.382  21.926  24.879  1.00  0.00     0.261 C 
BRANCH  76  77
ATOM     77  O   UNL A   1      36.305  21.989  25.826  1.00  0.00    -0.459 OA
BRANCH  77  78
ATOM     78  C   UNL A   1      35.169  21.365  25.433  1.00  0.00     0.343 C 
ATOM     79  O   UNL A   1      35.078  20.213  25.008  1.00  0.00    -0.246 OA
BRANCH  78  80
ATOM     80  C   UNL A   1      33.999  22.219  25.640  1.00  0.00     0.125 A 
ATOM     81  C   UNL A   1      33.506  22.434  26.872  1.00  0.00     0.023 A 
ATOM     82  C   UNL A   1      33.264  22.703  24.450  1.00  0.00     0.265 A 
ATOM     83  C   UNL A   1      32.242  23.107  27.047  1.00  0.00     0.019 A 
ATOM     84  N   UNL A   1      31.999  23.240  24.696  1.00  0.00    -0.310 N 
ATOM     85  O   UNL A   1      33.781  22.623  23.341  1.00  0.00    -0.268 OA
ATOM     86  C   UNL A   1      31.518  23.452  25.976  1.00  0.00     0.089 A 
BRANCH  84  87
ATOM     87  C   UNL A   1      31.192  23.628  23.550  1.00  0.00     0.161 C 
BRANCH  87  88
ATOM     88  C   UNL A   1      31.167  25.122  23.331  1.00  0.00    -0.024 A 
ATOM     89  C   UNL A   1      32.272  25.777  22.746  1.00  0.00     0.010 A 
ATOM     90  C   UNL A   1      30.007  25.850  23.649  1.00  0.00     0.056 A 
ATOM     91  C   UNL A   1      32.217  27.142  22.449  1.00  0.00     0.051 A 
ATOM     92  C   UNL A   1      29.978  27.187  23.334  1.00  0.00     0.173 A 
ATOM     93  C   UNL A   1      31.050  27.814  22.742  1.00  0.00     0.172 A 
ATOM     94  O   UNL A   1      28.921  28.020  23.523  1.00  0.00    -0.395 OA
ATOM     95  O   UNL A   1      30.796  29.124  22.473  1.00  0.00    -0.395 OA
ATOM     96  C   UNL A   1      29.405  29.171  22.826  1.00  0.00     0.586 C 
ATOM     97  F   UNL A   1      28.679  29.332  21.691  1.00  0.00    -0.125 F 
ATOM     98  F   UNL A   1      29.196  30.267  23.598  1.00  0.00    -0.125 F 
ENDBRANCH  87  88
ENDBRANCH  84  87
ENDBRANCH  78  80
ENDBRANCH  77  78
ENDBRANCH  76  77
ENDBRANCH  75  76
ENDBRANCH  74  75
ENDBRANCH  73  74
ENDBRANCH   1  73
TORSDOF 22
ENDMDL
