MODEL 1
REMARK VINA RESULT:      -8.8      0.000      0.000
REMARK SMILES Cc1ccc([S@TB4](=O)(=O)n2cc(C(=O)C(=O)NCC(=O)N[C@@H](Cc3c[nH]c4ccccc34)C(=O)OCCOCCOCCOC(=O)c3ccc(-c4c5nc(c(-c6cccc(S(=O)(=O)[O-])c6F)c6ccc([nH]6)c(-c6cccc(S(=O)(=O)[O-])c6F)c6nc(c(-c7cccc(S(=O)(=O)[O-])c7F)c7ccc4[nH]7)C=C6)C=C5)cc3)c3ccccc32)cc1
REMARK SMILES IDX 36 1 35 2 34 3 32 4 33 5 21 6 20 7 18 8 19 9 17 11 16 12
REMARK SMILES IDX 14 13 15 14 12 16 13 17 11 18 9 19 10 20 114 21 109 22
REMARK SMILES IDX 113 23 110 24 112 25 111 26 6 27 7 28 8 29 5 30 1 31 2 32
REMARK SMILES IDX 3 33 116 34 4 35 115 36 22 37 23 38 24 39 31 40 25 41 26 42
REMARK SMILES IDX 30 43 27 45 29 46 28 47 37 48 38 49 39 50 40 51 41 52 42 53
REMARK SMILES IDX 43 54 44 55 45 56 46 57 47 58 108 59 48 60 107 61 49 62
REMARK SMILES IDX 50 63 51 64 101 65 52 66 106 67 100 68 102 69 53 70 105 71
REMARK SMILES IDX 99 72 98 73 54 75 86 76 66 77 85 78 67 79 70 80 84 81 103 82
REMARK SMILES IDX 68 83 69 84 83 86 104 87 71 88 55 89 56 90 64 91 57 92 59 93
REMARK SMILES IDX 65 94 58 95 60 96 61 97 62 98 63 99 87 100 88 101 96 102
REMARK SMILES IDX 89 103 91 104 97 105 90 106 92 107 93 108 94 109 95 110
REMARK SMILES IDX 72 111 73 112 81 113 74 114 76 115 82 116 75 117 77 118
REMARK SMILES IDX 78 119 79 120 80 121
REMARK H PARENT 20 10 16 15 25 44 102 74 70 85
REMARK Flexibility Score: inf
ROOT
ATOM      1  C   UNL A   1      50.425  30.795  28.072  1.00  0.00     0.202 C 
ENDROOT
BRANCH   1   2
ATOM      2  C   UNL A   1      49.643  30.911  29.390  1.00  0.00     0.261 C 
BRANCH   2   3
ATOM      3  O   UNL A   1      48.659  29.665  30.383  1.00  0.00    -0.462 OA
BRANCH   3   4
ATOM      4  C   UNL A   1      47.108  29.492  31.059  1.00  0.00     0.329 C 
ATOM      5  O   UNL A   1      46.398  30.494  31.231  1.00  0.00    -0.250 OA
BRANCH   4   6
ATOM      6  C   UNL A   1      46.347  28.070  31.889  1.00  0.00     0.196 C 
BRANCH   6   7
ATOM      7  N   UNL A   1      44.921  27.586  32.232  1.00  0.00    -0.341 N 
ATOM      8  C   UNL A   1      44.329  26.888  33.252  1.00  0.00     0.240 C 
ATOM      9  O   UNL A   1      43.096  26.752  33.200  1.00  0.00    -0.273 OA
ATOM     10  H   UNL A   1      44.270  27.846  31.540  1.00  0.00     0.164 HD
BRANCH   8  11
ATOM     11  C   UNL A   1      45.108  26.277  34.426  1.00  0.00     0.216 C 
BRANCH  11  12
ATOM     12  N   UNL A   1      44.491  24.999  34.745  1.00  0.00    -0.340 N 
ATOM     13  C   UNL A   1      44.636  24.177  35.849  1.00  0.00     0.292 C 
ATOM     14  O   UNL A   1      44.317  22.994  35.718  1.00  0.00    -0.265 OA
ATOM     15  H   UNL A   1      43.868  24.663  34.062  1.00  0.00     0.164 HD
BRANCH  13  16
ATOM     16  C   UNL A   1      45.019  24.709  37.256  1.00  0.00     0.252 C 
ATOM     17  O   UNL A   1      44.084  25.103  37.955  1.00  0.00    -0.283 OA
BRANCH  16  18
ATOM     18  C   UNL A   1      46.407  24.583  37.795  1.00  0.00     0.055 A 
ATOM     19  N   UNL A   1      48.381  25.086  38.714  1.00  0.00    -0.218 N 
ATOM     20  C   UNL A   1      47.319  25.627  38.036  1.00  0.00     0.126 A 
ATOM     21  C   UNL A   1      48.124  23.751  39.024  1.00  0.00     0.072 A 
ATOM     22  C   UNL A   1      47.099  23.359  38.188  1.00  0.00     0.013 A 
ATOM     23  C   UNL A   1      48.902  22.842  39.820  1.00  0.00     0.029 A 
ATOM     24  C   UNL A   1      46.948  21.956  38.087  1.00  0.00     0.011 A 
ATOM     25  C   UNL A   1      48.694  21.491  39.741  1.00  0.00     0.002 A 
ATOM     26  C   UNL A   1      47.717  21.051  38.874  1.00  0.00     0.001 A 
BRANCH  19  27
ATOM     27  S   UNL A   1      50.024  25.190  38.553  1.00  0.00     0.083 S 
ATOM     28  O   UNL A   1      50.316  25.999  39.741  1.00  0.00    -0.149 OA
ATOM     29  O   UNL A   1      49.963  25.708  37.184  1.00  0.00    -0.149 OA
BRANCH  27  30
ATOM     30  C   UNL A   1      51.610  24.646  38.334  1.00  0.00     0.111 A 
ATOM     31  C   UNL A   1      55.842  24.404  38.265  1.00  0.00     0.044 C 
ATOM     32  C   UNL A   1      54.355  24.465  38.285  1.00  0.00    -0.051 A 
ATOM     33  C   UNL A   1      53.817  25.702  38.570  1.00  0.00     0.005 A 
ATOM     34  C   UNL A   1      53.521  23.337  38.037  1.00  0.00     0.005 A 
ATOM     35  C   UNL A   1      52.465  25.773  38.608  1.00  0.00     0.030 A 
ATOM     36  C   UNL A   1      52.122  23.415  38.060  1.00  0.00     0.030 A 
ENDBRANCH  27  30
ENDBRANCH  19  27
ENDBRANCH  16  18
ENDBRANCH  13  16
ENDBRANCH  11  12
ENDBRANCH   8  11
ENDBRANCH   6   7
BRANCH   6  37
ATOM     37  C   UNL A   1      47.240  26.677  31.689  1.00  0.00     0.074 C 
BRANCH  37  38
ATOM     38  C   UNL A   1      47.430  25.758  30.205  1.00  0.00    -0.020 A 
ATOM     39  C   UNL A   1      48.871  25.418  28.746  1.00  0.00     0.087 A 
ATOM     40  C   UNL A   1      45.883  24.993  29.498  1.00  0.00     0.003 A 
ATOM     41  N   UNL A   1      47.935  24.557  27.443  1.00  0.00    -0.361 N 
ATOM     42  C   UNL A   1      46.217  24.430  27.951  1.00  0.00     0.046 A 
ATOM     43  C   UNL A   1      44.584  25.131  29.963  1.00  0.00     0.010 A 
ATOM     44  H   UNL A   1      48.309  24.217  26.598  1.00  0.00     0.166 HD
ATOM     45  C   UNL A   1      45.126  24.536  27.106  1.00  0.00     0.026 A 
ATOM     46  C   UNL A   1      43.600  24.761  29.068  1.00  0.00     0.001 A 
ATOM     47  C   UNL A   1      43.862  24.532  27.701  1.00  0.00     0.002 A 
ENDBRANCH  37  38
ENDBRANCH   6  37
ENDBRANCH   4   6
ENDBRANCH   3   4
ENDBRANCH   2   3
ENDBRANCH   1   2
BRANCH   1  48
ATOM     48  O   UNL A   1      50.429  29.578  27.379  1.00  0.00    -0.376 OA
BRANCH  48  49
ATOM     49  C   UNL A   1      51.598  28.871  27.696  1.00  0.00     0.188 C 
BRANCH  49  50
ATOM     50  C   UNL A   1      52.107  27.926  26.640  1.00  0.00     0.188 C 
BRANCH  50  51
ATOM     51  O   UNL A   1      51.474  27.921  25.382  1.00  0.00    -0.376 OA
BRANCH  51  52
ATOM     52  C   UNL A   1      51.338  26.870  24.495  1.00  0.00     0.202 C 
BRANCH  52  53
ATOM     53  C   UNL A   1      49.898  26.832  24.184  1.00  0.00     0.261 C 
BRANCH  53  54
ATOM     54  O   UNL A   1      49.170  28.086  24.506  1.00  0.00    -0.460 OA
BRANCH  54  55
ATOM     55  C   UNL A   1      47.861  28.401  24.791  1.00  0.00     0.338 C 
ATOM     56  O   UNL A   1      47.016  28.197  23.917  1.00  0.00    -0.246 OA
BRANCH  55  57
ATOM     57  C   UNL A   1      47.396  28.999  26.107  1.00  0.00     0.060 A 
ATOM     58  C   UNL A   1      47.379  28.124  27.154  1.00  0.00     0.016 A 
ATOM     59  C   UNL A   1      46.662  30.172  26.293  1.00  0.00     0.016 A 
ATOM     60  C   UNL A   1      46.229  28.142  27.960  1.00  0.00     0.010 A 
ATOM     61  C   UNL A   1      45.515  30.199  27.164  1.00  0.00     0.010 A 
ATOM     62  C   UNL A   1      45.138  29.086  27.957  1.00  0.00    -0.014 A 
BRANCH  62  63
ATOM     63  C   UNL A   1      43.473  28.995  28.730  1.00  0.00     0.031 A 
ATOM     64  C   UNL A   1      42.723  28.593  27.638  1.00  0.00     0.074 A 
ATOM     65  C   UNL A   1      42.609  29.549  29.854  1.00  0.00     0.049 A 
ATOM     66  N   UNL A   1      41.262  28.270  27.662  1.00  0.00    -0.248 NA
ATOM     67  C   UNL A   1      43.832  27.883  26.161  1.00  0.00     0.031 C 
ATOM     68  C   UNL A   1      41.588  28.991  30.786  1.00  0.00     0.029 A 
ATOM     69  N   UNL A   1      42.964  30.617  30.760  1.00  0.00    -0.354 N 
ATOM     70  C   UNL A   1      40.890  27.013  26.353  1.00  0.00     0.074 A 
ATOM     71  C   UNL A   1      42.876  26.931  25.415  1.00  0.00     0.031 C 
ATOM     72  C   UNL A   1      41.246  29.871  31.785  1.00  0.00     0.029 A 
ATOM     73  C   UNL A   1      42.064  31.061  31.671  1.00  0.00     0.049 A 
ATOM     74  H   UNL A   1      43.860  31.022  30.716  1.00  0.00     0.167 HD
ATOM     75  C   UNL A   1      39.801  26.157  26.894  1.00  0.00     0.034 A 
ATOM     76  C   UNL A   1      41.799  32.398  31.673  1.00  0.00     0.034 A 
ATOM     77  C   UNL A   1      39.281  26.863  28.119  1.00  0.00     0.049 A 
ATOM     78  C   UNL A   1      40.469  32.359  30.860  1.00  0.00     0.074 A 
ATOM     79  C   UNL A   1      39.447  26.683  29.489  1.00  0.00     0.029 A 
ATOM     80  N   UNL A   1      38.845  28.185  27.987  1.00  0.00    -0.354 N 
ATOM     81  N   UNL A   1      40.185  31.438  29.956  1.00  0.00    -0.248 NA
ATOM     82  C   UNL A   1      39.256  33.054  31.290  1.00  0.00     0.031 C 
ATOM     83  C   UNL A   1      38.987  27.874  30.156  1.00  0.00     0.029 A 
ATOM     84  C   UNL A   1      38.739  28.857  29.202  1.00  0.00     0.049 A 
ATOM     85  H   UNL A   1      38.633  28.599  27.119  1.00  0.00     0.167 HD
ATOM     86  C   UNL A   1      38.834  31.272  29.834  1.00  0.00     0.074 A 
ATOM     87  C   UNL A   1      38.301  32.377  30.627  1.00  0.00     0.031 C 
ATOM     88  C   UNL A   1      38.177  30.215  29.235  1.00  0.00     0.034 A 
BRANCH  75  89
ATOM     89  C   UNL A   1      39.442  24.555  26.762  1.00  0.00     0.023 A 
ATOM     90  C   UNL A   1      40.334  23.549  27.199  1.00  0.00     0.012 A 
ATOM     91  C   UNL A   1      38.277  23.974  26.191  1.00  0.00     0.148 A 
ATOM     92  C   UNL A   1      40.089  22.155  26.997  1.00  0.00     0.002 A 
ATOM     93  C   UNL A   1      38.137  22.648  25.767  1.00  0.00     0.091 A 
ATOM     94  F   UNL A   1      37.122  24.610  26.276  1.00  0.00    -0.205 F 
ATOM     95  C   UNL A   1      39.023  21.702  26.222  1.00  0.00     0.022 A 
BRANCH  93  96
ATOM     96  S   UNL A   1      36.808  22.198  24.618  1.00  0.00     0.127 S 
ATOM     97  O   UNL A   1      37.201  20.863  24.165  1.00  0.00    -0.237 OA
ATOM     98  O   UNL A   1      35.617  22.235  25.459  1.00  0.00    -0.237 OA
ATOM     99  O   UNL A   1      36.880  23.192  23.551  1.00  0.00    -0.744 OA
ENDBRANCH  93  96
ENDBRANCH  75  89
BRANCH  76 100
ATOM    100  C   UNL A   1      43.139  33.208  31.514  1.00  0.00     0.023 A 
ATOM    101  C   UNL A   1      44.226  33.018  32.412  1.00  0.00     0.012 A 
ATOM    102  C   UNL A   1      43.513  33.873  30.322  1.00  0.00     0.148 A 
ATOM    103  C   UNL A   1      45.556  33.451  32.115  1.00  0.00     0.002 A 
ATOM    104  C   UNL A   1      44.841  34.223  29.979  1.00  0.00     0.091 A 
ATOM    105  F   UNL A   1      42.522  34.223  29.517  1.00  0.00    -0.205 F 
ATOM    106  C   UNL A   1      45.866  34.038  30.890  1.00  0.00     0.022 A 
BRANCH 104 107
ATOM    107  S   UNL A   1      45.345  34.703  28.315  1.00  0.00     0.127 S 
ATOM    108  O   UNL A   1      44.828  33.688  27.415  1.00  0.00    -0.237 OA
ATOM    109  O   UNL A   1      44.646  35.961  28.128  1.00  0.00    -0.237 OA
ATOM    110  O   UNL A   1      46.795  34.821  28.395  1.00  0.00    -0.744 OA
ENDBRANCH 104 107
ENDBRANCH  76 100
BRANCH  88 111
ATOM    111  C   UNL A   1      36.793  30.382  28.630  1.00  0.00     0.023 A 
ATOM    112  C   UNL A   1      35.990  29.268  28.343  1.00  0.00     0.012 A 
ATOM    113  C   UNL A   1      36.186  31.659  28.470  1.00  0.00     0.148 A 
ATOM    114  C   UNL A   1      34.731  29.405  27.766  1.00  0.00     0.002 A 
ATOM    115  C   UNL A   1      34.868  31.782  28.078  1.00  0.00     0.091 A 
ATOM    116  F   UNL A   1      36.878  32.787  28.648  1.00  0.00    -0.205 F 
ATOM    117  C   UNL A   1      34.159  30.662  27.654  1.00  0.00     0.022 A 
BRANCH 115 118
ATOM    118  S   UNL A   1      33.992  33.346  28.170  1.00  0.00     0.127 S 
ATOM    119  O   UNL A   1      33.978  33.583  29.611  1.00  0.00    -0.237 OA
ATOM    120  O   UNL A   1      34.880  34.226  27.410  1.00  0.00    -0.237 OA
ATOM    121  O   UNL A   1      32.690  33.129  27.555  1.00  0.00    -0.744 OA
ENDBRANCH 115 118
ENDBRANCH  88 111
ENDBRANCH  62  63
ENDBRANCH  55  57
ENDBRANCH  54  55
ENDBRANCH  53  54
ENDBRANCH  52  53
ENDBRANCH  51  52
ENDBRANCH  50  51
ENDBRANCH  49  50
ENDBRANCH  48  49
ENDBRANCH   1  48
TORSDOF 29
ENDMDL
MODEL 2
REMARK VINA RESULT:      -8.2      4.549     12.597
REMARK SMILES Cc1ccc([S@TB4](=O)(=O)n2cc(C(=O)C(=O)NCC(=O)N[C@@H](Cc3c[nH]c4ccccc34)C(=O)OCCOCCOCCOC(=O)c3ccc(-c4c5nc(c(-c6cccc(S(=O)(=O)[O-])c6F)c6ccc([nH]6)c(-c6cccc(S(=O)(=O)[O-])c6F)c6nc(c(-c7cccc(S(=O)(=O)[O-])c7F)c7ccc4[nH]7)C=C6)C=C5)cc3)c3ccccc32)cc1
REMARK SMILES IDX 36 1 35 2 34 3 32 4 33 5 21 6 20 7 18 8 19 9 17 11 16 12
REMARK SMILES IDX 14 13 15 14 12 16 13 17 11 18 9 19 10 20 114 21 109 22
REMARK SMILES IDX 113 23 110 24 112 25 111 26 6 27 7 28 8 29 5 30 1 31 2 32
REMARK SMILES IDX 3 33 116 34 4 35 115 36 22 37 23 38 24 39 31 40 25 41 26 42
REMARK SMILES IDX 30 43 27 45 29 46 28 47 37 48 38 49 39 50 40 51 41 52 42 53
REMARK SMILES IDX 43 54 44 55 45 56 46 57 47 58 108 59 48 60 107 61 49 62
REMARK SMILES IDX 50 63 51 64 101 65 52 66 106 67 100 68 102 69 53 70 105 71
REMARK SMILES IDX 99 72 98 73 54 75 86 76 66 77 85 78 67 79 70 80 84 81 103 82
REMARK SMILES IDX 68 83 69 84 83 86 104 87 71 88 55 89 56 90 64 91 57 92 59 93
REMARK SMILES IDX 65 94 58 95 60 96 61 97 62 98 63 99 87 100 88 101 96 102
REMARK SMILES IDX 89 103 91 104 97 105 90 106 92 107 93 108 94 109 95 110
REMARK SMILES IDX 72 111 73 112 81 113 74 114 76 115 82 116 75 117 77 118
REMARK SMILES IDX 78 119 79 120 80 121
REMARK H PARENT 20 10 16 15 25 44 102 74 70 85
REMARK Flexibility Score: inf
ROOT
ATOM      1  C   UNL A   1      42.274  28.099  33.944  1.00  0.00     0.202 C 
ENDROOT
BRANCH   1   2
ATOM      2  C   UNL A   1      40.813  28.055  33.466  1.00  0.00     0.261 C 
BRANCH   2   3
ATOM      3  O   UNL A   1      39.332  29.134  33.848  1.00  0.00    -0.462 OA
BRANCH   3   4
ATOM      4  C   UNL A   1      38.890  30.387  34.911  1.00  0.00     0.329 C 
ATOM      5  O   UNL A   1      39.080  30.254  36.129  1.00  0.00    -0.250 OA
BRANCH   4   6
ATOM      6  C   UNL A   1      37.874  31.861  34.622  1.00  0.00     0.196 C 
BRANCH   6   7
ATOM      7  N   UNL A   1      38.042  33.394  34.724  1.00  0.00    -0.341 N 
ATOM      8  C   UNL A   1      39.070  34.262  34.984  1.00  0.00     0.240 C 
ATOM      9  O   UNL A   1      38.815  35.475  34.907  1.00  0.00    -0.273 OA
ATOM     10  H   UNL A   1      37.195  33.867  34.561  1.00  0.00     0.164 HD
BRANCH   8  11
ATOM     11  C   UNL A   1      40.489  33.811  35.364  1.00  0.00     0.216 C 
BRANCH  11  12
ATOM     12  N   UNL A   1      41.308  33.880  34.164  1.00  0.00    -0.340 N 
ATOM     13  C   UNL A   1      42.438  34.628  33.885  1.00  0.00     0.292 C 
ATOM     14  O   UNL A   1      42.720  34.805  32.699  1.00  0.00    -0.265 OA
ATOM     15  H   UNL A   1      41.007  33.300  33.428  1.00  0.00     0.164 HD
BRANCH  13  16
ATOM     16  C   UNL A   1      43.431  35.102  34.981  1.00  0.00     0.252 C 
ATOM     17  O   UNL A   1      43.516  34.383  35.977  1.00  0.00    -0.283 OA
BRANCH  16  18
ATOM     18  C   UNL A   1      44.355  36.255  34.760  1.00  0.00     0.055 A 
ATOM     19  N   UNL A   1      45.453  38.180  35.049  1.00  0.00    -0.218 N 
ATOM     20  C   UNL A   1      44.309  37.510  35.397  1.00  0.00     0.126 A 
ATOM     21  C   UNL A   1      46.291  37.350  34.306  1.00  0.00     0.072 A 
ATOM     22  C   UNL A   1      45.494  36.319  33.850  1.00  0.00     0.013 A 
ATOM     23  C   UNL A   1      47.627  37.598  33.839  1.00  0.00     0.029 A 
ATOM     24  C   UNL A   1      46.064  35.584  32.784  1.00  0.00     0.011 A 
ATOM     25  C   UNL A   1      48.172  36.831  32.842  1.00  0.00     0.002 A 
ATOM     26  C   UNL A   1      47.389  35.826  32.317  1.00  0.00     0.001 A 
BRANCH  19  27
ATOM     27  S   UNL A   1      45.772  39.714  34.516  1.00  0.00     0.083 S 
ATOM     28  O   UNL A   1      45.787  40.403  35.810  1.00  0.00    -0.149 OA
ATOM     29  O   UNL A   1      44.652  39.732  33.573  1.00  0.00    -0.149 OA
BRANCH  27  30
ATOM     30  C   UNL A   1      46.575  40.938  33.671  1.00  0.00     0.111 A 
ATOM     31  C   UNL A   1      49.491  43.726  32.367  1.00  0.00     0.044 C 
ATOM     32  C   UNL A   1      48.455  42.752  32.805  1.00  0.00    -0.051 A 
ATOM     33  C   UNL A   1      48.718  42.101  33.991  1.00  0.00     0.005 A 
ATOM     34  C   UNL A   1      47.267  42.485  32.064  1.00  0.00     0.005 A 
ATOM     35  C   UNL A   1      47.793  41.198  34.397  1.00  0.00     0.030 A 
ATOM     36  C   UNL A   1      46.302  41.564  32.493  1.00  0.00     0.030 A 
ENDBRANCH  27  30
ENDBRANCH  19  27
ENDBRANCH  16  18
ENDBRANCH  13  16
ENDBRANCH  11  12
ENDBRANCH   8  11
ENDBRANCH   6   7
BRANCH   6  37
ATOM     37  C   UNL A   1      36.769  31.629  33.395  1.00  0.00     0.074 C 
BRANCH  37  38
ATOM     38  C   UNL A   1      35.668  32.827  32.736  1.00  0.00    -0.020 A 
ATOM     39  C   UNL A   1      33.863  33.733  33.223  1.00  0.00     0.087 A 
ATOM     40  C   UNL A   1      35.981  33.361  30.976  1.00  0.00     0.003 A 
ATOM     41  N   UNL A   1      33.415  34.601  31.686  1.00  0.00    -0.361 N 
ATOM     42  C   UNL A   1      34.666  34.261  30.443  1.00  0.00     0.046 A 
ATOM     43  C   UNL A   1      36.932  32.864  30.098  1.00  0.00     0.010 A 
ATOM     44  H   UNL A   1      32.618  35.164  31.557  1.00  0.00     0.166 HD
ATOM     45  C   UNL A   1      34.420  34.082  29.092  1.00  0.00     0.026 A 
ATOM     46  C   UNL A   1      36.722  33.175  28.770  1.00  0.00     0.001 A 
ATOM     47  C   UNL A   1      35.504  33.705  28.296  1.00  0.00     0.002 A 
ENDBRANCH  37  38
ENDBRANCH   6  37
ENDBRANCH   4   6
ENDBRANCH   3   4
ENDBRANCH   2   3
ENDBRANCH   1   2
BRANCH   1  48
ATOM     48  O   UNL A   1      42.725  27.145  34.865  1.00  0.00    -0.376 OA
BRANCH  48  49
ATOM     49  C   UNL A   1      41.817  27.070  35.933  1.00  0.00     0.188 C 
BRANCH  49  50
ATOM     50  C   UNL A   1      42.059  25.972  36.932  1.00  0.00     0.188 C 
BRANCH  50  51
ATOM     51  O   UNL A   1      43.058  26.159  37.907  1.00  0.00    -0.376 OA
BRANCH  51  52
ATOM     52  C   UNL A   1      44.252  26.844  37.792  1.00  0.00     0.202 C 
BRANCH  52  53
ATOM     53  C   UNL A   1      45.290  25.818  37.996  1.00  0.00     0.261 C 
BRANCH  53  54
ATOM     54  O   UNL A   1      45.025  24.534  37.297  1.00  0.00    -0.460 OA
BRANCH  54  55
ATOM     55  C   UNL A   1      45.802  23.615  36.631  1.00  0.00     0.338 C 
ATOM     56  O   UNL A   1      46.326  22.716  37.293  1.00  0.00    -0.246 OA
BRANCH  55  57
ATOM     57  C   UNL A   1      46.069  23.649  35.136  1.00  0.00     0.060 A 
ATOM     58  C   UNL A   1      47.327  24.047  34.792  1.00  0.00     0.016 A 
ATOM     59  C   UNL A   1      45.126  23.686  34.108  1.00  0.00     0.016 A 
ATOM     60  C   UNL A   1      47.420  24.990  33.756  1.00  0.00     0.010 A 
ATOM     61  C   UNL A   1      45.254  24.619  33.017  1.00  0.00     0.010 A 
ATOM     62  C   UNL A   1      46.385  25.460  32.868  1.00  0.00    -0.014 A 
BRANCH  62  63
ATOM     63  C   UNL A   1      46.347  26.904  31.731  1.00  0.00     0.031 A 
ATOM     64  C   UNL A   1      45.915  27.886  32.605  1.00  0.00     0.074 A 
ATOM     65  C   UNL A   1      46.191  27.316  30.274  1.00  0.00     0.049 A 
ATOM     66  N   UNL A   1      45.758  29.337  32.271  1.00  0.00    -0.248 NA
ATOM     67  C   UNL A   1      46.098  27.361  34.505  1.00  0.00     0.031 C 
ATOM     68  C   UNL A   1      46.804  28.346  29.387  1.00  0.00     0.029 A 
ATOM     69  N   UNL A   1      45.868  26.446  29.167  1.00  0.00    -0.354 N 
ATOM     70  C   UNL A   1      46.032  30.352  33.796  1.00  0.00     0.074 A 
ATOM     71  C   UNL A   1      46.225  28.708  35.243  1.00  0.00     0.031 C 
ATOM     72  C   UNL A   1      46.474  28.170  28.065  1.00  0.00     0.029 A 
ATOM     73  C   UNL A   1      45.687  26.962  27.927  1.00  0.00     0.049 A 
ATOM     74  H   UNL A   1      45.780  25.476  29.313  1.00  0.00     0.167 HD
ATOM     75  C   UNL A   1      46.676  31.615  33.347  1.00  0.00     0.034 A 
ATOM     76  C   UNL A   1      44.515  26.660  27.300  1.00  0.00     0.034 A 
ATOM     77  C   UNL A   1      46.547  31.641  31.845  1.00  0.00     0.049 A 
ATOM     78  C   UNL A   1      43.752  27.983  27.610  1.00  0.00     0.074 A 
ATOM     79  C   UNL A   1      47.419  31.387  30.790  1.00  0.00     0.029 A 
ATOM     80  N   UNL A   1      45.271  31.517  31.288  1.00  0.00    -0.354 N 
ATOM     81  N   UNL A   1      43.976  28.731  28.677  1.00  0.00    -0.248 NA
ATOM     82  C   UNL A   1      43.036  28.744  26.586  1.00  0.00     0.031 C 
ATOM     83  C   UNL A   1      46.636  31.234  29.591  1.00  0.00     0.029 A 
ATOM     84  C   UNL A   1      45.289  31.183  29.935  1.00  0.00     0.049 A 
ATOM     85  H   UNL A   1      44.442  31.653  31.802  1.00  0.00     0.167 HD
ATOM     86  C   UNL A   1      43.652  30.037  28.437  1.00  0.00     0.074 A 
ATOM     87  C   UNL A   1      42.981  29.969  27.141  1.00  0.00     0.031 C 
ATOM     88  C   UNL A   1      44.027  31.137  29.182  1.00  0.00     0.034 A 
BRANCH  75  89
ATOM     89  C   UNL A   1      47.815  32.606  34.003  1.00  0.00     0.023 A 
ATOM     90  C   UNL A   1      49.089  32.775  33.415  1.00  0.00     0.012 A 
ATOM     91  C   UNL A   1      47.715  33.364  35.202  1.00  0.00     0.148 A 
ATOM     92  C   UNL A   1      50.129  33.546  34.024  1.00  0.00     0.002 A 
ATOM     93  C   UNL A   1      48.781  33.910  35.927  1.00  0.00     0.091 A 
ATOM     94  F   UNL A   1      46.543  33.845  35.573  1.00  0.00    -0.205 F 
ATOM     95  C   UNL A   1      50.000  34.061  35.313  1.00  0.00     0.022 A 
BRANCH  93  96
ATOM     96  S   UNL A   1      48.548  34.393  37.658  1.00  0.00     0.127 S 
ATOM     97  O   UNL A   1      47.799  35.646  37.554  1.00  0.00    -0.237 OA
ATOM     98  O   UNL A   1      47.797  33.273  38.215  1.00  0.00    -0.237 OA
ATOM     99  O   UNL A   1      49.897  34.592  38.179  1.00  0.00    -0.744 OA
ENDBRANCH  93  96
ENDBRANCH  75  89
BRANCH  76 100
ATOM    100  C   UNL A   1      44.172  25.139  27.516  1.00  0.00     0.023 A 
ATOM    101  C   UNL A   1      43.038  24.740  28.276  1.00  0.00     0.012 A 
ATOM    102  C   UNL A   1      44.695  24.099  26.711  1.00  0.00     0.148 A 
ATOM    103  C   UNL A   1      42.490  23.421  28.210  1.00  0.00     0.002 A 
ATOM    104  C   UNL A   1      44.107  22.819  26.568  1.00  0.00     0.091 A 
ATOM    105  F   UNL A   1      45.842  24.356  26.103  1.00  0.00    -0.205 F 
ATOM    106  C   UNL A   1      43.016  22.465  27.342  1.00  0.00     0.022 A 
BRANCH 104 107
ATOM    107  S   UNL A   1      44.552  21.660  25.260  1.00  0.00     0.127 S 
ATOM    108  O   UNL A   1      44.631  22.429  24.031  1.00  0.00    -0.237 OA
ATOM    109  O   UNL A   1      45.871  21.214  25.673  1.00  0.00    -0.237 OA
ATOM    110  O   UNL A   1      43.520  20.634  25.318  1.00  0.00    -0.744 OA
ENDBRANCH 104 107
ENDBRANCH  76 100
BRANCH  88 111
ATOM    111  C   UNL A   1      43.182  32.399  29.213  1.00  0.00     0.023 A 
ATOM    112  C   UNL A   1      42.069  32.504  30.060  1.00  0.00     0.012 A 
ATOM    113  C   UNL A   1      43.558  33.580  28.513  1.00  0.00     0.148 A 
ATOM    114  C   UNL A   1      41.272  33.645  30.082  1.00  0.00     0.002 A 
ATOM    115  C   UNL A   1      42.873  34.766  28.687  1.00  0.00     0.091 A 
ATOM    116  F   UNL A   1      44.559  33.576  27.628  1.00  0.00    -0.205 F 
ATOM    117  C   UNL A   1      41.685  34.784  29.412  1.00  0.00     0.022 A 
BRANCH 115 118
ATOM    118  S   UNL A   1      43.505  36.327  28.069  1.00  0.00     0.127 S 
ATOM    119  O   UNL A   1      42.570  37.275  28.671  1.00  0.00    -0.237 OA
ATOM    120  O   UNL A   1      44.852  36.346  28.640  1.00  0.00    -0.237 OA
ATOM    121  O   UNL A   1      43.468  36.244  26.616  1.00  0.00    -0.744 OA
ENDBRANCH 115 118
ENDBRANCH  88 111
ENDBRANCH  62  63
ENDBRANCH  55  57
ENDBRANCH  54  55
ENDBRANCH  53  54
ENDBRANCH  52  53
ENDBRANCH  51  52
ENDBRANCH  50  51
ENDBRANCH  49  50
ENDBRANCH  48  49
ENDBRANCH   1  48
TORSDOF 29
ENDMDL
MODEL 3
REMARK VINA RESULT:      -8.1      4.732     12.196
REMARK SMILES Cc1ccc([S@TB4](=O)(=O)n2cc(C(=O)C(=O)NCC(=O)N[C@@H](Cc3c[nH]c4ccccc34)C(=O)OCCOCCOCCOC(=O)c3ccc(-c4c5nc(c(-c6cccc(S(=O)(=O)[O-])c6F)c6ccc([nH]6)c(-c6cccc(S(=O)(=O)[O-])c6F)c6nc(c(-c7cccc(S(=O)(=O)[O-])c7F)c7ccc4[nH]7)C=C6)C=C5)cc3)c3ccccc32)cc1
REMARK SMILES IDX 36 1 35 2 34 3 32 4 33 5 21 6 20 7 18 8 19 9 17 11 16 12
REMARK SMILES IDX 14 13 15 14 12 16 13 17 11 18 9 19 10 20 114 21 109 22
REMARK SMILES IDX 113 23 110 24 112 25 111 26 6 27 7 28 8 29 5 30 1 31 2 32
REMARK SMILES IDX 3 33 116 34 4 35 115 36 22 37 23 38 24 39 31 40 25 41 26 42
REMARK SMILES IDX 30 43 27 45 29 46 28 47 37 48 38 49 39 50 40 51 41 52 42 53
REMARK SMILES IDX 43 54 44 55 45 56 46 57 47 58 108 59 48 60 107 61 49 62
REMARK SMILES IDX 50 63 51 64 101 65 52 66 106 67 100 68 102 69 53 70 105 71
REMARK SMILES IDX 99 72 98 73 54 75 86 76 66 77 85 78 67 79 70 80 84 81 103 82
REMARK SMILES IDX 68 83 69 84 83 86 104 87 71 88 55 89 56 90 64 91 57 92 59 93
REMARK SMILES IDX 65 94 58 95 60 96 61 97 62 98 63 99 87 100 88 101 96 102
REMARK SMILES IDX 89 103 91 104 97 105 90 106 92 107 93 108 94 109 95 110
REMARK SMILES IDX 72 111 73 112 81 113 74 114 76 115 82 116 75 117 77 118
REMARK SMILES IDX 78 119 79 120 80 121
REMARK H PARENT 20 10 16 15 25 44 102 74 70 85
REMARK Flexibility Score: inf
ROOT
ATOM      1  C   UNL A   1      42.230  28.637  34.182  1.00  0.00     0.202 C 
ENDROOT
BRANCH   1   2
ATOM      2  C   UNL A   1      40.779  28.377  33.744  1.00  0.00     0.261 C 
BRANCH   2   3
ATOM      3  O   UNL A   1      39.405  29.525  33.200  1.00  0.00    -0.462 OA
BRANCH   3   4
ATOM      4  C   UNL A   1      37.761  29.454  32.769  1.00  0.00     0.329 C 
ATOM      5  O   UNL A   1      37.043  28.555  33.233  1.00  0.00    -0.250 OA
BRANCH   4   6
ATOM      6  C   UNL A   1      36.856  30.326  31.461  1.00  0.00     0.196 C 
BRANCH   6   7
ATOM      7  N   UNL A   1      35.950  29.954  30.266  1.00  0.00    -0.341 N 
ATOM      8  C   UNL A   1      36.005  30.081  28.903  1.00  0.00     0.240 C 
ATOM      9  O   UNL A   1      35.076  29.576  28.252  1.00  0.00    -0.273 OA
ATOM     10  H   UNL A   1      35.121  29.512  30.560  1.00  0.00     0.164 HD
BRANCH   8  11
ATOM     11  C   UNL A   1      37.137  30.810  28.163  1.00  0.00     0.216 C 
BRANCH  11  12
ATOM     12  N   UNL A   1      38.012  29.798  27.592  1.00  0.00    -0.340 N 
ATOM     13  C   UNL A   1      39.244  29.328  28.014  1.00  0.00     0.292 C 
ATOM     14  O   UNL A   1      39.950  28.764  27.176  1.00  0.00    -0.265 OA
ATOM     15  H   UNL A   1      37.672  29.379  26.769  1.00  0.00     0.164 HD
BRANCH  13  16
ATOM     16  C   UNL A   1      39.690  29.338  29.501  1.00  0.00     0.252 C 
ATOM     17  O   UNL A   1      39.556  28.275  30.109  1.00  0.00    -0.283 OA
BRANCH  16  18
ATOM     18  C   UNL A   1      40.403  30.506  30.101  1.00  0.00     0.055 A 
ATOM     19  N   UNL A   1      40.803  32.494  31.040  1.00  0.00    -0.218 N 
ATOM     20  C   UNL A   1      39.899  31.808  30.272  1.00  0.00     0.126 A 
ATOM     21  C   UNL A   1      41.816  31.637  31.470  1.00  0.00     0.072 A 
ATOM     22  C   UNL A   1      41.760  30.537  30.639  1.00  0.00     0.013 A 
ATOM     23  C   UNL A   1      42.897  31.900  32.381  1.00  0.00     0.029 A 
ATOM     24  C   UNL A   1      42.925  29.736  30.671  1.00  0.00     0.011 A 
ATOM     25  C   UNL A   1      43.987  31.072  32.427  1.00  0.00     0.002 A 
ATOM     26  C   UNL A   1      43.999  29.992  31.572  1.00  0.00     0.001 A 
BRANCH  19  27
ATOM     27  S   UNL A   1      41.509  33.986  30.932  1.00  0.00     0.083 S 
ATOM     28  O   UNL A   1      41.075  34.535  32.221  1.00  0.00    -0.149 OA
ATOM     29  O   UNL A   1      40.894  34.300  29.640  1.00  0.00    -0.149 OA
BRANCH  27  30
ATOM     30  C   UNL A   1      42.741  35.118  30.682  1.00  0.00     0.111 A 
ATOM     31  C   UNL A   1      45.495  37.778  28.862  1.00  0.00     0.044 C 
ATOM     32  C   UNL A   1      44.534  36.854  29.523  1.00  0.00    -0.051 A 
ATOM     33  C   UNL A   1      43.834  36.022  28.674  1.00  0.00     0.005 A 
ATOM     34  C   UNL A   1      44.325  36.816  30.932  1.00  0.00     0.005 A 
ATOM     35  C   UNL A   1      42.943  35.184  29.256  1.00  0.00     0.030 A 
ATOM     36  C   UNL A   1      43.415  35.937  31.535  1.00  0.00     0.030 A 
ENDBRANCH  27  30
ENDBRANCH  19  27
ENDBRANCH  16  18
ENDBRANCH  13  16
ENDBRANCH  11  12
ENDBRANCH   8  11
ENDBRANCH   6   7
BRANCH   6  37
ATOM     37  C   UNL A   1      36.319  31.822  31.962  1.00  0.00     0.074 C 
BRANCH  37  38
ATOM     38  C   UNL A   1      35.079  32.801  31.196  1.00  0.00    -0.020 A 
ATOM     39  C   UNL A   1      34.246  33.084  29.313  1.00  0.00     0.087 A 
ATOM     40  C   UNL A   1      34.378  34.198  32.214  1.00  0.00     0.003 A 
ATOM     41  N   UNL A   1      33.244  34.588  29.534  1.00  0.00    -0.361 N 
ATOM     42  C   UNL A   1      33.450  35.180  31.217  1.00  0.00     0.046 A 
ATOM     43  C   UNL A   1      34.777  34.606  33.478  1.00  0.00     0.010 A 
ATOM     44  H   UNL A   1      32.682  35.008  28.843  1.00  0.00     0.166 HD
ATOM     45  C   UNL A   1      33.504  36.511  31.592  1.00  0.00     0.026 A 
ATOM     46  C   UNL A   1      34.347  35.863  33.850  1.00  0.00     0.001 A 
ATOM     47  C   UNL A   1      33.790  36.779  32.933  1.00  0.00     0.002 A 
ENDBRANCH  37  38
ENDBRANCH   6  37
ENDBRANCH   4   6
ENDBRANCH   3   4
ENDBRANCH   2   3
ENDBRANCH   1   2
BRANCH   1  48
ATOM     48  O   UNL A   1      42.569  28.532  35.537  1.00  0.00    -0.376 OA
BRANCH  48  49
ATOM     49  C   UNL A   1      42.370  27.209  35.960  1.00  0.00     0.188 C 
BRANCH  49  50
ATOM     50  C   UNL A   1      43.151  26.154  35.225  1.00  0.00     0.188 C 
BRANCH  50  51
ATOM     51  O   UNL A   1      44.368  25.711  35.778  1.00  0.00    -0.376 OA
BRANCH  51  52
ATOM     52  C   UNL A   1      44.588  24.635  36.617  1.00  0.00     0.202 C 
BRANCH  52  53
ATOM     53  C   UNL A   1      45.026  25.239  37.888  1.00  0.00     0.261 C 
BRANCH  53  54
ATOM     54  O   UNL A   1      46.455  25.640  37.913  1.00  0.00    -0.460 OA
BRANCH  54  55
ATOM     55  C   UNL A   1      47.231  26.510  37.181  1.00  0.00     0.338 C 
ATOM     56  O   UNL A   1      48.060  26.029  36.406  1.00  0.00    -0.246 OA
BRANCH  55  57
ATOM     57  C   UNL A   1      47.141  28.023  37.282  1.00  0.00     0.060 A 
ATOM     58  C   UNL A   1      45.905  28.537  37.021  1.00  0.00     0.016 A 
ATOM     59  C   UNL A   1      48.193  28.939  37.239  1.00  0.00     0.016 A 
ATOM     60  C   UNL A   1      45.863  29.652  36.169  1.00  0.00     0.010 A 
ATOM     61  C   UNL A   1      48.122  30.112  36.405  1.00  0.00     0.010 A 
ATOM     62  C   UNL A   1      46.955  30.456  35.678  1.00  0.00    -0.014 A 
BRANCH  62  63
ATOM     63  C   UNL A   1      47.016  31.698  34.324  1.00  0.00     0.031 A 
ATOM     64  C   UNL A   1      47.476  30.903  33.290  1.00  0.00     0.074 A 
ATOM     65  C   UNL A   1      47.168  33.183  34.027  1.00  0.00     0.049 A 
ATOM     66  N   UNL A   1      47.662  31.347  31.872  1.00  0.00    -0.248 NA
ATOM     67  C   UNL A   1      47.299  28.968  33.667  1.00  0.00     0.031 C 
ATOM     68  C   UNL A   1      46.570  34.141  33.052  1.00  0.00     0.029 A 
ATOM     69  N   UNL A   1      47.462  34.223  34.985  1.00  0.00    -0.354 N 
ATOM     70  C   UNL A   1      47.424  29.901  30.740  1.00  0.00     0.074 A 
ATOM     71  C   UNL A   1      47.207  28.333  32.266  1.00  0.00     0.031 C 
ATOM     72  C   UNL A   1      46.885  35.448  33.335  1.00  0.00     0.029 A 
ATOM     73  C   UNL A   1      47.644  35.500  34.567  1.00  0.00     0.049 A 
ATOM     74  H   UNL A   1      47.530  34.006  35.943  1.00  0.00     0.167 HD
ATOM     75  C   UNL A   1      46.804  30.438  29.500  1.00  0.00     0.034 A 
ATOM     76  C   UNL A   1      48.803  36.111  34.941  1.00  0.00     0.034 A 
ATOM     77  C   UNL A   1      46.920  31.939  29.589  1.00  0.00     0.049 A 
ATOM     78  C   UNL A   1      49.597  35.906  33.616  1.00  0.00     0.074 A 
ATOM     79  C   UNL A   1      46.034  32.966  29.902  1.00  0.00     0.029 A 
ATOM     80  N   UNL A   1      48.188  32.494  29.783  1.00  0.00    -0.354 N 
ATOM     81  N   UNL A   1      49.399  34.897  32.786  1.00  0.00    -0.248 NA
ATOM     82  C   UNL A   1      50.321  36.990  32.950  1.00  0.00     0.031 C 
ATOM     83  C   UNL A   1      46.803  34.155  30.162  1.00  0.00     0.029 A 
ATOM     84  C   UNL A   1      48.152  33.817  30.217  1.00  0.00     0.049 A 
ATOM     85  H   UNL A   1      49.024  31.998  29.628  1.00  0.00     0.167 HD
ATOM     86  C   UNL A   1      49.750  35.237  31.509  1.00  0.00     0.074 A 
ATOM     87  C   UNL A   1      50.408  36.529  31.689  1.00  0.00     0.031 C 
ATOM     88  C   UNL A   1      49.405  34.574  30.348  1.00  0.00     0.034 A 
BRANCH  75  89
ATOM     89  C   UNL A   1      45.693  29.850  28.436  1.00  0.00     0.023 A 
ATOM     90  C   UNL A   1      44.828  30.702  27.710  1.00  0.00     0.012 A 
ATOM     91  C   UNL A   1      45.420  28.488  28.134  1.00  0.00     0.148 A 
ATOM     92  C   UNL A   1      43.786  30.209  26.863  1.00  0.00     0.002 A 
ATOM     93  C   UNL A   1      44.267  27.993  27.516  1.00  0.00     0.091 A 
ATOM     94  F   UNL A   1      46.399  27.603  28.178  1.00  0.00    -0.205 F 
ATOM     95  C   UNL A   1      43.459  28.855  26.815  1.00  0.00     0.022 A 
BRANCH  93  96
ATOM     96  S   UNL A   1      43.844  26.236  27.659  1.00  0.00     0.127 S 
ATOM     97  O   UNL A   1      43.998  25.974  29.091  1.00  0.00    -0.237 OA
ATOM     98  O   UNL A   1      42.471  26.185  27.170  1.00  0.00    -0.237 OA
ATOM     99  O   UNL A   1      44.846  25.540  26.856  1.00  0.00    -0.744 OA
ENDBRANCH  93  96
ENDBRANCH  75  89
BRANCH  76 100
ATOM    100  C   UNL A   1      49.115  35.784  36.449  1.00  0.00     0.023 A 
ATOM    101  C   UNL A   1      50.277  35.051  36.820  1.00  0.00     0.012 A 
ATOM    102  C   UNL A   1      48.520  36.469  37.535  1.00  0.00     0.148 A 
ATOM    103  C   UNL A   1      50.782  35.033  38.157  1.00  0.00     0.002 A 
ATOM    104  C   UNL A   1      49.063  36.532  38.842  1.00  0.00     0.091 A 
ATOM    105  F   UNL A   1      47.350  37.037  37.294  1.00  0.00    -0.205 F 
ATOM    106  C   UNL A   1      50.184  35.788  39.164  1.00  0.00     0.022 A 
BRANCH 104 107
ATOM    107  S   UNL A   1      48.516  37.712  40.091  1.00  0.00     0.127 S 
ATOM    108  O   UNL A   1      47.390  37.102  40.775  1.00  0.00    -0.237 OA
ATOM    109  O   UNL A   1      49.669  37.792  40.970  1.00  0.00    -0.237 OA
ATOM    110  O   UNL A   1      48.239  38.930  39.343  1.00  0.00    -0.744 OA
ENDBRANCH 104 107
ENDBRANCH  76 100
BRANCH  88 111
ATOM    111  C   UNL A   1      50.278  34.644  29.106  1.00  0.00     0.023 A 
ATOM    112  C   UNL A   1      51.566  34.088  29.095  1.00  0.00     0.012 A 
ATOM    113  C   UNL A   1      49.788  35.129  27.862  1.00  0.00     0.148 A 
ATOM    114  C   UNL A   1      52.386  34.165  27.973  1.00  0.00     0.002 A 
ATOM    115  C   UNL A   1      50.537  35.028  26.707  1.00  0.00     0.091 A 
ATOM    116  F   UNL A   1      48.603  35.740  27.771  1.00  0.00    -0.205 F 
ATOM    117  C   UNL A   1      51.864  34.616  26.771  1.00  0.00     0.022 A 
BRANCH 115 118
ATOM    118  S   UNL A   1      49.831  35.340  25.086  1.00  0.00     0.127 S 
ATOM    119  O   UNL A   1      49.653  36.789  25.124  1.00  0.00    -0.237 OA
ATOM    120  O   UNL A   1      50.902  34.875  24.205  1.00  0.00    -0.237 OA
ATOM    121  O   UNL A   1      48.606  34.557  25.010  1.00  0.00    -0.744 OA
ENDBRANCH 115 118
ENDBRANCH  88 111
ENDBRANCH  62  63
ENDBRANCH  55  57
ENDBRANCH  54  55
ENDBRANCH  53  54
ENDBRANCH  52  53
ENDBRANCH  51  52
ENDBRANCH  50  51
ENDBRANCH  49  50
ENDBRANCH  48  49
ENDBRANCH   1  48
TORSDOF 29
ENDMDL
