MODEL 1
REMARK VINA RESULT:     -10.5      0.000      0.000
REMARK SMILES O=C(CCCc1nc(-c2ccc(Cl)c(Cl)c2)c(-c2ccccc2)o1)OCCOCCOCCOC(=O)c1ccc(-c2c3nc(c(-c4cccc(S(=O)(=O)[O-])c4F)c4ccc([nH]4)c(-c4cccc(S(=O)(=O)[O-])c4F)c4nc(c(-c5cccc(S(=O)(=O)[O-])c5F)c5ccc2[nH]5)C=C4)C=C3)cc1
REMARK SMILES IDX 29 1 28 2 27 3 26 4 25 5 2 6 1 7 3 8 4 9 5 10 6 11 7 12
REMARK SMILES IDX 24 13 8 14 17 15 9 16 10 17 16 18 11 19 14 20 12 21 15 22
REMARK SMILES IDX 13 23 18 24 19 25 23 26 20 27 22 28 21 29 30 30 31 31 32 32
REMARK SMILES IDX 33 33 34 34 35 35 36 36 37 37 38 38 99 39 39 40 98 41 40 42
REMARK SMILES IDX 41 43 42 44 92 45 43 46 97 47 91 48 93 49 44 50 96 51 90 52
REMARK SMILES IDX 89 53 45 55 77 56 57 57 76 58 58 59 61 60 75 61 94 62 59 63
REMARK SMILES IDX 60 64 74 66 95 67 62 68 46 69 47 70 55 71 48 72 50 73 56 74
REMARK SMILES IDX 49 75 51 76 52 77 53 78 54 79 78 80 79 81 87 82 80 83 82 84
REMARK SMILES IDX 88 85 81 86 83 87 84 88 85 89 86 90 63 91 64 92 72 93 65 94
REMARK SMILES IDX 67 95 73 96 66 97 68 98 69 99 70 100 71 101
REMARK H PARENT 93 54 61 65
REMARK Flexibility Score: inf
ROOT
ATOM      1  C   UNL A   1      33.962  22.318  27.275  1.00  0.00     0.188 C 
ENDROOT
BRANCH   1   2
ATOM      2  O   UNL A   1      33.240  23.388  26.679  1.00  0.00    -0.376 OA
BRANCH   2   3
ATOM      3  C   UNL A   1      31.840  23.428  26.926  1.00  0.00     0.202 C 
BRANCH   3   4
ATOM      4  C   UNL A   1      30.930  22.988  25.787  1.00  0.00     0.261 C 
BRANCH   4   5
ATOM      5  O   UNL A   1      31.323  23.248  24.421  1.00  0.00    -0.463 OA
BRANCH   5   6
ATOM      6  C   UNL A   1      32.239  22.612  23.666  1.00  0.00     0.305 C 
ATOM      7  O   UNL A   1      32.152  21.393  23.523  1.00  0.00    -0.252 OA
BRANCH   6   8
ATOM      8  C   UNL A   1      33.237  23.420  22.873  1.00  0.00     0.123 C 
BRANCH   8   9
ATOM      9  C   UNL A   1      32.904  23.574  21.391  1.00  0.00     0.021 C 
BRANCH   9  10
ATOM     10  C   UNL A   1      32.923  24.989  20.796  1.00  0.00     0.098 C 
BRANCH  10  11
ATOM     11  C   UNL A   1      32.549  26.075  21.747  1.00  0.00     0.195 A 
ATOM     12  N   UNL A   1      33.224  26.539  22.779  1.00  0.00    -0.213 NA
ATOM     13  O   UNL A   1      31.334  26.696  21.541  1.00  0.00    -0.440 OA
ATOM     14  C   UNL A   1      32.392  27.488  23.318  1.00  0.00     0.117 A 
ATOM     15  C   UNL A   1      31.245  27.617  22.559  1.00  0.00     0.162 A 
BRANCH  14  16
ATOM     16  C   UNL A   1      32.697  28.245  24.511  1.00  0.00     0.006 A 
ATOM     17  C   UNL A   1      33.800  27.884  25.289  1.00  0.00     0.012 A 
ATOM     18  C   UNL A   1      31.942  29.375  24.853  1.00  0.00     0.032 A 
ATOM     19  C   UNL A   1      34.173  28.670  26.381  1.00  0.00     0.023 A 
ATOM     20  C   UNL A   1      32.312  30.160  25.951  1.00  0.00     0.060 A 
ATOM     21  C   UNL A   1      33.437  29.813  26.710  1.00  0.00     0.059 A 
ATOM     22  Cl  UNL A   1      31.357  31.559  26.294  1.00  0.00    -0.083 Cl
ATOM     23  Cl  UNL A   1      33.985  30.763  28.045  1.00  0.00    -0.083 Cl
ENDBRANCH  14  16
BRANCH  15  24
ATOM     24  C   UNL A   1      30.049  28.449  22.640  1.00  0.00     0.020 A 
ATOM     25  C   UNL A   1      30.001  29.714  22.043  1.00  0.00     0.012 A 
ATOM     26  C   UNL A   1      28.874  27.942  23.217  1.00  0.00     0.012 A 
ATOM     27  C   UNL A   1      28.790  30.412  21.944  1.00  0.00     0.001 A 
ATOM     28  C   UNL A   1      27.668  28.643  23.133  1.00  0.00     0.001 A 
ATOM     29  C   UNL A   1      27.623  29.869  22.477  1.00  0.00     0.000 A 
ENDBRANCH  15  24
ENDBRANCH  10  11
ENDBRANCH   9  10
ENDBRANCH   8   9
ENDBRANCH   6   8
ENDBRANCH   5   6
ENDBRANCH   4   5
ENDBRANCH   3   4
ENDBRANCH   2   3
ENDBRANCH   1   2
BRANCH   1  30
ATOM     30  C   UNL A   1      34.821  21.502  26.306  1.00  0.00     0.188 C 
BRANCH  30  31
ATOM     31  O   UNL A   1      36.045  22.157  25.963  1.00  0.00    -0.376 OA
BRANCH  31  32
ATOM     32  C   UNL A   1      36.840  21.407  25.034  1.00  0.00     0.202 C 
BRANCH  32  33
ATOM     33  C   UNL A   1      38.360  21.464  25.299  1.00  0.00     0.261 C 
BRANCH  33  34
ATOM     34  O   UNL A   1      38.748  22.071  26.540  1.00  0.00    -0.460 OA
BRANCH  34  35
ATOM     35  C   UNL A   1      39.944  22.689  26.527  1.00  0.00     0.338 C 
ATOM     36  O   UNL A   1      41.004  22.218  26.129  1.00  0.00    -0.246 OA
BRANCH  35  37
ATOM     37  C   UNL A   1      39.781  24.088  26.946  1.00  0.00     0.060 A 
ATOM     38  C   UNL A   1      40.189  25.096  26.068  1.00  0.00     0.016 A 
ATOM     39  C   UNL A   1      39.364  24.394  28.244  1.00  0.00     0.016 A 
ATOM     40  C   UNL A   1      40.250  26.415  26.508  1.00  0.00     0.010 A 
ATOM     41  C   UNL A   1      39.434  25.718  28.689  1.00  0.00     0.010 A 
ATOM     42  C   UNL A   1      39.935  26.720  27.838  1.00  0.00    -0.014 A 
BRANCH  42  43
ATOM     43  C   UNL A   1      40.382  28.023  28.385  1.00  0.00     0.031 A 
ATOM     44  C   UNL A   1      41.863  28.299  28.435  1.00  0.00     0.074 A 
ATOM     45  C   UNL A   1      39.500  28.958  28.777  1.00  0.00     0.049 A 
ATOM     46  N   UNL A   1      42.492  29.393  28.772  1.00  0.00    -0.248 NA
ATOM     47  C   UNL A   1      42.753  27.191  28.045  1.00  0.00     0.031 C 
ATOM     48  C   UNL A   1      38.047  28.805  28.770  1.00  0.00     0.029 A 
ATOM     49  N   UNL A   1      39.706  30.225  29.261  1.00  0.00    -0.354 N 
ATOM     50  C   UNL A   1      43.847  29.101  28.655  1.00  0.00     0.074 A 
ATOM     51  C   UNL A   1      43.951  27.724  28.230  1.00  0.00     0.031 C 
ATOM     52  C   UNL A   1      37.489  29.935  29.242  1.00  0.00     0.029 A 
ATOM     53  C   UNL A   1      38.546  30.885  29.589  1.00  0.00     0.049 A 
ATOM     54  H   UNL A   1      40.600  30.624  29.364  1.00  0.00     0.167 HD
ATOM     55  C   UNL A   1      44.911  29.911  28.865  1.00  0.00     0.034 A 
ATOM     56  C   UNL A   1      38.363  32.117  30.104  1.00  0.00     0.034 A 
ATOM     57  C   UNL A   1      44.803  31.283  29.277  1.00  0.00     0.049 A 
ATOM     58  C   UNL A   1      39.565  32.998  30.335  1.00  0.00     0.074 A 
ATOM     59  C   UNL A   1      45.813  32.204  29.480  1.00  0.00     0.029 A 
ATOM     60  N   UNL A   1      43.609  31.925  29.565  1.00  0.00    -0.354 N 
ATOM     61  N   UNL A   1      40.831  32.752  30.091  1.00  0.00    -0.248 NA
ATOM     62  C   UNL A   1      39.310  34.344  30.869  1.00  0.00     0.031 C 
ATOM     63  C   UNL A   1      45.231  33.398  29.919  1.00  0.00     0.029 A 
ATOM     64  C   UNL A   1      43.856  33.230  29.955  1.00  0.00     0.049 A 
ATOM     65  H   UNL A   1      42.716  31.515  29.501  1.00  0.00     0.167 HD
ATOM     66  C   UNL A   1      41.515  33.927  30.394  1.00  0.00     0.074 A 
ATOM     67  C   UNL A   1      40.520  34.886  30.828  1.00  0.00     0.031 C 
ATOM     68  C   UNL A   1      42.844  34.187  30.323  1.00  0.00     0.034 A 
BRANCH  55  69
ATOM     69  C   UNL A   1      46.282  29.330  28.638  1.00  0.00     0.023 A 
ATOM     70  C   UNL A   1      46.906  29.472  27.381  1.00  0.00     0.012 A 
ATOM     71  C   UNL A   1      46.965  28.666  29.677  1.00  0.00     0.148 A 
ATOM     72  C   UNL A   1      48.170  28.930  27.151  1.00  0.00     0.002 A 
ATOM     73  C   UNL A   1      48.243  28.169  29.452  1.00  0.00     0.091 A 
ATOM     74  F   UNL A   1      46.345  28.517  30.855  1.00  0.00    -0.205 F 
ATOM     75  C   UNL A   1      48.841  28.287  28.187  1.00  0.00     0.022 A 
BRANCH  73  76
ATOM     76  S   UNL A   1      49.217  27.392  30.745  1.00  0.00     0.127 S 
ATOM     77  O   UNL A   1      48.804  25.995  30.628  1.00  0.00    -0.237 OA
ATOM     78  O   UNL A   1      50.586  27.662  30.305  1.00  0.00    -0.237 OA
ATOM     79  O   UNL A   1      48.839  28.057  31.985  1.00  0.00    -0.744 OA
ENDBRANCH  73  76
ENDBRANCH  55  69
BRANCH  56  80
ATOM     80  C   UNL A   1      36.985  32.620  30.370  1.00  0.00     0.023 A 
ATOM     81  C   UNL A   1      36.423  32.461  31.651  1.00  0.00     0.012 A 
ATOM     82  C   UNL A   1      36.236  33.267  29.368  1.00  0.00     0.148 A 
ATOM     83  C   UNL A   1      35.127  32.905  31.921  1.00  0.00     0.002 A 
ATOM     84  C   UNL A   1      34.967  33.754  29.657  1.00  0.00     0.091 A 
ATOM     85  F   UNL A   1      36.782  33.394  28.151  1.00  0.00    -0.205 F 
ATOM     86  C   UNL A   1      34.405  33.560  30.928  1.00  0.00     0.022 A 
BRANCH  84  87
ATOM     87  S   UNL A   1      34.006  34.709  28.477  1.00  0.00     0.127 S 
ATOM     88  O   UNL A   1      34.838  35.896  28.305  1.00  0.00    -0.237 OA
ATOM     89  O   UNL A   1      33.968  33.811  27.321  1.00  0.00    -0.237 OA
ATOM     90  O   UNL A   1      32.712  34.930  29.109  1.00  0.00    -0.744 OA
ENDBRANCH  84  87
ENDBRANCH  56  80
BRANCH  68  91
ATOM     91  C   UNL A   1      43.305  35.580  30.669  1.00  0.00     0.023 A 
ATOM     92  C   UNL A   1      43.454  36.547  29.656  1.00  0.00     0.012 A 
ATOM     93  C   UNL A   1      43.518  35.948  32.013  1.00  0.00     0.148 A 
ATOM     94  C   UNL A   1      43.845  37.849  29.972  1.00  0.00     0.002 A 
ATOM     95  C   UNL A   1      43.856  37.258  32.324  1.00  0.00     0.091 A 
ATOM     96  F   UNL A   1      43.391  35.009  32.962  1.00  0.00    -0.205 F 
ATOM     97  C   UNL A   1      44.034  38.208  31.306  1.00  0.00     0.022 A 
BRANCH  95  98
ATOM     98  S   UNL A   1      44.014  37.825  34.023  1.00  0.00     0.127 S 
ATOM     99  O   UNL A   1      45.104  38.792  33.915  1.00  0.00    -0.237 OA
ATOM    100  O   UNL A   1      42.700  38.414  34.280  1.00  0.00    -0.237 OA
ATOM    101  O   UNL A   1      44.301  36.635  34.813  1.00  0.00    -0.744 OA
ENDBRANCH  95  98
ENDBRANCH  68  91
ENDBRANCH  42  43
ENDBRANCH  35  37
ENDBRANCH  34  35
ENDBRANCH  33  34
ENDBRANCH  32  33
ENDBRANCH  31  32
ENDBRANCH  30  31
ENDBRANCH   1  30
TORSDOF 25
ENDMDL
MODEL 2
REMARK VINA RESULT:     -10.2      2.047      2.580
REMARK SMILES O=C(CCCc1nc(-c2ccc(Cl)c(Cl)c2)c(-c2ccccc2)o1)OCCOCCOCCOC(=O)c1ccc(-c2c3nc(c(-c4cccc(S(=O)(=O)[O-])c4F)c4ccc([nH]4)c(-c4cccc(S(=O)(=O)[O-])c4F)c4nc(c(-c5cccc(S(=O)(=O)[O-])c5F)c5ccc2[nH]5)C=C4)C=C3)cc1
REMARK SMILES IDX 29 1 28 2 27 3 26 4 25 5 2 6 1 7 3 8 4 9 5 10 6 11 7 12
REMARK SMILES IDX 24 13 8 14 17 15 9 16 10 17 16 18 11 19 14 20 12 21 15 22
REMARK SMILES IDX 13 23 18 24 19 25 23 26 20 27 22 28 21 29 30 30 31 31 32 32
REMARK SMILES IDX 33 33 34 34 35 35 36 36 37 37 38 38 99 39 39 40 98 41 40 42
REMARK SMILES IDX 41 43 42 44 92 45 43 46 97 47 91 48 93 49 44 50 96 51 90 52
REMARK SMILES IDX 89 53 45 55 77 56 57 57 76 58 58 59 61 60 75 61 94 62 59 63
REMARK SMILES IDX 60 64 74 66 95 67 62 68 46 69 47 70 55 71 48 72 50 73 56 74
REMARK SMILES IDX 49 75 51 76 52 77 53 78 54 79 78 80 79 81 87 82 80 83 82 84
REMARK SMILES IDX 88 85 81 86 83 87 84 88 85 89 86 90 63 91 64 92 72 93 65 94
REMARK SMILES IDX 67 95 73 96 66 97 68 98 69 99 70 100 71 101
REMARK H PARENT 93 54 61 65
REMARK Flexibility Score: inf
ROOT
ATOM      1  C   UNL A   1      33.096  22.208  28.001  1.00  0.00     0.188 C 
ENDROOT
BRANCH   1   2
ATOM      2  O   UNL A   1      32.251  23.265  27.561  1.00  0.00    -0.376 OA
BRANCH   2   3
ATOM      3  C   UNL A   1      31.068  22.888  26.869  1.00  0.00     0.202 C 
BRANCH   3   4
ATOM      4  C   UNL A   1      30.947  23.344  25.420  1.00  0.00     0.261 C 
BRANCH   4   5
ATOM      5  O   UNL A   1      32.143  23.649  24.668  1.00  0.00    -0.463 OA
BRANCH   5   6
ATOM      6  C   UNL A   1      32.756  22.918  23.718  1.00  0.00     0.305 C 
ATOM      7  O   UNL A   1      32.435  21.739  23.572  1.00  0.00    -0.252 OA
BRANCH   6   8
ATOM      8  C   UNL A   1      33.685  23.599  22.742  1.00  0.00     0.123 C 
BRANCH   8   9
ATOM      9  C   UNL A   1      33.160  23.685  21.311  1.00  0.00     0.021 C 
BRANCH   9  10
ATOM     10  C   UNL A   1      32.903  25.081  20.725  1.00  0.00     0.098 C 
BRANCH  10  11
ATOM     11  C   UNL A   1      32.492  26.113  21.720  1.00  0.00     0.195 A 
ATOM     12  N   UNL A   1      33.192  26.631  22.709  1.00  0.00    -0.213 NA
ATOM     13  O   UNL A   1      31.209  26.610  21.613  1.00  0.00    -0.440 OA
ATOM     14  C   UNL A   1      32.310  27.486  23.324  1.00  0.00     0.117 A 
ATOM     15  C   UNL A   1      31.104  27.507  22.651  1.00  0.00     0.162 A 
BRANCH  14  16
ATOM     16  C   UNL A   1      32.624  28.256  24.505  1.00  0.00     0.006 A 
ATOM     17  C   UNL A   1      33.729  27.900  25.283  1.00  0.00     0.012 A 
ATOM     18  C   UNL A   1      31.877  29.396  24.835  1.00  0.00     0.032 A 
ATOM     19  C   UNL A   1      34.111  28.699  26.363  1.00  0.00     0.023 A 
ATOM     20  C   UNL A   1      32.256  30.192  25.921  1.00  0.00     0.060 A 
ATOM     21  C   UNL A   1      33.382  29.850  26.679  1.00  0.00     0.059 A 
ATOM     22  Cl  UNL A   1      31.310  31.601  26.249  1.00  0.00    -0.083 Cl
ATOM     23  Cl  UNL A   1      33.941  30.814  28.000  1.00  0.00    -0.083 Cl
ENDBRANCH  14  16
BRANCH  15  24
ATOM     24  C   UNL A   1      29.840  28.213  22.832  1.00  0.00     0.020 A 
ATOM     25  C   UNL A   1      29.621  29.472  22.261  1.00  0.00     0.012 A 
ATOM     26  C   UNL A   1      28.767  27.585  23.485  1.00  0.00     0.012 A 
ATOM     27  C   UNL A   1      28.343  30.044  22.261  1.00  0.00     0.001 A 
ATOM     28  C   UNL A   1      27.494  28.161  23.501  1.00  0.00     0.001 A 
ATOM     29  C   UNL A   1      27.278  29.382  22.869  1.00  0.00     0.000 A 
ENDBRANCH  15  24
ENDBRANCH  10  11
ENDBRANCH   9  10
ENDBRANCH   8   9
ENDBRANCH   6   8
ENDBRANCH   5   6
ENDBRANCH   4   5
ENDBRANCH   3   4
ENDBRANCH   2   3
ENDBRANCH   1   2
BRANCH   1  30
ATOM     30  C   UNL A   1      33.622  21.300  26.887  1.00  0.00     0.188 C 
BRANCH  30  31
ATOM     31  O   UNL A   1      34.857  21.762  26.332  1.00  0.00    -0.376 OA
BRANCH  31  32
ATOM     32  C   UNL A   1      35.440  20.831  25.410  1.00  0.00     0.202 C 
BRANCH  32  33
ATOM     33  C   UNL A   1      36.893  21.153  25.005  1.00  0.00     0.261 C 
BRANCH  33  34
ATOM     34  O   UNL A   1      37.597  22.042  25.886  1.00  0.00    -0.460 OA
BRANCH  34  35
ATOM     35  C   UNL A   1      37.544  23.345  25.549  1.00  0.00     0.338 C 
ATOM     36  O   UNL A   1      36.734  23.870  24.793  1.00  0.00    -0.246 OA
BRANCH  35  37
ATOM     37  C   UNL A   1      38.536  24.097  26.330  1.00  0.00     0.060 A 
ATOM     38  C   UNL A   1      38.277  24.329  27.684  1.00  0.00     0.016 A 
ATOM     39  C   UNL A   1      39.634  24.686  25.699  1.00  0.00     0.016 A 
ATOM     40  C   UNL A   1      39.079  25.211  28.401  1.00  0.00     0.010 A 
ATOM     41  C   UNL A   1      40.435  25.580  26.417  1.00  0.00     0.010 A 
ATOM     42  C   UNL A   1      40.120  25.889  27.753  1.00  0.00    -0.014 A 
BRANCH  42  43
ATOM     43  C   UNL A   1      40.689  27.092  28.406  1.00  0.00     0.031 A 
ATOM     44  C   UNL A   1      42.148  27.070  28.784  1.00  0.00     0.074 A 
ATOM     45  C   UNL A   1      39.948  28.194  28.610  1.00  0.00     0.049 A 
ATOM     46  N   UNL A   1      42.894  28.026  29.269  1.00  0.00    -0.248 NA
ATOM     47  C   UNL A   1      42.861  25.796  28.581  1.00  0.00     0.031 C 
ATOM     48  C   UNL A   1      38.531  28.333  28.282  1.00  0.00     0.029 A 
ATOM     49  N   UNL A   1      40.291  29.408  29.148  1.00  0.00    -0.354 N 
ATOM     50  C   UNL A   1      44.155  27.468  29.447  1.00  0.00     0.074 A 
ATOM     51  C   UNL A   1      44.071  26.085  29.033  1.00  0.00     0.031 C 
ATOM     52  C   UNL A   1      38.121  29.564  28.638  1.00  0.00     0.029 A 
ATOM     53  C   UNL A   1      39.244  30.294  29.224  1.00  0.00     0.049 A 
ATOM     54  H   UNL A   1      41.203  29.624  29.452  1.00  0.00     0.167 HD
ATOM     55  C   UNL A   1      45.288  28.055  29.899  1.00  0.00     0.034 A 
ATOM     56  C   UNL A   1      39.204  31.552  29.708  1.00  0.00     0.034 A 
ATOM     57  C   UNL A   1      45.369  29.432  30.300  1.00  0.00     0.049 A 
ATOM     58  C   UNL A   1      40.478  32.183  30.211  1.00  0.00     0.074 A 
ATOM     59  C   UNL A   1      46.473  30.140  30.735  1.00  0.00     0.029 A 
ATOM     60  N   UNL A   1      44.293  30.307  30.329  1.00  0.00    -0.354 N 
ATOM     61  N   UNL A   1      41.691  31.684  30.247  1.00  0.00    -0.248 NA
ATOM     62  C   UNL A   1      40.386  33.567  30.698  1.00  0.00     0.031 C 
ATOM     63  C   UNL A   1      46.060  31.437  31.055  1.00  0.00     0.029 A 
ATOM     64  C   UNL A   1      44.705  31.547  30.785  1.00  0.00     0.049 A 
ATOM     65  H   UNL A   1      43.373  30.081  30.064  1.00  0.00     0.167 HD
ATOM     66  C   UNL A   1      42.513  32.707  30.711  1.00  0.00     0.074 A 
ATOM     67  C   UNL A   1      41.660  33.857  30.933  1.00  0.00     0.031 C 
ATOM     68  C   UNL A   1      43.850  32.696  30.939  1.00  0.00     0.034 A 
BRANCH  55  69
ATOM     69  C   UNL A   1      46.530  27.207  29.970  1.00  0.00     0.023 A 
ATOM     70  C   UNL A   1      46.983  26.727  31.217  1.00  0.00     0.012 A 
ATOM     71  C   UNL A   1      47.235  26.861  28.800  1.00  0.00     0.148 A 
ATOM     72  C   UNL A   1      48.137  25.950  31.302  1.00  0.00     0.002 A 
ATOM     73  C   UNL A   1      48.359  26.049  28.889  1.00  0.00     0.091 A 
ATOM     74  F   UNL A   1      46.805  27.348  27.628  1.00  0.00    -0.205 F 
ATOM     75  C   UNL A   1      48.820  25.604  30.139  1.00  0.00     0.022 A 
BRANCH  73  76
ATOM     76  S   UNL A   1      49.261  25.488  27.442  1.00  0.00     0.127 S 
ATOM     77  O   UNL A   1      49.954  26.708  27.032  1.00  0.00    -0.237 OA
ATOM     78  O   UNL A   1      50.130  24.452  28.001  1.00  0.00    -0.237 OA
ATOM     79  O   UNL A   1      48.256  24.995  26.509  1.00  0.00    -0.744 OA
ENDBRANCH  73  76
ENDBRANCH  55  69
BRANCH  56  80
ATOM     80  C   UNL A   1      37.930  32.327  29.673  1.00  0.00     0.023 A 
ATOM     81  C   UNL A   1      37.462  32.839  28.447  1.00  0.00     0.012 A 
ATOM     82  C   UNL A   1      37.175  32.547  30.842  1.00  0.00     0.148 A 
ATOM     83  C   UNL A   1      36.283  33.583  28.390  1.00  0.00     0.002 A 
ATOM     84  C   UNL A   1      35.976  33.245  30.770  1.00  0.00     0.091 A 
ATOM     85  F   UNL A   1      37.646  32.067  32.001  1.00  0.00    -0.205 F 
ATOM     86  C   UNL A   1      35.535  33.778  29.549  1.00  0.00     0.022 A 
BRANCH  84  87
ATOM     87  S   UNL A   1      34.890  33.448  32.187  1.00  0.00     0.127 S 
ATOM     88  O   UNL A   1      34.624  32.062  32.561  1.00  0.00    -0.237 OA
ATOM     89  O   UNL A   1      35.744  34.184  33.120  1.00  0.00    -0.237 OA
ATOM     90  O   UNL A   1      33.743  34.203  31.700  1.00  0.00    -0.744 OA
ENDBRANCH  84  87
ENDBRANCH  56  80
BRANCH  68  91
ATOM     91  C   UNL A   1      44.493  33.979  31.401  1.00  0.00     0.023 A 
ATOM     92  C   UNL A   1      44.720  34.202  32.773  1.00  0.00     0.012 A 
ATOM     93  C   UNL A   1      44.941  34.931  30.462  1.00  0.00     0.148 A 
ATOM     94  C   UNL A   1      45.349  35.370  33.206  1.00  0.00     0.002 A 
ATOM     95  C   UNL A   1      45.611  36.066  30.898  1.00  0.00     0.091 A 
ATOM     96  F   UNL A   1      44.698  34.711  29.162  1.00  0.00    -0.205 F 
ATOM     97  C   UNL A   1      45.805  36.296  32.269  1.00  0.00     0.022 A 
BRANCH  95  98
ATOM     98  S   UNL A   1      46.322  37.253  29.750  1.00  0.00     0.127 S 
ATOM     99  O   UNL A   1      45.127  37.812  29.121  1.00  0.00    -0.237 OA
ATOM    100  O   UNL A   1      47.027  38.172  30.645  1.00  0.00    -0.237 OA
ATOM    101  O   UNL A   1      47.195  36.483  28.873  1.00  0.00    -0.744 OA
ENDBRANCH  95  98
ENDBRANCH  68  91
ENDBRANCH  42  43
ENDBRANCH  35  37
ENDBRANCH  34  35
ENDBRANCH  33  34
ENDBRANCH  32  33
ENDBRANCH  31  32
ENDBRANCH  30  31
ENDBRANCH   1  30
TORSDOF 25
ENDMDL
MODEL 3
REMARK VINA RESULT:      -9.6      3.894      8.369
REMARK SMILES O=C(CCCc1nc(-c2ccc(Cl)c(Cl)c2)c(-c2ccccc2)o1)OCCOCCOCCOC(=O)c1ccc(-c2c3nc(c(-c4cccc(S(=O)(=O)[O-])c4F)c4ccc([nH]4)c(-c4cccc(S(=O)(=O)[O-])c4F)c4nc(c(-c5cccc(S(=O)(=O)[O-])c5F)c5ccc2[nH]5)C=C4)C=C3)cc1
REMARK SMILES IDX 29 1 28 2 27 3 26 4 25 5 2 6 1 7 3 8 4 9 5 10 6 11 7 12
REMARK SMILES IDX 24 13 8 14 17 15 9 16 10 17 16 18 11 19 14 20 12 21 15 22
REMARK SMILES IDX 13 23 18 24 19 25 23 26 20 27 22 28 21 29 30 30 31 31 32 32
REMARK SMILES IDX 33 33 34 34 35 35 36 36 37 37 38 38 99 39 39 40 98 41 40 42
REMARK SMILES IDX 41 43 42 44 92 45 43 46 97 47 91 48 93 49 44 50 96 51 90 52
REMARK SMILES IDX 89 53 45 55 77 56 57 57 76 58 58 59 61 60 75 61 94 62 59 63
REMARK SMILES IDX 60 64 74 66 95 67 62 68 46 69 47 70 55 71 48 72 50 73 56 74
REMARK SMILES IDX 49 75 51 76 52 77 53 78 54 79 78 80 79 81 87 82 80 83 82 84
REMARK SMILES IDX 88 85 81 86 83 87 84 88 85 89 86 90 63 91 64 92 72 93 65 94
REMARK SMILES IDX 67 95 73 96 66 97 68 98 69 99 70 100 71 101
REMARK H PARENT 93 54 61 65
REMARK Flexibility Score: inf
ROOT
ATOM      1  C   UNL A   1      36.340  24.318  25.509  1.00  0.00     0.188 C 
ENDROOT
BRANCH   1   2
ATOM      2  O   UNL A   1      36.170  23.685  24.247  1.00  0.00    -0.376 OA
BRANCH   2   3
ATOM      3  C   UNL A   1      34.904  23.087  24.000  1.00  0.00     0.202 C 
BRANCH   3   4
ATOM      4  C   UNL A   1      34.421  23.080  22.555  1.00  0.00     0.261 C 
BRANCH   4   5
ATOM      5  O   UNL A   1      33.005  22.992  22.278  1.00  0.00    -0.463 OA
BRANCH   5   6
ATOM      6  C   UNL A   1      32.062  22.264  22.906  1.00  0.00     0.305 C 
ATOM      7  O   UNL A   1      32.139  21.037  22.877  1.00  0.00    -0.252 OA
BRANCH   6   8
ATOM      8  C   UNL A   1      31.043  22.962  23.773  1.00  0.00     0.123 C 
BRANCH   8   9
ATOM      9  C   UNL A   1      31.273  22.815  25.276  1.00  0.00     0.021 C 
BRANCH   9  10
ATOM     10  C   UNL A   1      30.578  23.819  26.207  1.00  0.00     0.098 C 
BRANCH  10  11
ATOM     11  C   UNL A   1      30.962  25.244  25.993  1.00  0.00     0.195 A 
ATOM     12  N   UNL A   1      31.769  25.999  26.712  1.00  0.00    -0.213 NA
ATOM     13  O   UNL A   1      30.412  25.883  24.901  1.00  0.00    -0.440 OA
ATOM     14  C   UNL A   1      31.716  27.222  26.091  1.00  0.00     0.117 A 
ATOM     15  C   UNL A   1      30.914  27.162  24.967  1.00  0.00     0.162 A 
BRANCH  14  16
ATOM     16  C   UNL A   1      32.417  28.395  26.559  1.00  0.00     0.006 A 
ATOM     17  C   UNL A   1      33.769  28.297  26.900  1.00  0.00     0.012 A 
ATOM     18  C   UNL A   1      31.776  29.641  26.605  1.00  0.00     0.032 A 
ATOM     19  C   UNL A   1      34.488  29.442  27.247  1.00  0.00     0.023 A 
ATOM     20  C   UNL A   1      32.495  30.787  26.960  1.00  0.00     0.060 A 
ATOM     21  C   UNL A   1      33.857  30.690  27.270  1.00  0.00     0.059 A 
ATOM     22  Cl  UNL A   1      31.649  32.295  26.961  1.00  0.00    -0.083 Cl
ATOM     23  Cl  UNL A   1      34.821  32.068  27.663  1.00  0.00    -0.083 Cl
ENDBRANCH  14  16
BRANCH  15  24
ATOM     24  C   UNL A   1      30.510  28.120  23.943  1.00  0.00     0.020 A 
ATOM     25  C   UNL A   1      31.415  28.582  22.981  1.00  0.00     0.012 A 
ATOM     26  C   UNL A   1      29.165  28.505  23.829  1.00  0.00     0.012 A 
ATOM     27  C   UNL A   1      30.971  29.332  21.884  1.00  0.00     0.001 A 
ATOM     28  C   UNL A   1      28.721  29.266  22.744  1.00  0.00     0.001 A 
ATOM     29  C   UNL A   1      29.622  29.660  21.759  1.00  0.00     0.000 A 
ENDBRANCH  15  24
ENDBRANCH  10  11
ENDBRANCH   9  10
ENDBRANCH   8   9
ENDBRANCH   6   8
ENDBRANCH   5   6
ENDBRANCH   4   5
ENDBRANCH   3   4
ENDBRANCH   2   3
ENDBRANCH   1   2
BRANCH   1  30
ATOM     30  C   UNL A   1      37.327  23.622  26.450  1.00  0.00     0.188 C 
BRANCH  30  31
ATOM     31  O   UNL A   1      38.332  22.882  25.751  1.00  0.00    -0.376 OA
BRANCH  31  32
ATOM     32  C   UNL A   1      39.596  22.875  26.430  1.00  0.00     0.202 C 
BRANCH  32  33
ATOM     33  C   UNL A   1      40.041  21.488  26.939  1.00  0.00     0.261 C 
BRANCH  33  34
ATOM     34  O   UNL A   1      40.498  20.576  25.929  1.00  0.00    -0.460 OA
BRANCH  34  35
ATOM     35  C   UNL A   1      41.743  20.095  26.111  1.00  0.00     0.338 C 
ATOM     36  O   UNL A   1      42.078  18.917  26.093  1.00  0.00    -0.246 OA
BRANCH  35  37
ATOM     37  C   UNL A   1      42.694  21.211  26.209  1.00  0.00     0.060 A 
ATOM     38  C   UNL A   1      43.098  21.630  27.480  1.00  0.00     0.016 A 
ATOM     39  C   UNL A   1      43.067  21.925  25.067  1.00  0.00     0.016 A 
ATOM     40  C   UNL A   1      43.823  22.809  27.622  1.00  0.00     0.010 A 
ATOM     41  C   UNL A   1      43.787  23.115  25.211  1.00  0.00     0.010 A 
ATOM     42  C   UNL A   1      44.113  23.588  26.495  1.00  0.00    -0.014 A 
BRANCH  42  43
ATOM     43  C   UNL A   1      44.516  25.000  26.701  1.00  0.00     0.031 A 
ATOM     44  C   UNL A   1      43.476  25.967  27.205  1.00  0.00     0.074 A 
ATOM     45  C   UNL A   1      45.782  25.403  26.499  1.00  0.00     0.049 A 
ATOM     46  N   UNL A   1      43.608  27.218  27.557  1.00  0.00    -0.248 NA
ATOM     47  C   UNL A   1      42.103  25.448  27.335  1.00  0.00     0.031 C 
ATOM     48  C   UNL A   1      46.872  24.557  26.018  1.00  0.00     0.029 A 
ATOM     49  N   UNL A   1      46.360  26.634  26.674  1.00  0.00    -0.354 N 
ATOM     50  C   UNL A   1      42.337  27.642  27.930  1.00  0.00     0.074 A 
ATOM     51  C   UNL A   1      41.444  26.520  27.748  1.00  0.00     0.031 C 
ATOM     52  C   UNL A   1      47.990  25.300  25.924  1.00  0.00     0.029 A 
ATOM     53  C   UNL A   1      47.691  26.673  26.331  1.00  0.00     0.049 A 
ATOM     54  H   UNL A   1      45.868  27.417  27.013  1.00  0.00     0.167 HD
ATOM     55  C   UNL A   1      41.948  28.850  28.399  1.00  0.00     0.034 A 
ATOM     56  C   UNL A   1      48.563  27.700  26.351  1.00  0.00     0.034 A 
ATOM     57  C   UNL A   1      42.841  29.959  28.588  1.00  0.00     0.049 A 
ATOM     58  C   UNL A   1      48.105  29.039  26.871  1.00  0.00     0.074 A 
ATOM     59  C   UNL A   1      42.562  31.215  29.093  1.00  0.00     0.029 A 
ATOM     60  N   UNL A   1      44.189  29.948  28.262  1.00  0.00    -0.354 N 
ATOM     61  N   UNL A   1      46.931  29.385  27.347  1.00  0.00    -0.248 NA
ATOM     62  C   UNL A   1      49.103  30.117  26.902  1.00  0.00     0.031 C 
ATOM     63  C   UNL A   1      43.736  31.974  29.046  1.00  0.00     0.029 A 
ATOM     64  C   UNL A   1      44.754  31.179  28.545  1.00  0.00     0.049 A 
ATOM     65  H   UNL A   1      44.673  29.178  27.885  1.00  0.00     0.167 HD
ATOM     66  C   UNL A   1      47.066  30.702  27.778  1.00  0.00     0.074 A 
ATOM     67  C   UNL A   1      48.437  31.087  27.517  1.00  0.00     0.031 C 
ATOM     68  C   UNL A   1      46.138  31.520  28.335  1.00  0.00     0.034 A 
BRANCH  55  69
ATOM     69  C   UNL A   1      40.494  29.025  28.749  1.00  0.00     0.023 A 
ATOM     70  C   UNL A   1      39.540  29.196  27.723  1.00  0.00     0.012 A 
ATOM     71  C   UNL A   1      40.066  28.994  30.090  1.00  0.00     0.148 A 
ATOM     72  C   UNL A   1      38.191  29.370  28.029  1.00  0.00     0.002 A 
ATOM     73  C   UNL A   1      38.714  29.123  30.385  1.00  0.00     0.091 A 
ATOM     74  F   UNL A   1      40.989  28.858  31.052  1.00  0.00    -0.205 F 
ATOM     75  C   UNL A   1      37.777  29.326  29.357  1.00  0.00     0.022 A 
BRANCH  73  76
ATOM     76  S   UNL A   1      38.075  29.003  32.058  1.00  0.00     0.127 S 
ATOM     77  O   UNL A   1      38.466  27.644  32.428  1.00  0.00    -0.237 OA
ATOM     78  O   UNL A   1      38.816  30.060  32.748  1.00  0.00    -0.237 OA
ATOM     79  O   UNL A   1      36.641  29.238  31.958  1.00  0.00    -0.744 OA
ENDBRANCH  73  76
ENDBRANCH  55  69
BRANCH  56  80
ATOM     80  C   UNL A   1      49.979  27.488  25.932  1.00  0.00     0.023 A 
ATOM     81  C   UNL A   1      50.956  27.202  26.905  1.00  0.00     0.012 A 
ATOM     82  C   UNL A   1      50.358  27.553  24.577  1.00  0.00     0.148 A 
ATOM     83  C   UNL A   1      52.291  27.018  26.542  1.00  0.00     0.002 A 
ATOM     84  C   UNL A   1      51.680  27.319  24.216  1.00  0.00     0.091 A 
ATOM     85  F   UNL A   1      49.418  27.843  23.668  1.00  0.00    -0.205 F 
ATOM     86  C   UNL A   1      52.650  27.066  25.198  1.00  0.00     0.022 A 
BRANCH  84  87
ATOM     87  S   UNL A   1      52.216  27.248  22.502  1.00  0.00     0.127 S 
ATOM     88  O   UNL A   1      53.279  28.247  22.479  1.00  0.00    -0.237 OA
ATOM     89  O   UNL A   1      52.671  25.861  22.386  1.00  0.00    -0.237 OA
ATOM     90  O   UNL A   1      51.035  27.561  21.708  1.00  0.00    -0.744 OA
ENDBRANCH  84  87
ENDBRANCH  56  80
BRANCH  68  91
ATOM     91  C   UNL A   1      46.581  32.898  28.755  1.00  0.00     0.023 A 
ATOM     92  C   UNL A   1      47.141  33.102  30.031  1.00  0.00     0.012 A 
ATOM     93  C   UNL A   1      46.509  33.978  27.852  1.00  0.00     0.148 A 
ATOM     94  C   UNL A   1      47.587  34.367  30.415  1.00  0.00     0.002 A 
ATOM     95  C   UNL A   1      47.002  35.222  28.222  1.00  0.00     0.091 A 
ATOM     96  F   UNL A   1      45.954  33.769  26.649  1.00  0.00    -0.205 F 
ATOM     97  C   UNL A   1      47.530  35.423  29.507  1.00  0.00     0.022 A 
BRANCH  95  98
ATOM     98  S   UNL A   1      47.060  36.604  27.076  1.00  0.00     0.127 S 
ATOM     99  O   UNL A   1      47.795  37.603  27.849  1.00  0.00    -0.237 OA
ATOM    100  O   UNL A   1      47.800  36.043  25.944  1.00  0.00    -0.237 OA
ATOM    101  O   UNL A   1      45.671  36.932  26.778  1.00  0.00    -0.744 OA
ENDBRANCH  95  98
ENDBRANCH  68  91
ENDBRANCH  42  43
ENDBRANCH  35  37
ENDBRANCH  34  35
ENDBRANCH  33  34
ENDBRANCH  32  33
ENDBRANCH  31  32
ENDBRANCH  30  31
ENDBRANCH   1  30
TORSDOF 25
ENDMDL
