MODEL 1
REMARK VINA RESULT:      -6.4      0.000      0.000
REMARK SMILES C=C[C@@H]1[C@@H](O)C[C@@H]2[C@@]3(CC[C@@]4(C)[C@@H]([C@H](C)CCC=C(C)C)CC[C@@]24C)C[C@@]13CCC(=O)OCCOCCOCCOC(=O)c1ccc(-c2c3nc(c(-c4cccc(S(=O)(=O)[O-])c4F)c4ccc([nH]4)c(-c4cccc(S(=O)(=O)[O-])c4F)c4nc(c(-c5cccc(S(=O)(=O)[O-])c5F)c5ccc2[nH]5)C=C4)C=C3)cc1
REMARK SMILES IDX 35 1 34 2 33 3 32 4 30 5 31 6 29 7 28 8 27 9 3 10 4 11 6 12
REMARK SMILES IDX 8 13 26 14 7 15 9 16 24 17 10 18 11 19 23 20 25 21 12 22
REMARK SMILES IDX 13 23 22 24 2 25 1 26 5 27 14 29 15 30 16 31 17 32 18 33
REMARK SMILES IDX 19 34 20 35 21 36 36 37 37 38 38 39 39 40 40 41 41 42 42 43
REMARK SMILES IDX 43 44 44 45 45 46 106 47 46 48 105 49 47 50 48 51 49 52
REMARK SMILES IDX 99 53 50 54 104 55 98 56 100 57 51 58 103 59 97 60 96 61
REMARK SMILES IDX 52 63 84 64 64 65 83 66 65 67 68 68 82 69 101 70 66 71 67 72
REMARK SMILES IDX 81 74 102 75 69 76 53 77 54 78 62 79 55 80 57 81 63 82 56 83
REMARK SMILES IDX 58 84 59 85 60 86 61 87 85 88 86 89 94 90 87 91 89 92 95 93
REMARK SMILES IDX 88 94 90 95 91 96 92 97 93 98 70 99 71 100 79 101 72 102
REMARK SMILES IDX 74 103 80 104 73 105 75 106 76 107 77 108 78 109
REMARK H PARENT 5 28 100 62 68 73
REMARK Flexibility Score: inf
ROOT
ATOM      1  O   UNL A   1      45.257  20.478  34.921  1.00  0.00    -0.376 OA
ENDROOT
BRANCH   1   2
ATOM      2  C   UNL A   1      45.763  21.739  34.531  1.00  0.00     0.202 C 
BRANCH   2   3
ATOM      3  C   UNL A   1      44.865  22.935  34.707  1.00  0.00     0.261 C 
BRANCH   3   4
ATOM      4  O   UNL A   1      45.276  23.772  33.716  1.00  0.00    -0.463 OA
BRANCH   4   5
ATOM      5  C   UNL A   1      44.635  23.974  32.569  1.00  0.00     0.305 C 
ATOM      6  O   UNL A   1      43.609  23.490  32.146  1.00  0.00    -0.252 OA
BRANCH   5   7
ATOM      7  C   UNL A   1      45.512  25.048  32.049  1.00  0.00     0.123 C 
BRANCH   7   8
ATOM      8  C   UNL A   1      45.432  26.281  33.071  1.00  0.00     0.020 C 
BRANCH   8   9
ATOM      9  C   UNL A   1      44.259  27.358  32.834  1.00  0.00    -0.014 C 
ATOM     10  C   UNL A   1      43.217  27.478  33.989  1.00  0.00     0.047 C 
ATOM     11  C   UNL A   1      41.756  27.685  33.452  1.00  0.00     0.122 C 
ATOM     12  C   UNL A   1      41.600  28.560  32.180  1.00  0.00     0.037 C 
ATOM     13  C   UNL A   1      43.890  27.987  31.298  1.00  0.00    -0.019 C 
ATOM     14  C   UNL A   1      44.651  28.729  32.396  1.00  0.00     0.016 C 
ATOM     15  C   UNL A   1      42.330  27.869  31.017  1.00  0.00     0.005 C 
ATOM     16  C   UNL A   1      44.771  28.090  30.036  1.00  0.00     0.008 C 
ATOM     17  C   UNL A   1      41.816  28.116  29.479  1.00  0.00    -0.023 C 
ATOM     18  C   UNL A   1      44.148  27.908  28.610  1.00  0.00     0.008 C 
ATOM     19  C   UNL A   1      42.679  27.372  28.346  1.00  0.00    -0.024 C 
ATOM     20  C   UNL A   1      40.427  27.509  29.151  1.00  0.00     0.008 C 
ATOM     21  C   UNL A   1      41.731  29.665  29.325  1.00  0.00     0.012 C 
ATOM     22  C   UNL A   1      42.407  27.999  26.898  1.00  0.00     0.012 C 
ATOM     23  C   UNL A   1      41.993  25.695  28.083  1.00  0.00    -0.002 C 
ATOM     24  C   UNL A   1      40.515  26.145  28.395  1.00  0.00     0.005 C 
BRANCH  10  25
ATOM     25  C   UNL A   1      43.209  26.440  35.105  1.00  0.00    -0.028 C 
ATOM     26  C   UNL A   1      42.298  25.471  35.299  1.00  0.00     0.004 C 
ENDBRANCH  10  25
BRANCH  11  27
ATOM     27  O   UNL A   1      40.931  28.267  34.475  1.00  0.00    -0.392 OA
ATOM     28  H   UNL A   1      41.097  27.817  35.318  1.00  0.00     0.210 HD
ENDBRANCH  11  27
BRANCH  23  29
ATOM     29  C   UNL A   1      41.994  23.908  28.580  1.00  0.00    -0.010 C 
ATOM     30  C   UNL A   1      43.139  22.896  29.122  1.00  0.00     0.008 C 
BRANCH  29  31
ATOM     31  C   UNL A   1      41.314  22.890  27.565  1.00  0.00     0.008 C 
BRANCH  31  32
ATOM     32  C   UNL A   1      42.132  22.676  26.186  1.00  0.00     0.027 C 
BRANCH  32  33
ATOM     33  C   UNL A   1      42.808  21.315  26.080  1.00  0.00    -0.028 C 
ATOM     34  C   UNL A   1      42.275  20.076  25.956  1.00  0.00    -0.080 C 
ATOM     35  C   UNL A   1      43.175  18.922  25.576  1.00  0.00     0.039 C 
ATOM     36  C   UNL A   1      40.829  19.681  26.115  1.00  0.00     0.039 C 
ENDBRANCH  32  33
ENDBRANCH  31  32
ENDBRANCH  29  31
ENDBRANCH  23  29
ENDBRANCH   8   9
ENDBRANCH   7   8
ENDBRANCH   5   7
ENDBRANCH   4   5
ENDBRANCH   3   4
ENDBRANCH   2   3
ENDBRANCH   1   2
BRANCH   1  37
ATOM     37  C   UNL A   1      46.247  19.740  35.623  1.00  0.00     0.188 C 
BRANCH  37  38
ATOM     38  C   UNL A   1      45.695  19.039  36.850  1.00  0.00     0.188 C 
BRANCH  38  39
ATOM     39  O   UNL A   1      46.129  19.586  38.097  1.00  0.00    -0.376 OA
BRANCH  39  40
ATOM     40  C   UNL A   1      46.477  20.958  38.034  1.00  0.00     0.202 C 
BRANCH  40  41
ATOM     41  C   UNL A   1      47.830  21.222  38.706  1.00  0.00     0.261 C 
BRANCH  41  42
ATOM     42  O   UNL A   1      48.218  22.602  38.599  1.00  0.00    -0.460 OA
BRANCH  42  43
ATOM     43  C   UNL A   1      49.482  22.833  38.144  1.00  0.00     0.338 C 
ATOM     44  O   UNL A   1      50.504  22.262  38.505  1.00  0.00    -0.246 OA
BRANCH  43  45
ATOM     45  C   UNL A   1      49.399  23.709  36.938  1.00  0.00     0.060 A 
ATOM     46  C   UNL A   1      50.590  24.120  36.309  1.00  0.00     0.016 A 
ATOM     47  C   UNL A   1      48.166  23.964  36.321  1.00  0.00     0.016 A 
ATOM     48  C   UNL A   1      50.548  24.828  35.103  1.00  0.00     0.010 A 
ATOM     49  C   UNL A   1      48.121  24.662  35.117  1.00  0.00     0.010 A 
ATOM     50  C   UNL A   1      49.306  25.159  34.544  1.00  0.00    -0.014 A 
BRANCH  50  51
ATOM     51  C   UNL A   1      49.164  26.364  33.691  1.00  0.00     0.031 A 
ATOM     52  C   UNL A   1      48.795  27.626  34.434  1.00  0.00     0.074 A 
ATOM     53  C   UNL A   1      49.228  26.338  32.349  1.00  0.00     0.049 A 
ATOM     54  N   UNL A   1      48.353  28.766  33.980  1.00  0.00    -0.248 NA
ATOM     55  C   UNL A   1      48.896  27.569  35.908  1.00  0.00     0.031 C 
ATOM     56  C   UNL A   1      49.576  25.182  31.527  1.00  0.00     0.029 A 
ATOM     57  N   UNL A   1      48.946  27.326  31.436  1.00  0.00    -0.354 N 
ATOM     58  C   UNL A   1      48.091  29.536  35.108  1.00  0.00     0.074 A 
ATOM     59  C   UNL A   1      48.388  28.734  36.267  1.00  0.00     0.031 C 
ATOM     60  C   UNL A   1      49.442  25.514  30.227  1.00  0.00     0.029 A 
ATOM     61  C   UNL A   1      48.964  26.892  30.130  1.00  0.00     0.049 A 
ATOM     62  H   UNL A   1      48.750  28.257  31.692  1.00  0.00     0.167 HD
ATOM     63  C   UNL A   1      47.658  30.813  35.179  1.00  0.00     0.034 A 
ATOM     64  C   UNL A   1      48.596  27.534  29.001  1.00  0.00     0.034 A 
ATOM     65  C   UNL A   1      47.375  31.610  34.025  1.00  0.00     0.049 A 
ATOM     66  C   UNL A   1      48.093  28.958  29.107  1.00  0.00     0.074 A 
ATOM     67  C   UNL A   1      46.947  32.921  33.967  1.00  0.00     0.029 A 
ATOM     68  N   UNL A   1      47.496  31.160  32.720  1.00  0.00    -0.354 N 
ATOM     69  N   UNL A   1      47.936  29.706  30.175  1.00  0.00    -0.248 NA
ATOM     70  C   UNL A   1      47.741  29.635  27.849  1.00  0.00     0.031 C 
ATOM     71  C   UNL A   1      46.796  33.263  32.621  1.00  0.00     0.029 A 
ATOM     72  C   UNL A   1      47.161  32.174  31.844  1.00  0.00     0.049 A 
ATOM     73  H   UNL A   1      47.778  30.255  32.457  1.00  0.00     0.167 HD
ATOM     74  C   UNL A   1      47.518  30.951  29.713  1.00  0.00     0.074 A 
ATOM     75  C   UNL A   1      47.464  30.862  28.269  1.00  0.00     0.031 C 
ATOM     76  C   UNL A   1      47.194  32.067  30.411  1.00  0.00     0.034 A 
BRANCH  63  77
ATOM     77  C   UNL A   1      47.510  31.423  36.545  1.00  0.00     0.023 A 
ATOM     78  C   UNL A   1      48.600  32.109  37.118  1.00  0.00     0.012 A 
ATOM     79  C   UNL A   1      46.292  31.348  37.246  1.00  0.00     0.148 A 
ATOM     80  C   UNL A   1      48.490  32.692  38.379  1.00  0.00     0.002 A 
ATOM     81  C   UNL A   1      46.173  31.974  38.481  1.00  0.00     0.091 A 
ATOM     82  F   UNL A   1      45.280  30.662  36.696  1.00  0.00    -0.205 F 
ATOM     83  C   UNL A   1      47.273  32.635  39.053  1.00  0.00     0.022 A 
BRANCH  81  84
ATOM     84  S   UNL A   1      44.633  32.025  39.401  1.00  0.00     0.127 S 
ATOM     85  O   UNL A   1      43.814  32.896  38.559  1.00  0.00    -0.237 OA
ATOM     86  O   UNL A   1      44.232  30.619  39.398  1.00  0.00    -0.237 OA
ATOM     87  O   UNL A   1      44.962  32.567  40.712  1.00  0.00    -0.744 OA
ENDBRANCH  81  84
ENDBRANCH  63  77
BRANCH  64  88
ATOM     88  C   UNL A   1      48.693  26.868  27.667  1.00  0.00     0.023 A 
ATOM     89  C   UNL A   1      49.846  27.058  26.878  1.00  0.00     0.012 A 
ATOM     90  C   UNL A   1      47.640  26.088  27.152  1.00  0.00     0.148 A 
ATOM     91  C   UNL A   1      49.927  26.530  25.587  1.00  0.00     0.002 A 
ATOM     92  C   UNL A   1      47.750  25.516  25.888  1.00  0.00     0.091 A 
ATOM     93  F   UNL A   1      46.539  25.932  27.902  1.00  0.00    -0.205 F 
ATOM     94  C   UNL A   1      48.883  25.753  25.096  1.00  0.00     0.022 A 
BRANCH  92  95
ATOM     95  S   UNL A   1      46.504  24.404  25.225  1.00  0.00     0.127 S 
ATOM     96  O   UNL A   1      47.035  24.118  23.895  1.00  0.00    -0.237 OA
ATOM     97  O   UNL A   1      46.563  23.285  26.167  1.00  0.00    -0.237 OA
ATOM     98  O   UNL A   1      45.255  25.153  25.266  1.00  0.00    -0.744 OA
ENDBRANCH  92  95
ENDBRANCH  64  88
BRANCH  76  99
ATOM     99  C   UNL A   1      46.826  33.302  29.632  1.00  0.00     0.023 A 
ATOM    100  C   UNL A   1      47.827  34.198  29.215  1.00  0.00     0.012 A 
ATOM    101  C   UNL A   1      45.491  33.512  29.233  1.00  0.00     0.148 A 
ATOM    102  C   UNL A   1      47.498  35.310  28.439  1.00  0.00     0.002 A 
ATOM    103  C   UNL A   1      45.180  34.590  28.415  1.00  0.00     0.091 A 
ATOM    104  F   UNL A   1      44.554  32.648  29.651  1.00  0.00    -0.205 F 
ATOM    105  C   UNL A   1      46.179  35.498  28.029  1.00  0.00     0.022 A 
BRANCH 103 106
ATOM    106  S   UNL A   1      43.532  34.851  27.752  1.00  0.00     0.127 S 
ATOM    107  O   UNL A   1      43.609  34.139  26.477  1.00  0.00    -0.237 OA
ATOM    108  O   UNL A   1      42.689  34.209  28.760  1.00  0.00    -0.237 OA
ATOM    109  O   UNL A   1      43.362  36.294  27.650  1.00  0.00    -0.744 OA
ENDBRANCH 103 106
ENDBRANCH  76  99
ENDBRANCH  50  51
ENDBRANCH  43  45
ENDBRANCH  42  43
ENDBRANCH  41  42
ENDBRANCH  40  41
ENDBRANCH  39  40
ENDBRANCH  38  39
ENDBRANCH  37  38
ENDBRANCH   1  37
TORSDOF 28
ENDMDL
MODEL 2
REMARK VINA RESULT:      -6.3      1.900      2.339
REMARK SMILES C=C[C@@H]1[C@@H](O)C[C@@H]2[C@@]3(CC[C@@]4(C)[C@@H]([C@H](C)CCC=C(C)C)CC[C@@]24C)C[C@@]13CCC(=O)OCCOCCOCCOC(=O)c1ccc(-c2c3nc(c(-c4cccc(S(=O)(=O)[O-])c4F)c4ccc([nH]4)c(-c4cccc(S(=O)(=O)[O-])c4F)c4nc(c(-c5cccc(S(=O)(=O)[O-])c5F)c5ccc2[nH]5)C=C4)C=C3)cc1
REMARK SMILES IDX 35 1 34 2 33 3 32 4 30 5 31 6 29 7 28 8 27 9 3 10 4 11 6 12
REMARK SMILES IDX 8 13 26 14 7 15 9 16 24 17 10 18 11 19 23 20 25 21 12 22
REMARK SMILES IDX 13 23 22 24 2 25 1 26 5 27 14 29 15 30 16 31 17 32 18 33
REMARK SMILES IDX 19 34 20 35 21 36 36 37 37 38 38 39 39 40 40 41 41 42 42 43
REMARK SMILES IDX 43 44 44 45 45 46 106 47 46 48 105 49 47 50 48 51 49 52
REMARK SMILES IDX 99 53 50 54 104 55 98 56 100 57 51 58 103 59 97 60 96 61
REMARK SMILES IDX 52 63 84 64 64 65 83 66 65 67 68 68 82 69 101 70 66 71 67 72
REMARK SMILES IDX 81 74 102 75 69 76 53 77 54 78 62 79 55 80 57 81 63 82 56 83
REMARK SMILES IDX 58 84 59 85 60 86 61 87 85 88 86 89 94 90 87 91 89 92 95 93
REMARK SMILES IDX 88 94 90 95 91 96 92 97 93 98 70 99 71 100 79 101 72 102
REMARK SMILES IDX 74 103 80 104 73 105 75 106 76 107 77 108 78 109
REMARK H PARENT 5 28 100 62 68 73
REMARK Flexibility Score: inf
ROOT
ATOM      1  O   UNL A   1      44.693  21.332  34.701  1.00  0.00    -0.376 OA
ENDROOT
BRANCH   1   2
ATOM      2  C   UNL A   1      44.465  22.726  34.768  1.00  0.00     0.202 C 
BRANCH   2   3
ATOM      3  C   UNL A   1      43.393  23.300  33.879  1.00  0.00     0.261 C 
BRANCH   3   4
ATOM      4  O   UNL A   1      44.088  24.155  33.079  1.00  0.00    -0.463 OA
BRANCH   4   5
ATOM      5  C   UNL A   1      44.228  24.029  31.764  1.00  0.00     0.305 C 
ATOM      6  O   UNL A   1      43.995  23.092  31.034  1.00  0.00    -0.252 OA
BRANCH   5   7
ATOM      7  C   UNL A   1      44.642  25.423  31.484  1.00  0.00     0.123 C 
BRANCH   7   8
ATOM      8  C   UNL A   1      44.296  26.304  32.777  1.00  0.00     0.020 C 
BRANCH   8   9
ATOM      9  C   UNL A   1      43.264  27.524  32.582  1.00  0.00    -0.014 C 
ATOM     10  C   UNL A   1      42.204  27.692  33.713  1.00  0.00     0.047 C 
ATOM     11  C   UNL A   1      40.795  28.103  33.151  1.00  0.00     0.122 C 
ATOM     12  C   UNL A   1      40.787  29.069  31.937  1.00  0.00     0.037 C 
ATOM     13  C   UNL A   1      43.025  28.290  31.083  1.00  0.00    -0.019 C 
ATOM     14  C   UNL A   1      43.827  28.865  32.249  1.00  0.00     0.016 C 
ATOM     15  C   UNL A   1      41.473  28.374  30.751  1.00  0.00     0.005 C 
ATOM     16  C   UNL A   1      43.956  28.369  29.856  1.00  0.00     0.008 C 
ATOM     17  C   UNL A   1      41.045  28.777  29.220  1.00  0.00    -0.023 C 
ATOM     18  C   UNL A   1      43.367  28.353  28.403  1.00  0.00     0.008 C 
ATOM     19  C   UNL A   1      41.856  28.011  28.063  1.00  0.00    -0.024 C 
ATOM     20  C   UNL A   1      39.608  28.360  28.813  1.00  0.00     0.008 C 
ATOM     21  C   UNL A   1      41.145  30.332  29.168  1.00  0.00     0.012 C 
ATOM     22  C   UNL A   1      41.710  28.758  26.654  1.00  0.00     0.012 C 
ATOM     23  C   UNL A   1      40.991  26.447  27.668  1.00  0.00    -0.002 C 
ATOM     24  C   UNL A   1      39.564  27.047  27.969  1.00  0.00     0.005 C 
BRANCH  10  25
ATOM     25  C   UNL A   1      42.036  26.592  34.756  1.00  0.00    -0.028 C 
ATOM     26  C   UNL A   1      42.105  26.729  36.091  1.00  0.00     0.004 C 
ENDBRANCH  10  25
BRANCH  11  27
ATOM     27  O   UNL A   1      40.008  28.711  34.188  1.00  0.00    -0.392 OA
ATOM     28  H   UNL A   1      40.505  28.699  35.020  1.00  0.00     0.210 HD
ENDBRANCH  11  27
BRANCH  23  29
ATOM     29  C   UNL A   1      40.768  24.644  28.043  1.00  0.00    -0.010 C 
ATOM     30  C   UNL A   1      41.704  23.521  28.744  1.00  0.00     0.008 C 
BRANCH  29  31
ATOM     31  C   UNL A   1      40.249  23.731  26.849  1.00  0.00     0.008 C 
BRANCH  31  32
ATOM     32  C   UNL A   1      38.657  23.825  26.582  1.00  0.00     0.027 C 
BRANCH  32  33
ATOM     33  C   UNL A   1      38.031  22.507  26.141  1.00  0.00    -0.028 C 
ATOM     34  C   UNL A   1      37.255  22.218  25.069  1.00  0.00    -0.080 C 
ATOM     35  C   UNL A   1      37.009  20.771  24.706  1.00  0.00     0.039 C 
ATOM     36  C   UNL A   1      36.604  23.192  24.120  1.00  0.00     0.039 C 
ENDBRANCH  32  33
ENDBRANCH  31  32
ENDBRANCH  29  31
ENDBRANCH  23  29
ENDBRANCH   8   9
ENDBRANCH   7   8
ENDBRANCH   5   7
ENDBRANCH   4   5
ENDBRANCH   3   4
ENDBRANCH   2   3
ENDBRANCH   1   2
BRANCH   1  37
ATOM     37  C   UNL A   1      46.059  21.039  34.960  1.00  0.00     0.188 C 
BRANCH  37  38
ATOM     38  C   UNL A   1      46.237  19.920  35.969  1.00  0.00     0.188 C 
BRANCH  38  39
ATOM     39  O   UNL A   1      46.226  20.341  37.336  1.00  0.00    -0.376 OA
BRANCH  39  40
ATOM     40  C   UNL A   1      46.124  21.743  37.506  1.00  0.00     0.202 C 
BRANCH  40  41
ATOM     41  C   UNL A   1      47.121  22.253  38.552  1.00  0.00     0.261 C 
BRANCH  41  42
ATOM     42  O   UNL A   1      46.943  23.654  38.822  1.00  0.00    -0.460 OA
BRANCH  42  43
ATOM     43  C   UNL A   1      48.054  24.433  38.693  1.00  0.00     0.338 C 
ATOM     44  O   UNL A   1      49.051  24.406  39.403  1.00  0.00    -0.246 OA
BRANCH  43  45
ATOM     45  C   UNL A   1      47.981  25.147  37.384  1.00  0.00     0.060 A 
ATOM     46  C   UNL A   1      49.179  25.498  36.732  1.00  0.00     0.016 A 
ATOM     47  C   UNL A   1      46.759  25.296  36.716  1.00  0.00     0.016 A 
ATOM     48  C   UNL A   1      49.151  26.047  35.444  1.00  0.00     0.010 A 
ATOM     49  C   UNL A   1      46.728  25.835  35.432  1.00  0.00     0.010 A 
ATOM     50  C   UNL A   1      47.916  26.279  34.823  1.00  0.00    -0.014 A 
BRANCH  50  51
ATOM     51  C   UNL A   1      47.772  27.363  33.821  1.00  0.00     0.031 A 
ATOM     52  C   UNL A   1      47.221  28.659  34.365  1.00  0.00     0.074 A 
ATOM     53  C   UNL A   1      47.987  27.194  32.505  1.00  0.00     0.049 A 
ATOM     54  N   UNL A   1      46.741  29.695  33.735  1.00  0.00    -0.248 NA
ATOM     55  C   UNL A   1      47.161  28.776  35.838  1.00  0.00     0.031 C 
ATOM     56  C   UNL A   1      48.518  25.991  31.868  1.00  0.00     0.029 A 
ATOM     57  N   UNL A   1      47.729  28.043  31.456  1.00  0.00    -0.354 N 
ATOM     58  C   UNL A   1      46.292  30.558  34.729  1.00  0.00     0.074 A 
ATOM     59  C   UNL A   1      46.523  29.920  36.000  1.00  0.00     0.031 C 
ATOM     60  C   UNL A   1      48.502  26.162  30.531  1.00  0.00     0.029 A 
ATOM     61  C   UNL A   1      47.927  27.470  30.221  1.00  0.00     0.049 A 
ATOM     62  H   UNL A   1      47.430  28.974  31.577  1.00  0.00     0.167 HD
ATOM     63  C   UNL A   1      45.751  31.788  34.601  1.00  0.00     0.034 A 
ATOM     64  C   UNL A   1      47.637  27.945  28.991  1.00  0.00     0.034 A 
ATOM     65  C   UNL A   1      45.534  32.421  33.337  1.00  0.00     0.049 A 
ATOM     66  C   UNL A   1      47.010  29.318  28.873  1.00  0.00     0.074 A 
ATOM     67  C   UNL A   1      45.010  33.672  33.079  1.00  0.00     0.029 A 
ATOM     68  N   UNL A   1      45.836  31.842  32.114  1.00  0.00    -0.354 N 
ATOM     69  N   UNL A   1      46.674  30.162  29.821  1.00  0.00    -0.248 NA
ATOM     70  C   UNL A   1      46.746  29.815  27.514  1.00  0.00     0.031 C 
ATOM     71  C   UNL A   1      44.982  33.846  31.693  1.00  0.00     0.029 A 
ATOM     72  C   UNL A   1      45.520  32.716  31.094  1.00  0.00     0.049 A 
ATOM     73  H   UNL A   1      46.219  30.944  31.993  1.00  0.00     0.167 HD
ATOM     74  C   UNL A   1      46.211  31.303  29.173  1.00  0.00     0.074 A 
ATOM     75  C   UNL A   1      46.324  31.049  27.752  1.00  0.00     0.031 C 
ATOM     76  C   UNL A   1      45.720  32.455  29.694  1.00  0.00     0.034 A 
BRANCH  63  77
ATOM     77  C   UNL A   1      45.403  32.530  35.862  1.00  0.00     0.023 A 
ATOM     78  C   UNL A   1      46.345  33.413  36.428  1.00  0.00     0.012 A 
ATOM     79  C   UNL A   1      44.140  32.381  36.466  1.00  0.00     0.148 A 
ATOM     80  C   UNL A   1      46.046  34.120  37.591  1.00  0.00     0.002 A 
ATOM     81  C   UNL A   1      43.832  33.126  37.598  1.00  0.00     0.091 A 
ATOM     82  F   UNL A   1      43.274  31.511  35.930  1.00  0.00    -0.205 F 
ATOM     83  C   UNL A   1      44.786  33.986  38.167  1.00  0.00     0.022 A 
BRANCH  81  84
ATOM     84  S   UNL A   1      42.216  33.086  38.377  1.00  0.00     0.127 S 
ATOM     85  O   UNL A   1      42.150  31.705  38.852  1.00  0.00    -0.237 OA
ATOM     86  O   UNL A   1      42.363  34.088  39.432  1.00  0.00    -0.237 OA
ATOM     87  O   UNL A   1      41.255  33.426  37.337  1.00  0.00    -0.744 OA
ENDBRANCH  81  84
ENDBRANCH  63  77
BRANCH  64  88
ATOM     88  C   UNL A   1      47.935  27.147  27.763  1.00  0.00     0.023 A 
ATOM     89  C   UNL A   1      49.185  27.293  27.128  1.00  0.00     0.012 A 
ATOM     90  C   UNL A   1      46.982  26.281  27.195  1.00  0.00     0.148 A 
ATOM     91  C   UNL A   1      49.460  26.636  25.926  1.00  0.00     0.002 A 
ATOM     92  C   UNL A   1      47.282  25.584  26.028  1.00  0.00     0.091 A 
ATOM     93  F   UNL A   1      45.788  26.166  27.795  1.00  0.00    -0.205 F 
ATOM     94  C   UNL A   1      48.511  25.776  25.380  1.00  0.00     0.022 A 
BRANCH  92  95
ATOM     95  S   UNL A   1      46.165  24.367  25.322  1.00  0.00     0.127 S 
ATOM     96  O   UNL A   1      45.951  23.466  26.451  1.00  0.00    -0.237 OA
ATOM     97  O   UNL A   1      45.008  25.188  24.961  1.00  0.00    -0.237 OA
ATOM     98  O   UNL A   1      46.876  23.803  24.183  1.00  0.00    -0.744 OA
ENDBRANCH  92  95
ENDBRANCH  64  88
BRANCH  76  99
ATOM     99  C   UNL A   1      45.341  33.554  28.739  1.00  0.00     0.023 A 
ATOM    100  C   UNL A   1      44.018  33.659  28.271  1.00  0.00     0.012 A 
ATOM    101  C   UNL A   1      46.285  34.541  28.389  1.00  0.00     0.148 A 
ATOM    102  C   UNL A   1      43.648  34.713  27.436  1.00  0.00     0.002 A 
ATOM    103  C   UNL A   1      45.895  35.616  27.602  1.00  0.00     0.091 A 
ATOM    104  F   UNL A   1      47.541  34.413  28.841  1.00  0.00    -0.205 F 
ATOM    105  C   UNL A   1      44.581  35.697  27.114  1.00  0.00     0.022 A 
BRANCH 103 106
ATOM    106  S   UNL A   1      46.998  36.982  27.226  1.00  0.00     0.127 S 
ATOM    107  O   UNL A   1      48.134  36.289  26.620  1.00  0.00    -0.237 OA
ATOM    108  O   UNL A   1      46.198  37.776  26.293  1.00  0.00    -0.237 OA
ATOM    109  O   UNL A   1      47.275  37.639  28.497  1.00  0.00    -0.744 OA
ENDBRANCH 103 106
ENDBRANCH  76  99
ENDBRANCH  50  51
ENDBRANCH  43  45
ENDBRANCH  42  43
ENDBRANCH  41  42
ENDBRANCH  40  41
ENDBRANCH  39  40
ENDBRANCH  38  39
ENDBRANCH  37  38
ENDBRANCH   1  37
TORSDOF 28
ENDMDL
MODEL 3
REMARK VINA RESULT:      -6.1      5.535     13.658
REMARK SMILES C=C[C@@H]1[C@@H](O)C[C@@H]2[C@@]3(CC[C@@]4(C)[C@@H]([C@H](C)CCC=C(C)C)CC[C@@]24C)C[C@@]13CCC(=O)OCCOCCOCCOC(=O)c1ccc(-c2c3nc(c(-c4cccc(S(=O)(=O)[O-])c4F)c4ccc([nH]4)c(-c4cccc(S(=O)(=O)[O-])c4F)c4nc(c(-c5cccc(S(=O)(=O)[O-])c5F)c5ccc2[nH]5)C=C4)C=C3)cc1
REMARK SMILES IDX 35 1 34 2 33 3 32 4 30 5 31 6 29 7 28 8 27 9 3 10 4 11 6 12
REMARK SMILES IDX 8 13 26 14 7 15 9 16 24 17 10 18 11 19 23 20 25 21 12 22
REMARK SMILES IDX 13 23 22 24 2 25 1 26 5 27 14 29 15 30 16 31 17 32 18 33
REMARK SMILES IDX 19 34 20 35 21 36 36 37 37 38 38 39 39 40 40 41 41 42 42 43
REMARK SMILES IDX 43 44 44 45 45 46 106 47 46 48 105 49 47 50 48 51 49 52
REMARK SMILES IDX 99 53 50 54 104 55 98 56 100 57 51 58 103 59 97 60 96 61
REMARK SMILES IDX 52 63 84 64 64 65 83 66 65 67 68 68 82 69 101 70 66 71 67 72
REMARK SMILES IDX 81 74 102 75 69 76 53 77 54 78 62 79 55 80 57 81 63 82 56 83
REMARK SMILES IDX 58 84 59 85 60 86 61 87 85 88 86 89 94 90 87 91 89 92 95 93
REMARK SMILES IDX 88 94 90 95 91 96 92 97 93 98 70 99 71 100 79 101 72 102
REMARK SMILES IDX 74 103 80 104 73 105 75 106 76 107 77 108 78 109
REMARK H PARENT 5 28 100 62 68 73
REMARK Flexibility Score: inf
ROOT
ATOM      1  O   UNL A   1      43.442  42.813  32.147  1.00  0.00    -0.376 OA
ENDROOT
BRANCH   1   2
ATOM      2  C   UNL A   1      43.392  42.729  33.557  1.00  0.00     0.202 C 
BRANCH   2   3
ATOM      3  C   UNL A   1      44.588  43.224  34.327  1.00  0.00     0.261 C 
BRANCH   3   4
ATOM      4  O   UNL A   1      44.918  42.153  35.099  1.00  0.00    -0.463 OA
BRANCH   4   5
ATOM      5  C   UNL A   1      44.278  41.777  36.201  1.00  0.00     0.305 C 
ATOM      6  O   UNL A   1      43.600  42.418  36.974  1.00  0.00    -0.252 OA
BRANCH   5   7
ATOM      7  C   UNL A   1      44.567  40.329  36.104  1.00  0.00     0.123 C 
BRANCH   7   8
ATOM      8  C   UNL A   1      44.972  39.813  37.567  1.00  0.00     0.020 C 
BRANCH   8   9
ATOM      9  C   UNL A   1      46.304  38.917  37.689  1.00  0.00    -0.014 C 
ATOM     10  C   UNL A   1      47.629  39.713  37.895  1.00  0.00     0.047 C 
ATOM     11  C   UNL A   1      48.830  39.085  37.100  1.00  0.00     0.122 C 
ATOM     12  C   UNL A   1      48.867  37.537  37.006  1.00  0.00     0.037 C 
ATOM     13  C   UNL A   1      46.366  37.294  37.184  1.00  0.00    -0.019 C 
ATOM     14  C   UNL A   1      46.284  37.764  38.635  1.00  0.00     0.016 C 
ATOM     15  C   UNL A   1      47.623  37.061  36.240  1.00  0.00     0.005 C 
ATOM     16  C   UNL A   1      45.225  36.271  37.011  1.00  0.00     0.008 C 
ATOM     17  C   UNL A   1      47.684  35.659  35.390  1.00  0.00    -0.023 C 
ATOM     18  C   UNL A   1      45.271  35.210  35.858  1.00  0.00     0.008 C 
ATOM     19  C   UNL A   1      46.312  35.246  34.662  1.00  0.00    -0.024 C 
ATOM     20  C   UNL A   1      48.609  35.690  34.146  1.00  0.00     0.008 C 
ATOM     21  C   UNL A   1      48.235  34.601  36.394  1.00  0.00     0.012 C 
ATOM     22  C   UNL A   1      46.314  33.700  34.245  1.00  0.00     0.012 C 
ATOM     23  C   UNL A   1      46.271  36.008  32.997  1.00  0.00    -0.002 C 
ATOM     24  C   UNL A   1      47.834  35.911  32.809  1.00  0.00     0.005 C 
BRANCH  10  25
ATOM     25  C   UNL A   1      47.634  41.227  37.715  1.00  0.00    -0.028 C 
ATOM     26  C   UNL A   1      47.284  42.149  38.627  1.00  0.00     0.004 C 
ENDBRANCH  10  25
BRANCH  11  27
ATOM     27  O   UNL A   1      50.077  39.510  37.671  1.00  0.00    -0.392 OA
ATOM     28  H   UNL A   1      50.779  38.893  37.412  1.00  0.00     0.210 HD
ENDBRANCH  11  27
BRANCH  23  29
ATOM     29  C   UNL A   1      45.821  37.477  31.959  1.00  0.00    -0.010 C 
ATOM     30  C   UNL A   1      46.603  38.330  30.825  1.00  0.00     0.008 C 
BRANCH  29  31
ATOM     31  C   UNL A   1      45.195  38.721  32.727  1.00  0.00     0.008 C 
BRANCH  31  32
ATOM     32  C   UNL A   1      43.692  38.481  33.272  1.00  0.00     0.027 C 
BRANCH  32  33
ATOM     33  C   UNL A   1      43.226  37.035  33.168  1.00  0.00    -0.028 C 
ATOM     34  C   UNL A   1      42.403  36.316  33.969  1.00  0.00    -0.080 C 
ATOM     35  C   UNL A   1      41.872  34.988  33.479  1.00  0.00     0.039 C 
ATOM     36  C   UNL A   1      41.889  36.699  35.333  1.00  0.00     0.039 C 
ENDBRANCH  32  33
ENDBRANCH  31  32
ENDBRANCH  29  31
ENDBRANCH  23  29
ENDBRANCH   8   9
ENDBRANCH   7   8
ENDBRANCH   5   7
ENDBRANCH   4   5
ENDBRANCH   3   4
ENDBRANCH   2   3
ENDBRANCH   1   2
BRANCH   1  37
ATOM     37  C   UNL A   1      43.708  44.147  31.737  1.00  0.00     0.188 C 
BRANCH  37  38
ATOM     38  C   UNL A   1      44.393  44.219  30.386  1.00  0.00     0.188 C 
BRANCH  38  39
ATOM     39  O   UNL A   1      44.537  42.961  29.720  1.00  0.00    -0.376 OA
BRANCH  39  40
ATOM     40  C   UNL A   1      45.249  43.035  28.498  1.00  0.00     0.202 C 
BRANCH  40  41
ATOM     41  C   UNL A   1      44.473  42.365  27.359  1.00  0.00     0.261 C 
BRANCH  41  42
ATOM     42  O   UNL A   1      43.875  41.126  27.776  1.00  0.00    -0.460 OA
BRANCH  42  43
ATOM     43  C   UNL A   1      43.695  40.191  26.800  1.00  0.00     0.338 C 
ATOM     44  O   UNL A   1      43.910  40.334  25.603  1.00  0.00    -0.246 OA
BRANCH  43  45
ATOM     45  C   UNL A   1      43.449  38.870  27.450  1.00  0.00     0.060 A 
ATOM     46  C   UNL A   1      43.556  38.768  28.851  1.00  0.00     0.016 A 
ATOM     47  C   UNL A   1      42.934  37.794  26.715  1.00  0.00     0.016 A 
ATOM     48  C   UNL A   1      43.202  37.582  29.505  1.00  0.00     0.010 A 
ATOM     49  C   UNL A   1      42.575  36.615  27.363  1.00  0.00     0.010 A 
ATOM     50  C   UNL A   1      42.778  36.482  28.749  1.00  0.00    -0.014 A 
BRANCH  50  51
ATOM     51  C   UNL A   1      42.991  35.101  29.248  1.00  0.00     0.031 A 
ATOM     52  C   UNL A   1      41.740  34.397  29.717  1.00  0.00     0.074 A 
ATOM     53  C   UNL A   1      44.204  34.543  29.400  1.00  0.00     0.049 A 
ATOM     54  N   UNL A   1      41.607  33.313  30.429  1.00  0.00    -0.248 NA
ATOM     55  C   UNL A   1      40.457  35.044  29.369  1.00  0.00     0.031 C 
ATOM     56  C   UNL A   1      45.477  35.126  28.984  1.00  0.00     0.029 A 
ATOM     57  N   UNL A   1      44.558  33.360  30.003  1.00  0.00    -0.354 N 
ATOM     58  C   UNL A   1      40.239  33.176  30.641  1.00  0.00     0.074 A 
ATOM     59  C   UNL A   1      39.583  34.297  30.017  1.00  0.00     0.031 C 
ATOM     60  C   UNL A   1      46.479  34.319  29.387  1.00  0.00     0.029 A 
ATOM     61  C   UNL A   1      45.918  33.185  30.120  1.00  0.00     0.049 A 
ATOM     62  H   UNL A   1      43.901  32.700  30.324  1.00  0.00     0.167 HD
ATOM     63  C   UNL A   1      39.577  32.191  31.285  1.00  0.00     0.034 A 
ATOM     64  C   UNL A   1      46.615  32.235  30.778  1.00  0.00     0.034 A 
ATOM     65  C   UNL A   1      40.231  31.074  31.894  1.00  0.00     0.049 A 
ATOM     66  C   UNL A   1      45.851  31.153  31.510  1.00  0.00     0.074 A 
ATOM     67  C   UNL A   1      39.668  30.004  32.559  1.00  0.00     0.029 A 
ATOM     68  N   UNL A   1      41.604  30.889  31.906  1.00  0.00    -0.354 N 
ATOM     69  N   UNL A   1      44.553  30.985  31.627  1.00  0.00    -0.248 NA
ATOM     70  C   UNL A   1      46.647  30.113  32.181  1.00  0.00     0.031 C 
ATOM     71  C   UNL A   1      40.706  29.173  32.987  1.00  0.00     0.029 A 
ATOM     72  C   UNL A   1      41.910  29.712  32.559  1.00  0.00     0.049 A 
ATOM     73  H   UNL A   1      42.262  31.504  31.508  1.00  0.00     0.167 HD
ATOM     74  C   UNL A   1      44.382  29.800  32.335  1.00  0.00     0.074 A 
ATOM     75  C   UNL A   1      45.706  29.282  32.607  1.00  0.00     0.031 C 
ATOM     76  C   UNL A   1      43.239  29.193  32.742  1.00  0.00     0.034 A 
BRANCH  63  77
ATOM     77  C   UNL A   1      38.075  32.268  31.318  1.00  0.00     0.023 A 
ATOM     78  C   UNL A   1      37.324  31.538  30.374  1.00  0.00     0.012 A 
ATOM     79  C   UNL A   1      37.409  33.031  32.295  1.00  0.00     0.148 A 
ATOM     80  C   UNL A   1      35.931  31.583  30.386  1.00  0.00     0.002 A 
ATOM     81  C   UNL A   1      36.019  33.032  32.332  1.00  0.00     0.091 A 
ATOM     82  F   UNL A   1      38.143  33.743  33.160  1.00  0.00    -0.205 F 
ATOM     83  C   UNL A   1      35.281  32.319  31.372  1.00  0.00     0.022 A 
BRANCH  81  84
ATOM     84  S   UNL A   1      35.081  33.885  33.602  1.00  0.00     0.127 S 
ATOM     85  O   UNL A   1      33.711  33.505  33.263  1.00  0.00    -0.237 OA
ATOM     86  O   UNL A   1      35.601  33.274  34.824  1.00  0.00    -0.237 OA
ATOM     87  O   UNL A   1      35.384  35.301  33.446  1.00  0.00    -0.744 OA
ENDBRANCH  81  84
ENDBRANCH  63  77
BRANCH  64  88
ATOM     88  C   UNL A   1      48.109  32.232  30.779  1.00  0.00     0.023 A 
ATOM     89  C   UNL A   1      48.803  32.768  31.883  1.00  0.00     0.012 A 
ATOM     90  C   UNL A   1      48.848  31.749  29.683  1.00  0.00     0.148 A 
ATOM     91  C   UNL A   1      50.196  32.870  31.874  1.00  0.00     0.002 A 
ATOM     92  C   UNL A   1      50.239  31.800  29.703  1.00  0.00     0.091 A 
ATOM     93  F   UNL A   1      48.178  31.262  28.628  1.00  0.00    -0.205 F 
ATOM     94  C   UNL A   1      50.914  32.378  30.788  1.00  0.00     0.022 A 
BRANCH  92  95
ATOM     95  S   UNL A   1      51.246  31.082  28.399  1.00  0.00     0.127 S 
ATOM     96  O   UNL A   1      52.598  31.360  28.878  1.00  0.00    -0.237 OA
ATOM     97  O   UNL A   1      50.851  29.673  28.451  1.00  0.00    -0.237 OA
ATOM     98  O   UNL A   1      50.847  31.770  27.179  1.00  0.00    -0.744 OA
ENDBRANCH  92  95
ENDBRANCH  64  88
BRANCH  76  99
ATOM     99  C   UNL A   1      43.358  27.872  33.453  1.00  0.00     0.023 A 
ATOM    100  C   UNL A   1      43.723  26.716  32.738  1.00  0.00     0.012 A 
ATOM    101  C   UNL A   1      43.201  27.807  34.852  1.00  0.00     0.148 A 
ATOM    102  C   UNL A   1      43.896  25.502  33.404  1.00  0.00     0.002 A 
ATOM    103  C   UNL A   1      43.428  26.608  35.514  1.00  0.00     0.091 A 
ATOM    104  F   UNL A   1      42.844  28.921  35.508  1.00  0.00    -0.205 F 
ATOM    105  C   UNL A   1      43.762  25.452  34.790  1.00  0.00     0.022 A 
BRANCH 103 106
ATOM    106  S   UNL A   1      43.384  26.473  37.303  1.00  0.00     0.127 S 
ATOM    107  O   UNL A   1      44.198  27.619  37.707  1.00  0.00    -0.237 OA
ATOM    108  O   UNL A   1      41.956  26.608  37.588  1.00  0.00    -0.237 OA
ATOM    109  O   UNL A   1      43.945  25.167  37.623  1.00  0.00    -0.744 OA
ENDBRANCH 103 106
ENDBRANCH  76  99
ENDBRANCH  50  51
ENDBRANCH  43  45
ENDBRANCH  42  43
ENDBRANCH  41  42
ENDBRANCH  40  41
ENDBRANCH  39  40
ENDBRANCH  38  39
ENDBRANCH  37  38
ENDBRANCH   1  37
TORSDOF 28
ENDMDL
