MODEL 1
REMARK VINA RESULT:      -9.6      0.000      0.000
REMARK SMILES COc1cccc(-c2ccc(C#N)c(SCC(=O)OCCOCCOCCOC(=O)c3ccc(-c4c5nc(c(-c6cccc(S(=O)(=O)[O-])c6F)c6ccc([nH]6)c(-c6cccc(S(=O)(=O)[O-])c6F)c6nc(c(-c7cccc(S(=O)(=O)[O-])c7F)c7ccc4[nH]7)C=C6)C=C5)cc3)n2)c1
REMARK SMILES IDX 23 1 22 2 21 3 20 4 19 5 17 6 18 7 16 8 15 9 14 10 8 11 9 12
REMARK SMILES IDX 94 13 10 14 11 15 7 16 3 17 4 18 95 19 5 20 6 21 2 22 1 23
REMARK SMILES IDX 12 24 13 25 24 26 25 27 26 28 27 29 28 30 29 31 30 32 31 33
REMARK SMILES IDX 32 34 93 35 33 36 92 37 34 38 35 39 36 40 86 41 37 42 91 43
REMARK SMILES IDX 85 44 87 45 38 46 90 47 84 48 83 49 39 51 71 52 51 53 70 54
REMARK SMILES IDX 52 55 55 56 69 57 88 58 53 59 54 60 68 62 89 63 56 64 40 65
REMARK SMILES IDX 41 66 49 67 42 68 44 69 50 70 43 71 45 72 46 73 47 74 48 75
REMARK SMILES IDX 72 76 73 77 81 78 74 79 76 80 82 81 75 82 77 83 78 84 79 85
REMARK SMILES IDX 80 86 57 87 58 88 66 89 59 90 61 91 67 92 60 93 62 94 63 95
REMARK SMILES IDX 64 96 65 97
REMARK H PARENT 87 50 55 61
REMARK Flexibility Score: inf
ROOT
ATOM      1  C   UNL A   1      33.692  21.811  25.790  1.00  0.00     0.188 C 
ENDROOT
BRANCH   1   2
ATOM      2  O   UNL A   1      33.225  23.024  25.236  1.00  0.00    -0.376 OA
BRANCH   2   3
ATOM      3  C   UNL A   1      32.264  22.982  24.193  1.00  0.00     0.202 C 
BRANCH   3   4
ATOM      4  C   UNL A   1      32.668  23.385  22.762  1.00  0.00     0.261 C 
BRANCH   4   5
ATOM      5  O   UNL A   1      32.034  24.575  22.218  1.00  0.00    -0.463 OA
BRANCH   5   6
ATOM      6  C   UNL A   1      32.828  25.423  21.513  1.00  0.00     0.316 C 
ATOM      7  O   UNL A   1      32.964  25.345  20.292  1.00  0.00    -0.251 OA
BRANCH   6   8
ATOM      8  C   UNL A   1      33.629  26.452  22.302  1.00  0.00     0.199 C 
BRANCH   8   9
ATOM      9  S   UNL A   1      32.882  28.047  22.818  1.00  0.00    -0.093 SA
BRANCH   9  10
ATOM     10  C   UNL A   1      32.504  28.072  24.593  1.00  0.00     0.115 A 
ATOM     11  C   UNL A   1      33.361  28.941  26.634  1.00  0.00     0.072 A 
ATOM     12  C   UNL A   1      32.420  28.246  27.374  1.00  0.00     0.030 A 
ATOM     13  N   UNL A   1      33.405  28.867  25.272  1.00  0.00    -0.240 NA
ATOM     14  C   UNL A   1      31.454  27.527  26.698  1.00  0.00     0.024 A 
ATOM     15  C   UNL A   1      31.490  27.416  25.297  1.00  0.00     0.084 A 
BRANCH  11  16
ATOM     16  C   UNL A   1      34.168  29.948  27.347  1.00  0.00     0.004 A 
ATOM     17  C   UNL A   1      34.609  32.268  27.971  1.00  0.00     0.119 A 
ATOM     18  C   UNL A   1      35.968  31.970  28.103  1.00  0.00     0.046 A 
ATOM     19  C   UNL A   1      33.710  31.259  27.596  1.00  0.00     0.056 A 
ATOM     20  C   UNL A   1      36.432  30.674  27.904  1.00  0.00     0.005 A 
ATOM     21  C   UNL A   1      35.536  29.672  27.539  1.00  0.00     0.010 A 
BRANCH  17  22
ATOM     22  O   UNL A   1      34.322  33.593  28.155  1.00  0.00    -0.497 OA
ATOM     23  C   UNL A   1      35.089  34.296  29.120  1.00  0.00     0.278 C 
ENDBRANCH  17  22
ENDBRANCH  11  16
BRANCH  15  24
ATOM     24  C   UNL A   1      30.489  26.566  24.739  1.00  0.00     0.102 C 
ATOM     25  N   UNL A   1      29.635  25.881  24.374  1.00  0.00    -0.192 NA
ENDBRANCH  15  24
ENDBRANCH   9  10
ENDBRANCH   8   9
ENDBRANCH   6   8
ENDBRANCH   5   6
ENDBRANCH   4   5
ENDBRANCH   3   4
ENDBRANCH   2   3
ENDBRANCH   1   2
BRANCH   1  26
ATOM     26  C   UNL A   1      34.938  21.148  25.182  1.00  0.00     0.188 C 
BRANCH  26  27
ATOM     27  O   UNL A   1      36.084  21.938  25.037  1.00  0.00    -0.376 OA
BRANCH  27  28
ATOM     28  C   UNL A   1      37.299  21.338  24.638  1.00  0.00     0.202 C 
BRANCH  28  29
ATOM     29  C   UNL A   1      38.357  20.780  25.609  1.00  0.00     0.261 C 
BRANCH  29  30
ATOM     30  O   UNL A   1      39.632  21.435  25.673  1.00  0.00    -0.460 OA
BRANCH  30  31
ATOM     31  C   UNL A   1      40.163  21.559  26.912  1.00  0.00     0.338 C 
ATOM     32  O   UNL A   1      40.475  20.651  27.665  1.00  0.00    -0.246 OA
BRANCH  31  33
ATOM     33  C   UNL A   1      40.395  22.974  27.264  1.00  0.00     0.060 A 
ATOM     34  C   UNL A   1      39.779  24.004  26.548  1.00  0.00     0.016 A 
ATOM     35  C   UNL A   1      41.419  23.273  28.155  1.00  0.00     0.016 A 
ATOM     36  C   UNL A   1      40.245  25.311  26.635  1.00  0.00     0.010 A 
ATOM     37  C   UNL A   1      41.842  24.597  28.293  1.00  0.00     0.010 A 
ATOM     38  C   UNL A   1      41.294  25.620  27.497  1.00  0.00    -0.014 A 
BRANCH  38  39
ATOM     39  C   UNL A   1      41.892  26.978  27.522  1.00  0.00     0.031 A 
ATOM     40  C   UNL A   1      43.247  27.183  26.906  1.00  0.00     0.074 A 
ATOM     41  C   UNL A   1      41.258  28.004  28.121  1.00  0.00     0.049 A 
ATOM     42  N   UNL A   1      44.109  28.143  27.101  1.00  0.00    -0.248 NA
ATOM     43  C   UNL A   1      43.696  26.156  25.948  1.00  0.00     0.031 C 
ATOM     44  C   UNL A   1      39.895  27.974  28.654  1.00  0.00     0.029 A 
ATOM     45  N   UNL A   1      41.706  29.267  28.426  1.00  0.00    -0.354 N 
ATOM     46  C   UNL A   1      45.238  27.789  26.372  1.00  0.00     0.074 A 
ATOM     47  C   UNL A   1      44.939  26.546  25.698  1.00  0.00     0.031 C 
ATOM     48  C   UNL A   1      39.629  29.145  29.248  1.00  0.00     0.029 A 
ATOM     49  C   UNL A   1      40.836  29.959  29.239  1.00  0.00     0.049 A 
ATOM     50  H   UNL A   1      42.558  29.637  28.099  1.00  0.00     0.167 HD
ATOM     51  C   UNL A   1      46.423  28.440  26.301  1.00  0.00     0.034 A 
ATOM     52  C   UNL A   1      41.022  31.070  29.977  1.00  0.00     0.034 A 
ATOM     53  C   UNL A   1      46.679  29.691  26.963  1.00  0.00     0.049 A 
ATOM     54  C   UNL A   1      42.369  31.737  29.948  1.00  0.00     0.074 A 
ATOM     55  C   UNL A   1      47.834  30.450  26.955  1.00  0.00     0.029 A 
ATOM     56  N   UNL A   1      45.762  30.363  27.760  1.00  0.00    -0.354 N 
ATOM     57  N   UNL A   1      43.444  31.391  29.283  1.00  0.00    -0.248 NA
ATOM     58  C   UNL A   1      42.528  32.950  30.761  1.00  0.00     0.031 C 
ATOM     59  C   UNL A   1      47.634  31.554  27.789  1.00  0.00     0.029 A 
ATOM     60  C   UNL A   1      46.329  31.519  28.258  1.00  0.00     0.049 A 
ATOM     61  H   UNL A   1      44.843  30.059  27.942  1.00  0.00     0.167 HD
ATOM     62  C   UNL A   1      44.389  32.372  29.553  1.00  0.00     0.074 A 
ATOM     63  C   UNL A   1      43.761  33.323  30.448  1.00  0.00     0.031 C 
ATOM     64  C   UNL A   1      45.661  32.479  29.098  1.00  0.00     0.034 A 
BRANCH  51  65
ATOM     65  C   UNL A   1      47.544  27.797  25.526  1.00  0.00     0.023 A 
ATOM     66  C   UNL A   1      47.568  27.849  24.119  1.00  0.00     0.012 A 
ATOM     67  C   UNL A   1      48.610  27.176  26.212  1.00  0.00     0.148 A 
ATOM     68  C   UNL A   1      48.614  27.261  23.407  1.00  0.00     0.002 A 
ATOM     69  C   UNL A   1      49.672  26.640  25.498  1.00  0.00     0.091 A 
ATOM     70  F   UNL A   1      48.559  27.121  27.551  1.00  0.00    -0.205 F 
ATOM     71  C   UNL A   1      49.670  26.668  24.095  1.00  0.00     0.022 A 
BRANCH  69  72
ATOM     72  S   UNL A   1      51.115  25.927  26.297  1.00  0.00     0.127 S 
ATOM     73  O   UNL A   1      51.946  25.577  25.146  1.00  0.00    -0.237 OA
ATOM     74  O   UNL A   1      51.613  27.052  27.088  1.00  0.00    -0.237 OA
ATOM     75  O   UNL A   1      50.630  24.798  27.078  1.00  0.00    -0.744 OA
ENDBRANCH  69  72
ENDBRANCH  51  65
BRANCH  52  76
ATOM     76  C   UNL A   1      39.921  31.589  30.836  1.00  0.00     0.023 A 
ATOM     77  C   UNL A   1      38.953  32.448  30.281  1.00  0.00     0.012 A 
ATOM     78  C   UNL A   1      39.813  31.217  32.192  1.00  0.00     0.148 A 
ATOM     79  C   UNL A   1      37.916  32.951  31.068  1.00  0.00     0.002 A 
ATOM     80  C   UNL A   1      38.745  31.674  32.954  1.00  0.00     0.091 A 
ATOM     81  F   UNL A   1      40.750  30.408  32.704  1.00  0.00    -0.205 F 
ATOM     82  C   UNL A   1      37.805  32.556  32.399  1.00  0.00     0.022 A 
BRANCH  80  83
ATOM     83  S   UNL A   1      38.453  31.119  34.637  1.00  0.00     0.127 S 
ATOM     84  O   UNL A   1      38.114  29.712  34.432  1.00  0.00    -0.237 OA
ATOM     85  O   UNL A   1      39.755  31.355  35.260  1.00  0.00    -0.237 OA
ATOM     86  O   UNL A   1      37.378  31.957  35.149  1.00  0.00    -0.744 OA
ENDBRANCH  80  83
ENDBRANCH  52  76
BRANCH  64  87
ATOM     87  C   UNL A   1      46.436  33.715  29.464  1.00  0.00     0.023 A 
ATOM     88  C   UNL A   1      47.277  33.731  30.592  1.00  0.00     0.012 A 
ATOM     89  C   UNL A   1      46.407  34.829  28.599  1.00  0.00     0.148 A 
ATOM     90  C   UNL A   1      48.066  34.848  30.863  1.00  0.00     0.002 A 
ATOM     91  C   UNL A   1      47.238  35.911  28.843  1.00  0.00     0.091 A 
ATOM     92  F   UNL A   1      45.581  34.794  27.543  1.00  0.00    -0.205 F 
ATOM     93  C   UNL A   1      48.060  35.928  29.983  1.00  0.00     0.022 A 
BRANCH  91  94
ATOM     94  S   UNL A   1      47.377  37.292  27.706  1.00  0.00     0.127 S 
ATOM     95  O   UNL A   1      47.570  36.606  26.428  1.00  0.00    -0.237 OA
ATOM     96  O   UNL A   1      46.079  37.947  27.859  1.00  0.00    -0.237 OA
ATOM     97  O   UNL A   1      48.514  38.081  28.160  1.00  0.00    -0.744 OA
ENDBRANCH  91  94
ENDBRANCH  64  87
ENDBRANCH  38  39
ENDBRANCH  31  33
ENDBRANCH  30  31
ENDBRANCH  29  30
ENDBRANCH  28  29
ENDBRANCH  27  28
ENDBRANCH  26  27
ENDBRANCH   1  26
TORSDOF 25
ENDMDL
MODEL 2
REMARK VINA RESULT:      -9.4      2.513      2.839
REMARK SMILES COc1cccc(-c2ccc(C#N)c(SCC(=O)OCCOCCOCCOC(=O)c3ccc(-c4c5nc(c(-c6cccc(S(=O)(=O)[O-])c6F)c6ccc([nH]6)c(-c6cccc(S(=O)(=O)[O-])c6F)c6nc(c(-c7cccc(S(=O)(=O)[O-])c7F)c7ccc4[nH]7)C=C6)C=C5)cc3)n2)c1
REMARK SMILES IDX 23 1 22 2 21 3 20 4 19 5 17 6 18 7 16 8 15 9 14 10 8 11 9 12
REMARK SMILES IDX 94 13 10 14 11 15 7 16 3 17 4 18 95 19 5 20 6 21 2 22 1 23
REMARK SMILES IDX 12 24 13 25 24 26 25 27 26 28 27 29 28 30 29 31 30 32 31 33
REMARK SMILES IDX 32 34 93 35 33 36 92 37 34 38 35 39 36 40 86 41 37 42 91 43
REMARK SMILES IDX 85 44 87 45 38 46 90 47 84 48 83 49 39 51 71 52 51 53 70 54
REMARK SMILES IDX 52 55 55 56 69 57 88 58 53 59 54 60 68 62 89 63 56 64 40 65
REMARK SMILES IDX 41 66 49 67 42 68 44 69 50 70 43 71 45 72 46 73 47 74 48 75
REMARK SMILES IDX 72 76 73 77 81 78 74 79 76 80 82 81 75 82 77 83 78 84 79 85
REMARK SMILES IDX 80 86 57 87 58 88 66 89 59 90 61 91 67 92 60 93 62 94 63 95
REMARK SMILES IDX 64 96 65 97
REMARK H PARENT 87 50 55 61
REMARK Flexibility Score: inf
ROOT
ATOM      1  C   UNL A   1      32.822  22.466  26.471  1.00  0.00     0.188 C 
ENDROOT
BRANCH   1   2
ATOM      2  O   UNL A   1      32.478  23.563  25.648  1.00  0.00    -0.376 OA
BRANCH   2   3
ATOM      3  C   UNL A   1      31.508  23.383  24.628  1.00  0.00     0.202 C 
BRANCH   3   4
ATOM      4  C   UNL A   1      31.947  23.364  23.151  1.00  0.00     0.261 C 
BRANCH   4   5
ATOM      5  O   UNL A   1      31.753  24.594  22.400  1.00  0.00    -0.463 OA
BRANCH   5   6
ATOM      6  C   UNL A   1      32.855  25.138  21.821  1.00  0.00     0.316 C 
ATOM      7  O   UNL A   1      33.206  24.867  20.674  1.00  0.00    -0.251 OA
BRANCH   6   8
ATOM      8  C   UNL A   1      33.714  26.058  22.681  1.00  0.00     0.199 C 
BRANCH   8   9
ATOM      9  S   UNL A   1      33.202  27.786  23.031  1.00  0.00    -0.093 SA
BRANCH   9  10
ATOM     10  C   UNL A   1      32.684  28.000  24.756  1.00  0.00     0.115 A 
ATOM     11  C   UNL A   1      33.499  28.864  26.818  1.00  0.00     0.072 A 
ATOM     12  C   UNL A   1      32.395  28.385  27.502  1.00  0.00     0.030 A 
ATOM     13  N   UNL A   1      33.645  28.685  25.472  1.00  0.00    -0.240 NA
ATOM     14  C   UNL A   1      31.382  27.785  26.779  1.00  0.00     0.024 A 
ATOM     15  C   UNL A   1      31.518  27.569  25.397  1.00  0.00     0.084 A 
BRANCH  11  16
ATOM     16  C   UNL A   1      34.400  29.775  27.545  1.00  0.00     0.004 A 
ATOM     17  C   UNL A   1      35.003  32.019  28.299  1.00  0.00     0.119 A 
ATOM     18  C   UNL A   1      36.349  31.644  28.325  1.00  0.00     0.046 A 
ATOM     19  C   UNL A   1      34.029  31.085  27.912  1.00  0.00     0.056 A 
ATOM     20  C   UNL A   1      36.729  30.345  28.008  1.00  0.00     0.005 A 
ATOM     21  C   UNL A   1      35.760  29.417  27.632  1.00  0.00     0.010 A 
BRANCH  17  22
ATOM     22  O   UNL A   1      34.800  33.340  28.591  1.00  0.00    -0.497 OA
ATOM     23  C   UNL A   1      33.621  33.944  28.084  1.00  0.00     0.278 C 
ENDBRANCH  17  22
ENDBRANCH  11  16
BRANCH  15  24
ATOM     24  C   UNL A   1      30.439  26.855  24.795  1.00  0.00     0.102 C 
ATOM     25  N   UNL A   1      29.525  26.362  24.294  1.00  0.00    -0.192 NA
ENDBRANCH  15  24
ENDBRANCH   9  10
ENDBRANCH   8   9
ENDBRANCH   6   8
ENDBRANCH   5   6
ENDBRANCH   4   5
ENDBRANCH   3   4
ENDBRANCH   2   3
ENDBRANCH   1   2
BRANCH   1  26
ATOM     26  C   UNL A   1      33.924  21.504  26.001  1.00  0.00     0.188 C 
BRANCH  26  27
ATOM     27  O   UNL A   1      34.764  21.939  24.970  1.00  0.00    -0.376 OA
BRANCH  27  28
ATOM     28  C   UNL A   1      35.970  21.249  24.714  1.00  0.00     0.202 C 
BRANCH  28  29
ATOM     29  C   UNL A   1      37.156  21.173  25.695  1.00  0.00     0.261 C 
BRANCH  29  30
ATOM     30  O   UNL A   1      38.453  21.566  25.223  1.00  0.00    -0.460 OA
BRANCH  30  31
ATOM     31  C   UNL A   1      39.457  21.466  26.125  1.00  0.00     0.338 C 
ATOM     32  O   UNL A   1      40.094  20.462  26.399  1.00  0.00    -0.246 OA
BRANCH  31  33
ATOM     33  C   UNL A   1      39.767  22.773  26.739  1.00  0.00     0.060 A 
ATOM     34  C   UNL A   1      39.216  23.953  26.234  1.00  0.00     0.016 A 
ATOM     35  C   UNL A   1      40.800  22.838  27.667  1.00  0.00     0.016 A 
ATOM     36  C   UNL A   1      39.755  25.192  26.566  1.00  0.00     0.010 A 
ATOM     37  C   UNL A   1      41.296  24.085  28.053  1.00  0.00     0.010 A 
ATOM     38  C   UNL A   1      40.813  25.271  27.468  1.00  0.00    -0.014 A 
BRANCH  38  39
ATOM     39  C   UNL A   1      41.487  26.562  27.749  1.00  0.00     0.031 A 
ATOM     40  C   UNL A   1      42.869  26.790  27.204  1.00  0.00     0.074 A 
ATOM     41  C   UNL A   1      40.897  27.501  28.512  1.00  0.00     0.049 A 
ATOM     42  N   UNL A   1      43.779  27.644  27.585  1.00  0.00    -0.248 NA
ATOM     43  C   UNL A   1      43.286  25.927  26.085  1.00  0.00     0.031 C 
ATOM     44  C   UNL A   1      39.520  27.460  29.007  1.00  0.00     0.029 A 
ATOM     45  N   UNL A   1      41.408  28.659  29.049  1.00  0.00    -0.354 N 
ATOM     46  C   UNL A   1      44.906  27.359  26.824  1.00  0.00     0.074 A 
ATOM     47  C   UNL A   1      44.555  26.277  25.931  1.00  0.00     0.031 C 
ATOM     48  C   UNL A   1      39.304  28.520  29.799  1.00  0.00     0.029 A 
ATOM     49  C   UNL A   1      40.557  29.245  29.958  1.00  0.00     0.049 A 
ATOM     50  H   UNL A   1      42.289  29.028  28.809  1.00  0.00     0.167 HD
ATOM     51  C   UNL A   1      46.129  27.938  26.892  1.00  0.00     0.034 A 
ATOM     52  C   UNL A   1      40.785  30.193  30.888  1.00  0.00     0.034 A 
ATOM     53  C   UNL A   1      46.436  29.031  27.775  1.00  0.00     0.049 A 
ATOM     54  C   UNL A   1      42.168  30.769  31.004  1.00  0.00     0.074 A 
ATOM     55  C   UNL A   1      47.633  29.706  27.925  1.00  0.00     0.029 A 
ATOM     56  N   UNL A   1      45.538  29.604  28.663  1.00  0.00    -0.354 N 
ATOM     57  N   UNL A   1      43.240  30.483  30.307  1.00  0.00    -0.248 NA
ATOM     58  C   UNL A   1      42.374  31.804  32.026  1.00  0.00     0.031 C 
ATOM     59  C   UNL A   1      47.473  30.653  28.940  1.00  0.00     0.029 A 
ATOM     60  C   UNL A   1      46.156  30.615  29.373  1.00  0.00     0.049 A 
ATOM     61  H   UNL A   1      44.598  29.330  28.772  1.00  0.00     0.167 HD
ATOM     62  C   UNL A   1      44.232  31.339  30.766  1.00  0.00     0.074 A 
ATOM     63  C   UNL A   1      43.634  32.151  31.807  1.00  0.00     0.031 C 
ATOM     64  C   UNL A   1      45.521  31.448  30.361  1.00  0.00     0.034 A 
BRANCH  51  65
ATOM     65  C   UNL A   1      47.232  27.376  26.034  1.00  0.00     0.023 A 
ATOM     66  C   UNL A   1      48.112  26.402  26.542  1.00  0.00     0.012 A 
ATOM     67  C   UNL A   1      47.360  27.788  24.691  1.00  0.00     0.148 A 
ATOM     68  C   UNL A   1      49.126  25.876  25.739  1.00  0.00     0.002 A 
ATOM     69  C   UNL A   1      48.338  27.222  23.884  1.00  0.00     0.091 A 
ATOM     70  F   UNL A   1      46.524  28.730  24.231  1.00  0.00    -0.205 F 
ATOM     71  C   UNL A   1      49.231  26.277  24.410  1.00  0.00     0.022 A 
BRANCH  69  72
ATOM     72  S   UNL A   1      48.501  27.615  22.138  1.00  0.00     0.127 S 
ATOM     73  O   UNL A   1      48.736  26.293  21.560  1.00  0.00    -0.237 OA
ATOM     74  O   UNL A   1      47.191  28.190  21.832  1.00  0.00    -0.237 OA
ATOM     75  O   UNL A   1      49.616  28.546  22.034  1.00  0.00    -0.744 OA
ENDBRANCH  69  72
ENDBRANCH  51  65
BRANCH  52  76
ATOM     76  C   UNL A   1      39.691  30.616  31.807  1.00  0.00     0.023 A 
ATOM     77  C   UNL A   1      39.345  29.798  32.898  1.00  0.00     0.012 A 
ATOM     78  C   UNL A   1      39.009  31.837  31.619  1.00  0.00     0.148 A 
ATOM     79  C   UNL A   1      38.319  30.171  33.768  1.00  0.00     0.002 A 
ATOM     80  C   UNL A   1      38.031  32.231  32.524  1.00  0.00     0.091 A 
ATOM     81  F   UNL A   1      39.346  32.597  30.568  1.00  0.00    -0.205 F 
ATOM     82  C   UNL A   1      37.671  31.390  33.589  1.00  0.00     0.022 A 
BRANCH  80  83
ATOM     83  S   UNL A   1      37.232  33.837  32.443  1.00  0.00     0.127 S 
ATOM     84  O   UNL A   1      38.329  34.733  32.804  1.00  0.00    -0.237 OA
ATOM     85  O   UNL A   1      36.823  33.898  31.040  1.00  0.00    -0.237 OA
ATOM     86  O   UNL A   1      36.129  33.780  33.391  1.00  0.00    -0.744 OA
ENDBRANCH  80  83
ENDBRANCH  52  76
BRANCH  64  87
ATOM     87  C   UNL A   1      46.355  32.548  30.958  1.00  0.00     0.023 A 
ATOM     88  C   UNL A   1      46.353  33.838  30.398  1.00  0.00     0.012 A 
ATOM     89  C   UNL A   1      47.052  32.309  32.160  1.00  0.00     0.148 A 
ATOM     90  C   UNL A   1      47.051  34.874  31.020  1.00  0.00     0.002 A 
ATOM     91  C   UNL A   1      47.694  33.356  32.802  1.00  0.00     0.091 A 
ATOM     92  F   UNL A   1      47.053  31.064  32.660  1.00  0.00    -0.205 F 
ATOM     93  C   UNL A   1      47.706  34.637  32.227  1.00  0.00     0.022 A 
BRANCH  91  94
ATOM     94  S   UNL A   1      48.465  33.168  34.412  1.00  0.00     0.127 S 
ATOM     95  O   UNL A   1      47.333  32.744  35.236  1.00  0.00    -0.237 OA
ATOM     96  O   UNL A   1      49.459  32.127  34.156  1.00  0.00    -0.237 OA
ATOM     97  O   UNL A   1      49.021  34.471  34.752  1.00  0.00    -0.744 OA
ENDBRANCH  91  94
ENDBRANCH  64  87
ENDBRANCH  38  39
ENDBRANCH  31  33
ENDBRANCH  30  31
ENDBRANCH  29  30
ENDBRANCH  28  29
ENDBRANCH  27  28
ENDBRANCH  26  27
ENDBRANCH   1  26
TORSDOF 25
ENDMDL
MODEL 3
REMARK VINA RESULT:      -8.5      1.914      2.405
REMARK SMILES COc1cccc(-c2ccc(C#N)c(SCC(=O)OCCOCCOCCOC(=O)c3ccc(-c4c5nc(c(-c6cccc(S(=O)(=O)[O-])c6F)c6ccc([nH]6)c(-c6cccc(S(=O)(=O)[O-])c6F)c6nc(c(-c7cccc(S(=O)(=O)[O-])c7F)c7ccc4[nH]7)C=C6)C=C5)cc3)n2)c1
REMARK SMILES IDX 23 1 22 2 21 3 20 4 19 5 17 6 18 7 16 8 15 9 14 10 8 11 9 12
REMARK SMILES IDX 94 13 10 14 11 15 7 16 3 17 4 18 95 19 5 20 6 21 2 22 1 23
REMARK SMILES IDX 12 24 13 25 24 26 25 27 26 28 27 29 28 30 29 31 30 32 31 33
REMARK SMILES IDX 32 34 93 35 33 36 92 37 34 38 35 39 36 40 86 41 37 42 91 43
REMARK SMILES IDX 85 44 87 45 38 46 90 47 84 48 83 49 39 51 71 52 51 53 70 54
REMARK SMILES IDX 52 55 55 56 69 57 88 58 53 59 54 60 68 62 89 63 56 64 40 65
REMARK SMILES IDX 41 66 49 67 42 68 44 69 50 70 43 71 45 72 46 73 47 74 48 75
REMARK SMILES IDX 72 76 73 77 81 78 74 79 76 80 82 81 75 82 77 83 78 84 79 85
REMARK SMILES IDX 80 86 57 87 58 88 66 89 59 90 61 91 67 92 60 93 62 94 63 95
REMARK SMILES IDX 64 96 65 97
REMARK H PARENT 87 50 55 61
REMARK Flexibility Score: inf
ROOT
ATOM      1  C   UNL A   1      32.483  22.627  27.317  1.00  0.00     0.188 C 
ENDROOT
BRANCH   1   2
ATOM      2  O   UNL A   1      31.868  23.647  26.556  1.00  0.00    -0.376 OA
BRANCH   2   3
ATOM      3  C   UNL A   1      30.990  23.286  25.501  1.00  0.00     0.202 C 
BRANCH   3   4
ATOM      4  C   UNL A   1      31.567  22.869  24.134  1.00  0.00     0.261 C 
BRANCH   4   5
ATOM      5  O   UNL A   1      31.744  23.928  23.154  1.00  0.00    -0.463 OA
BRANCH   5   6
ATOM      6  C   UNL A   1      33.010  24.147  22.712  1.00  0.00     0.316 C 
ATOM      7  O   UNL A   1      33.507  23.515  21.781  1.00  0.00    -0.251 OA
BRANCH   6   8
ATOM      8  C   UNL A   1      33.850  25.168  23.471  1.00  0.00     0.199 C 
BRANCH   8   9
ATOM      9  S   UNL A   1      33.489  26.965  23.364  1.00  0.00    -0.093 SA
BRANCH   9  10
ATOM     10  C   UNL A   1      32.836  27.616  24.927  1.00  0.00     0.115 A 
ATOM     11  C   UNL A   1      33.551  28.828  26.845  1.00  0.00     0.072 A 
ATOM     12  C   UNL A   1      32.331  28.637  27.471  1.00  0.00     0.030 A 
ATOM     13  N   UNL A   1      33.804  28.337  25.597  1.00  0.00    -0.240 NA
ATOM     14  C   UNL A   1      31.325  28.002  26.770  1.00  0.00     0.024 A 
ATOM     15  C   UNL A   1      31.567  27.468  25.493  1.00  0.00     0.084 A 
BRANCH  11  16
ATOM     16  C   UNL A   1      34.488  29.777  27.471  1.00  0.00     0.004 A 
ATOM     17  C   UNL A   1      35.306  32.055  27.802  1.00  0.00     0.119 A 
ATOM     18  C   UNL A   1      36.581  31.553  28.076  1.00  0.00     0.046 A 
ATOM     19  C   UNL A   1      34.261  31.169  27.502  1.00  0.00     0.056 A 
ATOM     20  C   UNL A   1      36.815  30.183  28.092  1.00  0.00     0.005 A 
ATOM     21  C   UNL A   1      35.773  29.304  27.802  1.00  0.00     0.010 A 
BRANCH  17  22
ATOM     22  O   UNL A   1      35.253  33.422  27.779  1.00  0.00    -0.497 OA
ATOM     23  C   UNL A   1      34.147  34.040  28.417  1.00  0.00     0.278 C 
ENDBRANCH  17  22
ENDBRANCH  11  16
BRANCH  15  24
ATOM     24  C   UNL A   1      30.467  26.756  24.925  1.00  0.00     0.102 C 
ATOM     25  N   UNL A   1      29.526  26.209  24.543  1.00  0.00    -0.192 NA
ENDBRANCH  15  24
ENDBRANCH   9  10
ENDBRANCH   8   9
ENDBRANCH   6   8
ENDBRANCH   5   6
ENDBRANCH   4   5
ENDBRANCH   3   4
ENDBRANCH   2   3
ENDBRANCH   1   2
BRANCH   1  26
ATOM     26  C   UNL A   1      34.015  22.512  27.302  1.00  0.00     0.188 C 
BRANCH  26  27
ATOM     27  O   UNL A   1      34.723  23.417  26.503  1.00  0.00    -0.376 OA
BRANCH  27  28
ATOM     28  C   UNL A   1      35.996  23.061  26.007  1.00  0.00     0.202 C 
BRANCH  28  29
ATOM     29  C   UNL A   1      37.302  23.813  26.334  1.00  0.00     0.261 C 
BRANCH  29  30
ATOM     30  O   UNL A   1      38.512  23.380  25.696  1.00  0.00    -0.460 OA
BRANCH  30  31
ATOM     31  C   UNL A   1      39.448  22.852  26.519  1.00  0.00     0.338 C 
ATOM     32  O   UNL A   1      39.477  21.711  26.953  1.00  0.00    -0.246 OA
BRANCH  31  33
ATOM     33  C   UNL A   1      40.522  23.822  26.814  1.00  0.00     0.060 A 
ATOM     34  C   UNL A   1      41.099  23.891  28.085  1.00  0.00     0.016 A 
ATOM     35  C   UNL A   1      40.781  24.823  25.886  1.00  0.00     0.016 A 
ATOM     36  C   UNL A   1      41.843  25.000  28.472  1.00  0.00     0.010 A 
ATOM     37  C   UNL A   1      41.586  25.905  26.252  1.00  0.00     0.010 A 
ATOM     38  C   UNL A   1      42.081  26.029  27.564  1.00  0.00    -0.014 A 
BRANCH  38  39
ATOM     39  C   UNL A   1      42.766  27.277  27.981  1.00  0.00     0.031 A 
ATOM     40  C   UNL A   1      44.269  27.299  28.019  1.00  0.00     0.074 A 
ATOM     41  C   UNL A   1      42.063  28.361  28.361  1.00  0.00     0.049 A 
ATOM     42  N   UNL A   1      45.069  28.107  28.658  1.00  0.00    -0.248 NA
ATOM     43  C   UNL A   1      44.962  26.259  27.238  1.00  0.00     0.031 C 
ATOM     44  C   UNL A   1      40.611  28.516  28.263  1.00  0.00     0.029 A 
ATOM     45  N   UNL A   1      42.483  29.526  28.957  1.00  0.00    -0.354 N 
ATOM     46  C   UNL A   1      46.352  27.618  28.440  1.00  0.00     0.074 A 
ATOM     47  C   UNL A   1      46.227  26.465  27.577  1.00  0.00     0.031 C 
ATOM     48  C   UNL A   1      40.256  29.687  28.809  1.00  0.00     0.029 A 
ATOM     49  C   UNL A   1      41.436  30.306  29.395  1.00  0.00     0.049 A 
ATOM     50  H   UNL A   1      43.430  29.776  29.059  1.00  0.00     0.167 HD
ATOM     51  C   UNL A   1      47.520  28.083  28.943  1.00  0.00     0.034 A 
ATOM     52  C   UNL A   1      41.416  31.344  30.254  1.00  0.00     0.034 A 
ATOM     53  C   UNL A   1      47.611  29.250  29.778  1.00  0.00     0.049 A 
ATOM     54  C   UNL A   1      42.712  31.798  30.865  1.00  0.00     0.074 A 
ATOM     55  C   UNL A   1      48.737  29.824  30.337  1.00  0.00     0.029 A 
ATOM     56  N   UNL A   1      46.527  30.018  30.179  1.00  0.00    -0.354 N 
ATOM     57  N   UNL A   1      43.919  31.322  30.683  1.00  0.00    -0.248 NA
ATOM     58  C   UNL A   1      42.648  32.936  31.791  1.00  0.00     0.031 C 
ATOM     59  C   UNL A   1      48.330  30.908  31.119  1.00  0.00     0.029 A 
ATOM     60  C   UNL A   1      46.957  31.052  30.989  1.00  0.00     0.049 A 
ATOM     61  H   UNL A   1      45.590  29.851  29.925  1.00  0.00     0.167 HD
ATOM     62  C   UNL A   1      44.765  32.134  31.427  1.00  0.00     0.074 A 
ATOM     63  C   UNL A   1      43.930  33.130  32.067  1.00  0.00     0.031 C 
ATOM     64  C   UNL A   1      46.111  32.066  31.564  1.00  0.00     0.034 A 
BRANCH  51  65
ATOM     65  C   UNL A   1      48.779  27.310  28.650  1.00  0.00     0.023 A 
ATOM     66  C   UNL A   1      49.215  26.290  29.517  1.00  0.00     0.012 A 
ATOM     67  C   UNL A   1      49.509  27.571  27.471  1.00  0.00     0.148 A 
ATOM     68  C   UNL A   1      50.376  25.569  29.236  1.00  0.00     0.002 A 
ATOM     69  C   UNL A   1      50.634  26.815  27.172  1.00  0.00     0.091 A 
ATOM     70  F   UNL A   1      49.088  28.559  26.667  1.00  0.00    -0.205 F 
ATOM     71  C   UNL A   1      51.078  25.823  28.060  1.00  0.00     0.022 A 
BRANCH  69  72
ATOM     72  S   UNL A   1      51.557  27.014  25.643  1.00  0.00     0.127 S 
ATOM     73  O   UNL A   1      52.533  25.930  25.747  1.00  0.00    -0.237 OA
ATOM     74  O   UNL A   1      50.521  26.806  24.632  1.00  0.00    -0.237 OA
ATOM     75  O   UNL A   1      52.116  28.358  25.678  1.00  0.00    -0.744 OA
ENDBRANCH  69  72
ENDBRANCH  51  65
BRANCH  52  76
ATOM     76  C   UNL A   1      40.122  31.987  30.618  1.00  0.00     0.023 A 
ATOM     77  C   UNL A   1      39.730  33.174  29.971  1.00  0.00     0.012 A 
ATOM     78  C   UNL A   1      39.268  31.416  31.583  1.00  0.00     0.148 A 
ATOM     79  C   UNL A   1      38.526  33.797  30.300  1.00  0.00     0.002 A 
ATOM     80  C   UNL A   1      38.043  32.009  31.863  1.00  0.00     0.091 A 
ATOM     81  F   UNL A   1      39.664  30.293  32.197  1.00  0.00    -0.205 F 
ATOM     82  C   UNL A   1      37.678  33.210  31.236  1.00  0.00     0.022 A 
BRANCH  80  83
ATOM     83  S   UNL A   1      36.835  31.259  32.960  1.00  0.00     0.127 S 
ATOM     84  O   UNL A   1      37.555  31.247  34.231  1.00  0.00    -0.237 OA
ATOM     85  O   UNL A   1      35.730  32.215  32.887  1.00  0.00    -0.237 OA
ATOM     86  O   UNL A   1      36.540  29.952  32.391  1.00  0.00    -0.744 OA
ENDBRANCH  80  83
ENDBRANCH  52  76
BRANCH  64  87
ATOM     87  C   UNL A   1      46.793  33.152  32.350  1.00  0.00     0.023 A 
ATOM     88  C   UNL A   1      47.040  32.999  33.726  1.00  0.00     0.012 A 
ATOM     89  C   UNL A   1      47.292  34.284  31.672  1.00  0.00     0.148 A 
ATOM     90  C   UNL A   1      47.762  33.969  34.421  1.00  0.00     0.002 A 
ATOM     91  C   UNL A   1      48.058  35.213  32.357  1.00  0.00     0.091 A 
ATOM     92  F   UNL A   1      47.024  34.413  30.364  1.00  0.00    -0.205 F 
ATOM     93  C   UNL A   1      48.284  35.065  33.736  1.00  0.00     0.022 A 
BRANCH  91  94
ATOM     94  S   UNL A   1      48.862  36.591  31.534  1.00  0.00     0.127 S 
ATOM     95  O   UNL A   1      49.686  35.904  30.541  1.00  0.00    -0.237 OA
ATOM     96  O   UNL A   1      47.723  37.324  30.982  1.00  0.00    -0.237 OA
ATOM     97  O   UNL A   1      49.603  37.305  32.565  1.00  0.00    -0.744 OA
ENDBRANCH  91  94
ENDBRANCH  64  87
ENDBRANCH  38  39
ENDBRANCH  31  33
ENDBRANCH  30  31
ENDBRANCH  29  30
ENDBRANCH  28  29
ENDBRANCH  27  28
ENDBRANCH  26  27
ENDBRANCH   1  26
TORSDOF 25
ENDMDL
