MODEL 1
REMARK VINA RESULT:     -10.0      0.000      0.000
REMARK SMILES Cc1ccc(/C=C2/SC(=O)N(CC(=O)OCCOCCOCCOC(=O)c3ccc(-c4c5nc(c(-c6cccc(S(=O)(=O)[O-])c6F)c6ccc([nH]6)c(-c6cccc(S(=O)(=O)[O-])c6F)c6nc(c(-c7cccc(S(=O)(=O)[O-])c7F)c7ccc4[nH]7)C=C6)C=C5)cc3)C2=O)cc1
REMARK SMILES IDX 20 1 19 2 18 3 17 4 16 5 15 6 13 7 14 8 12 9 11 10 6 11 7 12
REMARK SMILES IDX 8 13 90 14 9 15 91 16 10 17 5 18 1 19 2 20 3 21 93 22 4 23
REMARK SMILES IDX 92 24 21 25 22 26 23 27 24 28 25 29 26 30 27 31 28 32 89 33
REMARK SMILES IDX 29 34 88 35 30 36 31 37 32 38 82 39 33 40 87 41 81 42 83 43
REMARK SMILES IDX 34 44 86 45 80 46 79 47 35 49 67 50 47 51 66 52 48 53 51 54
REMARK SMILES IDX 65 55 84 56 49 57 50 58 64 60 85 61 52 62 36 63 37 64 45 65
REMARK SMILES IDX 38 66 40 67 46 68 39 69 41 70 42 71 43 72 44 73 68 74 69 75
REMARK SMILES IDX 77 76 70 77 72 78 78 79 71 80 73 81 74 82 75 83 76 84 53 85
REMARK SMILES IDX 54 86 62 87 55 88 57 89 63 90 56 91 58 92 59 93 60 94 61 95
REMARK H PARENT 83 48 51 59
REMARK Flexibility Score: inf
ROOT
ATOM      1  C   UNL A   1      40.483  25.888  27.500  1.00  0.00     0.188 C 
ENDROOT
BRANCH   1   2
ATOM      2  C   UNL A   1      39.207  25.112  27.811  1.00  0.00     0.188 C 
BRANCH   2   3
ATOM      3  O   UNL A   1      38.973  23.993  26.992  1.00  0.00    -0.376 OA
BRANCH   3   4
ATOM      4  C   UNL A   1      37.924  24.061  26.041  1.00  0.00     0.202 C 
BRANCH   4   5
ATOM      5  C   UNL A   1      36.927  22.908  25.716  1.00  0.00     0.261 C 
BRANCH   5   6
ATOM      6  O   UNL A   1      36.620  22.070  24.540  1.00  0.00    -0.462 OA
BRANCH   6   7
ATOM      7  C   UNL A   1      36.011  22.694  23.477  1.00  0.00     0.326 C 
ATOM      8  O   UNL A   1      36.690  23.072  22.521  1.00  0.00    -0.250 OA
BRANCH   7   9
ATOM      9  C   UNL A   1      34.520  23.174  23.399  1.00  0.00     0.252 C 
BRANCH   9  10
ATOM     10  N   UNL A   1      33.322  23.264  24.240  1.00  0.00    -0.257 N 
ATOM     11  C   UNL A   1      30.812  24.944  25.798  1.00  0.00     0.029 C 
ATOM     12  C   UNL A   1      31.262  23.898  25.092  1.00  0.00     0.083 C 
ATOM     13  S   UNL A   1      31.364  22.297  25.708  1.00  0.00    -0.022 SA
ATOM     14  C   UNL A   1      32.175  23.920  23.938  1.00  0.00     0.268 C 
ATOM     15  C   UNL A   1      32.924  22.086  24.849  1.00  0.00     0.294 C 
ATOM     16  O   UNL A   1      31.682  24.122  22.837  1.00  0.00    -0.268 OA
ATOM     17  O   UNL A   1      33.388  20.963  24.697  1.00  0.00    -0.261 OA
BRANCH  11  18
ATOM     18  C   UNL A   1      31.700  26.104  25.984  1.00  0.00    -0.024 A 
ATOM     19  C   UNL A   1      33.862  29.784  26.631  1.00  0.00     0.044 C 
ATOM     20  C   UNL A   1      33.130  28.506  26.357  1.00  0.00    -0.051 A 
ATOM     21  C   UNL A   1      31.761  28.538  26.109  1.00  0.00     0.004 A 
ATOM     22  C   UNL A   1      33.787  27.266  26.360  1.00  0.00     0.004 A 
ATOM     23  C   UNL A   1      31.059  27.352  25.926  1.00  0.00     0.008 A 
ATOM     24  C   UNL A   1      33.075  26.064  26.183  1.00  0.00     0.008 A 
ENDBRANCH  11  18
ENDBRANCH   9  10
ENDBRANCH   7   9
ENDBRANCH   6   7
ENDBRANCH   5   6
ENDBRANCH   4   5
ENDBRANCH   3   4
ENDBRANCH   2   3
ENDBRANCH   1   2
BRANCH   1  25
ATOM     25  O   UNL A   1      41.135  25.513  26.286  1.00  0.00    -0.376 OA
BRANCH  25  26
ATOM     26  C   UNL A   1      41.956  26.541  25.712  1.00  0.00     0.202 C 
BRANCH  26  27
ATOM     27  C   UNL A   1      43.305  26.110  25.100  1.00  0.00     0.261 C 
BRANCH  27  28
ATOM     28  O   UNL A   1      43.896  25.155  26.006  1.00  0.00    -0.460 OA
BRANCH  28  29
ATOM     29  C   UNL A   1      44.996  25.627  26.632  1.00  0.00     0.338 C 
ATOM     30  O   UNL A   1      45.917  26.198  26.074  1.00  0.00    -0.246 OA
BRANCH  29  31
ATOM     31  C   UNL A   1      45.092  25.078  28.009  1.00  0.00     0.060 A 
ATOM     32  C   UNL A   1      43.945  24.485  28.502  1.00  0.00     0.016 A 
ATOM     33  C   UNL A   1      46.097  25.398  28.914  1.00  0.00     0.016 A 
ATOM     34  C   UNL A   1      43.762  24.239  29.860  1.00  0.00     0.010 A 
ATOM     35  C   UNL A   1      45.834  25.330  30.294  1.00  0.00     0.010 A 
ATOM     36  C   UNL A   1      44.610  24.844  30.768  1.00  0.00    -0.014 A 
BRANCH  36  37
ATOM     37  C   UNL A   1      44.175  25.013  32.174  1.00  0.00     0.031 A 
ATOM     38  C   UNL A   1      44.307  26.406  32.688  1.00  0.00     0.074 A 
ATOM     39  C   UNL A   1      44.339  24.078  33.158  1.00  0.00     0.049 A 
ATOM     40  N   UNL A   1      44.496  26.749  33.922  1.00  0.00    -0.248 NA
ATOM     41  C   UNL A   1      44.284  27.560  31.767  1.00  0.00     0.031 C 
ATOM     42  C   UNL A   1      43.302  23.631  34.077  1.00  0.00     0.029 A 
ATOM     43  N   UNL A   1      45.447  23.355  33.581  1.00  0.00    -0.354 N 
ATOM     44  C   UNL A   1      44.007  28.041  33.956  1.00  0.00     0.074 A 
ATOM     45  C   UNL A   1      44.275  28.562  32.646  1.00  0.00     0.031 C 
ATOM     46  C   UNL A   1      43.822  22.731  34.942  1.00  0.00     0.029 A 
ATOM     47  C   UNL A   1      45.258  22.562  34.703  1.00  0.00     0.049 A 
ATOM     48  H   UNL A   1      46.313  23.403  33.114  1.00  0.00     0.167 HD
ATOM     49  C   UNL A   1      42.976  28.283  34.821  1.00  0.00     0.034 A 
ATOM     50  C   UNL A   1      46.224  22.056  35.543  1.00  0.00     0.034 A 
ATOM     51  C   UNL A   1      42.899  27.229  35.852  1.00  0.00     0.049 A 
ATOM     52  C   UNL A   1      46.066  22.728  36.873  1.00  0.00     0.074 A 
ATOM     53  C   UNL A   1      42.022  26.175  36.068  1.00  0.00     0.029 A 
ATOM     54  N   UNL A   1      43.983  27.002  36.691  1.00  0.00    -0.354 N 
ATOM     55  N   UNL A   1      45.131  23.600  37.087  1.00  0.00    -0.248 NA
ATOM     56  C   UNL A   1      46.955  22.572  38.021  1.00  0.00     0.031 C 
ATOM     57  C   UNL A   1      42.577  25.326  37.060  1.00  0.00     0.029 A 
ATOM     58  C   UNL A   1      43.791  25.860  37.453  1.00  0.00     0.049 A 
ATOM     59  H   UNL A   1      44.782  27.576  36.738  1.00  0.00     0.167 HD
ATOM     60  C   UNL A   1      45.414  24.291  38.222  1.00  0.00     0.074 A 
ATOM     61  C   UNL A   1      46.483  23.529  38.843  1.00  0.00     0.031 C 
ATOM     62  C   UNL A   1      44.785  25.479  38.455  1.00  0.00     0.034 A 
BRANCH  49  63
ATOM     63  C   UNL A   1      41.775  29.177  34.468  1.00  0.00     0.023 A 
ATOM     64  C   UNL A   1      41.675  30.407  35.157  1.00  0.00     0.012 A 
ATOM     65  C   UNL A   1      40.688  28.883  33.604  1.00  0.00     0.148 A 
ATOM     66  C   UNL A   1      40.543  31.228  35.095  1.00  0.00     0.002 A 
ATOM     67  C   UNL A   1      39.539  29.683  33.564  1.00  0.00     0.091 A 
ATOM     68  F   UNL A   1      40.765  27.871  32.739  1.00  0.00    -0.205 F 
ATOM     69  C   UNL A   1      39.459  30.852  34.321  1.00  0.00     0.022 A 
BRANCH  67  70
ATOM     70  S   UNL A   1      38.085  29.233  32.594  1.00  0.00     0.127 S 
ATOM     71  O   UNL A   1      38.606  29.234  31.225  1.00  0.00    -0.237 OA
ATOM     72  O   UNL A   1      37.758  27.909  33.117  1.00  0.00    -0.237 OA
ATOM     73  O   UNL A   1      37.094  30.273  32.846  1.00  0.00    -0.744 OA
ENDBRANCH  67  70
ENDBRANCH  49  63
BRANCH  50  74
ATOM     74  C   UNL A   1      47.554  21.511  35.053  1.00  0.00     0.023 A 
ATOM     75  C   UNL A   1      47.600  20.143  34.694  1.00  0.00     0.012 A 
ATOM     76  C   UNL A   1      48.712  22.273  34.784  1.00  0.00     0.148 A 
ATOM     77  C   UNL A   1      48.646  19.604  33.928  1.00  0.00     0.002 A 
ATOM     78  C   UNL A   1      49.733  21.745  33.968  1.00  0.00     0.091 A 
ATOM     79  F   UNL A   1      48.770  23.530  35.240  1.00  0.00    -0.205 F 
ATOM     80  C   UNL A   1      49.685  20.420  33.518  1.00  0.00     0.022 A 
BRANCH  78  81
ATOM     81  S   UNL A   1      51.053  22.747  33.247  1.00  0.00     0.127 S 
ATOM     82  O   UNL A   1      51.790  21.768  32.450  1.00  0.00    -0.237 OA
ATOM     83  O   UNL A   1      50.297  23.718  32.452  1.00  0.00    -0.237 OA
ATOM     84  O   UNL A   1      51.782  23.308  34.372  1.00  0.00    -0.744 OA
ENDBRANCH  78  81
ENDBRANCH  50  74
BRANCH  62  85
ATOM     85  C   UNL A   1      45.054  26.424  39.593  1.00  0.00     0.023 A 
ATOM     86  C   UNL A   1      44.316  26.431  40.788  1.00  0.00     0.012 A 
ATOM     87  C   UNL A   1      46.178  27.286  39.523  1.00  0.00     0.148 A 
ATOM     88  C   UNL A   1      44.653  27.279  41.848  1.00  0.00     0.002 A 
ATOM     89  C   UNL A   1      46.579  28.032  40.621  1.00  0.00     0.091 A 
ATOM     90  F   UNL A   1      46.855  27.418  38.373  1.00  0.00    -0.205 F 
ATOM     91  C   UNL A   1      45.802  28.057  41.777  1.00  0.00     0.022 A 
BRANCH  89  92
ATOM     92  S   UNL A   1      48.179  28.845  40.622  1.00  0.00     0.127 S 
ATOM     93  O   UNL A   1      49.096  27.711  40.545  1.00  0.00    -0.237 OA
ATOM     94  O   UNL A   1      48.115  29.664  39.411  1.00  0.00    -0.237 OA
ATOM     95  O   UNL A   1      48.210  29.617  41.858  1.00  0.00    -0.744 OA
ENDBRANCH  89  92
ENDBRANCH  62  85
ENDBRANCH  36  37
ENDBRANCH  29  31
ENDBRANCH  28  29
ENDBRANCH  27  28
ENDBRANCH  26  27
ENDBRANCH  25  26
ENDBRANCH   1  25
TORSDOF 22
ENDMDL
MODEL 2
REMARK VINA RESULT:      -9.3      7.994     12.862
REMARK SMILES Cc1ccc(/C=C2/SC(=O)N(CC(=O)OCCOCCOCCOC(=O)c3ccc(-c4c5nc(c(-c6cccc(S(=O)(=O)[O-])c6F)c6ccc([nH]6)c(-c6cccc(S(=O)(=O)[O-])c6F)c6nc(c(-c7cccc(S(=O)(=O)[O-])c7F)c7ccc4[nH]7)C=C6)C=C5)cc3)C2=O)cc1
REMARK SMILES IDX 20 1 19 2 18 3 17 4 16 5 15 6 13 7 14 8 12 9 11 10 6 11 7 12
REMARK SMILES IDX 8 13 90 14 9 15 91 16 10 17 5 18 1 19 2 20 3 21 93 22 4 23
REMARK SMILES IDX 92 24 21 25 22 26 23 27 24 28 25 29 26 30 27 31 28 32 89 33
REMARK SMILES IDX 29 34 88 35 30 36 31 37 32 38 82 39 33 40 87 41 81 42 83 43
REMARK SMILES IDX 34 44 86 45 80 46 79 47 35 49 67 50 47 51 66 52 48 53 51 54
REMARK SMILES IDX 65 55 84 56 49 57 50 58 64 60 85 61 52 62 36 63 37 64 45 65
REMARK SMILES IDX 38 66 40 67 46 68 39 69 41 70 42 71 43 72 44 73 68 74 69 75
REMARK SMILES IDX 77 76 70 77 72 78 78 79 71 80 73 81 74 82 75 83 76 84 53 85
REMARK SMILES IDX 54 86 62 87 55 88 57 89 63 90 56 91 58 92 59 93 60 94 61 95
REMARK H PARENT 83 48 51 59
REMARK Flexibility Score: inf
ROOT
ATOM      1  C   UNL A   1      38.739  29.855  29.934  1.00  0.00     0.188 C 
ENDROOT
BRANCH   1   2
ATOM      2  C   UNL A   1      37.982  30.814  29.020  1.00  0.00     0.188 C 
BRANCH   2   3
ATOM      3  O   UNL A   1      36.784  31.325  29.549  1.00  0.00    -0.376 OA
BRANCH   3   4
ATOM      4  C   UNL A   1      35.731  31.640  28.654  1.00  0.00     0.202 C 
BRANCH   4   5
ATOM      5  C   UNL A   1      34.661  30.636  28.132  1.00  0.00     0.261 C 
BRANCH   5   6
ATOM      6  O   UNL A   1      34.513  29.759  26.953  1.00  0.00    -0.462 OA
BRANCH   6   7
ATOM      7  C   UNL A   1      33.265  29.695  26.381  1.00  0.00     0.326 C 
ATOM      8  O   UNL A   1      32.379  30.461  26.764  1.00  0.00    -0.250 OA
BRANCH   7   9
ATOM      9  C   UNL A   1      32.743  28.602  25.386  1.00  0.00     0.252 C 
BRANCH   9  10
ATOM     10  N   UNL A   1      31.496  27.937  24.997  1.00  0.00    -0.257 N 
ATOM     11  C   UNL A   1      28.756  27.508  23.031  1.00  0.00     0.029 C 
ATOM     12  C   UNL A   1      29.781  27.014  23.739  1.00  0.00     0.083 C 
ATOM     13  S   UNL A   1      29.599  26.123  25.197  1.00  0.00    -0.022 SA
ATOM     14  C   UNL A   1      31.173  27.493  23.758  1.00  0.00     0.268 C 
ATOM     15  C   UNL A   1      31.034  26.966  25.868  1.00  0.00     0.294 C 
ATOM     16  O   UNL A   1      31.918  27.084  22.879  1.00  0.00    -0.268 OA
ATOM     17  O   UNL A   1      31.584  26.526  26.870  1.00  0.00    -0.261 OA
BRANCH  11  18
ATOM     18  C   UNL A   1      28.707  28.958  22.777  1.00  0.00    -0.024 A 
ATOM     19  C   UNL A   1      28.345  33.252  22.515  1.00  0.00     0.044 C 
ATOM     20  C   UNL A   1      28.440  31.757  22.563  1.00  0.00    -0.051 A 
ATOM     21  C   UNL A   1      27.690  31.051  23.501  1.00  0.00     0.004 A 
ATOM     22  C   UNL A   1      29.280  31.044  21.696  1.00  0.00     0.004 A 
ATOM     23  C   UNL A   1      27.826  29.671  23.604  1.00  0.00     0.008 A 
ATOM     24  C   UNL A   1      29.424  29.647  21.805  1.00  0.00     0.008 A 
ENDBRANCH  11  18
ENDBRANCH   9  10
ENDBRANCH   7   9
ENDBRANCH   6   7
ENDBRANCH   5   6
ENDBRANCH   4   5
ENDBRANCH   3   4
ENDBRANCH   2   3
ENDBRANCH   1   2
BRANCH   1  25
ATOM     25  O   UNL A   1      39.269  30.447  31.121  1.00  0.00    -0.376 OA
BRANCH  25  26
ATOM     26  C   UNL A   1      39.009  29.704  32.321  1.00  0.00     0.202 C 
BRANCH  26  27
ATOM     27  C   UNL A   1      38.032  30.326  33.341  1.00  0.00     0.261 C 
BRANCH  27  28
ATOM     28  O   UNL A   1      37.461  31.496  32.722  1.00  0.00    -0.460 OA
BRANCH  28  29
ATOM     29  C   UNL A   1      37.738  32.639  33.387  1.00  0.00     0.338 C 
ATOM     30  O   UNL A   1      37.140  33.023  34.378  1.00  0.00    -0.246 OA
BRANCH  29  31
ATOM     31  C   UNL A   1      38.625  33.515  32.579  1.00  0.00     0.060 A 
ATOM     32  C   UNL A   1      38.255  33.695  31.260  1.00  0.00     0.016 A 
ATOM     33  C   UNL A   1      39.915  33.879  32.947  1.00  0.00     0.016 A 
ATOM     34  C   UNL A   1      39.138  34.186  30.303  1.00  0.00     0.010 A 
ATOM     35  C   UNL A   1      40.858  34.188  31.949  1.00  0.00     0.010 A 
ATOM     36  C   UNL A   1      40.485  34.237  30.601  1.00  0.00    -0.014 A 
BRANCH  36  37
ATOM     37  C   UNL A   1      41.477  34.275  29.500  1.00  0.00     0.031 A 
ATOM     38  C   UNL A   1      42.716  33.491  29.771  1.00  0.00     0.074 A 
ATOM     39  C   UNL A   1      41.711  35.359  28.701  1.00  0.00     0.049 A 
ATOM     40  N   UNL A   1      43.891  33.730  29.283  1.00  0.00    -0.248 NA
ATOM     41  C   UNL A   1      42.704  32.352  30.711  1.00  0.00     0.031 C 
ATOM     42  C   UNL A   1      41.781  35.332  27.247  1.00  0.00     0.029 A 
ATOM     43  N   UNL A   1      41.972  36.692  28.990  1.00  0.00    -0.354 N 
ATOM     44  C   UNL A   1      44.509  32.497  29.362  1.00  0.00     0.074 A 
ATOM     45  C   UNL A   1      43.936  31.880  30.524  1.00  0.00     0.031 C 
ATOM     46  C   UNL A   1      42.066  36.571  26.785  1.00  0.00     0.029 A 
ATOM     47  C   UNL A   1      42.273  37.498  27.902  1.00  0.00     0.049 A 
ATOM     48  H   UNL A   1      41.945  37.042  29.910  1.00  0.00     0.167 HD
ATOM     49  C   UNL A   1      44.943  31.953  28.184  1.00  0.00     0.034 A 
ATOM     50  C   UNL A   1      42.921  38.712  27.914  1.00  0.00     0.034 A 
ATOM     51  C   UNL A   1      45.062  32.991  27.141  1.00  0.00     0.049 A 
ATOM     52  C   UNL A   1      44.243  38.528  27.234  1.00  0.00     0.074 A 
ATOM     53  C   UNL A   1      44.311  33.294  26.014  1.00  0.00     0.029 A 
ATOM     54  N   UNL A   1      45.911  34.073  27.335  1.00  0.00    -0.354 N 
ATOM     55  N   UNL A   1      44.598  37.384  26.737  1.00  0.00    -0.248 NA
ATOM     56  C   UNL A   1      45.297  39.532  27.127  1.00  0.00     0.031 C 
ATOM     57  C   UNL A   1      44.732  34.555  25.520  1.00  0.00     0.029 A 
ATOM     58  C   UNL A   1      45.741  35.023  26.341  1.00  0.00     0.049 A 
ATOM     59  H   UNL A   1      46.550  34.153  28.081  1.00  0.00     0.167 HD
ATOM     60  C   UNL A   1      45.935  37.395  26.497  1.00  0.00     0.074 A 
ATOM     61  C   UNL A   1      46.306  38.793  26.626  1.00  0.00     0.031 C 
ATOM     62  C   UNL A   1      46.591  36.213  26.319  1.00  0.00     0.034 A 
BRANCH  49  63
ATOM     63  C   UNL A   1      44.803  30.459  27.845  1.00  0.00     0.023 A 
ATOM     64  C   UNL A   1      45.923  29.640  28.113  1.00  0.00     0.012 A 
ATOM     65  C   UNL A   1      43.721  29.804  27.202  1.00  0.00     0.148 A 
ATOM     66  C   UNL A   1      46.022  28.313  27.676  1.00  0.00     0.002 A 
ATOM     67  C   UNL A   1      43.828  28.489  26.732  1.00  0.00     0.091 A 
ATOM     68  F   UNL A   1      42.534  30.403  27.094  1.00  0.00    -0.205 F 
ATOM     69  C   UNL A   1      44.985  27.744  26.957  1.00  0.00     0.022 A 
BRANCH  67  70
ATOM     70  S   UNL A   1      42.521  27.702  25.768  1.00  0.00     0.127 S 
ATOM     71  O   UNL A   1      43.125  26.416  25.408  1.00  0.00    -0.237 OA
ATOM     72  O   UNL A   1      41.431  27.609  26.736  1.00  0.00    -0.237 OA
ATOM     73  O   UNL A   1      42.278  28.577  24.626  1.00  0.00    -0.744 OA
ENDBRANCH  67  70
ENDBRANCH  49  63
BRANCH  50  74
ATOM     74  C   UNL A   1      42.686  39.772  28.975  1.00  0.00     0.023 A 
ATOM     75  C   UNL A   1      41.545  40.596  28.825  1.00  0.00     0.012 A 
ATOM     76  C   UNL A   1      43.418  39.921  30.174  1.00  0.00     0.148 A 
ATOM     77  C   UNL A   1      41.036  41.371  29.879  1.00  0.00     0.002 A 
ATOM     78  C   UNL A   1      42.876  40.655  31.248  1.00  0.00     0.091 A 
ATOM     79  F   UNL A   1      44.583  39.275  30.295  1.00  0.00    -0.205 F 
ATOM     80  C   UNL A   1      41.671  41.356  31.108  1.00  0.00     0.022 A 
BRANCH  78  81
ATOM     81  S   UNL A   1      43.528  40.588  32.932  1.00  0.00     0.127 S 
ATOM     82  O   UNL A   1      44.608  41.573  32.889  1.00  0.00    -0.237 OA
ATOM     83  O   UNL A   1      42.368  41.007  33.723  1.00  0.00    -0.237 OA
ATOM     84  O   UNL A   1      43.949  39.213  33.138  1.00  0.00    -0.744 OA
ENDBRANCH  78  81
ENDBRANCH  50  74
BRANCH  62  85
ATOM     85  C   UNL A   1      48.075  36.030  26.156  1.00  0.00     0.023 A 
ATOM     86  C   UNL A   1      48.662  35.382  25.057  1.00  0.00     0.012 A 
ATOM     87  C   UNL A   1      48.952  36.635  27.092  1.00  0.00     0.148 A 
ATOM     88  C   UNL A   1      50.051  35.303  24.913  1.00  0.00     0.002 A 
ATOM     89  C   UNL A   1      50.321  36.661  26.879  1.00  0.00     0.091 A 
ATOM     90  F   UNL A   1      48.466  37.167  28.223  1.00  0.00    -0.205 F 
ATOM     91  C   UNL A   1      50.881  35.968  25.807  1.00  0.00     0.022 A 
BRANCH  89  92
ATOM     92  S   UNL A   1      51.371  37.713  27.886  1.00  0.00     0.127 S 
ATOM     93  O   UNL A   1      52.706  37.256  27.513  1.00  0.00    -0.237 OA
ATOM     94  O   UNL A   1      51.025  39.051  27.405  1.00  0.00    -0.237 OA
ATOM     95  O   UNL A   1      50.961  37.452  29.261  1.00  0.00    -0.744 OA
ENDBRANCH  89  92
ENDBRANCH  62  85
ENDBRANCH  36  37
ENDBRANCH  29  31
ENDBRANCH  28  29
ENDBRANCH  27  28
ENDBRANCH  26  27
ENDBRANCH  25  26
ENDBRANCH   1  25
TORSDOF 22
ENDMDL
MODEL 3
REMARK VINA RESULT:      -9.2      4.068      5.626
REMARK SMILES Cc1ccc(/C=C2/SC(=O)N(CC(=O)OCCOCCOCCOC(=O)c3ccc(-c4c5nc(c(-c6cccc(S(=O)(=O)[O-])c6F)c6ccc([nH]6)c(-c6cccc(S(=O)(=O)[O-])c6F)c6nc(c(-c7cccc(S(=O)(=O)[O-])c7F)c7ccc4[nH]7)C=C6)C=C5)cc3)C2=O)cc1
REMARK SMILES IDX 20 1 19 2 18 3 17 4 16 5 15 6 13 7 14 8 12 9 11 10 6 11 7 12
REMARK SMILES IDX 8 13 90 14 9 15 91 16 10 17 5 18 1 19 2 20 3 21 93 22 4 23
REMARK SMILES IDX 92 24 21 25 22 26 23 27 24 28 25 29 26 30 27 31 28 32 89 33
REMARK SMILES IDX 29 34 88 35 30 36 31 37 32 38 82 39 33 40 87 41 81 42 83 43
REMARK SMILES IDX 34 44 86 45 80 46 79 47 35 49 67 50 47 51 66 52 48 53 51 54
REMARK SMILES IDX 65 55 84 56 49 57 50 58 64 60 85 61 52 62 36 63 37 64 45 65
REMARK SMILES IDX 38 66 40 67 46 68 39 69 41 70 42 71 43 72 44 73 68 74 69 75
REMARK SMILES IDX 77 76 70 77 72 78 78 79 71 80 73 81 74 82 75 83 76 84 53 85
REMARK SMILES IDX 54 86 62 87 55 88 57 89 63 90 56 91 58 92 59 93 60 94 61 95
REMARK H PARENT 83 48 51 59
REMARK Flexibility Score: inf
ROOT
ATOM      1  C   UNL A   1      44.678  31.066  27.885  1.00  0.00     0.188 C 
ENDROOT
BRANCH   1   2
ATOM      2  C   UNL A   1      44.175  32.506  27.836  1.00  0.00     0.188 C 
BRANCH   2   3
ATOM      3  O   UNL A   1      43.932  33.097  29.089  1.00  0.00    -0.376 OA
BRANCH   3   4
ATOM      4  C   UNL A   1      42.723  32.784  29.760  1.00  0.00     0.202 C 
BRANCH   4   5
ATOM      5  C   UNL A   1      41.955  33.736  30.725  1.00  0.00     0.261 C 
BRANCH   5   6
ATOM      6  O   UNL A   1      40.568  33.857  31.216  1.00  0.00    -0.462 OA
BRANCH   6   7
ATOM      7  C   UNL A   1      39.600  34.119  30.276  1.00  0.00     0.326 C 
ATOM      8  O   UNL A   1      39.819  34.946  29.389  1.00  0.00    -0.250 OA
BRANCH   7   9
ATOM      9  C   UNL A   1      38.116  33.614  30.292  1.00  0.00     0.252 C 
BRANCH   9  10
ATOM     10  N   UNL A   1      37.252  32.636  29.623  1.00  0.00    -0.257 N 
ATOM     11  C   UNL A   1      36.356  29.489  28.702  1.00  0.00     0.029 C 
ATOM     12  C   UNL A   1      36.046  30.716  29.142  1.00  0.00     0.083 C 
ATOM     13  S   UNL A   1      35.159  31.868  28.226  1.00  0.00    -0.022 SA
ATOM     14  C   UNL A   1      36.744  31.505  30.170  1.00  0.00     0.268 C 
ATOM     15  C   UNL A   1      36.232  33.163  28.850  1.00  0.00     0.294 C 
ATOM     16  O   UNL A   1      36.447  31.292  31.337  1.00  0.00    -0.268 OA
ATOM     17  O   UNL A   1      35.902  34.336  28.733  1.00  0.00    -0.261 OA
BRANCH  11  18
ATOM     18  C   UNL A   1      37.775  29.099  28.642  1.00  0.00    -0.024 A 
ATOM     19  C   UNL A   1      41.800  27.543  28.773  1.00  0.00     0.044 C 
ATOM     20  C   UNL A   1      40.420  28.128  28.751  1.00  0.00    -0.051 A 
ATOM     21  C   UNL A   1      39.481  27.709  29.690  1.00  0.00     0.004 A 
ATOM     22  C   UNL A   1      40.040  29.079  27.793  1.00  0.00     0.004 A 
ATOM     23  C   UNL A   1      38.178  28.190  29.633  1.00  0.00     0.008 A 
ATOM     24  C   UNL A   1      38.717  29.560  27.729  1.00  0.00     0.008 A 
ENDBRANCH  11  18
ENDBRANCH   9  10
ENDBRANCH   7   9
ENDBRANCH   6   7
ENDBRANCH   5   6
ENDBRANCH   4   5
ENDBRANCH   3   4
ENDBRANCH   2   3
ENDBRANCH   1   2
BRANCH   1  25
ATOM     25  O   UNL A   1      44.021  30.168  26.990  1.00  0.00    -0.376 OA
BRANCH  25  26
ATOM     26  C   UNL A   1      44.851  29.104  26.502  1.00  0.00     0.202 C 
BRANCH  26  27
ATOM     27  C   UNL A   1      45.216  27.980  27.494  1.00  0.00     0.261 C 
BRANCH  27  28
ATOM     28  O   UNL A   1      45.967  26.993  26.759  1.00  0.00    -0.460 OA
BRANCH  28  29
ATOM     29  C   UNL A   1      45.347  25.794  26.691  1.00  0.00     0.338 C 
ATOM     30  O   UNL A   1      44.677  25.416  25.745  1.00  0.00    -0.246 OA
BRANCH  29  31
ATOM     31  C   UNL A   1      45.312  25.145  28.027  1.00  0.00     0.060 A 
ATOM     32  C   UNL A   1      44.074  24.694  28.444  1.00  0.00     0.016 A 
ATOM     33  C   UNL A   1      46.318  25.253  28.979  1.00  0.00     0.016 A 
ATOM     34  C   UNL A   1      43.808  24.387  29.775  1.00  0.00     0.010 A 
ATOM     35  C   UNL A   1      45.997  25.132  30.343  1.00  0.00     0.010 A 
ATOM     36  C   UNL A   1      44.699  24.799  30.747  1.00  0.00    -0.014 A 
BRANCH  36  37
ATOM     37  C   UNL A   1      44.240  24.934  32.150  1.00  0.00     0.031 A 
ATOM     38  C   UNL A   1      44.248  26.336  32.659  1.00  0.00     0.074 A 
ATOM     39  C   UNL A   1      44.477  24.020  33.138  1.00  0.00     0.049 A 
ATOM     40  N   UNL A   1      44.398  26.698  33.893  1.00  0.00    -0.248 NA
ATOM     41  C   UNL A   1      44.133  27.480  31.734  1.00  0.00     0.031 C 
ATOM     42  C   UNL A   1      43.474  23.489  34.051  1.00  0.00     0.029 A 
ATOM     43  N   UNL A   1      45.639  23.396  33.572  1.00  0.00    -0.354 N 
ATOM     44  C   UNL A   1      43.800  27.942  33.919  1.00  0.00     0.074 A 
ATOM     45  C   UNL A   1      44.031  28.481  32.608  1.00  0.00     0.031 C 
ATOM     46  C   UNL A   1      44.063  22.639  34.923  1.00  0.00     0.029 A 
ATOM     47  C   UNL A   1      45.510  22.593  34.696  1.00  0.00     0.049 A 
ATOM     48  H   UNL A   1      46.501  23.517  33.110  1.00  0.00     0.167 HD
ATOM     49  C   UNL A   1      42.745  28.098  34.775  1.00  0.00     0.034 A 
ATOM     50  C   UNL A   1      46.510  22.175  35.544  1.00  0.00     0.034 A 
ATOM     51  C   UNL A   1      42.751  27.045  35.809  1.00  0.00     0.049 A 
ATOM     52  C   UNL A   1      46.285  22.835  36.870  1.00  0.00     0.074 A 
ATOM     53  C   UNL A   1      41.966  25.920  36.023  1.00  0.00     0.029 A 
ATOM     54  N   UNL A   1      43.844  26.914  36.657  1.00  0.00    -0.354 N 
ATOM     55  N   UNL A   1      45.277  23.624  37.074  1.00  0.00    -0.248 NA
ATOM     56  C   UNL A   1      47.174  22.760  38.025  1.00  0.00     0.031 C 
ATOM     57  C   UNL A   1      42.584  25.125  37.022  1.00  0.00     0.029 A 
ATOM     58  C   UNL A   1      43.744  25.762  37.422  1.00  0.00     0.049 A 
ATOM     59  H   UNL A   1      44.590  27.555  36.707  1.00  0.00     0.167 HD
ATOM     60  C   UNL A   1      45.491  24.341  38.209  1.00  0.00     0.074 A 
ATOM     61  C   UNL A   1      46.616  23.675  38.840  1.00  0.00     0.031 C 
ATOM     62  C   UNL A   1      44.761  25.471  38.432  1.00  0.00     0.034 A 
BRANCH  49  63
ATOM     63  C   UNL A   1      41.474  28.885  34.410  1.00  0.00     0.023 A 
ATOM     64  C   UNL A   1      40.666  28.343  33.384  1.00  0.00     0.012 A 
ATOM     65  C   UNL A   1      41.053  30.147  34.903  1.00  0.00     0.148 A 
ATOM     66  C   UNL A   1      39.598  29.040  32.806  1.00  0.00     0.002 A 
ATOM     67  C   UNL A   1      40.008  30.862  34.305  1.00  0.00     0.091 A 
ATOM     68  F   UNL A   1      41.595  30.657  36.010  1.00  0.00    -0.205 F 
ATOM     69  C   UNL A   1      39.286  30.315  33.245  1.00  0.00     0.022 A 
BRANCH  67  70
ATOM     70  S   UNL A   1      39.570  32.536  34.817  1.00  0.00     0.127 S 
ATOM     71  O   UNL A   1      38.622  32.946  33.778  1.00  0.00    -0.237 OA
ATOM     72  O   UNL A   1      38.972  32.316  36.131  1.00  0.00    -0.237 OA
ATOM     73  O   UNL A   1      40.814  33.299  34.810  1.00  0.00    -0.744 OA
ENDBRANCH  67  70
ENDBRANCH  49  63
BRANCH  50  74
ATOM     74  C   UNL A   1      47.885  21.745  35.065  1.00  0.00     0.023 A 
ATOM     75  C   UNL A   1      48.098  20.360  34.869  1.00  0.00     0.012 A 
ATOM     76  C   UNL A   1      48.927  22.607  34.660  1.00  0.00     0.148 A 
ATOM     77  C   UNL A   1      49.183  19.865  34.129  1.00  0.00     0.002 A 
ATOM     78  C   UNL A   1      49.986  22.115  33.870  1.00  0.00     0.091 A 
ATOM     79  F   UNL A   1      48.835  23.908  34.961  1.00  0.00    -0.205 F 
ATOM     80  C   UNL A   1      50.097  20.749  33.582  1.00  0.00     0.022 A 
BRANCH  78  81
ATOM     81  S   UNL A   1      51.145  23.178  32.980  1.00  0.00     0.127 S 
ATOM     82  O   UNL A   1      51.802  23.904  34.067  1.00  0.00    -0.237 OA
ATOM     83  O   UNL A   1      52.003  22.198  32.311  1.00  0.00    -0.237 OA
ATOM     84  O   UNL A   1      50.332  23.993  32.093  1.00  0.00    -0.744 OA
ENDBRANCH  78  81
ENDBRANCH  50  74
BRANCH  62  85
ATOM     85  C   UNL A   1      44.939  26.439  39.569  1.00  0.00     0.023 A 
ATOM     86  C   UNL A   1      44.270  26.326  40.798  1.00  0.00     0.012 A 
ATOM     87  C   UNL A   1      45.913  27.464  39.456  1.00  0.00     0.148 A 
ATOM     88  C   UNL A   1      44.526  27.209  41.852  1.00  0.00     0.002 A 
ATOM     89  C   UNL A   1      46.250  28.255  40.543  1.00  0.00     0.091 A 
ATOM     90  F   UNL A   1      46.503  27.704  38.276  1.00  0.00    -0.205 F 
ATOM     91  C   UNL A   1      45.537  28.155  41.736  1.00  0.00     0.022 A 
BRANCH  89  92
ATOM     92  S   UNL A   1      47.705  29.304  40.478  1.00  0.00     0.127 S 
ATOM     93  O   UNL A   1      47.767  29.823  41.841  1.00  0.00    -0.237 OA
ATOM     94  O   UNL A   1      48.762  28.351  40.137  1.00  0.00    -0.237 OA
ATOM     95  O   UNL A   1      47.424  30.277  39.429  1.00  0.00    -0.744 OA
ENDBRANCH  89  92
ENDBRANCH  62  85
ENDBRANCH  36  37
ENDBRANCH  29  31
ENDBRANCH  28  29
ENDBRANCH  27  28
ENDBRANCH  26  27
ENDBRANCH  25  26
ENDBRANCH   1  25
TORSDOF 22
ENDMDL
