MODEL 1
REMARK VINA RESULT:     -10.6      0.000      0.000
REMARK SMILES O=C(OCCOCCOCCOC(=O)[C@@H](Cc1ccccc1F)C1CCOCC1)c1ccc(-c2c3nc(c(-c4cccc(S(=O)(=O)[O-])c4F)c4ccc([nH]4)c(-c4cccc(S(=O)(=O)[O-])c4F)c4nc(c(-c5cccc(S(=O)(=O)[O-])c5F)c5ccc2[nH]5)C=C4)C=C3)cc1
REMARK SMILES IDX 7 1 6 2 5 3 4 4 3 5 2 6 1 7 30 8 31 9 92 10 32 11 91 12
REMARK SMILES IDX 33 13 34 14 35 15 85 16 36 17 90 18 84 19 86 20 37 21 89 22
REMARK SMILES IDX 83 23 82 24 38 26 70 27 50 28 69 29 51 30 54 31 68 32 87 33
REMARK SMILES IDX 52 34 53 35 67 37 88 38 55 39 39 40 40 41 48 42 41 43 43 44
REMARK SMILES IDX 49 45 42 46 44 47 45 48 46 49 47 50 71 51 72 52 80 53 73 54
REMARK SMILES IDX 75 55 81 56 74 57 76 58 77 59 78 60 79 61 56 62 57 63 65 64
REMARK SMILES IDX 58 65 60 66 66 67 59 68 61 69 62 70 63 71 64 72 8 73 9 74
REMARK SMILES IDX 10 75 11 76 12 77 13 78 14 79 15 80 16 81 17 82 18 83 22 84
REMARK SMILES IDX 19 85 21 86 23 87 20 88 24 89 25 90 29 91 26 92 28 93 27 94
REMARK H PARENT 86 25 54 36
REMARK Flexibility Score: inf
ROOT
ATOM      1  C   UNL A   1      32.593  26.373  25.985  1.00  0.00     0.188 C 
ENDROOT
BRANCH   1   2
ATOM      2  O   UNL A   1      32.326  27.744  26.311  1.00  0.00    -0.376 OA
BRANCH   2   3
ATOM      3  C   UNL A   1      32.642  28.658  25.260  1.00  0.00     0.202 C 
BRANCH   3   4
ATOM      4  C   UNL A   1      31.863  29.982  25.254  1.00  0.00     0.261 C 
BRANCH   4   5
ATOM      5  O   UNL A   1      31.803  30.636  26.528  1.00  0.00    -0.460 OA
BRANCH   5   6
ATOM      6  C   UNL A   1      32.601  31.600  27.050  1.00  0.00     0.338 C 
ATOM      7  O   UNL A   1      32.223  32.766  26.928  1.00  0.00    -0.246 OA
BRANCH   6   8
ATOM      8  C   UNL A   1      33.930  31.363  27.712  1.00  0.00     0.060 A 
ATOM      9  C   UNL A   1      34.869  32.338  28.042  1.00  0.00     0.016 A 
ATOM     10  C   UNL A   1      34.233  30.033  28.076  1.00  0.00     0.016 A 
ATOM     11  C   UNL A   1      36.052  32.012  28.709  1.00  0.00     0.010 A 
ATOM     12  C   UNL A   1      35.422  29.697  28.744  1.00  0.00     0.010 A 
ATOM     13  C   UNL A   1      36.338  30.694  29.068  1.00  0.00    -0.014 A 
BRANCH  13  14
ATOM     14  C   UNL A   1      37.662  30.422  29.671  1.00  0.00     0.031 A 
ATOM     15  C   UNL A   1      37.848  30.737  31.122  1.00  0.00     0.074 A 
ATOM     16  C   UNL A   1      38.631  29.807  28.968  1.00  0.00     0.049 A 
ATOM     17  N   UNL A   1      38.878  30.506  31.886  1.00  0.00    -0.248 NA
ATOM     18  C   UNL A   1      36.734  31.427  31.795  1.00  0.00     0.031 C 
ATOM     19  C   UNL A   1      38.552  29.504  27.546  1.00  0.00     0.029 A 
ATOM     20  N   UNL A   1      39.845  29.288  29.349  1.00  0.00    -0.354 N 
ATOM     21  C   UNL A   1      38.582  31.110  33.098  1.00  0.00     0.074 A 
ATOM     22  C   UNL A   1      37.236  31.632  33.002  1.00  0.00     0.031 C 
ATOM     23  C   UNL A   1      39.615  28.760  27.198  1.00  0.00     0.029 A 
ATOM     24  C   UNL A   1      40.465  28.549  28.360  1.00  0.00     0.049 A 
ATOM     25  H   UNL A   1      40.235  29.428  30.242  1.00  0.00     0.167 HD
ATOM     26  C   UNL A   1      39.397  31.280  34.163  1.00  0.00     0.034 A 
ATOM     27  C   UNL A   1      41.580  27.785  28.408  1.00  0.00     0.034 A 
ATOM     28  C   UNL A   1      40.754  30.809  34.197  1.00  0.00     0.049 A 
ATOM     29  C   UNL A   1      42.407  27.872  29.664  1.00  0.00     0.074 A 
ATOM     30  C   UNL A   1      41.724  31.030  35.157  1.00  0.00     0.029 A 
ATOM     31  N   UNL A   1      41.338  30.026  33.209  1.00  0.00    -0.354 N 
ATOM     32  N   UNL A   1      42.131  28.480  30.792  1.00  0.00    -0.248 NA
ATOM     33  C   UNL A   1      43.727  27.225  29.635  1.00  0.00     0.031 C 
ATOM     34  C   UNL A   1      42.902  30.403  34.735  1.00  0.00     0.029 A 
ATOM     35  C   UNL A   1      42.648  29.740  33.544  1.00  0.00     0.049 A 
ATOM     36  H   UNL A   1      40.885  29.721  32.390  1.00  0.00     0.167 HD
ATOM     37  C   UNL A   1      43.259  28.333  31.586  1.00  0.00     0.074 A 
ATOM     38  C   UNL A   1      44.186  27.500  30.847  1.00  0.00     0.031 C 
ATOM     39  C   UNL A   1      43.534  28.890  32.791  1.00  0.00     0.034 A 
BRANCH  26  40
ATOM     40  C   UNL A   1      38.866  32.107  35.300  1.00  0.00     0.023 A 
ATOM     41  C   UNL A   1      38.974  33.511  35.275  1.00  0.00     0.012 A 
ATOM     42  C   UNL A   1      38.291  31.477  36.422  1.00  0.00     0.148 A 
ATOM     43  C   UNL A   1      38.561  34.272  36.369  1.00  0.00     0.002 A 
ATOM     44  C   UNL A   1      37.835  32.244  37.484  1.00  0.00     0.091 A 
ATOM     45  F   UNL A   1      38.233  30.138  36.443  1.00  0.00    -0.205 F 
ATOM     46  C   UNL A   1      37.985  33.640  37.469  1.00  0.00     0.022 A 
BRANCH  44  47
ATOM     47  S   UNL A   1      37.014  31.527  38.912  1.00  0.00     0.127 S 
ATOM     48  O   UNL A   1      37.993  31.777  39.970  1.00  0.00    -0.237 OA
ATOM     49  O   UNL A   1      35.799  32.337  39.002  1.00  0.00    -0.237 OA
ATOM     50  O   UNL A   1      36.791  30.125  38.588  1.00  0.00    -0.744 OA
ENDBRANCH  44  47
ENDBRANCH  26  40
BRANCH  27  51
ATOM     51  C   UNL A   1      41.995  26.869  27.292  1.00  0.00     0.023 A 
ATOM     52  C   UNL A   1      42.759  27.388  26.220  1.00  0.00     0.012 A 
ATOM     53  C   UNL A   1      41.668  25.501  27.266  1.00  0.00     0.148 A 
ATOM     54  C   UNL A   1      43.177  26.571  25.160  1.00  0.00     0.002 A 
ATOM     55  C   UNL A   1      42.163  24.671  26.260  1.00  0.00     0.091 A 
ATOM     56  F   UNL A   1      40.867  25.020  28.228  1.00  0.00    -0.205 F 
ATOM     57  C   UNL A   1      42.903  25.204  25.195  1.00  0.00     0.022 A 
BRANCH  55  58
ATOM     58  S   UNL A   1      41.982  22.883  26.372  1.00  0.00     0.127 S 
ATOM     59  O   UNL A   1      42.704  22.590  27.607  1.00  0.00    -0.237 OA
ATOM     60  O   UNL A   1      40.535  22.690  26.456  1.00  0.00    -0.237 OA
ATOM     61  O   UNL A   1      42.580  22.374  25.143  1.00  0.00    -0.744 OA
ENDBRANCH  55  58
ENDBRANCH  27  51
BRANCH  39  62
ATOM     62  C   UNL A   1      44.887  28.613  33.380  1.00  0.00     0.023 A 
ATOM     63  C   UNL A   1      45.956  29.503  33.149  1.00  0.00     0.012 A 
ATOM     64  C   UNL A   1      45.072  27.507  34.229  1.00  0.00     0.148 A 
ATOM     65  C   UNL A   1      47.200  29.277  33.735  1.00  0.00     0.002 A 
ATOM     66  C   UNL A   1      46.297  27.321  34.853  1.00  0.00     0.091 A 
ATOM     67  F   UNL A   1      44.047  26.661  34.409  1.00  0.00    -0.205 F 
ATOM     68  C   UNL A   1      47.365  28.195  34.598  1.00  0.00     0.022 A 
BRANCH  66  69
ATOM     69  S   UNL A   1      46.561  26.020  36.061  1.00  0.00     0.127 S 
ATOM     70  O   UNL A   1      45.193  25.734  36.491  1.00  0.00    -0.237 OA
ATOM     71  O   UNL A   1      47.180  24.970  35.252  1.00  0.00    -0.237 OA
ATOM     72  O   UNL A   1      47.431  26.589  37.081  1.00  0.00    -0.744 OA
ENDBRANCH  66  69
ENDBRANCH  39  62
ENDBRANCH  13  14
ENDBRANCH   6   8
ENDBRANCH   5   6
ENDBRANCH   4   5
ENDBRANCH   3   4
ENDBRANCH   2   3
ENDBRANCH   1   2
BRANCH   1  73
ATOM     73  C   UNL A   1      31.315  25.563  25.759  1.00  0.00     0.188 C 
BRANCH  73  74
ATOM     74  O   UNL A   1      30.858  24.780  26.864  1.00  0.00    -0.376 OA
BRANCH  74  75
ATOM     75  C   UNL A   1      31.202  23.399  26.891  1.00  0.00     0.202 C 
BRANCH  75  76
ATOM     76  C   UNL A   1      31.150  22.631  25.570  1.00  0.00     0.261 C 
BRANCH  76  77
ATOM     77  O   UNL A   1      31.310  21.221  25.731  1.00  0.00    -0.463 OA
BRANCH  77  78
ATOM     78  C   UNL A   1      32.587  20.770  25.626  1.00  0.00     0.309 C 
ATOM     79  O   UNL A   1      33.356  20.706  26.574  1.00  0.00    -0.252 OA
BRANCH  78  80
ATOM     80  C   UNL A   1      32.950  20.307  24.216  1.00  0.00     0.107 C 
BRANCH  80  81
ATOM     81  C   UNL A   1      33.970  21.237  23.492  1.00  0.00     0.054 C 
BRANCH  81  82
ATOM     82  C   UNL A   1      35.005  22.130  24.178  1.00  0.00    -0.011 A 
ATOM     83  C   UNL A   1      36.193  21.534  24.638  1.00  0.00     0.007 A 
ATOM     84  C   UNL A   1      34.795  23.457  24.578  1.00  0.00     0.126 A 
ATOM     85  C   UNL A   1      37.079  22.199  25.497  1.00  0.00     0.000 A 
ATOM     86  C   UNL A   1      35.671  24.129  25.432  1.00  0.00     0.039 A 
ATOM     87  F   UNL A   1      33.733  24.162  24.194  1.00  0.00    -0.207 F 
ATOM     88  C   UNL A   1      36.808  23.496  25.910  1.00  0.00     0.003 A 
ENDBRANCH  81  82
ENDBRANCH  80  81
BRANCH  80  89
ATOM     89  C   UNL A   1      33.332  18.824  24.311  1.00  0.00     0.008 C 
ATOM     90  C   UNL A   1      33.012  17.978  23.092  1.00  0.00     0.033 C 
ATOM     91  C   UNL A   1      32.689  18.001  25.451  1.00  0.00     0.033 C 
ATOM     92  C   UNL A   1      33.951  16.802  23.205  1.00  0.00     0.160 C 
ATOM     93  C   UNL A   1      33.373  16.626  25.528  1.00  0.00     0.160 C 
ATOM     94  O   UNL A   1      33.546  15.968  24.276  1.00  0.00    -0.381 OA
ENDBRANCH  80  89
ENDBRANCH  78  80
ENDBRANCH  77  78
ENDBRANCH  76  77
ENDBRANCH  75  76
ENDBRANCH  74  75
ENDBRANCH  73  74
ENDBRANCH   1  73
TORSDOF 23
ENDMDL
MODEL 2
REMARK VINA RESULT:     -10.6      4.950     10.230
REMARK SMILES O=C(OCCOCCOCCOC(=O)[C@@H](Cc1ccccc1F)C1CCOCC1)c1ccc(-c2c3nc(c(-c4cccc(S(=O)(=O)[O-])c4F)c4ccc([nH]4)c(-c4cccc(S(=O)(=O)[O-])c4F)c4nc(c(-c5cccc(S(=O)(=O)[O-])c5F)c5ccc2[nH]5)C=C4)C=C3)cc1
REMARK SMILES IDX 7 1 6 2 5 3 4 4 3 5 2 6 1 7 30 8 31 9 92 10 32 11 91 12
REMARK SMILES IDX 33 13 34 14 35 15 85 16 36 17 90 18 84 19 86 20 37 21 89 22
REMARK SMILES IDX 83 23 82 24 38 26 70 27 50 28 69 29 51 30 54 31 68 32 87 33
REMARK SMILES IDX 52 34 53 35 67 37 88 38 55 39 39 40 40 41 48 42 41 43 43 44
REMARK SMILES IDX 49 45 42 46 44 47 45 48 46 49 47 50 71 51 72 52 80 53 73 54
REMARK SMILES IDX 75 55 81 56 74 57 76 58 77 59 78 60 79 61 56 62 57 63 65 64
REMARK SMILES IDX 58 65 60 66 66 67 59 68 61 69 62 70 63 71 64 72 8 73 9 74
REMARK SMILES IDX 10 75 11 76 12 77 13 78 14 79 15 80 16 81 17 82 18 83 22 84
REMARK SMILES IDX 19 85 21 86 23 87 20 88 24 89 25 90 29 91 26 92 28 93 27 94
REMARK H PARENT 86 25 54 36
REMARK Flexibility Score: inf
ROOT
ATOM      1  C   UNL A   1      33.409  20.391  25.208  1.00  0.00     0.188 C 
ENDROOT
BRANCH   1   2
ATOM      2  O   UNL A   1      34.600  20.942  24.630  1.00  0.00    -0.376 OA
BRANCH   2   3
ATOM      3  C   UNL A   1      35.559  21.382  25.593  1.00  0.00     0.202 C 
BRANCH   3   4
ATOM      4  C   UNL A   1      36.976  21.651  25.067  1.00  0.00     0.261 C 
BRANCH   4   5
ATOM      5  O   UNL A   1      37.966  20.730  25.543  1.00  0.00    -0.460 OA
BRANCH   5   6
ATOM      6  C   UNL A   1      39.183  20.966  26.092  1.00  0.00     0.338 C 
ATOM      7  O   UNL A   1      39.899  19.987  26.307  1.00  0.00    -0.246 OA
BRANCH   6   8
ATOM      8  C   UNL A   1      39.700  22.314  26.510  1.00  0.00     0.060 A 
ATOM      9  C   UNL A   1      39.235  23.548  26.061  1.00  0.00     0.016 A 
ATOM     10  C   UNL A   1      40.720  22.331  27.486  1.00  0.00     0.016 A 
ATOM     11  C   UNL A   1      39.752  24.745  26.561  1.00  0.00     0.010 A 
ATOM     12  C   UNL A   1      41.247  23.531  27.991  1.00  0.00     0.010 A 
ATOM     13  C   UNL A   1      40.757  24.750  27.529  1.00  0.00    -0.014 A 
BRANCH  13  14
ATOM     14  C   UNL A   1      41.323  26.059  27.921  1.00  0.00     0.031 A 
ATOM     15  C   UNL A   1      42.621  26.474  27.304  1.00  0.00     0.074 A 
ATOM     16  C   UNL A   1      40.638  26.899  28.720  1.00  0.00     0.049 A 
ATOM     17  N   UNL A   1      43.262  27.603  27.422  1.00  0.00    -0.248 NA
ATOM     18  C   UNL A   1      43.298  25.475  26.460  1.00  0.00     0.031 C 
ATOM     19  C   UNL A   1      39.393  26.562  29.397  1.00  0.00     0.029 A 
ATOM     20  N   UNL A   1      40.857  28.211  29.066  1.00  0.00    -0.354 N 
ATOM     21  C   UNL A   1      44.463  27.417  26.756  1.00  0.00     0.074 A 
ATOM     22  C   UNL A   1      44.422  26.104  26.151  1.00  0.00     0.031 C 
ATOM     23  C   UNL A   1      38.903  27.666  29.985  1.00  0.00     0.029 A 
ATOM     24  C   UNL A   1      39.804  28.785  29.752  1.00  0.00     0.049 A 
ATOM     25  H   UNL A   1      41.685  28.696  28.845  1.00  0.00     0.167 HD
ATOM     26  C   UNL A   1      45.533  28.243  26.726  1.00  0.00     0.034 A 
ATOM     27  C   UNL A   1      39.599  30.069  30.127  1.00  0.00     0.034 A 
ATOM     28  C   UNL A   1      45.565  29.512  27.399  1.00  0.00     0.049 A 
ATOM     29  C   UNL A   1      40.756  31.017  29.952  1.00  0.00     0.074 A 
ATOM     30  C   UNL A   1      46.628  30.382  27.557  1.00  0.00     0.029 A 
ATOM     31  N   UNL A   1      44.476  30.088  28.041  1.00  0.00    -0.354 N 
ATOM     32  N   UNL A   1      41.905  30.815  29.352  1.00  0.00    -0.248 NA
ATOM     33  C   UNL A   1      40.621  32.348  30.561  1.00  0.00     0.031 C 
ATOM     34  C   UNL A   1      46.187  31.471  28.318  1.00  0.00     0.029 A 
ATOM     35  C   UNL A   1      44.836  31.308  28.581  1.00  0.00     0.049 A 
ATOM     36  H   UNL A   1      43.580  29.685  28.103  1.00  0.00     0.167 HD
ATOM     37  C   UNL A   1      42.645  31.971  29.555  1.00  0.00     0.074 A 
ATOM     38  C   UNL A   1      41.783  32.904  30.251  1.00  0.00     0.031 C 
ATOM     39  C   UNL A   1      43.942  32.218  29.252  1.00  0.00     0.034 A 
BRANCH  26  40
ATOM     40  C   UNL A   1      46.771  27.726  26.048  1.00  0.00     0.023 A 
ATOM     41  C   UNL A   1      46.965  27.920  24.666  1.00  0.00     0.012 A 
ATOM     42  C   UNL A   1      47.729  27.003  26.787  1.00  0.00     0.148 A 
ATOM     43  C   UNL A   1      48.069  27.364  24.022  1.00  0.00     0.002 A 
ATOM     44  C   UNL A   1      48.853  26.497  26.148  1.00  0.00     0.091 A 
ATOM     45  F   UNL A   1      47.507  26.796  28.092  1.00  0.00    -0.205 F 
ATOM     46  C   UNL A   1      49.016  26.659  24.763  1.00  0.00     0.022 A 
BRANCH  44  47
ATOM     47  S   UNL A   1      50.161  25.639  27.029  1.00  0.00     0.127 S 
ATOM     48  O   UNL A   1      51.121  25.384  25.956  1.00  0.00    -0.237 OA
ATOM     49  O   UNL A   1      50.584  26.648  28.000  1.00  0.00    -0.237 OA
ATOM     50  O   UNL A   1      49.547  24.453  27.610  1.00  0.00    -0.744 OA
ENDBRANCH  44  47
ENDBRANCH  26  40
BRANCH  27  51
ATOM     51  C   UNL A   1      38.292  30.565  30.676  1.00  0.00     0.023 A 
ATOM     52  C   UNL A   1      37.993  30.354  32.043  1.00  0.00     0.012 A 
ATOM     53  C   UNL A   1      37.344  31.246  29.891  1.00  0.00     0.148 A 
ATOM     54  C   UNL A   1      36.790  30.806  32.604  1.00  0.00     0.002 A 
ATOM     55  C   UNL A   1      36.191  31.776  30.471  1.00  0.00     0.091 A 
ATOM     56  F   UNL A   1      37.576  31.367  28.576  1.00  0.00    -0.205 F 
ATOM     57  C   UNL A   1      35.901  31.544  31.822  1.00  0.00     0.022 A 
BRANCH  55  58
ATOM     58  S   UNL A   1      35.119  32.880  29.537  1.00  0.00     0.127 S 
ATOM     59  O   UNL A   1      36.082  33.825  28.978  1.00  0.00    -0.237 OA
ATOM     60  O   UNL A   1      34.493  32.000  28.553  1.00  0.00    -0.237 OA
ATOM     61  O   UNL A   1      34.193  33.419  30.527  1.00  0.00    -0.744 OA
ENDBRANCH  55  58
ENDBRANCH  27  51
BRANCH  39  62
ATOM     62  C   UNL A   1      44.501  33.548  29.670  1.00  0.00     0.023 A 
ATOM     63  C   UNL A   1      45.158  33.681  30.910  1.00  0.00     0.012 A 
ATOM     64  C   UNL A   1      44.443  34.644  28.791  1.00  0.00     0.148 A 
ATOM     65  C   UNL A   1      45.723  34.900  31.281  1.00  0.00     0.002 A 
ATOM     66  C   UNL A   1      45.057  35.837  29.143  1.00  0.00     0.091 A 
ATOM     67  F   UNL A   1      43.789  34.498  27.630  1.00  0.00    -0.205 F 
ATOM     68  C   UNL A   1      45.685  35.972  30.392  1.00  0.00     0.022 A 
BRANCH  66  69
ATOM     69  S   UNL A   1      45.149  37.228  28.014  1.00  0.00     0.127 S 
ATOM     70  O   UNL A   1      45.850  38.222  28.826  1.00  0.00    -0.237 OA
ATOM     71  O   UNL A   1      45.934  36.677  26.909  1.00  0.00    -0.237 OA
ATOM     72  O   UNL A   1      43.773  37.560  27.672  1.00  0.00    -0.744 OA
ENDBRANCH  66  69
ENDBRANCH  39  62
ENDBRANCH  13  14
ENDBRANCH   6   8
ENDBRANCH   5   6
ENDBRANCH   4   5
ENDBRANCH   3   4
ENDBRANCH   2   3
ENDBRANCH   1   2
BRANCH   1  73
ATOM     73  C   UNL A   1      32.134  20.958  24.582  1.00  0.00     0.188 C 
BRANCH  73  74
ATOM     74  O   UNL A   1      31.386  21.872  25.386  1.00  0.00    -0.376 OA
BRANCH  74  75
ATOM     75  C   UNL A   1      32.078  22.586  26.405  1.00  0.00     0.202 C 
BRANCH  75  76
ATOM     76  C   UNL A   1      32.235  24.096  26.225  1.00  0.00     0.261 C 
BRANCH  76  77
ATOM     77  O   UNL A   1      32.002  24.531  24.885  1.00  0.00    -0.463 OA
BRANCH  77  78
ATOM     78  C   UNL A   1      31.103  25.541  24.755  1.00  0.00     0.309 C 
ATOM     79  O   UNL A   1      29.977  25.502  25.229  1.00  0.00    -0.252 OA
BRANCH  78  80
ATOM     80  C   UNL A   1      31.656  26.749  23.998  1.00  0.00     0.107 C 
BRANCH  80  81
ATOM     81  C   UNL A   1      30.810  27.149  22.752  1.00  0.00     0.054 C 
BRANCH  81  82
ATOM     82  C   UNL A   1      29.695  28.195  22.729  1.00  0.00    -0.011 A 
ATOM     83  C   UNL A   1      30.033  29.517  22.387  1.00  0.00     0.007 A 
ATOM     84  C   UNL A   1      28.395  28.006  23.218  1.00  0.00     0.126 A 
ATOM     85  C   UNL A   1      29.152  30.589  22.585  1.00  0.00     0.000 A 
ATOM     86  C   UNL A   1      27.509  29.066  23.418  1.00  0.00     0.039 A 
ATOM     87  F   UNL A   1      27.921  26.807  23.552  1.00  0.00    -0.207 F 
ATOM     88  C   UNL A   1      27.891  30.365  23.119  1.00  0.00     0.003 A 
ENDBRANCH  81  82
ENDBRANCH  80  81
BRANCH  80  89
ATOM     89  C   UNL A   1      31.908  27.854  25.032  1.00  0.00     0.008 C 
ATOM     90  C   UNL A   1      33.356  28.270  25.216  1.00  0.00     0.033 C 
ATOM     91  C   UNL A   1      31.467  27.573  26.487  1.00  0.00     0.033 C 
ATOM     92  C   UNL A   1      33.266  29.661  25.795  1.00  0.00     0.160 C 
ATOM     93  C   UNL A   1      31.577  28.870  27.306  1.00  0.00     0.160 C 
ATOM     94  O   UNL A   1      32.791  29.595  27.128  1.00  0.00    -0.381 OA
ENDBRANCH  80  89
ENDBRANCH  78  80
ENDBRANCH  77  78
ENDBRANCH  76  77
ENDBRANCH  75  76
ENDBRANCH  74  75
ENDBRANCH  73  74
ENDBRANCH   1  73
TORSDOF 23
ENDMDL
MODEL 3
REMARK VINA RESULT:     -10.0      3.373      9.043
REMARK SMILES O=C(OCCOCCOCCOC(=O)[C@@H](Cc1ccccc1F)C1CCOCC1)c1ccc(-c2c3nc(c(-c4cccc(S(=O)(=O)[O-])c4F)c4ccc([nH]4)c(-c4cccc(S(=O)(=O)[O-])c4F)c4nc(c(-c5cccc(S(=O)(=O)[O-])c5F)c5ccc2[nH]5)C=C4)C=C3)cc1
REMARK SMILES IDX 7 1 6 2 5 3 4 4 3 5 2 6 1 7 30 8 31 9 92 10 32 11 91 12
REMARK SMILES IDX 33 13 34 14 35 15 85 16 36 17 90 18 84 19 86 20 37 21 89 22
REMARK SMILES IDX 83 23 82 24 38 26 70 27 50 28 69 29 51 30 54 31 68 32 87 33
REMARK SMILES IDX 52 34 53 35 67 37 88 38 55 39 39 40 40 41 48 42 41 43 43 44
REMARK SMILES IDX 49 45 42 46 44 47 45 48 46 49 47 50 71 51 72 52 80 53 73 54
REMARK SMILES IDX 75 55 81 56 74 57 76 58 77 59 78 60 79 61 56 62 57 63 65 64
REMARK SMILES IDX 58 65 60 66 66 67 59 68 61 69 62 70 63 71 64 72 8 73 9 74
REMARK SMILES IDX 10 75 11 76 12 77 13 78 14 79 15 80 16 81 17 82 18 83 22 84
REMARK SMILES IDX 19 85 21 86 23 87 20 88 24 89 25 90 29 91 26 92 28 93 27 94
REMARK H PARENT 86 25 54 36
REMARK Flexibility Score: inf
ROOT
ATOM      1  C   UNL A   1      35.347  33.066  27.988  1.00  0.00     0.188 C 
ENDROOT
BRANCH   1   2
ATOM      2  O   UNL A   1      34.386  34.055  27.599  1.00  0.00    -0.376 OA
BRANCH   2   3
ATOM      3  C   UNL A   1      34.417  35.237  28.400  1.00  0.00     0.202 C 
BRANCH   3   4
ATOM      4  C   UNL A   1      33.078  35.683  29.007  1.00  0.00     0.261 C 
BRANCH   4   5
ATOM      5  O   UNL A   1      32.725  35.002  30.218  1.00  0.00    -0.460 OA
BRANCH   5   6
ATOM      6  C   UNL A   1      33.297  35.056  31.446  1.00  0.00     0.338 C 
ATOM      7  O   UNL A   1      32.830  35.867  32.246  1.00  0.00    -0.246 OA
BRANCH   6   8
ATOM      8  C   UNL A   1      34.487  34.249  31.885  1.00  0.00     0.060 A 
ATOM      9  C   UNL A   1      34.458  32.953  32.397  1.00  0.00     0.016 A 
ATOM     10  C   UNL A   1      35.757  34.842  31.717  1.00  0.00     0.016 A 
ATOM     11  C   UNL A   1      35.634  32.273  32.721  1.00  0.00     0.010 A 
ATOM     12  C   UNL A   1      36.944  34.166  32.045  1.00  0.00     0.010 A 
ATOM     13  C   UNL A   1      36.883  32.868  32.547  1.00  0.00    -0.014 A 
BRANCH  13  14
ATOM     14  C   UNL A   1      38.069  32.120  33.020  1.00  0.00     0.031 A 
ATOM     15  C   UNL A   1      38.772  31.232  32.043  1.00  0.00     0.074 A 
ATOM     16  C   UNL A   1      38.565  32.317  34.256  1.00  0.00     0.049 A 
ATOM     17  N   UNL A   1      39.874  30.553  32.197  1.00  0.00    -0.248 NA
ATOM     18  C   UNL A   1      38.137  31.070  30.724  1.00  0.00     0.031 C 
ATOM     19  C   UNL A   1      37.924  33.127  35.283  1.00  0.00     0.029 A 
ATOM     20  N   UNL A   1      39.733  31.898  34.847  1.00  0.00    -0.354 N 
ATOM     21  C   UNL A   1      40.010  29.803  31.039  1.00  0.00     0.074 A 
ATOM     22  C   UNL A   1      38.936  30.184  30.149  1.00  0.00     0.031 C 
ATOM     23  C   UNL A   1      38.753  33.235  36.334  1.00  0.00     0.029 A 
ATOM     24  C   UNL A   1      39.974  32.487  36.074  1.00  0.00     0.049 A 
ATOM     25  H   UNL A   1      40.341  31.241  34.436  1.00  0.00     0.167 HD
ATOM     26  C   UNL A   1      40.910  28.827  30.782  1.00  0.00     0.034 A 
ATOM     27  C   UNL A   1      41.064  32.431  36.872  1.00  0.00     0.034 A 
ATOM     28  C   UNL A   1      41.923  28.425  31.719  1.00  0.00     0.049 A 
ATOM     29  C   UNL A   1      42.131  31.438  36.492  1.00  0.00     0.074 A 
ATOM     30  C   UNL A   1      42.807  27.366  31.637  1.00  0.00     0.029 A 
ATOM     31  N   UNL A   1      42.174  29.066  32.926  1.00  0.00    -0.354 N 
ATOM     32  N   UNL A   1      42.228  30.706  35.409  1.00  0.00    -0.248 NA
ATOM     33  C   UNL A   1      43.204  31.211  37.471  1.00  0.00     0.031 C 
ATOM     34  C   UNL A   1      43.575  27.352  32.807  1.00  0.00     0.029 A 
ATOM     35  C   UNL A   1      43.211  28.437  33.589  1.00  0.00     0.049 A 
ATOM     36  H   UNL A   1      41.685  29.852  33.259  1.00  0.00     0.167 HD
ATOM     37  C   UNL A   1      43.340  29.898  35.597  1.00  0.00     0.074 A 
ATOM     38  C   UNL A   1      43.938  30.295  36.856  1.00  0.00     0.031 C 
ATOM     39  C   UNL A   1      43.792  28.875  34.832  1.00  0.00     0.034 A 
BRANCH  26  40
ATOM     40  C   UNL A   1      40.739  28.067  29.496  1.00  0.00     0.023 A 
ATOM     41  C   UNL A   1      39.736  27.086  29.372  1.00  0.00     0.012 A 
ATOM     42  C   UNL A   1      41.613  28.304  28.416  1.00  0.00     0.148 A 
ATOM     43  C   UNL A   1      39.635  26.321  28.211  1.00  0.00     0.002 A 
ATOM     44  C   UNL A   1      41.473  27.575  27.244  1.00  0.00     0.091 A 
ATOM     45  F   UNL A   1      42.585  29.215  28.569  1.00  0.00    -0.205 F 
ATOM     46  C   UNL A   1      40.498  26.570  27.145  1.00  0.00     0.022 A 
BRANCH  44  47
ATOM     47  S   UNL A   1      42.488  27.873  25.794  1.00  0.00     0.127 S 
ATOM     48  O   UNL A   1      42.008  29.185  25.362  1.00  0.00    -0.237 OA
ATOM     49  O   UNL A   1      43.836  27.873  26.362  1.00  0.00    -0.237 OA
ATOM     50  O   UNL A   1      42.214  26.776  24.875  1.00  0.00    -0.744 OA
ENDBRANCH  44  47
ENDBRANCH  26  40
BRANCH  27  51
ATOM     51  C   UNL A   1      41.246  33.312  38.075  1.00  0.00     0.023 A 
ATOM     52  C   UNL A   1      40.711  32.902  39.320  1.00  0.00     0.012 A 
ATOM     53  C   UNL A   1      41.940  34.535  38.027  1.00  0.00     0.148 A 
ATOM     54  C   UNL A   1      40.862  33.686  40.472  1.00  0.00     0.002 A 
ATOM     55  C   UNL A   1      42.170  35.268  39.192  1.00  0.00     0.091 A 
ATOM     56  F   UNL A   1      42.369  34.977  36.836  1.00  0.00    -0.205 F 
ATOM     57  C   UNL A   1      41.618  34.857  40.414  1.00  0.00     0.022 A 
BRANCH  55  58
ATOM     58  S   UNL A   1      43.288  36.678  39.184  1.00  0.00     0.127 S 
ATOM     59  O   UNL A   1      42.804  37.433  38.031  1.00  0.00    -0.237 OA
ATOM     60  O   UNL A   1      43.041  37.319  40.475  1.00  0.00    -0.237 OA
ATOM     61  O   UNL A   1      44.618  36.093  39.055  1.00  0.00    -0.744 OA
ENDBRANCH  55  58
ENDBRANCH  27  51
BRANCH  39  62
ATOM     62  C   UNL A   1      44.988  28.120  35.336  1.00  0.00     0.023 A 
ATOM     63  C   UNL A   1      46.289  28.587  35.059  1.00  0.00     0.012 A 
ATOM     64  C   UNL A   1      44.813  26.990  36.155  1.00  0.00     0.148 A 
ATOM     65  C   UNL A   1      47.401  27.918  35.566  1.00  0.00     0.002 A 
ATOM     66  C   UNL A   1      45.922  26.363  36.703  1.00  0.00     0.091 A 
ATOM     67  F   UNL A   1      43.566  26.551  36.380  1.00  0.00    -0.205 F 
ATOM     68  C   UNL A   1      47.217  26.816  36.400  1.00  0.00     0.022 A 
BRANCH  66  69
ATOM     69  S   UNL A   1      45.770  25.009  37.871  1.00  0.00     0.127 S 
ATOM     70  O   UNL A   1      45.008  25.634  38.951  1.00  0.00    -0.237 OA
ATOM     71  O   UNL A   1      45.029  24.015  37.095  1.00  0.00    -0.237 OA
ATOM     72  O   UNL A   1      47.131  24.618  38.211  1.00  0.00    -0.744 OA
ENDBRANCH  66  69
ENDBRANCH  39  62
ENDBRANCH  13  14
ENDBRANCH   6   8
ENDBRANCH   5   6
ENDBRANCH   4   5
ENDBRANCH   3   4
ENDBRANCH   2   3
ENDBRANCH   1   2
BRANCH   1  73
ATOM     73  C   UNL A   1      34.740  31.967  28.862  1.00  0.00     0.188 C 
BRANCH  73  74
ATOM     74  O   UNL A   1      33.810  31.091  28.223  1.00  0.00    -0.376 OA
BRANCH  74  75
ATOM     75  C   UNL A   1      34.221  30.438  27.027  1.00  0.00     0.202 C 
BRANCH  75  76
ATOM     76  C   UNL A   1      33.987  28.931  26.929  1.00  0.00     0.261 C 
BRANCH  76  77
ATOM     77  O   UNL A   1      33.040  28.572  25.921  1.00  0.00    -0.463 OA
BRANCH  77  78
ATOM     78  C   UNL A   1      31.874  28.052  26.384  1.00  0.00     0.309 C 
ATOM     79  O   UNL A   1      31.389  28.351  27.465  1.00  0.00    -0.252 OA
BRANCH  78  80
ATOM     80  C   UNL A   1      31.207  27.092  25.399  1.00  0.00     0.107 C 
BRANCH  80  81
ATOM     81  C   UNL A   1      31.000  27.695  23.977  1.00  0.00     0.054 C 
BRANCH  81  82
ATOM     82  C   UNL A   1      29.772  28.476  23.509  1.00  0.00    -0.011 A 
ATOM     83  C   UNL A   1      29.879  29.875  23.399  1.00  0.00     0.007 A 
ATOM     84  C   UNL A   1      28.479  27.952  23.373  1.00  0.00     0.126 A 
ATOM     85  C   UNL A   1      28.758  30.699  23.234  1.00  0.00     0.000 A 
ATOM     86  C   UNL A   1      27.356  28.764  23.207  1.00  0.00     0.039 A 
ATOM     87  F   UNL A   1      28.226  26.646  23.421  1.00  0.00    -0.207 F 
ATOM     88  C   UNL A   1      27.489  30.143  23.154  1.00  0.00     0.003 A 
ENDBRANCH  81  82
ENDBRANCH  80  81
BRANCH  80  89
ATOM     89  C   UNL A   1      31.974  25.766  25.470  1.00  0.00     0.008 C 
ATOM     90  C   UNL A   1      31.984  24.939  24.197  1.00  0.00     0.033 C 
ATOM     91  C   UNL A   1      31.505  24.734  26.520  1.00  0.00     0.033 C 
ATOM     92  C   UNL A   1      33.201  24.057  24.343  1.00  0.00     0.160 C 
ATOM     93  C   UNL A   1      32.533  23.594  26.602  1.00  0.00     0.160 C 
ATOM     94  O   UNL A   1      32.968  23.082  25.345  1.00  0.00    -0.381 OA
ENDBRANCH  80  89
ENDBRANCH  78  80
ENDBRANCH  77  78
ENDBRANCH  76  77
ENDBRANCH  75  76
ENDBRANCH  74  75
ENDBRANCH  73  74
ENDBRANCH   1  73
TORSDOF 23
ENDMDL
