MODEL 1
REMARK VINA RESULT:      -8.3      0.000      0.000
REMARK SMILES CN(C1CC1)S(=O)(=O)CC(=O)OCCOCCOCCOC(=O)c1ccc(-c2c3nc(c(-c4cccc(S(=O)(=O)[O-])c4F)c4ccc([nH]4)c(-c4cccc(S(=O)(=O)[O-])c4F)c4nc(c(-c5cccc(S(=O)(=O)[O-])c5F)c5ccc2[nH]5)C=C4)C=C3)cc1
REMARK SMILES IDX 16 1 15 2 14 3 13 4 12 5 10 6 11 7 9 8 6 9 7 10 8 11 2 12
REMARK SMILES IDX 1 13 3 14 4 15 5 16 17 17 18 18 19 19 20 20 21 21 22 22
REMARK SMILES IDX 23 23 24 24 25 25 86 26 26 27 85 28 27 29 28 30 29 31 79 32
REMARK SMILES IDX 30 33 84 34 78 35 80 36 31 37 83 38 77 39 76 40 32 42 64 43
REMARK SMILES IDX 44 44 63 45 45 46 48 47 62 48 81 49 46 50 47 51 61 53 82 54
REMARK SMILES IDX 49 55 33 56 34 57 42 58 35 59 37 60 43 61 36 62 38 63 39 64
REMARK SMILES IDX 40 65 41 66 65 67 66 68 74 69 67 70 69 71 75 72 68 73 70 74
REMARK SMILES IDX 71 75 72 76 73 77 50 78 51 79 59 80 52 81 54 82 60 83 53 84
REMARK SMILES IDX 55 85 56 86 57 87 58 88
REMARK H PARENT 80 41 48 52
REMARK Flexibility Score: inf
ROOT
ATOM      1  C   UNL A   1      33.039  27.247  22.928  1.00  0.00     0.188 C 
ENDROOT
BRANCH   1   2
ATOM      2  O   UNL A   1      33.429  26.808  21.638  1.00  0.00    -0.376 OA
BRANCH   2   3
ATOM      3  C   UNL A   1      32.816  25.638  21.103  1.00  0.00     0.202 C 
BRANCH   3   4
ATOM      4  C   UNL A   1      31.899  24.822  22.020  1.00  0.00     0.261 C 
BRANCH   4   5
ATOM      5  O   UNL A   1      32.644  23.830  22.755  1.00  0.00    -0.462 OA
BRANCH   5   6
ATOM      6  C   UNL A   1      31.925  23.001  23.551  1.00  0.00     0.322 C 
ATOM      7  O   UNL A   1      30.922  23.359  24.161  1.00  0.00    -0.251 OA
BRANCH   6   8
ATOM      8  C   UNL A   1      32.307  21.561  23.418  1.00  0.00     0.276 C 
BRANCH   8   9
ATOM      9  S   UNL A   1      33.172  20.866  24.805  1.00  0.00     0.224 S 
ATOM     10  O   UNL A   1      34.226  20.016  24.308  1.00  0.00    -0.212 OA
ATOM     11  O   UNL A   1      32.215  20.334  25.765  1.00  0.00    -0.212 OA
BRANCH   9  12
ATOM     12  N   UNL A   1      33.944  22.237  25.524  1.00  0.00    -0.201 NA
ATOM     13  C   UNL A   1      33.703  22.356  26.989  1.00  0.00     0.124 C 
BRANCH  12  14
ATOM     14  C   UNL A   1      35.389  22.399  25.213  1.00  0.00     0.072 C 
ATOM     15  C   UNL A   1      35.881  22.613  23.808  1.00  0.00     0.022 C 
ATOM     16  C   UNL A   1      35.924  23.747  24.787  1.00  0.00     0.022 C 
ENDBRANCH  12  14
ENDBRANCH   9  12
ENDBRANCH   8   9
ENDBRANCH   6   8
ENDBRANCH   5   6
ENDBRANCH   4   5
ENDBRANCH   3   4
ENDBRANCH   2   3
ENDBRANCH   1   2
BRANCH   1  17
ATOM     17  C   UNL A   1      32.582  28.707  23.114  1.00  0.00     0.188 C 
BRANCH  17  18
ATOM     18  O   UNL A   1      31.335  29.021  23.689  1.00  0.00    -0.376 OA
BRANCH  18  19
ATOM     19  C   UNL A   1      31.336  29.806  24.869  1.00  0.00     0.202 C 
BRANCH  19  20
ATOM     20  C   UNL A   1      32.151  29.356  26.090  1.00  0.00     0.261 C 
BRANCH  20  21
ATOM     21  O   UNL A   1      33.441  29.979  26.226  1.00  0.00    -0.460 OA
BRANCH  21  22
ATOM     22  C   UNL A   1      33.453  31.087  27.014  1.00  0.00     0.338 C 
ATOM     23  O   UNL A   1      32.632  31.985  27.024  1.00  0.00    -0.246 OA
BRANCH  22  24
ATOM     24  C   UNL A   1      34.591  31.075  27.956  1.00  0.00     0.060 A 
ATOM     25  C   UNL A   1      35.475  32.153  28.000  1.00  0.00     0.016 A 
ATOM     26  C   UNL A   1      34.917  29.895  28.617  1.00  0.00     0.016 A 
ATOM     27  C   UNL A   1      36.712  32.037  28.621  1.00  0.00     0.010 A 
ATOM     28  C   UNL A   1      36.131  29.802  29.310  1.00  0.00     0.010 A 
ATOM     29  C   UNL A   1      37.060  30.860  29.280  1.00  0.00    -0.014 A 
BRANCH  29  30
ATOM     30  C   UNL A   1      38.436  30.700  29.820  1.00  0.00     0.031 A 
ATOM     31  C   UNL A   1      39.401  29.795  29.106  1.00  0.00     0.074 A 
ATOM     32  C   UNL A   1      38.842  31.385  30.907  1.00  0.00     0.049 A 
ATOM     33  N   UNL A   1      40.540  29.311  29.519  1.00  0.00    -0.248 NA
ATOM     34  C   UNL A   1      39.026  29.370  27.746  1.00  0.00     0.031 C 
ATOM     35  C   UNL A   1      38.048  32.377  31.637  1.00  0.00     0.029 A 
ATOM     36  N   UNL A   1      40.029  31.343  31.597  1.00  0.00    -0.354 N 
ATOM     37  C   UNL A   1      40.964  28.440  28.523  1.00  0.00     0.074 A 
ATOM     38  C   UNL A   1      39.980  28.495  27.464  1.00  0.00     0.031 C 
ATOM     39  C   UNL A   1      38.771  32.856  32.660  1.00  0.00     0.029 A 
ATOM     40  C   UNL A   1      40.029  32.124  32.731  1.00  0.00     0.049 A 
ATOM     41  H   UNL A   1      40.803  30.807  31.310  1.00  0.00     0.167 HD
ATOM     42  C   UNL A   1      42.066  27.656  28.505  1.00  0.00     0.034 A 
ATOM     43  C   UNL A   1      40.905  32.187  33.753  1.00  0.00     0.034 A 
ATOM     44  C   UNL A   1      43.072  27.674  29.533  1.00  0.00     0.049 A 
ATOM     45  C   UNL A   1      42.106  31.283  33.729  1.00  0.00     0.074 A 
ATOM     46  C   UNL A   1      44.238  26.933  29.609  1.00  0.00     0.029 A 
ATOM     47  N   UNL A   1      43.036  28.482  30.659  1.00  0.00    -0.354 N 
ATOM     48  N   UNL A   1      42.486  30.439  32.799  1.00  0.00    -0.248 NA
ATOM     49  C   UNL A   1      42.998  31.336  34.895  1.00  0.00     0.031 C 
ATOM     50  C   UNL A   1      44.894  27.277  30.796  1.00  0.00     0.029 A 
ATOM     51  C   UNL A   1      44.155  28.257  31.440  1.00  0.00     0.049 A 
ATOM     52  H   UNL A   1      42.319  29.122  30.871  1.00  0.00     0.167 HD
ATOM     53  C   UNL A   1      43.673  29.881  33.255  1.00  0.00     0.074 A 
ATOM     54  C   UNL A   1      43.963  30.501  34.533  1.00  0.00     0.031 C 
ATOM     55  C   UNL A   1      44.447  28.927  32.681  1.00  0.00     0.034 A 
BRANCH  42  56
ATOM     56  C   UNL A   1      42.226  26.691  27.361  1.00  0.00     0.023 A 
ATOM     57  C   UNL A   1      42.858  27.089  26.167  1.00  0.00     0.012 A 
ATOM     58  C   UNL A   1      41.775  25.361  27.495  1.00  0.00     0.148 A 
ATOM     59  C   UNL A   1      43.008  26.189  25.111  1.00  0.00     0.002 A 
ATOM     60  C   UNL A   1      41.973  24.457  26.458  1.00  0.00     0.091 A 
ATOM     61  F   UNL A   1      41.155  25.008  28.629  1.00  0.00    -0.205 F 
ATOM     62  C   UNL A   1      42.576  24.873  25.260  1.00  0.00     0.022 A 
BRANCH  60  63
ATOM     63  S   UNL A   1      41.524  22.724  26.588  1.00  0.00     0.127 S 
ATOM     64  O   UNL A   1      40.071  22.805  26.733  1.00  0.00    -0.237 OA
ATOM     65  O   UNL A   1      41.979  22.193  25.302  1.00  0.00    -0.237 OA
ATOM     66  O   UNL A   1      42.238  22.207  27.746  1.00  0.00    -0.744 OA
ENDBRANCH  60  63
ENDBRANCH  42  56
BRANCH  43  67
ATOM     67  C   UNL A   1      40.655  33.104  34.901  1.00  0.00     0.023 A 
ATOM     68  C   UNL A   1      41.275  34.368  34.932  1.00  0.00     0.012 A 
ATOM     69  C   UNL A   1      39.791  32.740  35.954  1.00  0.00     0.148 A 
ATOM     70  C   UNL A   1      41.057  35.242  36.000  1.00  0.00     0.002 A 
ATOM     71  C   UNL A   1      39.524  33.642  36.977  1.00  0.00     0.091 A 
ATOM     72  F   UNL A   1      39.231  31.523  35.925  1.00  0.00    -0.205 F 
ATOM     73  C   UNL A   1      40.172  34.885  37.013  1.00  0.00     0.022 A 
BRANCH  71  74
ATOM     74  S   UNL A   1      38.285  33.321  38.238  1.00  0.00     0.127 S 
ATOM     75  O   UNL A   1      37.086  33.109  37.432  1.00  0.00    -0.237 OA
ATOM     76  O   UNL A   1      38.816  32.119  38.883  1.00  0.00    -0.237 OA
ATOM     77  O   UNL A   1      38.279  34.502  39.090  1.00  0.00    -0.744 OA
ENDBRANCH  71  74
ENDBRANCH  43  67
BRANCH  55  78
ATOM     78  C   UNL A   1      45.711  28.535  33.399  1.00  0.00     0.023 A 
ATOM     79  C   UNL A   1      46.913  29.222  33.136  1.00  0.00     0.012 A 
ATOM     80  C   UNL A   1      45.686  27.531  34.385  1.00  0.00     0.148 A 
ATOM     81  C   UNL A   1      48.079  28.889  33.822  1.00  0.00     0.002 A 
ATOM     82  C   UNL A   1      46.840  27.241  35.101  1.00  0.00     0.091 A 
ATOM     83  F   UNL A   1      44.535  26.877  34.603  1.00  0.00    -0.205 F 
ATOM     84  C   UNL A   1      48.041  27.910  34.812  1.00  0.00     0.022 A 
BRANCH  82  85
ATOM     85  S   UNL A   1      46.858  26.067  36.459  1.00  0.00     0.127 S 
ATOM     86  O   UNL A   1      47.753  26.725  37.410  1.00  0.00    -0.237 OA
ATOM     87  O   UNL A   1      45.451  26.039  36.863  1.00  0.00    -0.237 OA
ATOM     88  O   UNL A   1      47.351  24.814  35.901  1.00  0.00    -0.744 OA
ENDBRANCH  82  85
ENDBRANCH  55  78
ENDBRANCH  29  30
ENDBRANCH  22  24
ENDBRANCH  21  22
ENDBRANCH  20  21
ENDBRANCH  19  20
ENDBRANCH  18  19
ENDBRANCH  17  18
ENDBRANCH   1  17
TORSDOF 23
ENDMDL
MODEL 2
REMARK VINA RESULT:      -8.3      2.431      8.103
REMARK SMILES CN(C1CC1)S(=O)(=O)CC(=O)OCCOCCOCCOC(=O)c1ccc(-c2c3nc(c(-c4cccc(S(=O)(=O)[O-])c4F)c4ccc([nH]4)c(-c4cccc(S(=O)(=O)[O-])c4F)c4nc(c(-c5cccc(S(=O)(=O)[O-])c5F)c5ccc2[nH]5)C=C4)C=C3)cc1
REMARK SMILES IDX 16 1 15 2 14 3 13 4 12 5 10 6 11 7 9 8 6 9 7 10 8 11 2 12
REMARK SMILES IDX 1 13 3 14 4 15 5 16 17 17 18 18 19 19 20 20 21 21 22 22
REMARK SMILES IDX 23 23 24 24 25 25 86 26 26 27 85 28 27 29 28 30 29 31 79 32
REMARK SMILES IDX 30 33 84 34 78 35 80 36 31 37 83 38 77 39 76 40 32 42 64 43
REMARK SMILES IDX 44 44 63 45 45 46 48 47 62 48 81 49 46 50 47 51 61 53 82 54
REMARK SMILES IDX 49 55 33 56 34 57 42 58 35 59 37 60 43 61 36 62 38 63 39 64
REMARK SMILES IDX 40 65 41 66 65 67 66 68 74 69 67 70 69 71 75 72 68 73 70 74
REMARK SMILES IDX 71 75 72 76 73 77 50 78 51 79 59 80 52 81 54 82 60 83 53 84
REMARK SMILES IDX 55 85 56 86 57 87 58 88
REMARK H PARENT 80 41 48 52
REMARK Flexibility Score: inf
ROOT
ATOM      1  C   UNL A   1      32.298  28.510  23.892  1.00  0.00     0.188 C 
ENDROOT
BRANCH   1   2
ATOM      2  O   UNL A   1      30.888  28.647  23.880  1.00  0.00    -0.376 OA
BRANCH   2   3
ATOM      3  C   UNL A   1      30.113  27.645  23.227  1.00  0.00     0.202 C 
BRANCH   3   4
ATOM      4  C   UNL A   1      29.603  26.468  24.065  1.00  0.00     0.261 C 
BRANCH   4   5
ATOM      5  O   UNL A   1      30.337  26.349  25.299  1.00  0.00    -0.462 OA
BRANCH   5   6
ATOM      6  C   UNL A   1      30.778  25.108  25.624  1.00  0.00     0.322 C 
ATOM      7  O   UNL A   1      30.869  24.711  26.782  1.00  0.00    -0.251 OA
BRANCH   6   8
ATOM      8  C   UNL A   1      30.897  24.188  24.452  1.00  0.00     0.276 C 
BRANCH   8   9
ATOM      9  S   UNL A   1      32.537  23.987  23.798  1.00  0.00     0.224 S 
ATOM     10  O   UNL A   1      33.322  25.138  24.172  1.00  0.00    -0.212 OA
ATOM     11  O   UNL A   1      32.462  23.595  22.397  1.00  0.00    -0.212 OA
BRANCH   9  12
ATOM     12  N   UNL A   1      33.167  22.650  24.695  1.00  0.00    -0.201 NA
ATOM     13  C   UNL A   1      32.128  21.662  25.100  1.00  0.00     0.124 C 
BRANCH  12  14
ATOM     14  C   UNL A   1      34.339  21.963  24.091  1.00  0.00     0.072 C 
ATOM     15  C   UNL A   1      35.589  22.709  23.713  1.00  0.00     0.022 C 
ATOM     16  C   UNL A   1      35.608  21.786  24.893  1.00  0.00     0.022 C 
ENDBRANCH  12  14
ENDBRANCH   9  12
ENDBRANCH   8   9
ENDBRANCH   6   8
ENDBRANCH   5   6
ENDBRANCH   4   5
ENDBRANCH   3   4
ENDBRANCH   2   3
ENDBRANCH   1   2
BRANCH   1  17
ATOM     17  C   UNL A   1      33.041  28.556  25.241  1.00  0.00     0.188 C 
BRANCH  17  18
ATOM     18  O   UNL A   1      32.345  28.652  26.463  1.00  0.00    -0.376 OA
BRANCH  18  19
ATOM     19  C   UNL A   1      32.145  29.947  27.004  1.00  0.00     0.202 C 
BRANCH  19  20
ATOM     20  C   UNL A   1      33.204  31.039  26.794  1.00  0.00     0.261 C 
BRANCH  20  21
ATOM     21  O   UNL A   1      33.171  32.113  27.751  1.00  0.00    -0.460 OA
BRANCH  21  22
ATOM     22  C   UNL A   1      34.269  32.914  27.739  1.00  0.00     0.338 C 
ATOM     23  O   UNL A   1      34.307  34.098  27.464  1.00  0.00    -0.246 OA
BRANCH  22  24
ATOM     24  C   UNL A   1      35.480  32.186  28.173  1.00  0.00     0.060 A 
ATOM     25  C   UNL A   1      35.407  30.830  28.488  1.00  0.00     0.016 A 
ATOM     26  C   UNL A   1      36.627  32.904  28.499  1.00  0.00     0.016 A 
ATOM     27  C   UNL A   1      36.425  30.205  29.197  1.00  0.00     0.010 A 
ATOM     28  C   UNL A   1      37.688  32.256  29.146  1.00  0.00     0.010 A 
ATOM     29  C   UNL A   1      37.577  30.910  29.541  1.00  0.00    -0.014 A 
BRANCH  29  30
ATOM     30  C   UNL A   1      38.595  30.271  30.416  1.00  0.00     0.031 A 
ATOM     31  C   UNL A   1      38.675  30.678  31.862  1.00  0.00     0.074 A 
ATOM     32  C   UNL A   1      39.410  29.306  29.947  1.00  0.00     0.049 A 
ATOM     33  N   UNL A   1      39.621  30.454  32.732  1.00  0.00    -0.248 NA
ATOM     34  C   UNL A   1      37.539  31.451  32.394  1.00  0.00     0.031 C 
ATOM     35  C   UNL A   1      39.372  28.738  28.598  1.00  0.00     0.029 A 
ATOM     36  N   UNL A   1      40.444  28.637  30.557  1.00  0.00    -0.354 N 
ATOM     37  C   UNL A   1      39.253  31.149  33.877  1.00  0.00     0.074 A 
ATOM     38  C   UNL A   1      37.973  31.766  33.606  1.00  0.00     0.031 C 
ATOM     39  C   UNL A   1      40.326  27.800  28.486  1.00  0.00     0.029 A 
ATOM     40  C   UNL A   1      41.116  27.785  29.710  1.00  0.00     0.049 A 
ATOM     41  H   UNL A   1      40.680  28.755  31.505  1.00  0.00     0.167 HD
ATOM     42  C   UNL A   1      39.931  31.269  35.041  1.00  0.00     0.034 A 
ATOM     43  C   UNL A   1      42.281  27.126  29.871  1.00  0.00     0.034 A 
ATOM     44  C   UNL A   1      41.164  30.583  35.318  1.00  0.00     0.049 A 
ATOM     45  C   UNL A   1      43.035  27.301  31.160  1.00  0.00     0.074 A 
ATOM     46  C   UNL A   1      41.929  30.620  36.471  1.00  0.00     0.029 A 
ATOM     47  N   UNL A   1      41.807  29.728  34.437  1.00  0.00    -0.354 N 
ATOM     48  N   UNL A   1      42.697  27.983  32.228  1.00  0.00    -0.248 NA
ATOM     49  C   UNL A   1      44.331  26.619  31.266  1.00  0.00     0.031 C 
ATOM     50  C   UNL A   1      43.049  29.804  36.275  1.00  0.00     0.029 A 
ATOM     51  C   UNL A   1      42.962  29.232  35.014  1.00  0.00     0.049 A 
ATOM     52  H   UNL A   1      41.488  29.505  33.533  1.00  0.00     0.167 HD
ATOM     53  C   UNL A   1      43.725  27.791  33.142  1.00  0.00     0.074 A 
ATOM     54  C   UNL A   1      44.686  26.908  32.511  1.00  0.00     0.031 C 
ATOM     55  C   UNL A   1      43.874  28.312  34.385  1.00  0.00     0.034 A 
BRANCH  42  56
ATOM     56  C   UNL A   1      39.377  32.199  36.087  1.00  0.00     0.023 A 
ATOM     57  C   UNL A   1      38.402  31.755  37.000  1.00  0.00     0.012 A 
ATOM     58  C   UNL A   1      39.863  33.520  36.182  1.00  0.00     0.148 A 
ATOM     59  C   UNL A   1      37.894  32.620  37.971  1.00  0.00     0.002 A 
ATOM     60  C   UNL A   1      39.390  34.360  37.182  1.00  0.00     0.091 A 
ATOM     61  F   UNL A   1      40.774  33.931  35.288  1.00  0.00    -0.205 F 
ATOM     62  C   UNL A   1      38.395  33.917  38.069  1.00  0.00     0.022 A 
BRANCH  60  63
ATOM     63  S   UNL A   1      40.031  36.018  37.437  1.00  0.00     0.127 S 
ATOM     64  O   UNL A   1      39.303  36.435  38.635  1.00  0.00    -0.237 OA
ATOM     65  O   UNL A   1      41.457  35.765  37.648  1.00  0.00    -0.237 OA
ATOM     66  O   UNL A   1      39.718  36.762  36.227  1.00  0.00    -0.744 OA
ENDBRANCH  60  63
ENDBRANCH  42  56
BRANCH  43  67
ATOM     67  C   UNL A   1      42.825  26.281  28.770  1.00  0.00     0.023 A 
ATOM     68  C   UNL A   1      42.349  24.966  28.601  1.00  0.00     0.012 A 
ATOM     69  C   UNL A   1      43.795  26.778  27.876  1.00  0.00     0.148 A 
ATOM     70  C   UNL A   1      42.847  24.155  27.578  1.00  0.00     0.002 A 
ATOM     71  C   UNL A   1      44.234  25.990  26.819  1.00  0.00     0.091 A 
ATOM     72  F   UNL A   1      44.258  28.021  28.067  1.00  0.00    -0.205 F 
ATOM     73  C   UNL A   1      43.777  24.672  26.680  1.00  0.00     0.022 A 
BRANCH  71  74
ATOM     74  S   UNL A   1      45.314  26.628  25.534  1.00  0.00     0.127 S 
ATOM     75  O   UNL A   1      44.548  27.767  25.036  1.00  0.00    -0.237 OA
ATOM     76  O   UNL A   1      46.515  26.978  26.295  1.00  0.00    -0.237 OA
ATOM     77  O   UNL A   1      45.501  25.528  24.598  1.00  0.00    -0.744 OA
ENDBRANCH  71  74
ENDBRANCH  43  67
BRANCH  55  78
ATOM     78  C   UNL A   1      45.091  27.897  35.169  1.00  0.00     0.023 A 
ATOM     79  C   UNL A   1      45.061  26.723  35.948  1.00  0.00     0.012 A 
ATOM     80  C   UNL A   1      46.284  28.638  35.074  1.00  0.00     0.148 A 
ATOM     81  C   UNL A   1      46.194  26.313  36.648  1.00  0.00     0.002 A 
ATOM     82  C   UNL A   1      47.424  28.194  35.732  1.00  0.00     0.091 A 
ATOM     83  F   UNL A   1      46.282  29.762  34.343  1.00  0.00    -0.205 F 
ATOM     84  C   UNL A   1      47.377  27.039  36.531  1.00  0.00     0.022 A 
BRANCH  82  85
ATOM     85  S   UNL A   1      49.013  29.010  35.557  1.00  0.00     0.127 S 
ATOM     86  O   UNL A   1      49.866  28.188  36.414  1.00  0.00    -0.237 OA
ATOM     87  O   UNL A   1      49.274  28.873  34.124  1.00  0.00    -0.237 OA
ATOM     88  O   UNL A   1      48.812  30.382  36.006  1.00  0.00    -0.744 OA
ENDBRANCH  82  85
ENDBRANCH  55  78
ENDBRANCH  29  30
ENDBRANCH  22  24
ENDBRANCH  21  22
ENDBRANCH  20  21
ENDBRANCH  19  20
ENDBRANCH  18  19
ENDBRANCH  17  18
ENDBRANCH   1  17
TORSDOF 23
ENDMDL
MODEL 3
REMARK VINA RESULT:      -8.1      2.130      2.622
REMARK SMILES CN(C1CC1)S(=O)(=O)CC(=O)OCCOCCOCCOC(=O)c1ccc(-c2c3nc(c(-c4cccc(S(=O)(=O)[O-])c4F)c4ccc([nH]4)c(-c4cccc(S(=O)(=O)[O-])c4F)c4nc(c(-c5cccc(S(=O)(=O)[O-])c5F)c5ccc2[nH]5)C=C4)C=C3)cc1
REMARK SMILES IDX 16 1 15 2 14 3 13 4 12 5 10 6 11 7 9 8 6 9 7 10 8 11 2 12
REMARK SMILES IDX 1 13 3 14 4 15 5 16 17 17 18 18 19 19 20 20 21 21 22 22
REMARK SMILES IDX 23 23 24 24 25 25 86 26 26 27 85 28 27 29 28 30 29 31 79 32
REMARK SMILES IDX 30 33 84 34 78 35 80 36 31 37 83 38 77 39 76 40 32 42 64 43
REMARK SMILES IDX 44 44 63 45 45 46 48 47 62 48 81 49 46 50 47 51 61 53 82 54
REMARK SMILES IDX 49 55 33 56 34 57 42 58 35 59 37 60 43 61 36 62 38 63 39 64
REMARK SMILES IDX 40 65 41 66 65 67 66 68 74 69 67 70 69 71 75 72 68 73 70 74
REMARK SMILES IDX 71 75 72 76 73 77 50 78 51 79 59 80 52 81 54 82 60 83 53 84
REMARK SMILES IDX 55 85 56 86 57 87 58 88
REMARK H PARENT 80 41 48 52
REMARK Flexibility Score: inf
ROOT
ATOM      1  C   UNL A   1      33.148  26.139  23.661  1.00  0.00     0.188 C 
ENDROOT
BRANCH   1   2
ATOM      2  O   UNL A   1      33.658  25.590  22.458  1.00  0.00    -0.376 OA
BRANCH   2   3
ATOM      3  C   UNL A   1      33.552  24.184  22.253  1.00  0.00     0.202 C 
BRANCH   3   4
ATOM      4  C   UNL A   1      32.469  23.423  23.025  1.00  0.00     0.261 C 
BRANCH   4   5
ATOM      5  O   UNL A   1      33.014  22.787  24.198  1.00  0.00    -0.462 OA
BRANCH   5   6
ATOM      6  C   UNL A   1      32.290  21.769  24.727  1.00  0.00     0.322 C 
ATOM      7  O   UNL A   1      31.465  21.927  25.621  1.00  0.00    -0.251 OA
BRANCH   6   8
ATOM      8  C   UNL A   1      32.395  20.493  23.954  1.00  0.00     0.276 C 
BRANCH   8   9
ATOM      9  S   UNL A   1      33.220  19.159  24.787  1.00  0.00     0.224 S 
ATOM     10  O   UNL A   1      32.635  19.005  26.096  1.00  0.00    -0.212 OA
ATOM     11  O   UNL A   1      34.662  19.318  24.661  1.00  0.00    -0.212 OA
BRANCH   9  12
ATOM     12  N   UNL A   1      32.755  17.766  23.873  1.00  0.00    -0.201 NA
ATOM     13  C   UNL A   1      32.527  18.049  22.429  1.00  0.00     0.124 C 
BRANCH  12  14
ATOM     14  C   UNL A   1      33.614  16.565  24.046  1.00  0.00     0.072 C 
ATOM     15  C   UNL A   1      34.258  16.230  25.362  1.00  0.00     0.022 C 
ATOM     16  C   UNL A   1      33.122  15.393  24.861  1.00  0.00     0.022 C 
ENDBRANCH  12  14
ENDBRANCH   9  12
ENDBRANCH   8   9
ENDBRANCH   6   8
ENDBRANCH   5   6
ENDBRANCH   4   5
ENDBRANCH   3   4
ENDBRANCH   2   3
ENDBRANCH   1   2
BRANCH   1  17
ATOM     17  C   UNL A   1      32.855  27.650  23.728  1.00  0.00     0.188 C 
BRANCH  17  18
ATOM     18  O   UNL A   1      31.733  28.154  24.416  1.00  0.00    -0.376 OA
BRANCH  18  19
ATOM     19  C   UNL A   1      31.897  29.357  25.146  1.00  0.00     0.202 C 
BRANCH  19  20
ATOM     20  C   UNL A   1      32.602  29.337  26.511  1.00  0.00     0.261 C 
BRANCH  20  21
ATOM     21  O   UNL A   1      33.955  29.826  26.506  1.00  0.00    -0.460 OA
BRANCH  21  22
ATOM     22  C   UNL A   1      34.143  30.974  27.210  1.00  0.00     0.338 C 
ATOM     23  O   UNL A   1      33.473  31.987  27.148  1.00  0.00    -0.246 OA
BRANCH  22  24
ATOM     24  C   UNL A   1      35.269  30.854  28.159  1.00  0.00     0.060 A 
ATOM     25  C   UNL A   1      36.279  31.816  28.172  1.00  0.00     0.016 A 
ATOM     26  C   UNL A   1      35.447  29.666  28.861  1.00  0.00     0.016 A 
ATOM     27  C   UNL A   1      37.491  31.571  28.804  1.00  0.00     0.010 A 
ATOM     28  C   UNL A   1      36.639  29.449  29.564  1.00  0.00     0.010 A 
ATOM     29  C   UNL A   1      37.691  30.383  29.504  1.00  0.00    -0.014 A 
BRANCH  29  30
ATOM     30  C   UNL A   1      39.036  30.074  30.057  1.00  0.00     0.031 A 
ATOM     31  C   UNL A   1      39.920  29.099  29.330  1.00  0.00     0.074 A 
ATOM     32  C   UNL A   1      39.489  30.685  31.170  1.00  0.00     0.049 A 
ATOM     33  N   UNL A   1      41.000  28.495  29.743  1.00  0.00    -0.248 NA
ATOM     34  C   UNL A   1      39.526  28.752  27.953  1.00  0.00     0.031 C 
ATOM     35  C   UNL A   1      38.784  31.729  31.918  1.00  0.00     0.029 A 
ATOM     36  N   UNL A   1      40.655  30.508  31.874  1.00  0.00    -0.354 N 
ATOM     37  C   UNL A   1      41.352  27.615  28.727  1.00  0.00     0.074 A 
ATOM     38  C   UNL A   1      40.395  27.797  27.658  1.00  0.00     0.031 C 
ATOM     39  C   UNL A   1      39.533  32.106  32.964  1.00  0.00     0.029 A 
ATOM     40  C   UNL A   1      40.713  31.253  33.030  1.00  0.00     0.049 A 
ATOM     41  H   UNL A   1      41.377  29.907  31.581  1.00  0.00     0.167 HD
ATOM     42  C   UNL A   1      42.373  26.728  28.701  1.00  0.00     0.034 A 
ATOM     43  C   UNL A   1      41.574  31.200  34.065  1.00  0.00     0.034 A 
ATOM     44  C   UNL A   1      43.359  26.618  29.742  1.00  0.00     0.049 A 
ATOM     45  C   UNL A   1      42.681  30.184  34.030  1.00  0.00     0.074 A 
ATOM     46  C   UNL A   1      44.446  25.765  29.812  1.00  0.00     0.029 A 
ATOM     47  N   UNL A   1      43.384  27.394  30.891  1.00  0.00    -0.354 N 
ATOM     48  N   UNL A   1      42.992  29.334  33.081  1.00  0.00    -0.248 NA
ATOM     49  C   UNL A   1      43.555  30.117  35.209  1.00  0.00     0.031 C 
ATOM     50  C   UNL A   1      45.113  26.009  31.017  1.00  0.00     0.029 A 
ATOM     51  C   UNL A   1      44.462  27.039  31.680  1.00  0.00     0.049 A 
ATOM     52  H   UNL A   1      42.729  28.095  31.113  1.00  0.00     0.167 HD
ATOM     53  C   UNL A   1      44.112  28.650  33.536  1.00  0.00     0.074 A 
ATOM     54  C   UNL A   1      44.440  29.202  34.836  1.00  0.00     0.031 C 
ATOM     55  C   UNL A   1      44.798  27.641  32.945  1.00  0.00     0.034 A 
BRANCH  42  56
ATOM     56  C   UNL A   1      42.457  25.784  27.531  1.00  0.00     0.023 A 
ATOM     57  C   UNL A   1      43.115  26.165  26.347  1.00  0.00     0.012 A 
ATOM     58  C   UNL A   1      41.905  24.490  27.631  1.00  0.00     0.148 A 
ATOM     59  C   UNL A   1      43.194  25.285  25.267  1.00  0.00     0.002 A 
ATOM     60  C   UNL A   1      42.031  23.602  26.570  1.00  0.00     0.091 A 
ATOM     61  F   UNL A   1      41.261  24.155  28.758  1.00  0.00    -0.205 F 
ATOM     62  C   UNL A   1      42.663  24.002  25.382  1.00  0.00     0.022 A 
BRANCH  60  63
ATOM     63  S   UNL A   1      41.450  21.905  26.655  1.00  0.00     0.127 S 
ATOM     64  O   UNL A   1      42.189  21.397  27.810  1.00  0.00    -0.237 OA
ATOM     65  O   UNL A   1      40.016  22.084  26.879  1.00  0.00    -0.237 OA
ATOM     66  O   UNL A   1      41.794  21.296  25.378  1.00  0.00    -0.744 OA
ENDBRANCH  60  63
ENDBRANCH  42  56
BRANCH  43  67
ATOM     67  C   UNL A   1      41.396  32.105  35.237  1.00  0.00     0.023 A 
ATOM     68  C   UNL A   1      40.571  31.706  36.307  1.00  0.00     0.012 A 
ATOM     69  C   UNL A   1      42.054  33.349  35.308  1.00  0.00     0.148 A 
ATOM     70  C   UNL A   1      40.387  32.540  37.413  1.00  0.00     0.002 A 
ATOM     71  C   UNL A   1      41.922  34.142  36.441  1.00  0.00     0.091 A 
ATOM     72  F   UNL A   1      42.813  33.727  34.270  1.00  0.00    -0.205 F 
ATOM     73  C   UNL A   1      41.074  33.749  37.486  1.00  0.00     0.022 A 
BRANCH  71  74
ATOM     74  S   UNL A   1      42.886  35.638  36.681  1.00  0.00     0.127 S 
ATOM     75  O   UNL A   1      43.099  36.082  35.307  1.00  0.00    -0.237 OA
ATOM     76  O   UNL A   1      41.966  36.467  37.462  1.00  0.00    -0.237 OA
ATOM     77  O   UNL A   1      44.079  35.223  37.408  1.00  0.00    -0.744 OA
ENDBRANCH  71  74
ENDBRANCH  43  67
BRANCH  55  78
ATOM     78  C   UNL A   1      46.006  27.107  33.667  1.00  0.00     0.023 A 
ATOM     79  C   UNL A   1      47.259  27.732  33.504  1.00  0.00     0.012 A 
ATOM     80  C   UNL A   1      45.880  26.028  34.562  1.00  0.00     0.148 A 
ATOM     81  C   UNL A   1      48.375  27.266  34.197  1.00  0.00     0.002 A 
ATOM     82  C   UNL A   1      46.985  25.604  35.289  1.00  0.00     0.091 A 
ATOM     83  F   UNL A   1      44.682  25.437  34.686  1.00  0.00    -0.205 F 
ATOM     84  C   UNL A   1      48.236  26.212  35.097  1.00  0.00     0.022 A 
BRANCH  82  85
ATOM     85  S   UNL A   1      46.876  24.322  36.541  1.00  0.00     0.127 S 
ATOM     86  O   UNL A   1      46.523  23.151  35.739  1.00  0.00    -0.237 OA
ATOM     87  O   UNL A   1      48.235  24.303  37.084  1.00  0.00    -0.237 OA
ATOM     88  O   UNL A   1      45.855  24.765  37.482  1.00  0.00    -0.744 OA
ENDBRANCH  82  85
ENDBRANCH  55  78
ENDBRANCH  29  30
ENDBRANCH  22  24
ENDBRANCH  21  22
ENDBRANCH  20  21
ENDBRANCH  19  20
ENDBRANCH  18  19
ENDBRANCH  17  18
ENDBRANCH   1  17
TORSDOF 23
ENDMDL
