MODEL 1
REMARK VINA RESULT:      -9.8      0.000      0.000
REMARK SMILES CC1(C)OC(=O)C(/C=N/[C@@H](CCC(N)=O)C(=O)OCCOCCOCCOC(=O)c2ccc(-c3c4nc(c(-c5cccc(S(=O)(=O)[O-])c5F)c5ccc([nH]5)c(-c5cccc(S(=O)(=O)[O-])c5F)c5nc(c(-c6cccc(S(=O)(=O)[O-])c6F)c6ccc3[nH]6)C=C5)C=C4)cc2)C(=O)O1
REMARK SMILES IDX 22 1 21 2 20 3 19 4 18 5 16 6 17 7 10 8 9 9 8 10 7 11 1 12
REMARK SMILES IDX 2 13 3 14 4 15 95 16 5 17 93 18 6 19 94 20 11 21 12 22 13 23
REMARK SMILES IDX 14 24 15 25 23 28 24 29 25 30 26 31 27 32 28 33 29 34 30 35
REMARK SMILES IDX 31 36 92 37 32 38 91 39 33 40 34 41 35 42 85 43 36 44 90 45
REMARK SMILES IDX 84 46 86 47 37 48 89 49 83 50 82 51 38 53 70 54 50 55 69 56
REMARK SMILES IDX 51 57 54 58 68 59 87 60 52 61 53 62 67 64 88 65 55 66 39 67
REMARK SMILES IDX 40 68 48 69 41 70 43 71 49 72 42 73 44 74 45 75 46 76 47 77
REMARK SMILES IDX 71 78 72 79 80 80 73 81 75 82 81 83 74 84 76 85 77 86 78 87
REMARK SMILES IDX 79 88 56 89 57 90 65 91 58 92 60 93 66 94 59 95 61 96 62 97
REMARK SMILES IDX 63 98 64 99
REMARK H PARENT 14 26 14 27 86 52 54 63
REMARK Flexibility Score: inf
ROOT
ATOM      1  C   UNL A   1      34.924  31.645  28.028  1.00  0.00     0.188 C 
ENDROOT
BRANCH   1   2
ATOM      2  O   UNL A   1      34.354  30.908  26.954  1.00  0.00    -0.376 OA
BRANCH   2   3
ATOM      3  C   UNL A   1      33.178  30.143  27.180  1.00  0.00     0.202 C 
BRANCH   3   4
ATOM      4  C   UNL A   1      32.436  29.520  25.989  1.00  0.00     0.261 C 
BRANCH   4   5
ATOM      5  O   UNL A   1      33.191  28.542  25.240  1.00  0.00    -0.462 OA
BRANCH   5   6
ATOM      6  C   UNL A   1      32.484  27.490  24.765  1.00  0.00     0.330 C 
ATOM      7  O   UNL A   1      31.735  26.809  25.465  1.00  0.00    -0.250 OA
BRANCH   6   8
ATOM      8  C   UNL A   1      32.729  27.104  23.310  1.00  0.00     0.215 C 
BRANCH   8   9
ATOM      9  N   UNL A   1      33.255  25.791  22.905  1.00  0.00    -0.281 NA
ATOM     10  C   UNL A   1      34.027  25.035  23.590  1.00  0.00     0.106 C 
BRANCH  10  11
ATOM     11  C   UNL A   1      34.297  23.636  23.092  1.00  0.00     0.250 C 
ATOM     12  C   UNL A   1      34.325  22.036  26.518  1.00  0.00     0.106 C 
ATOM     13  C   UNL A   1      34.670  21.679  25.076  1.00  0.00     0.252 C 
ATOM     14  C   UNL A   1      35.181  20.240  24.998  1.00  0.00     0.106 C 
ATOM     15  O   UNL A   1      35.735  22.526  24.656  1.00  0.00    -0.422 OA
ATOM     16  O   UNL A   1      33.466  21.713  24.309  1.00  0.00    -0.422 OA
ATOM     17  C   UNL A   1      35.634  23.121  23.456  1.00  0.00     0.329 C 
ATOM     18  C   UNL A   1      33.193  22.715  23.461  1.00  0.00     0.329 C 
ATOM     19  O   UNL A   1      36.622  23.293  22.753  1.00  0.00    -0.251 OA
ATOM     20  O   UNL A   1      32.060  22.828  23.001  1.00  0.00    -0.251 OA
ENDBRANCH  10  11
ENDBRANCH   8   9
BRANCH   8  21
ATOM     21  C   UNL A   1      31.543  27.512  22.429  1.00  0.00     0.049 C 
BRANCH  21  22
ATOM     22  C   UNL A   1      30.371  28.184  23.143  1.00  0.00     0.102 C 
BRANCH  22  23
ATOM     23  C   UNL A   1      30.156  29.643  22.812  1.00  0.00     0.217 C 
ATOM     24  N   UNL A   1      30.662  30.069  21.624  1.00  0.00    -0.370 N 
ATOM     25  O   UNL A   1      29.541  30.407  23.549  1.00  0.00    -0.275 OA
ATOM     26  H   UNL A   1      31.152  29.443  21.044  1.00  0.00     0.159 HD
ATOM     27  H   UNL A   1      30.537  31.004  21.344  1.00  0.00     0.159 HD
ENDBRANCH  22  23
ENDBRANCH  21  22
ENDBRANCH   8  21
ENDBRANCH   6   8
ENDBRANCH   5   6
ENDBRANCH   4   5
ENDBRANCH   3   4
ENDBRANCH   2   3
ENDBRANCH   1   2
BRANCH   1  28
ATOM     28  C   UNL A   1      34.818  33.180  28.018  1.00  0.00     0.188 C 
BRANCH  28  29
ATOM     29  O   UNL A   1      33.568  33.708  28.403  1.00  0.00    -0.376 OA
BRANCH  29  30
ATOM     30  C   UNL A   1      33.298  35.082  28.169  1.00  0.00     0.202 C 
BRANCH  30  31
ATOM     31  C   UNL A   1      32.528  35.990  29.147  1.00  0.00     0.261 C 
BRANCH  31  32
ATOM     32  O   UNL A   1      33.192  36.395  30.347  1.00  0.00    -0.460 OA
BRANCH  32  33
ATOM     33  C   UNL A   1      32.910  35.704  31.477  1.00  0.00     0.338 C 
ATOM     34  O   UNL A   1      31.871  35.722  32.116  1.00  0.00    -0.246 OA
BRANCH  33  35
ATOM     35  C   UNL A   1      34.022  34.758  31.701  1.00  0.00     0.060 A 
ATOM     36  C   UNL A   1      33.806  33.608  32.475  1.00  0.00     0.016 A 
ATOM     37  C   UNL A   1      35.270  34.998  31.122  1.00  0.00     0.016 A 
ATOM     38  C   UNL A   1      34.848  32.705  32.694  1.00  0.00     0.010 A 
ATOM     39  C   UNL A   1      36.318  34.108  31.363  1.00  0.00     0.010 A 
ATOM     40  C   UNL A   1      36.121  32.976  32.176  1.00  0.00    -0.014 A 
BRANCH  40  41
ATOM     41  C   UNL A   1      37.296  32.202  32.642  1.00  0.00     0.031 A 
ATOM     42  C   UNL A   1      37.926  32.592  33.951  1.00  0.00     0.074 A 
ATOM     43  C   UNL A   1      37.817  31.201  31.911  1.00  0.00     0.049 A 
ATOM     44  N   UNL A   1      39.002  32.125  34.527  1.00  0.00    -0.248 NA
ATOM     45  C   UNL A   1      37.254  33.662  34.707  1.00  0.00     0.031 C 
ATOM     46  C   UNL A   1      37.295  30.725  30.632  1.00  0.00     0.029 A 
ATOM     47  N   UNL A   1      38.930  30.428  32.132  1.00  0.00    -0.354 N 
ATOM     48  C   UNL A   1      39.159  32.868  35.690  1.00  0.00     0.074 A 
ATOM     49  C   UNL A   1      38.074  33.823  35.735  1.00  0.00     0.031 C 
ATOM     50  C   UNL A   1      38.109  29.764  30.162  1.00  0.00     0.029 A 
ATOM     51  C   UNL A   1      39.222  29.578  31.091  1.00  0.00     0.049 A 
ATOM     52  H   UNL A   1      39.466  30.477  32.955  1.00  0.00     0.167 HD
ATOM     53  C   UNL A   1      40.115  32.760  36.643  1.00  0.00     0.034 A 
ATOM     54  C   UNL A   1      40.283  28.768  30.900  1.00  0.00     0.034 A 
ATOM     55  C   UNL A   1      41.186  31.805  36.602  1.00  0.00     0.049 A 
ATOM     56  C   UNL A   1      41.351  28.684  31.962  1.00  0.00     0.074 A 
ATOM     57  C   UNL A   1      42.175  31.581  37.543  1.00  0.00     0.029 A 
ATOM     58  N   UNL A   1      41.426  30.929  35.555  1.00  0.00    -0.354 N 
ATOM     59  N   UNL A   1      41.425  29.308  33.113  1.00  0.00    -0.248 NA
ATOM     60  C   UNL A   1      42.469  27.761  31.711  1.00  0.00     0.031 C 
ATOM     61  C   UNL A   1      43.037  30.598  37.046  1.00  0.00     0.029 A 
ATOM     62  C   UNL A   1      42.558  30.176  35.816  1.00  0.00     0.049 A 
ATOM     63  H   UNL A   1      40.873  30.854  34.744  1.00  0.00     0.167 HD
ATOM     64  C   UNL A   1      42.570  28.824  33.739  1.00  0.00     0.074 A 
ATOM     65  C   UNL A   1      43.150  27.844  32.846  1.00  0.00     0.031 C 
ATOM     66  C   UNL A   1      43.098  29.167  34.941  1.00  0.00     0.034 A 
BRANCH  53  67
ATOM     67  C   UNL A   1      40.035  33.702  37.817  1.00  0.00     0.023 A 
ATOM     68  C   UNL A   1      40.751  34.916  37.795  1.00  0.00     0.012 A 
ATOM     69  C   UNL A   1      39.219  33.401  38.925  1.00  0.00     0.148 A 
ATOM     70  C   UNL A   1      40.688  35.798  38.874  1.00  0.00     0.002 A 
ATOM     71  C   UNL A   1      39.122  34.307  39.974  1.00  0.00     0.091 A 
ATOM     72  F   UNL A   1      38.565  32.231  38.938  1.00  0.00    -0.205 F 
ATOM     73  C   UNL A   1      39.866  35.497  39.957  1.00  0.00     0.022 A 
BRANCH  71  74
ATOM     74  S   UNL A   1      38.028  34.051  41.375  1.00  0.00     0.127 S 
ATOM     75  O   UNL A   1      36.875  33.416  40.738  1.00  0.00    -0.237 OA
ATOM     76  O   UNL A   1      38.822  33.160  42.223  1.00  0.00    -0.237 OA
ATOM     77  O   UNL A   1      37.782  35.369  41.941  1.00  0.00    -0.744 OA
ENDBRANCH  71  74
ENDBRANCH  53  67
BRANCH  54  78
ATOM     78  C   UNL A   1      40.379  27.944  29.660  1.00  0.00     0.023 A 
ATOM     79  C   UNL A   1      39.556  26.812  29.511  1.00  0.00     0.012 A 
ATOM     80  C   UNL A   1      41.276  28.282  28.628  1.00  0.00     0.148 A 
ATOM     81  C   UNL A   1      39.645  26.012  28.371  1.00  0.00     0.002 A 
ATOM     82  C   UNL A   1      41.321  27.513  27.471  1.00  0.00     0.091 A 
ATOM     83  F   UNL A   1      42.062  29.355  28.796  1.00  0.00    -0.205 F 
ATOM     84  C   UNL A   1      40.518  26.368  27.347  1.00  0.00     0.022 A 
BRANCH  82  85
ATOM     85  S   UNL A   1      42.328  27.957  26.052  1.00  0.00     0.127 S 
ATOM     86  O   UNL A   1      43.680  27.770  26.573  1.00  0.00    -0.237 OA
ATOM     87  O   UNL A   1      41.906  26.963  25.063  1.00  0.00    -0.237 OA
ATOM     88  O   UNL A   1      41.967  29.328  25.722  1.00  0.00    -0.744 OA
ENDBRANCH  82  85
ENDBRANCH  54  78
BRANCH  66  89
ATOM     89  C   UNL A   1      44.343  28.446  35.397  1.00  0.00     0.023 A 
ATOM     90  C   UNL A   1      45.611  29.034  35.212  1.00  0.00     0.012 A 
ATOM     91  C   UNL A   1      44.246  27.218  36.082  1.00  0.00     0.148 A 
ATOM     92  C   UNL A   1      46.763  28.394  35.669  1.00  0.00     0.002 A 
ATOM     93  C   UNL A   1      45.393  26.612  36.582  1.00  0.00     0.091 A 
ATOM     94  F   UNL A   1      43.033  26.666  36.237  1.00  0.00    -0.205 F 
ATOM     95  C   UNL A   1      46.653  27.192  36.364  1.00  0.00     0.022 A 
BRANCH  93  96
ATOM     96  S   UNL A   1      45.341  25.116  37.575  1.00  0.00     0.127 S 
ATOM     97  O   UNL A   1      44.686  25.591  38.794  1.00  0.00    -0.237 OA
ATOM     98  O   UNL A   1      44.524  24.226  36.751  1.00  0.00    -0.237 OA
ATOM     99  O   UNL A   1      46.724  24.690  37.737  1.00  0.00    -0.744 OA
ENDBRANCH  93  96
ENDBRANCH  66  89
ENDBRANCH  40  41
ENDBRANCH  33  35
ENDBRANCH  32  33
ENDBRANCH  31  32
ENDBRANCH  30  31
ENDBRANCH  29  30
ENDBRANCH  28  29
ENDBRANCH   1  28
TORSDOF 25
ENDMDL
MODEL 2
REMARK VINA RESULT:      -9.4      6.394     12.264
REMARK SMILES CC1(C)OC(=O)C(/C=N/[C@@H](CCC(N)=O)C(=O)OCCOCCOCCOC(=O)c2ccc(-c3c4nc(c(-c5cccc(S(=O)(=O)[O-])c5F)c5ccc([nH]5)c(-c5cccc(S(=O)(=O)[O-])c5F)c5nc(c(-c6cccc(S(=O)(=O)[O-])c6F)c6ccc3[nH]6)C=C5)C=C4)cc2)C(=O)O1
REMARK SMILES IDX 22 1 21 2 20 3 19 4 18 5 16 6 17 7 10 8 9 9 8 10 7 11 1 12
REMARK SMILES IDX 2 13 3 14 4 15 95 16 5 17 93 18 6 19 94 20 11 21 12 22 13 23
REMARK SMILES IDX 14 24 15 25 23 28 24 29 25 30 26 31 27 32 28 33 29 34 30 35
REMARK SMILES IDX 31 36 92 37 32 38 91 39 33 40 34 41 35 42 85 43 36 44 90 45
REMARK SMILES IDX 84 46 86 47 37 48 89 49 83 50 82 51 38 53 70 54 50 55 69 56
REMARK SMILES IDX 51 57 54 58 68 59 87 60 52 61 53 62 67 64 88 65 55 66 39 67
REMARK SMILES IDX 40 68 48 69 41 70 43 71 49 72 42 73 44 74 45 75 46 76 47 77
REMARK SMILES IDX 71 78 72 79 80 80 73 81 75 82 81 83 74 84 76 85 77 86 78 87
REMARK SMILES IDX 79 88 56 89 57 90 65 91 58 92 60 93 66 94 59 95 61 96 62 97
REMARK SMILES IDX 63 98 64 99
REMARK H PARENT 14 26 14 27 86 52 54 63
REMARK Flexibility Score: inf
ROOT
ATOM      1  C   UNL A   1      39.239  22.468  26.243  1.00  0.00     0.188 C 
ENDROOT
BRANCH   1   2
ATOM      2  O   UNL A   1      37.889  22.821  25.972  1.00  0.00    -0.376 OA
BRANCH   2   3
ATOM      3  C   UNL A   1      37.002  21.842  25.449  1.00  0.00     0.202 C 
BRANCH   3   4
ATOM      4  C   UNL A   1      35.606  21.673  26.066  1.00  0.00     0.261 C 
BRANCH   4   5
ATOM      5  O   UNL A   1      34.524  21.564  25.115  1.00  0.00    -0.462 OA
BRANCH   5   6
ATOM      6  C   UNL A   1      34.275  22.672  24.379  1.00  0.00     0.330 C 
ATOM      7  O   UNL A   1      34.473  22.735  23.166  1.00  0.00    -0.250 OA
BRANCH   6   8
ATOM      8  C   UNL A   1      33.818  23.911  25.143  1.00  0.00     0.215 C 
BRANCH   8   9
ATOM      9  N   UNL A   1      33.499  25.188  24.484  1.00  0.00    -0.281 NA
ATOM     10  C   UNL A   1      33.893  26.350  24.844  1.00  0.00     0.106 C 
BRANCH  10  11
ATOM     11  C   UNL A   1      33.630  27.519  23.928  1.00  0.00     0.250 C 
ATOM     12  C   UNL A   1      29.861  27.235  24.056  1.00  0.00     0.106 C 
ATOM     13  C   UNL A   1      30.935  27.982  23.273  1.00  0.00     0.252 C 
ATOM     14  C   UNL A   1      30.287  28.888  22.225  1.00  0.00     0.106 C 
ATOM     15  O   UNL A   1      31.718  27.021  22.571  1.00  0.00    -0.422 OA
ATOM     16  O   UNL A   1      31.621  28.851  24.175  1.00  0.00    -0.422 OA
ATOM     17  C   UNL A   1      33.055  27.137  22.621  1.00  0.00     0.329 C 
ATOM     18  C   UNL A   1      32.856  28.579  24.622  1.00  0.00     0.329 C 
ATOM     19  O   UNL A   1      33.748  26.855  21.652  1.00  0.00    -0.251 OA
ATOM     20  O   UNL A   1      33.314  29.219  25.565  1.00  0.00    -0.251 OA
ENDBRANCH  10  11
ENDBRANCH   8   9
BRANCH   8  21
ATOM     21  C   UNL A   1      32.750  23.550  26.181  1.00  0.00     0.049 C 
BRANCH  21  22
ATOM     22  C   UNL A   1      31.562  22.735  25.673  1.00  0.00     0.102 C 
BRANCH  22  23
ATOM     23  C   UNL A   1      30.250  22.986  26.379  1.00  0.00     0.217 C 
ATOM     24  N   UNL A   1      29.949  24.286  26.642  1.00  0.00    -0.370 N 
ATOM     25  O   UNL A   1      29.477  22.083  26.684  1.00  0.00    -0.275 OA
ATOM     26  H   UNL A   1      30.580  24.998  26.391  1.00  0.00     0.159 HD
ATOM     27  H   UNL A   1      29.100  24.514  27.084  1.00  0.00     0.159 HD
ENDBRANCH  22  23
ENDBRANCH  21  22
ENDBRANCH   8  21
ENDBRANCH   6   8
ENDBRANCH   5   6
ENDBRANCH   4   5
ENDBRANCH   3   4
ENDBRANCH   2   3
ENDBRANCH   1   2
BRANCH   1  28
ATOM     28  C   UNL A   1      39.686  21.012  26.027  1.00  0.00     0.188 C 
BRANCH  28  29
ATOM     29  O   UNL A   1      40.362  20.413  27.111  1.00  0.00    -0.376 OA
BRANCH  29  30
ATOM     30  C   UNL A   1      41.770  20.251  27.040  1.00  0.00     0.202 C 
BRANCH  30  31
ATOM     31  C   UNL A   1      42.482  19.304  26.055  1.00  0.00     0.261 C 
BRANCH  31  32
ATOM     32  O   UNL A   1      43.894  19.458  25.881  1.00  0.00    -0.460 OA
BRANCH  32  33
ATOM     33  C   UNL A   1      44.319  20.030  24.730  1.00  0.00     0.338 C 
ATOM     34  O   UNL A   1      44.273  19.558  23.606  1.00  0.00    -0.246 OA
BRANCH  33  35
ATOM     35  C   UNL A   1      44.676  21.430  25.043  1.00  0.00     0.060 A 
ATOM     36  C   UNL A   1      45.134  21.755  26.328  1.00  0.00     0.016 A 
ATOM     37  C   UNL A   1      44.581  22.411  24.055  1.00  0.00     0.016 A 
ATOM     38  C   UNL A   1      45.475  23.073  26.637  1.00  0.00     0.010 A 
ATOM     39  C   UNL A   1      44.898  23.733  24.372  1.00  0.00     0.010 A 
ATOM     40  C   UNL A   1      45.315  24.076  25.673  1.00  0.00    -0.014 A 
BRANCH  40  41
ATOM     41  C   UNL A   1      45.379  25.504  26.063  1.00  0.00     0.031 A 
ATOM     42  C   UNL A   1      46.727  26.172  26.082  1.00  0.00     0.074 A 
ATOM     43  C   UNL A   1      44.279  26.187  26.425  1.00  0.00     0.049 A 
ATOM     44  N   UNL A   1      47.050  27.379  26.464  1.00  0.00    -0.248 NA
ATOM     45  C   UNL A   1      47.865  25.361  25.617  1.00  0.00     0.031 C 
ATOM     46  C   UNL A   1      42.919  25.655  26.442  1.00  0.00     0.029 A 
ATOM     47  N   UNL A   1      44.146  27.474  26.885  1.00  0.00    -0.354 N 
ATOM     48  C   UNL A   1      48.430  27.462  26.323  1.00  0.00     0.074 A 
ATOM     49  C   UNL A   1      48.884  26.180  25.830  1.00  0.00     0.031 C 
ATOM     50  C   UNL A   1      42.090  26.598  26.924  1.00  0.00     0.029 A 
ATOM     51  C   UNL A   1      42.865  27.786  27.276  1.00  0.00     0.049 A 
ATOM     52  H   UNL A   1      44.894  28.112  26.929  1.00  0.00     0.167 HD
ATOM     53  C   UNL A   1      49.247  28.512  26.571  1.00  0.00     0.034 A 
ATOM     54  C   UNL A   1      42.384  28.892  27.878  1.00  0.00     0.034 A 
ATOM     55  C   UNL A   1      48.793  29.788  27.052  1.00  0.00     0.049 A 
ATOM     56  C   UNL A   1      43.317  30.041  28.172  1.00  0.00     0.074 A 
ATOM     57  C   UNL A   1      49.534  30.932  27.286  1.00  0.00     0.029 A 
ATOM     58  N   UNL A   1      47.482  30.082  27.395  1.00  0.00    -0.354 N 
ATOM     59  N   UNL A   1      44.600  30.149  27.924  1.00  0.00    -0.248 NA
ATOM     60  C   UNL A   1      42.729  31.233  28.802  1.00  0.00     0.031 C 
ATOM     61  C   UNL A   1      48.678  31.906  27.810  1.00  0.00     0.029 A 
ATOM     62  C   UNL A   1      47.395  31.385  27.858  1.00  0.00     0.049 A 
ATOM     63  H   UNL A   1      46.725  29.458  27.322  1.00  0.00     0.167 HD
ATOM     64  C   UNL A   1      44.963  31.431  28.329  1.00  0.00     0.074 A 
ATOM     65  C   UNL A   1      43.761  32.067  28.823  1.00  0.00     0.031 C 
ATOM     66  C   UNL A   1      46.183  32.024  28.302  1.00  0.00     0.034 A 
BRANCH  53  67
ATOM     67  C   UNL A   1      50.721  28.323  26.319  1.00  0.00     0.023 A 
ATOM     68  C   UNL A   1      51.247  28.537  25.029  1.00  0.00     0.012 A 
ATOM     69  C   UNL A   1      51.590  27.970  27.370  1.00  0.00     0.148 A 
ATOM     70  C   UNL A   1      52.608  28.364  24.779  1.00  0.00     0.002 A 
ATOM     71  C   UNL A   1      52.952  27.850  27.125  1.00  0.00     0.091 A 
ATOM     72  F   UNL A   1      51.067  27.748  28.584  1.00  0.00    -0.205 F 
ATOM     73  C   UNL A   1      53.460  28.031  25.828  1.00  0.00     0.022 A 
BRANCH  71  74
ATOM     74  S   UNL A   1      54.142  27.505  28.425  1.00  0.00     0.127 S 
ATOM     75  O   UNL A   1      53.933  28.638  29.325  1.00  0.00    -0.237 OA
ATOM     76  O   UNL A   1      53.666  26.220  28.942  1.00  0.00    -0.237 OA
ATOM     77  O   UNL A   1      55.444  27.454  27.776  1.00  0.00    -0.744 OA
ENDBRANCH  71  74
ENDBRANCH  53  67
BRANCH  54  78
ATOM     78  C   UNL A   1      40.935  28.985  28.222  1.00  0.00     0.023 A 
ATOM     79  C   UNL A   1      39.994  29.239  27.207  1.00  0.00     0.012 A 
ATOM     80  C   UNL A   1      40.488  28.814  29.547  1.00  0.00     0.148 A 
ATOM     81  C   UNL A   1      38.636  29.354  27.507  1.00  0.00     0.002 A 
ATOM     82  C   UNL A   1      39.129  28.875  29.831  1.00  0.00     0.091 A 
ATOM     83  F   UNL A   1      41.402  28.588  30.501  1.00  0.00    -0.205 F 
ATOM     84  C   UNL A   1      38.203  29.161  28.816  1.00  0.00     0.022 A 
BRANCH  82  85
ATOM     85  S   UNL A   1      38.465  28.526  31.463  1.00  0.00     0.127 S 
ATOM     86  O   UNL A   1      38.806  27.116  31.631  1.00  0.00    -0.237 OA
ATOM     87  O   UNL A   1      39.232  29.450  32.302  1.00  0.00    -0.237 OA
ATOM     88  O   UNL A   1      37.042  28.823  31.384  1.00  0.00    -0.744 OA
ENDBRANCH  82  85
ENDBRANCH  54  78
BRANCH  66  89
ATOM     89  C   UNL A   1      46.284  33.454  28.772  1.00  0.00     0.023 A 
ATOM     90  C   UNL A   1      46.725  33.741  30.080  1.00  0.00     0.012 A 
ATOM     91  C   UNL A   1      46.014  34.517  27.887  1.00  0.00     0.148 A 
ATOM     92  C   UNL A   1      46.862  35.061  30.509  1.00  0.00     0.002 A 
ATOM     93  C   UNL A   1      46.204  35.829  28.304  1.00  0.00     0.091 A 
ATOM     94  F   UNL A   1      45.582  34.226  26.651  1.00  0.00    -0.205 F 
ATOM     95  C   UNL A   1      46.614  36.103  29.618  1.00  0.00     0.022 A 
BRANCH  93  96
ATOM     96  S   UNL A   1      46.007  37.232  27.199  1.00  0.00     0.127 S 
ATOM     97  O   UNL A   1      44.562  37.237  26.978  1.00  0.00    -0.237 OA
ATOM     98  O   UNL A   1      46.503  38.341  28.015  1.00  0.00    -0.237 OA
ATOM     99  O   UNL A   1      46.816  36.937  26.024  1.00  0.00    -0.744 OA
ENDBRANCH  93  96
ENDBRANCH  66  89
ENDBRANCH  40  41
ENDBRANCH  33  35
ENDBRANCH  32  33
ENDBRANCH  31  32
ENDBRANCH  30  31
ENDBRANCH  29  30
ENDBRANCH  28  29
ENDBRANCH   1  28
TORSDOF 25
ENDMDL
MODEL 3
REMARK VINA RESULT:      -9.0      2.261      2.608
REMARK SMILES CC1(C)OC(=O)C(/C=N/[C@@H](CCC(N)=O)C(=O)OCCOCCOCCOC(=O)c2ccc(-c3c4nc(c(-c5cccc(S(=O)(=O)[O-])c5F)c5ccc([nH]5)c(-c5cccc(S(=O)(=O)[O-])c5F)c5nc(c(-c6cccc(S(=O)(=O)[O-])c6F)c6ccc3[nH]6)C=C5)C=C4)cc2)C(=O)O1
REMARK SMILES IDX 22 1 21 2 20 3 19 4 18 5 16 6 17 7 10 8 9 9 8 10 7 11 1 12
REMARK SMILES IDX 2 13 3 14 4 15 95 16 5 17 93 18 6 19 94 20 11 21 12 22 13 23
REMARK SMILES IDX 14 24 15 25 23 28 24 29 25 30 26 31 27 32 28 33 29 34 30 35
REMARK SMILES IDX 31 36 92 37 32 38 91 39 33 40 34 41 35 42 85 43 36 44 90 45
REMARK SMILES IDX 84 46 86 47 37 48 89 49 83 50 82 51 38 53 70 54 50 55 69 56
REMARK SMILES IDX 51 57 54 58 68 59 87 60 52 61 53 62 67 64 88 65 55 66 39 67
REMARK SMILES IDX 40 68 48 69 41 70 43 71 49 72 42 73 44 74 45 75 46 76 47 77
REMARK SMILES IDX 71 78 72 79 80 80 73 81 75 82 81 83 74 84 76 85 77 86 78 87
REMARK SMILES IDX 79 88 56 89 57 90 65 91 58 92 60 93 66 94 59 95 61 96 62 97
REMARK SMILES IDX 63 98 64 99
REMARK H PARENT 14 26 14 27 86 52 54 63
REMARK Flexibility Score: inf
ROOT
ATOM      1  C   UNL A   1      35.588  31.263  28.684  1.00  0.00     0.188 C 
ENDROOT
BRANCH   1   2
ATOM      2  O   UNL A   1      34.862  30.765  27.568  1.00  0.00    -0.376 OA
BRANCH   2   3
ATOM      3  C   UNL A   1      33.442  30.797  27.589  1.00  0.00     0.202 C 
BRANCH   3   4
ATOM      4  C   UNL A   1      32.649  30.113  26.466  1.00  0.00     0.261 C 
BRANCH   4   5
ATOM      5  O   UNL A   1      33.003  28.734  26.218  1.00  0.00    -0.462 OA
BRANCH   5   6
ATOM      6  C   UNL A   1      32.107  28.016  25.502  1.00  0.00     0.330 C 
ATOM      7  O   UNL A   1      31.133  27.456  26.005  1.00  0.00    -0.250 OA
BRANCH   6   8
ATOM      8  C   UNL A   1      32.406  27.837  24.017  1.00  0.00     0.215 C 
BRANCH   8   9
ATOM      9  N   UNL A   1      32.499  26.519  23.369  1.00  0.00    -0.281 NA
ATOM     10  C   UNL A   1      33.008  25.459  23.870  1.00  0.00     0.106 C 
BRANCH  10  11
ATOM     11  C   UNL A   1      32.831  24.153  23.134  1.00  0.00     0.250 C 
ATOM     12  C   UNL A   1      32.843  21.988  26.234  1.00  0.00     0.106 C 
ATOM     13  C   UNL A   1      32.903  21.832  24.718  1.00  0.00     0.252 C 
ATOM     14  C   UNL A   1      32.994  20.352  24.345  1.00  0.00     0.106 C 
ATOM     15  O   UNL A   1      34.097  22.456  24.256  1.00  0.00    -0.422 OA
ATOM     16  O   UNL A   1      31.668  22.300  24.174  1.00  0.00    -0.422 OA
ATOM     17  C   UNL A   1      34.014  23.269  23.191  1.00  0.00     0.329 C 
ATOM     18  C   UNL A   1      31.573  23.477  23.540  1.00  0.00     0.329 C 
ATOM     19  O   UNL A   1      34.919  23.322  22.368  1.00  0.00    -0.251 OA
ATOM     20  O   UNL A   1      30.464  23.947  23.296  1.00  0.00    -0.251 OA
ENDBRANCH  10  11
ENDBRANCH   8   9
BRANCH   8  21
ATOM     21  C   UNL A   1      31.570  28.804  23.171  1.00  0.00     0.049 C 
BRANCH  21  22
ATOM     22  C   UNL A   1      30.450  28.180  22.340  1.00  0.00     0.102 C 
BRANCH  22  23
ATOM     23  C   UNL A   1      29.180  27.859  23.095  1.00  0.00     0.217 C 
ATOM     24  N   UNL A   1      29.170  26.686  23.780  1.00  0.00    -0.370 N 
ATOM     25  O   UNL A   1      28.213  28.615  23.117  1.00  0.00    -0.275 OA
ATOM     26  H   UNL A   1      29.954  26.092  23.751  1.00  0.00     0.159 HD
ATOM     27  H   UNL A   1      28.378  26.430  24.305  1.00  0.00     0.159 HD
ENDBRANCH  22  23
ENDBRANCH  21  22
ENDBRANCH   8  21
ENDBRANCH   6   8
ENDBRANCH   5   6
ENDBRANCH   4   5
ENDBRANCH   3   4
ENDBRANCH   2   3
ENDBRANCH   1   2
BRANCH   1  28
ATOM     28  C   UNL A   1      35.550  32.772  28.985  1.00  0.00     0.188 C 
BRANCH  28  29
ATOM     29  O   UNL A   1      34.310  33.275  29.430  1.00  0.00    -0.376 OA
BRANCH  29  30
ATOM     30  C   UNL A   1      33.846  34.516  28.920  1.00  0.00     0.202 C 
BRANCH  30  31
ATOM     31  C   UNL A   1      32.894  35.461  29.680  1.00  0.00     0.261 C 
BRANCH  31  32
ATOM     32  O   UNL A   1      33.351  36.017  30.916  1.00  0.00    -0.460 OA
BRANCH  32  33
ATOM     33  C   UNL A   1      33.128  35.298  32.041  1.00  0.00     0.338 C 
ATOM     34  O   UNL A   1      32.062  35.116  32.606  1.00  0.00    -0.246 OA
BRANCH  33  35
ATOM     35  C   UNL A   1      34.386  34.595  32.368  1.00  0.00     0.060 A 
ATOM     36  C   UNL A   1      34.337  33.275  32.838  1.00  0.00     0.016 A 
ATOM     37  C   UNL A   1      35.612  35.237  32.182  1.00  0.00     0.016 A 
ATOM     38  C   UNL A   1      35.518  32.599  33.150  1.00  0.00     0.010 A 
ATOM     39  C   UNL A   1      36.790  34.569  32.518  1.00  0.00     0.010 A 
ATOM     40  C   UNL A   1      36.747  33.260  33.034  1.00  0.00    -0.014 A 
BRANCH  40  41
ATOM     41  C   UNL A   1      37.969  32.676  33.638  1.00  0.00     0.031 A 
ATOM     42  C   UNL A   1      38.316  33.065  35.049  1.00  0.00     0.074 A 
ATOM     43  C   UNL A   1      38.772  31.849  32.946  1.00  0.00     0.049 A 
ATOM     44  N   UNL A   1      39.366  32.755  35.761  1.00  0.00    -0.248 NA
ATOM     45  C   UNL A   1      37.349  33.930  35.745  1.00  0.00     0.031 C 
ATOM     46  C   UNL A   1      38.542  31.393  31.577  1.00  0.00     0.029 A 
ATOM     47  N   UNL A   1      39.968  31.275  33.298  1.00  0.00    -0.354 N 
ATOM     48  C   UNL A   1      39.208  33.416  36.973  1.00  0.00     0.074 A 
ATOM     49  C   UNL A   1      37.965  34.152  36.896  1.00  0.00     0.031 C 
ATOM     50  C   UNL A   1      39.584  30.636  31.191  1.00  0.00     0.029 A 
ATOM     51  C   UNL A   1      40.565  30.580  32.273  1.00  0.00     0.049 A 
ATOM     52  H   UNL A   1      40.360  31.352  34.198  1.00  0.00     0.167 HD
ATOM     53  C   UNL A   1      40.018  33.405  38.058  1.00  0.00     0.034 A 
ATOM     54  C   UNL A   1      41.778  29.993  32.209  1.00  0.00     0.034 A 
ATOM     55  C   UNL A   1      41.247  32.666  38.136  1.00  0.00     0.049 A 
ATOM     56  C   UNL A   1      42.677  30.018  33.420  1.00  0.00     0.074 A 
ATOM     57  C   UNL A   1      42.113  32.548  39.208  1.00  0.00     0.029 A 
ATOM     58  N   UNL A   1      41.799  31.937  37.094  1.00  0.00    -0.354 N 
ATOM     59  N   UNL A   1      42.462  30.547  34.600  1.00  0.00    -0.248 NA
ATOM     60  C   UNL A   1      43.975  29.335  33.300  1.00  0.00     0.031 C 
ATOM     61  C   UNL A   1      43.209  31.781  38.801  1.00  0.00     0.029 A 
ATOM     62  C   UNL A   1      43.004  31.381  37.490  1.00  0.00     0.049 A 
ATOM     63  H   UNL A   1      41.394  31.829  36.203  1.00  0.00     0.167 HD
ATOM     64  C   UNL A   1      43.576  30.229  35.373  1.00  0.00     0.074 A 
ATOM     65  C   UNL A   1      44.456  29.446  34.531  1.00  0.00     0.031 C 
ATOM     66  C   UNL A   1      43.848  30.563  36.659  1.00  0.00     0.034 A 
BRANCH  53  67
ATOM     67  C   UNL A   1      39.590  34.217  39.253  1.00  0.00     0.023 A 
ATOM     68  C   UNL A   1      40.074  35.531  39.421  1.00  0.00     0.012 A 
ATOM     69  C   UNL A   1      38.677  33.693  40.189  1.00  0.00     0.148 A 
ATOM     70  C   UNL A   1      39.688  36.295  40.523  1.00  0.00     0.002 A 
ATOM     71  C   UNL A   1      38.258  34.477  41.255  1.00  0.00     0.091 A 
ATOM     72  F   UNL A   1      38.246  32.434  40.024  1.00  0.00    -0.205 F 
ATOM     73  C   UNL A   1      38.774  35.772  41.432  1.00  0.00     0.022 A 
BRANCH  71  74
ATOM     74  S   UNL A   1      37.022  33.926  42.435  1.00  0.00     0.127 S 
ATOM     75  O   UNL A   1      35.869  33.691  41.567  1.00  0.00    -0.237 OA
ATOM     76  O   UNL A   1      37.635  32.711  42.975  1.00  0.00    -0.237 OA
ATOM     77  O   UNL A   1      36.870  35.009  43.396  1.00  0.00    -0.744 OA
ENDBRANCH  71  74
ENDBRANCH  53  67
BRANCH  54  78
ATOM     78  C   UNL A   1      42.209  29.305  30.958  1.00  0.00     0.023 A 
ATOM     79  C   UNL A   1      41.772  27.991  30.701  1.00  0.00     0.012 A 
ATOM     80  C   UNL A   1      43.041  29.948  30.020  1.00  0.00     0.148 A 
ATOM     81  C   UNL A   1      42.182  27.317  29.548  1.00  0.00     0.002 A 
ATOM     82  C   UNL A   1      43.400  29.292  28.849  1.00  0.00     0.091 A 
ATOM     83  F   UNL A   1      43.457  31.194  30.291  1.00  0.00    -0.205 F 
ATOM     84  C   UNL A   1      42.985  27.971  28.619  1.00  0.00     0.022 A 
BRANCH  82  85
ATOM     85  S   UNL A   1      44.335  30.091  27.540  1.00  0.00     0.127 S 
ATOM     86  O   UNL A   1      45.708  29.929  28.010  1.00  0.00    -0.237 OA
ATOM     87  O   UNL A   1      43.981  29.273  26.378  1.00  0.00    -0.237 OA
ATOM     88  O   UNL A   1      43.848  31.461  27.484  1.00  0.00    -0.744 OA
ENDBRANCH  82  85
ENDBRANCH  54  78
BRANCH  66  89
ATOM     89  C   UNL A   1      45.129  30.044  37.267  1.00  0.00     0.023 A 
ATOM     90  C   UNL A   1      45.154  28.781  37.893  1.00  0.00     0.012 A 
ATOM     91  C   UNL A   1      46.326  30.778  37.146  1.00  0.00     0.148 A 
ATOM     92  C   UNL A   1      46.343  28.276  38.420  1.00  0.00     0.002 A 
ATOM     93  C   UNL A   1      47.516  30.244  37.625  1.00  0.00     0.091 A 
ATOM     94  F   UNL A   1      46.279  31.984  36.559  1.00  0.00    -0.205 F 
ATOM     95  C   UNL A   1      47.524  29.000  38.275  1.00  0.00     0.022 A 
BRANCH  93  96
ATOM     96  S   UNL A   1      49.101  31.058  37.395  1.00  0.00     0.127 S 
ATOM     97  O   UNL A   1      50.037  29.988  37.741  1.00  0.00    -0.237 OA
ATOM     98  O   UNL A   1      49.068  31.402  35.974  1.00  0.00    -0.237 OA
ATOM     99  O   UNL A   1      49.103  32.202  38.295  1.00  0.00    -0.744 OA
ENDBRANCH  93  96
ENDBRANCH  66  89
ENDBRANCH  40  41
ENDBRANCH  33  35
ENDBRANCH  32  33
ENDBRANCH  31  32
ENDBRANCH  30  31
ENDBRANCH  29  30
ENDBRANCH  28  29
ENDBRANCH   1  28
TORSDOF 25
ENDMDL
