MODEL 1
REMARK VINA RESULT:     -13.0      0.000      0.000
REMARK SMILES Cc1cccc(OCC(=O)Nc2cc(C(=O)OCCOCCOCCOC(=O)c3ccc(-c4c5nc(c(-c6cccc(S(=O)(=O)[O-])c6F)c6ccc([nH]6)c(-c6cccc(S(=O)(=O)[O-])c6F)c6nc(c(-c7cccc(S(=O)(=O)[O-])c7F)c7ccc4[nH]7)C=C6)C=C5)cc3)c(Cl)cc2Cl)c1
REMARK SMILES IDX 21 1 20 2 19 3 18 4 17 5 15 6 16 7 14 8 12 9 13 10 95 11
REMARK SMILES IDX 94 12 96 13 92 14 93 15 11 16 9 17 10 18 8 20 7 21 6 22 1 23
REMARK SMILES IDX 2 24 3 25 97 26 4 27 5 28 22 29 23 30 24 31 25 32 26 33
REMARK SMILES IDX 27 34 28 35 29 36 30 37 91 38 31 39 90 40 32 41 33 42 34 43
REMARK SMILES IDX 84 44 35 45 89 46 83 47 85 48 36 49 88 50 82 51 81 52 37 54
REMARK SMILES IDX 69 55 49 56 68 57 50 58 53 59 67 60 86 61 51 62 52 63 66 65
REMARK SMILES IDX 87 66 54 67 38 68 39 69 47 70 40 71 42 72 48 73 41 74 43 75
REMARK SMILES IDX 44 76 45 77 46 78 70 79 71 80 79 81 72 82 74 83 80 84 73 85
REMARK SMILES IDX 75 86 76 87 77 88 78 89 55 90 56 91 64 92 57 93 59 94 65 95
REMARK SMILES IDX 58 96 60 97 61 98 62 99 63 100
REMARK H PARENT 11 19 85 53 53 64
REMARK Flexibility Score: inf
ROOT
ATOM      1  C   UNL A   1      39.643  21.926  26.244  1.00  0.00     0.188 C 
ENDROOT
BRANCH   1   2
ATOM      2  O   UNL A   1      38.247  21.838  26.022  1.00  0.00    -0.376 OA
BRANCH   2   3
ATOM      3  C   UNL A   1      37.718  23.081  25.558  1.00  0.00     0.202 C 
BRANCH   3   4
ATOM      4  C   UNL A   1      36.244  23.390  25.905  1.00  0.00     0.261 C 
BRANCH   4   5
ATOM      5  O   UNL A   1      35.222  23.909  24.715  1.00  0.00    -0.460 OA
BRANCH   5   6
ATOM      6  C   UNL A   1      34.584  24.158  23.425  1.00  0.00     0.339 C 
ATOM      7  O   UNL A   1      34.925  23.426  22.492  1.00  0.00    -0.246 OA
BRANCH   6   8
ATOM      8  C   UNL A   1      33.372  25.607  23.014  1.00  0.00     0.080 A 
ATOM      9  C   UNL A   1      31.148  26.139  23.515  1.00  0.00     0.061 A 
ATOM     10  C   UNL A   1      32.078  25.170  23.176  1.00  0.00     0.045 A 
ATOM     11  C   UNL A   1      31.016  27.266  22.709  1.00  0.00     0.066 A 
ATOM     12  C   UNL A   1      32.169  27.804  22.242  1.00  0.00     0.044 A 
ATOM     13  Cl  UNL A   1      29.581  28.210  22.690  1.00  0.00    -0.082 Cl
ATOM     14  C   UNL A   1      33.348  27.120  22.582  1.00  0.00     0.057 A 
ATOM     15  Cl  UNL A   1      34.542  28.488  22.611  1.00  0.00    -0.083 Cl
BRANCH   9  16
ATOM     16  N   UNL A   1      31.061  26.457  24.896  1.00  0.00    -0.322 N 
ATOM     17  C   UNL A   1      30.919  25.721  26.071  1.00  0.00     0.262 C 
ATOM     18  O   UNL A   1      31.028  26.453  27.074  1.00  0.00    -0.271 OA
ATOM     19  H   UNL A   1      31.115  27.426  25.062  1.00  0.00     0.170 HD
BRANCH  17  20
ATOM     20  C   UNL A   1      30.576  23.903  26.331  1.00  0.00     0.329 C 
BRANCH  20  21
ATOM     21  O   UNL A   1      32.079  22.365  26.295  1.00  0.00    -0.484 OA
BRANCH  21  22
ATOM     22  C   UNL A   1      32.763  21.375  25.073  1.00  0.00     0.120 A 
ATOM     23  C   UNL A   1      34.188  17.803  24.496  1.00  0.00     0.044 C 
ATOM     24  C   UNL A   1      33.430  19.081  24.272  1.00  0.00    -0.047 A 
ATOM     25  C   UNL A   1      32.653  19.218  23.130  1.00  0.00     0.003 A 
ATOM     26  C   UNL A   1      33.500  20.149  25.214  1.00  0.00     0.049 A 
ATOM     27  C   UNL A   1      32.049  20.443  22.896  1.00  0.00     0.004 A 
ATOM     28  C   UNL A   1      32.169  21.508  23.833  1.00  0.00     0.046 A 
ENDBRANCH  21  22
ENDBRANCH  20  21
ENDBRANCH  17  20
ENDBRANCH   9  16
ENDBRANCH   6   8
ENDBRANCH   5   6
ENDBRANCH   4   5
ENDBRANCH   3   4
ENDBRANCH   2   3
ENDBRANCH   1   2
BRANCH   1  29
ATOM     29  C   UNL A   1      40.496  20.819  26.835  1.00  0.00     0.188 C 
BRANCH  29  30
ATOM     30  O   UNL A   1      40.648  19.707  25.992  1.00  0.00    -0.376 OA
BRANCH  30  31
ATOM     31  C   UNL A   1      41.829  19.016  26.339  1.00  0.00     0.202 C 
BRANCH  31  32
ATOM     32  C   UNL A   1      43.098  19.120  25.416  1.00  0.00     0.261 C 
BRANCH  32  33
ATOM     33  O   UNL A   1      43.935  20.304  24.941  1.00  0.00    -0.460 OA
BRANCH  33  34
ATOM     34  C   UNL A   1      44.521  21.370  24.360  1.00  0.00     0.338 C 
ATOM     35  O   UNL A   1      44.537  21.469  23.138  1.00  0.00    -0.246 OA
BRANCH  34  36
ATOM     36  C   UNL A   1      45.167  22.417  25.169  1.00  0.00     0.060 A 
ATOM     37  C   UNL A   1      45.569  22.386  26.495  1.00  0.00     0.016 A 
ATOM     38  C   UNL A   1      45.825  23.400  24.551  1.00  0.00     0.016 A 
ATOM     39  C   UNL A   1      45.517  23.582  27.281  1.00  0.00     0.010 A 
ATOM     40  C   UNL A   1      45.882  24.547  25.318  1.00  0.00     0.010 A 
ATOM     41  C   UNL A   1      45.281  24.766  26.638  1.00  0.00    -0.014 A 
BRANCH  41  42
ATOM     42  C   UNL A   1      44.633  26.248  27.428  1.00  0.00     0.031 A 
ATOM     43  C   UNL A   1      42.820  26.795  27.710  1.00  0.00     0.074 A 
ATOM     44  C   UNL A   1      45.596  26.883  28.151  1.00  0.00     0.049 A 
ATOM     45  N   UNL A   1      42.576  28.181  28.358  1.00  0.00    -0.248 NA
ATOM     46  C   UNL A   1      40.956  25.960  27.305  1.00  0.00     0.031 C 
ATOM     47  C   UNL A   1      45.446  27.909  29.179  1.00  0.00     0.029 A 
ATOM     48  N   UNL A   1      46.962  26.661  28.149  1.00  0.00    -0.354 N 
ATOM     49  C   UNL A   1      40.859  28.561  28.695  1.00  0.00     0.074 A 
ATOM     50  C   UNL A   1      39.808  27.134  27.917  1.00  0.00     0.031 C 
ATOM     51  C   UNL A   1      46.655  28.290  29.633  1.00  0.00     0.029 A 
ATOM     52  C   UNL A   1      47.633  27.742  28.719  1.00  0.00     0.049 A 
ATOM     53  H   UNL A   1      47.398  25.854  27.793  1.00  0.00     0.167 HD
ATOM     54  C   UNL A   1      40.630  29.682  29.412  1.00  0.00     0.034 A 
ATOM     55  C   UNL A   1      48.430  28.497  27.902  1.00  0.00     0.034 A 
ATOM     56  C   UNL A   1      41.919  30.384  29.617  1.00  0.00     0.049 A 
ATOM     57  C   UNL A   1      47.723  29.814  27.547  1.00  0.00     0.074 A 
ATOM     58  C   UNL A   1      42.844  30.401  30.651  1.00  0.00     0.029 A 
ATOM     59  N   UNL A   1      42.623  30.888  28.502  1.00  0.00    -0.354 N 
ATOM     60  N   UNL A   1      46.486  30.087  27.902  1.00  0.00    -0.248 NA
ATOM     61  C   UNL A   1      48.345  30.965  26.908  1.00  0.00     0.031 C 
ATOM     62  C   UNL A   1      44.095  30.888  30.141  1.00  0.00     0.029 A 
ATOM     63  C   UNL A   1      43.962  31.191  28.791  1.00  0.00     0.049 A 
ATOM     64  H   UNL A   1      42.215  31.014  27.614  1.00  0.00     0.167 HD
ATOM     65  C   UNL A   1      46.118  31.353  27.570  1.00  0.00     0.074 A 
ATOM     66  C   UNL A   1      47.349  31.875  26.974  1.00  0.00     0.031 C 
ATOM     67  C   UNL A   1      44.854  31.865  27.802  1.00  0.00     0.034 A 
BRANCH  54  68
ATOM     68  C   UNL A   1      39.312  29.875  30.119  1.00  0.00     0.023 A 
ATOM     69  C   UNL A   1      38.605  28.742  30.555  1.00  0.00     0.012 A 
ATOM     70  C   UNL A   1      38.658  31.119  30.292  1.00  0.00     0.148 A 
ATOM     71  C   UNL A   1      37.290  28.834  31.042  1.00  0.00     0.002 A 
ATOM     72  C   UNL A   1      37.311  31.201  30.651  1.00  0.00     0.091 A 
ATOM     73  F   UNL A   1      39.371  32.247  30.244  1.00  0.00    -0.205 F 
ATOM     74  C   UNL A   1      36.622  30.055  31.041  1.00  0.00     0.022 A 
BRANCH  72  75
ATOM     75  S   UNL A   1      36.378  32.738  30.472  1.00  0.00     0.127 S 
ATOM     76  O   UNL A   1      36.689  33.144  29.099  1.00  0.00    -0.237 OA
ATOM     77  O   UNL A   1      34.998  32.307  30.674  1.00  0.00    -0.237 OA
ATOM     78  O   UNL A   1      36.922  33.640  31.484  1.00  0.00    -0.744 OA
ENDBRANCH  72  75
ENDBRANCH  54  68
BRANCH  55  79
ATOM     79  C   UNL A   1      49.344  27.569  27.130  1.00  0.00     0.023 A 
ATOM     80  C   UNL A   1      48.774  27.107  25.903  1.00  0.00     0.012 A 
ATOM     81  C   UNL A   1      50.746  27.589  27.224  1.00  0.00     0.148 A 
ATOM     82  C   UNL A   1      49.538  27.031  24.736  1.00  0.00     0.002 A 
ATOM     83  C   UNL A   1      51.521  27.353  26.074  1.00  0.00     0.091 A 
ATOM     84  F   UNL A   1      51.313  27.918  28.391  1.00  0.00    -0.205 F 
ATOM     85  C   UNL A   1      50.912  27.197  24.815  1.00  0.00     0.022 A 
BRANCH  83  86
ATOM     86  S   UNL A   1      53.327  27.307  26.167  1.00  0.00     0.127 S 
ATOM     87  O   UNL A   1      53.686  28.597  25.590  1.00  0.00    -0.237 OA
ATOM     88  O   UNL A   1      53.605  27.207  27.599  1.00  0.00    -0.237 OA
ATOM     89  O   UNL A   1      53.705  26.124  25.404  1.00  0.00    -0.744 OA
ENDBRANCH  83  86
ENDBRANCH  55  79
BRANCH  67  90
ATOM     90  C   UNL A   1      44.357  33.142  27.129  1.00  0.00     0.023 A 
ATOM     91  C   UNL A   1      44.093  33.215  25.746  1.00  0.00     0.012 A 
ATOM     92  C   UNL A   1      43.995  34.285  27.886  1.00  0.00     0.148 A 
ATOM     93  C   UNL A   1      43.601  34.373  25.137  1.00  0.00     0.002 A 
ATOM     94  C   UNL A   1      43.332  35.357  27.304  1.00  0.00     0.091 A 
ATOM     95  F   UNL A   1      44.323  34.374  29.181  1.00  0.00    -0.205 F 
ATOM     96  C   UNL A   1      43.185  35.434  25.921  1.00  0.00     0.022 A 
BRANCH  94  97
ATOM     97  S   UNL A   1      42.474  36.576  28.307  1.00  0.00     0.127 S 
ATOM     98  O   UNL A   1      41.645  35.730  29.161  1.00  0.00    -0.237 OA
ATOM     99  O   UNL A   1      43.586  37.239  28.991  1.00  0.00    -0.237 OA
ATOM    100  O   UNL A   1      41.767  37.424  27.357  1.00  0.00    -0.744 OA
ENDBRANCH  94  97
ENDBRANCH  67  90
ENDBRANCH  41  42
ENDBRANCH  34  36
ENDBRANCH  33  34
ENDBRANCH  32  33
ENDBRANCH  31  32
ENDBRANCH  30  31
ENDBRANCH  29  30
ENDBRANCH   1  29
TORSDOF 24
ENDMDL
MODEL 2
REMARK VINA RESULT:     -12.7      3.037      3.814
REMARK SMILES Cc1cccc(OCC(=O)Nc2cc(C(=O)OCCOCCOCCOC(=O)c3ccc(-c4c5nc(c(-c6cccc(S(=O)(=O)[O-])c6F)c6ccc([nH]6)c(-c6cccc(S(=O)(=O)[O-])c6F)c6nc(c(-c7cccc(S(=O)(=O)[O-])c7F)c7ccc4[nH]7)C=C6)C=C5)cc3)c(Cl)cc2Cl)c1
REMARK SMILES IDX 21 1 20 2 19 3 18 4 17 5 15 6 16 7 14 8 12 9 13 10 95 11
REMARK SMILES IDX 94 12 96 13 92 14 93 15 11 16 9 17 10 18 8 20 7 21 6 22 1 23
REMARK SMILES IDX 2 24 3 25 97 26 4 27 5 28 22 29 23 30 24 31 25 32 26 33
REMARK SMILES IDX 27 34 28 35 29 36 30 37 91 38 31 39 90 40 32 41 33 42 34 43
REMARK SMILES IDX 84 44 35 45 89 46 83 47 85 48 36 49 88 50 82 51 81 52 37 54
REMARK SMILES IDX 69 55 49 56 68 57 50 58 53 59 67 60 86 61 51 62 52 63 66 65
REMARK SMILES IDX 87 66 54 67 38 68 39 69 47 70 40 71 42 72 48 73 41 74 43 75
REMARK SMILES IDX 44 76 45 77 46 78 70 79 71 80 79 81 72 82 74 83 80 84 73 85
REMARK SMILES IDX 75 86 76 87 77 88 78 89 55 90 56 91 64 92 57 93 59 94 65 95
REMARK SMILES IDX 58 96 60 97 61 98 62 99 63 100
REMARK H PARENT 11 19 85 53 53 64
REMARK Flexibility Score: inf
ROOT
ATOM      1  C   UNL A   1      39.714  22.177  26.500  1.00  0.00     0.188 C 
ENDROOT
BRANCH   1   2
ATOM      2  O   UNL A   1      38.326  21.929  26.356  1.00  0.00    -0.376 OA
BRANCH   2   3
ATOM      3  C   UNL A   1      37.784  22.655  25.252  1.00  0.00     0.202 C 
BRANCH   3   4
ATOM      4  C   UNL A   1      36.651  23.661  25.560  1.00  0.00     0.261 C 
BRANCH   4   5
ATOM      5  O   UNL A   1      35.307  23.688  24.600  1.00  0.00    -0.460 OA
BRANCH   5   6
ATOM      6  C   UNL A   1      34.361  23.952  23.519  1.00  0.00     0.339 C 
ATOM      7  O   UNL A   1      34.636  23.468  22.418  1.00  0.00    -0.246 OA
BRANCH   6   8
ATOM      8  C   UNL A   1      32.809  25.100  23.618  1.00  0.00     0.080 A 
ATOM      9  C   UNL A   1      30.506  24.801  23.910  1.00  0.00     0.061 A 
ATOM     10  C   UNL A   1      31.685  24.361  23.331  1.00  0.00     0.045 A 
ATOM     11  C   UNL A   1      30.096  26.115  23.706  1.00  0.00     0.066 A 
ATOM     12  C   UNL A   1      31.071  27.057  23.749  1.00  0.00     0.044 A 
ATOM     13  Cl  UNL A   1      28.456  26.595  23.874  1.00  0.00    -0.082 Cl
ATOM     14  C   UNL A   1      32.378  26.580  23.936  1.00  0.00     0.057 A 
ATOM     15  Cl  UNL A   1      33.136  27.985  24.801  1.00  0.00    -0.083 Cl
BRANCH   9  16
ATOM     16  N   UNL A   1      30.273  24.370  25.243  1.00  0.00    -0.322 N 
ATOM     17  C   UNL A   1      30.888  23.468  26.110  1.00  0.00     0.262 C 
ATOM     18  O   UNL A   1      30.389  23.531  27.251  1.00  0.00    -0.271 OA
ATOM     19  H   UNL A   1      29.495  24.814  25.651  1.00  0.00     0.170 HD
BRANCH  17  20
ATOM     20  C   UNL A   1      32.253  22.229  25.805  1.00  0.00     0.329 C 
BRANCH  20  21
ATOM     21  O   UNL A   1      31.929  20.156  25.333  1.00  0.00    -0.484 OA
BRANCH  21  22
ATOM     22  C   UNL A   1      32.902  18.745  25.363  1.00  0.00     0.120 A 
ATOM     23  C   UNL A   1      32.634  14.866  25.449  1.00  0.00     0.044 C 
ATOM     24  C   UNL A   1      33.098  16.248  25.084  1.00  0.00    -0.047 A 
ATOM     25  C   UNL A   1      34.095  16.400  24.130  1.00  0.00     0.003 A 
ATOM     26  C   UNL A   1      32.529  17.399  25.703  1.00  0.00     0.049 A 
ATOM     27  C   UNL A   1      34.577  17.677  23.889  1.00  0.00     0.004 A 
ATOM     28  C   UNL A   1      34.019  18.806  24.552  1.00  0.00     0.046 A 
ENDBRANCH  21  22
ENDBRANCH  20  21
ENDBRANCH  17  20
ENDBRANCH   9  16
ENDBRANCH   6   8
ENDBRANCH   5   6
ENDBRANCH   4   5
ENDBRANCH   3   4
ENDBRANCH   2   3
ENDBRANCH   1   2
BRANCH   1  29
ATOM     29  C   UNL A   1      40.739  21.134  26.904  1.00  0.00     0.188 C 
BRANCH  29  30
ATOM     30  O   UNL A   1      40.712  19.975  26.115  1.00  0.00    -0.376 OA
BRANCH  30  31
ATOM     31  C   UNL A   1      41.945  19.300  26.233  1.00  0.00     0.202 C 
BRANCH  31  32
ATOM     32  C   UNL A   1      43.249  19.932  25.622  1.00  0.00     0.261 C 
BRANCH  32  33
ATOM     33  O   UNL A   1      43.960  21.262  25.859  1.00  0.00    -0.460 OA
BRANCH  33  34
ATOM     34  C   UNL A   1      44.440  22.520  25.923  1.00  0.00     0.338 C 
ATOM     35  O   UNL A   1      44.876  23.061  24.912  1.00  0.00    -0.246 OA
BRANCH  34  36
ATOM     36  C   UNL A   1      44.473  23.257  27.198  1.00  0.00     0.060 A 
ATOM     37  C   UNL A   1      43.874  22.952  28.409  1.00  0.00     0.016 A 
ATOM     38  C   UNL A   1      45.469  24.116  27.422  1.00  0.00     0.016 A 
ATOM     39  C   UNL A   1      43.425  24.009  29.265  1.00  0.00     0.010 A 
ATOM     40  C   UNL A   1      45.108  25.102  28.320  1.00  0.00     0.010 A 
ATOM     41  C   UNL A   1      43.802  25.289  28.960  1.00  0.00    -0.014 A 
BRANCH  41  42
ATOM     42  C   UNL A   1      42.942  26.768  29.518  1.00  0.00     0.031 A 
ATOM     43  C   UNL A   1      41.353  27.593  28.839  1.00  0.00     0.074 A 
ATOM     44  C   UNL A   1      43.358  27.144  30.758  1.00  0.00     0.049 A 
ATOM     45  N   UNL A   1      40.895  28.923  29.488  1.00  0.00    -0.248 NA
ATOM     46  C   UNL A   1      40.005  27.147  27.316  1.00  0.00     0.031 C 
ATOM     47  C   UNL A   1      42.727  28.064  31.700  1.00  0.00     0.029 A 
ATOM     48  N   UNL A   1      44.449  26.686  31.475  1.00  0.00    -0.354 N 
ATOM     49  C   UNL A   1      39.338  29.561  28.876  1.00  0.00     0.074 A 
ATOM     50  C   UNL A   1      38.816  28.432  27.393  1.00  0.00     0.031 C 
ATOM     51  C   UNL A   1      43.478  28.176  32.812  1.00  0.00     0.029 A 
ATOM     52  C   UNL A   1      44.754  27.564  32.514  1.00  0.00     0.049 A 
ATOM     53  H   UNL A   1      44.942  25.857  31.279  1.00  0.00     0.167 HD
ATOM     54  C   UNL A   1      38.830  30.622  29.541  1.00  0.00     0.034 A 
ATOM     55  C   UNL A   1      45.936  28.250  32.440  1.00  0.00     0.034 A 
ATOM     56  C   UNL A   1      39.816  31.060  30.556  1.00  0.00     0.049 A 
ATOM     57  C   UNL A   1      45.677  29.702  32.007  1.00  0.00     0.074 A 
ATOM     58  C   UNL A   1      39.971  30.803  31.911  1.00  0.00     0.029 A 
ATOM     59  N   UNL A   1      41.074  31.548  30.141  1.00  0.00    -0.354 N 
ATOM     60  N   UNL A   1      44.490  30.149  31.656  1.00  0.00    -0.248 NA
ATOM     61  C   UNL A   1      46.647  30.787  32.053  1.00  0.00     0.031 C 
ATOM     62  C   UNL A   1      41.321  31.114  32.287  1.00  0.00     0.029 A 
ATOM     63  C   UNL A   1      42.019  31.579  31.178  1.00  0.00     0.049 A 
ATOM     64  H   UNL A   1      41.267  31.838  29.220  1.00  0.00     0.167 HD
ATOM     65  C   UNL A   1      44.488  31.488  31.422  1.00  0.00     0.074 A 
ATOM     66  C   UNL A   1      45.875  31.846  31.724  1.00  0.00     0.031 C 
ATOM     67  C   UNL A   1      43.371  32.186  31.002  1.00  0.00     0.034 A 
BRANCH  54  68
ATOM     68  C   UNL A   1      37.368  30.967  29.414  1.00  0.00     0.023 A 
ATOM     69  C   UNL A   1      36.697  30.649  28.221  1.00  0.00     0.012 A 
ATOM     70  C   UNL A   1      36.619  31.693  30.372  1.00  0.00     0.148 A 
ATOM     71  C   UNL A   1      35.396  31.111  27.960  1.00  0.00     0.002 A 
ATOM     72  C   UNL A   1      35.381  32.262  30.065  1.00  0.00     0.091 A 
ATOM     73  F   UNL A   1      37.035  31.728  31.641  1.00  0.00    -0.205 F 
ATOM     74  C   UNL A   1      34.757  31.962  28.856  1.00  0.00     0.022 A 
BRANCH  72  75
ATOM     75  S   UNL A   1      34.628  33.514  31.128  1.00  0.00     0.127 S 
ATOM     76  O   UNL A   1      34.026  32.710  32.195  1.00  0.00    -0.237 OA
ATOM     77  O   UNL A   1      35.774  34.313  31.552  1.00  0.00    -0.237 OA
ATOM     78  O   UNL A   1      33.648  34.196  30.287  1.00  0.00    -0.744 OA
ENDBRANCH  72  75
ENDBRANCH  54  68
BRANCH  55  79
ATOM     79  C   UNL A   1      47.047  27.265  32.149  1.00  0.00     0.023 A 
ATOM     80  C   UNL A   1      47.716  27.516  30.910  1.00  0.00     0.012 A 
ATOM     81  C   UNL A   1      47.762  26.570  33.141  1.00  0.00     0.148 A 
ATOM     82  C   UNL A   1      49.106  27.418  30.809  1.00  0.00     0.002 A 
ATOM     83  C   UNL A   1      49.137  26.331  32.963  1.00  0.00     0.091 A 
ATOM     84  F   UNL A   1      47.135  26.228  34.273  1.00  0.00    -0.205 F 
ATOM     85  C   UNL A   1      49.824  26.863  31.857  1.00  0.00     0.022 A 
BRANCH  83  86
ATOM     86  S   UNL A   1      50.079  25.387  34.186  1.00  0.00     0.127 S 
ATOM     87  O   UNL A   1      49.368  24.114  34.187  1.00  0.00    -0.237 OA
ATOM     88  O   UNL A   1      51.422  25.309  33.614  1.00  0.00    -0.237 OA
ATOM     89  O   UNL A   1      49.997  26.180  35.407  1.00  0.00    -0.744 OA
ENDBRANCH  83  86
ENDBRANCH  55  79
BRANCH  67  90
ATOM     90  C   UNL A   1      43.462  33.595  30.421  1.00  0.00     0.023 A 
ATOM     91  C   UNL A   1      43.506  34.747  31.233  1.00  0.00     0.012 A 
ATOM     92  C   UNL A   1      43.652  33.813  29.033  1.00  0.00     0.148 A 
ATOM     93  C   UNL A   1      43.628  36.034  30.702  1.00  0.00     0.002 A 
ATOM     94  C   UNL A   1      43.962  35.071  28.534  1.00  0.00     0.091 A 
ATOM     95  F   UNL A   1      43.496  32.809  28.160  1.00  0.00    -0.205 F 
ATOM     96  C   UNL A   1      43.894  36.196  29.354  1.00  0.00     0.022 A 
BRANCH  94  97
ATOM     97  S   UNL A   1      44.648  35.276  26.886  1.00  0.00     0.127 S 
ATOM     98  O   UNL A   1      45.024  36.687  26.892  1.00  0.00    -0.237 OA
ATOM     99  O   UNL A   1      45.772  34.338  26.910  1.00  0.00    -0.237 OA
ATOM    100  O   UNL A   1      43.575  34.898  25.976  1.00  0.00    -0.744 OA
ENDBRANCH  94  97
ENDBRANCH  67  90
ENDBRANCH  41  42
ENDBRANCH  34  36
ENDBRANCH  33  34
ENDBRANCH  32  33
ENDBRANCH  31  32
ENDBRANCH  30  31
ENDBRANCH  29  30
ENDBRANCH   1  29
TORSDOF 24
ENDMDL
MODEL 3
REMARK VINA RESULT:     -12.6      1.729      2.143
REMARK SMILES Cc1cccc(OCC(=O)Nc2cc(C(=O)OCCOCCOCCOC(=O)c3ccc(-c4c5nc(c(-c6cccc(S(=O)(=O)[O-])c6F)c6ccc([nH]6)c(-c6cccc(S(=O)(=O)[O-])c6F)c6nc(c(-c7cccc(S(=O)(=O)[O-])c7F)c7ccc4[nH]7)C=C6)C=C5)cc3)c(Cl)cc2Cl)c1
REMARK SMILES IDX 21 1 20 2 19 3 18 4 17 5 15 6 16 7 14 8 12 9 13 10 95 11
REMARK SMILES IDX 94 12 96 13 92 14 93 15 11 16 9 17 10 18 8 20 7 21 6 22 1 23
REMARK SMILES IDX 2 24 3 25 97 26 4 27 5 28 22 29 23 30 24 31 25 32 26 33
REMARK SMILES IDX 27 34 28 35 29 36 30 37 91 38 31 39 90 40 32 41 33 42 34 43
REMARK SMILES IDX 84 44 35 45 89 46 83 47 85 48 36 49 88 50 82 51 81 52 37 54
REMARK SMILES IDX 69 55 49 56 68 57 50 58 53 59 67 60 86 61 51 62 52 63 66 65
REMARK SMILES IDX 87 66 54 67 38 68 39 69 47 70 40 71 42 72 48 73 41 74 43 75
REMARK SMILES IDX 44 76 45 77 46 78 70 79 71 80 79 81 72 82 74 83 80 84 73 85
REMARK SMILES IDX 75 86 76 87 77 88 78 89 55 90 56 91 64 92 57 93 59 94 65 95
REMARK SMILES IDX 58 96 60 97 61 98 62 99 63 100
REMARK H PARENT 11 19 85 53 53 64
REMARK Flexibility Score: inf
ROOT
ATOM      1  C   UNL A   1      38.841  20.776  25.715  1.00  0.00     0.188 C 
ENDROOT
BRANCH   1   2
ATOM      2  O   UNL A   1      38.009  21.644  24.967  1.00  0.00    -0.376 OA
BRANCH   2   3
ATOM      3  C   UNL A   1      37.081  22.325  25.812  1.00  0.00     0.202 C 
BRANCH   3   4
ATOM      4  C   UNL A   1      36.745  23.791  25.452  1.00  0.00     0.261 C 
BRANCH   4   5
ATOM      5  O   UNL A   1      35.476  24.108  24.443  1.00  0.00    -0.460 OA
BRANCH   5   6
ATOM      6  C   UNL A   1      34.605  24.213  23.275  1.00  0.00     0.339 C 
ATOM      7  O   UNL A   1      34.809  23.407  22.363  1.00  0.00    -0.246 OA
BRANCH   6   8
ATOM      8  C   UNL A   1      33.271  25.577  22.967  1.00  0.00     0.080 A 
ATOM      9  C   UNL A   1      31.069  25.970  23.658  1.00  0.00     0.061 A 
ATOM     10  C   UNL A   1      32.028  25.060  23.242  1.00  0.00     0.045 A 
ATOM     11  C   UNL A   1      30.795  27.079  22.864  1.00  0.00     0.066 A 
ATOM     12  C   UNL A   1      31.867  27.686  22.296  1.00  0.00     0.044 A 
ATOM     13  Cl  UNL A   1      29.306  27.929  22.967  1.00  0.00    -0.082 Cl
ATOM     14  C   UNL A   1      33.112  27.083  22.534  1.00  0.00     0.057 A 
ATOM     15  Cl  UNL A   1      34.213  28.524  22.455  1.00  0.00    -0.083 Cl
BRANCH   9  16
ATOM     16  N   UNL A   1      31.083  26.294  25.040  1.00  0.00    -0.322 N 
ATOM     17  C   UNL A   1      31.280  25.578  26.219  1.00  0.00     0.262 C 
ATOM     18  O   UNL A   1      31.329  26.341  27.205  1.00  0.00    -0.271 OA
ATOM     19  H   UNL A   1      30.914  27.250  25.203  1.00  0.00     0.170 HD
BRANCH  17  20
ATOM     20  C   UNL A   1      31.437  23.739  26.512  1.00  0.00     0.329 C 
BRANCH  20  21
ATOM     21  O   UNL A   1      33.102  22.543  25.863  1.00  0.00    -0.484 OA
BRANCH  21  22
ATOM     22  C   UNL A   1      33.266  21.023  25.087  1.00  0.00     0.120 A 
ATOM     23  C   UNL A   1      32.726  17.221  25.700  1.00  0.00     0.044 C 
ATOM     24  C   UNL A   1      32.732  18.562  25.021  1.00  0.00    -0.047 A 
ATOM     25  C   UNL A   1      32.202  18.677  23.743  1.00  0.00     0.003 A 
ATOM     26  C   UNL A   1      33.273  19.709  25.671  1.00  0.00     0.049 A 
ATOM     27  C   UNL A   1      32.315  19.900  23.100  1.00  0.00     0.004 A 
ATOM     28  C   UNL A   1      32.898  21.020  23.756  1.00  0.00     0.046 A 
ENDBRANCH  21  22
ENDBRANCH  20  21
ENDBRANCH  17  20
ENDBRANCH   9  16
ENDBRANCH   6   8
ENDBRANCH   5   6
ENDBRANCH   4   5
ENDBRANCH   3   4
ENDBRANCH   2   3
ENDBRANCH   1   2
BRANCH   1  29
ATOM     29  C   UNL A   1      40.073  21.212  26.486  1.00  0.00     0.188 C 
BRANCH  29  30
ATOM     30  O   UNL A   1      40.444  20.328  27.511  1.00  0.00    -0.376 OA
BRANCH  30  31
ATOM     31  C   UNL A   1      41.808  19.994  27.369  1.00  0.00     0.202 C 
BRANCH  31  32
ATOM     32  C   UNL A   1      42.542  20.253  26.002  1.00  0.00     0.261 C 
BRANCH  32  33
ATOM     33  O   UNL A   1      43.061  21.523  25.334  1.00  0.00    -0.460 OA
BRANCH  33  34
ATOM     34  C   UNL A   1      43.522  22.730  24.949  1.00  0.00     0.338 C 
ATOM     35  O   UNL A   1      43.416  23.082  23.780  1.00  0.00    -0.246 OA
BRANCH  34  36
ATOM     36  C   UNL A   1      44.177  23.634  25.910  1.00  0.00     0.060 A 
ATOM     37  C   UNL A   1      44.370  23.484  27.274  1.00  0.00     0.016 A 
ATOM     38  C   UNL A   1      45.047  24.539  25.457  1.00  0.00     0.016 A 
ATOM     39  C   UNL A   1      44.364  24.637  28.124  1.00  0.00     0.010 A 
ATOM     40  C   UNL A   1      45.144  25.630  26.300  1.00  0.00     0.010 A 
ATOM     41  C   UNL A   1      44.390  25.871  27.534  1.00  0.00    -0.014 A 
BRANCH  41  42
ATOM     42  C   UNL A   1      43.839  27.393  28.322  1.00  0.00     0.031 A 
ATOM     43  C   UNL A   1      42.066  28.071  28.577  1.00  0.00     0.074 A 
ATOM     44  C   UNL A   1      44.832  27.952  29.066  1.00  0.00     0.049 A 
ATOM     45  N   UNL A   1      41.913  29.468  29.229  1.00  0.00    -0.248 NA
ATOM     46  C   UNL A   1      40.153  27.378  28.134  1.00  0.00     0.031 C 
ATOM     47  C   UNL A   1      44.741  28.980  30.098  1.00  0.00     0.029 A 
ATOM     48  N   UNL A   1      46.178  27.629  29.087  1.00  0.00    -0.354 N 
ATOM     49  C   UNL A   1      40.223  29.972  29.538  1.00  0.00     0.074 A 
ATOM     50  C   UNL A   1      39.084  28.630  28.734  1.00  0.00     0.031 C 
ATOM     51  C   UNL A   1      45.966  29.269  30.576  1.00  0.00     0.029 A 
ATOM     52  C   UNL A   1      46.917  28.654  29.676  1.00  0.00     0.049 A 
ATOM     53  H   UNL A   1      46.559  26.794  28.734  1.00  0.00     0.167 HD
ATOM     54  C   UNL A   1      40.065  31.103  30.260  1.00  0.00     0.034 A 
ATOM     55  C   UNL A   1      47.782  29.352  28.878  1.00  0.00     0.034 A 
ATOM     56  C   UNL A   1      41.398  31.706  30.491  1.00  0.00     0.049 A 
ATOM     57  C   UNL A   1      47.181  30.720  28.520  1.00  0.00     0.074 A 
ATOM     58  C   UNL A   1      42.303  31.649  31.541  1.00  0.00     0.029 A 
ATOM     59  N   UNL A   1      42.157  32.163  29.392  1.00  0.00    -0.354 N 
ATOM     60  N   UNL A   1      45.961  31.082  28.854  1.00  0.00    -0.248 NA
ATOM     61  C   UNL A   1      47.897  31.826  27.898  1.00  0.00     0.031 C 
ATOM     62  C   UNL A   1      43.595  32.046  31.057  1.00  0.00     0.029 A 
ATOM     63  C   UNL A   1      43.510  32.365  29.706  1.00  0.00     0.049 A 
ATOM     64  H   UNL A   1      41.776  32.323  28.498  1.00  0.00     0.167 HD
ATOM     65  C   UNL A   1      45.693  32.374  28.524  1.00  0.00     0.074 A 
ATOM     66  C   UNL A   1      46.970  32.806  27.953  1.00  0.00     0.031 C 
ATOM     67  C   UNL A   1      44.467  32.976  28.738  1.00  0.00     0.034 A 
BRANCH  54  68
ATOM     68  C   UNL A   1      38.752  31.388  30.944  1.00  0.00     0.023 A 
ATOM     69  C   UNL A   1      38.439  30.698  32.127  1.00  0.00     0.012 A 
ATOM     70  C   UNL A   1      37.736  32.233  30.432  1.00  0.00     0.148 A 
ATOM     71  C   UNL A   1      37.162  30.768  32.708  1.00  0.00     0.002 A 
ATOM     72  C   UNL A   1      36.432  32.205  30.930  1.00  0.00     0.091 A 
ATOM     73  F   UNL A   1      38.056  33.178  29.543  1.00  0.00    -0.205 F 
ATOM     74  C   UNL A   1      36.141  31.477  32.082  1.00  0.00     0.022 A 
BRANCH  72  75
ATOM     75  S   UNL A   1      35.061  32.959  30.027  1.00  0.00     0.127 S 
ATOM     76  O   UNL A   1      34.135  33.330  31.101  1.00  0.00    -0.237 OA
ATOM     77  O   UNL A   1      35.694  34.094  29.362  1.00  0.00    -0.237 OA
ATOM     78  O   UNL A   1      34.549  31.908  29.153  1.00  0.00    -0.744 OA
ENDBRANCH  72  75
ENDBRANCH  54  68
BRANCH  55  79
ATOM     79  C   UNL A   1      48.638  28.364  28.115  1.00  0.00     0.023 A 
ATOM     80  C   UNL A   1      49.181  27.330  28.941  1.00  0.00     0.012 A 
ATOM     81  C   UNL A   1      48.486  28.085  26.746  1.00  0.00     0.148 A 
ATOM     82  C   UNL A   1      49.213  26.003  28.506  1.00  0.00     0.002 A 
ATOM     83  C   UNL A   1      48.676  26.771  26.282  1.00  0.00     0.091 A 
ATOM     84  F   UNL A   1      48.078  29.062  25.926  1.00  0.00    -0.205 F 
ATOM     85  C   UNL A   1      48.918  25.717  27.182  1.00  0.00     0.022 A 
BRANCH  83  86
ATOM     86  S   UNL A   1      48.552  26.383  24.519  1.00  0.00     0.127 S 
ATOM     87  O   UNL A   1      48.456  24.929  24.542  1.00  0.00    -0.237 OA
ATOM     88  O   UNL A   1      47.318  27.046  24.098  1.00  0.00    -0.237 OA
ATOM     89  O   UNL A   1      49.761  26.948  23.932  1.00  0.00    -0.744 OA
ENDBRANCH  83  86
ENDBRANCH  55  79
BRANCH  67  90
ATOM     90  C   UNL A   1      44.077  34.290  28.064  1.00  0.00     0.023 A 
ATOM     91  C   UNL A   1      43.227  34.342  26.941  1.00  0.00     0.012 A 
ATOM     92  C   UNL A   1      44.435  35.543  28.623  1.00  0.00     0.148 A 
ATOM     93  C   UNL A   1      42.839  35.547  26.349  1.00  0.00     0.002 A 
ATOM     94  C   UNL A   1      43.894  36.729  28.145  1.00  0.00     0.091 A 
ATOM     95  F   UNL A   1      45.343  35.615  29.606  1.00  0.00    -0.205 F 
ATOM     96  C   UNL A   1      43.142  36.744  26.973  1.00  0.00     0.022 A 
BRANCH  94  97
ATOM     97  S   UNL A   1      43.970  38.242  29.111  1.00  0.00     0.127 S 
ATOM     98  O   UNL A   1      45.345  38.676  28.878  1.00  0.00    -0.237 OA
ATOM     99  O   UNL A   1      42.947  39.064  28.463  1.00  0.00    -0.237 OA
ATOM    100  O   UNL A   1      43.641  37.844  30.473  1.00  0.00    -0.744 OA
ENDBRANCH  94  97
ENDBRANCH  67  90
ENDBRANCH  41  42
ENDBRANCH  34  36
ENDBRANCH  33  34
ENDBRANCH  32  33
ENDBRANCH  31  32
ENDBRANCH  30  31
ENDBRANCH  29  30
ENDBRANCH   1  29
TORSDOF 24
ENDMDL
