MODEL 1
REMARK VINA RESULT:     -10.1      0.000      0.000
REMARK SMILES C[C@H]1[C@@H](C(=O)OCCOCCOCCOC(=O)c2ccc(-c3c4nc(c(-c5cccc(S(=O)(=O)[O-])c5F)c5ccc([nH]5)c(-c5cccc(S(=O)(=O)[O-])c5F)c5nc(c(-c6cccc(S(=O)(=O)[O-])c6F)c6ccc3[nH]6)C=C5)C=C4)cc2)CCN1C(=O)N1CCn2cnnc2C1
REMARK SMILES IDX 11 1 10 2 9 3 8 4 7 5 6 6 4 7 5 8 3 9 1 10 2 11 83 12 81 13
REMARK SMILES IDX 82 14 84 15 85 16 86 17 87 18 94 19 88 20 93 21 89 22 92 23
REMARK SMILES IDX 90 24 91 25 12 26 13 27 14 28 15 29 16 30 17 31 18 32 19 33
REMARK SMILES IDX 80 34 20 35 79 36 21 37 22 38 23 39 73 40 24 41 78 42 72 43
REMARK SMILES IDX 74 44 25 45 77 46 71 47 70 48 26 50 58 51 38 52 57 53 39 54
REMARK SMILES IDX 42 55 56 56 75 57 40 58 41 59 55 61 76 62 43 63 27 64 28 65
REMARK SMILES IDX 36 66 29 67 31 68 37 69 30 70 32 71 33 72 34 73 35 74 59 75
REMARK SMILES IDX 60 76 68 77 61 78 63 79 69 80 62 81 64 82 65 83 66 84 67 85
REMARK SMILES IDX 44 86 45 87 53 88 46 89 48 90 54 91 47 92 49 93 50 94 51 95
REMARK SMILES IDX 52 96
REMARK H PARENT 74 49 42 60
REMARK Flexibility Score: inf
ROOT
ATOM      1  C   UNL A   1      34.935  34.426  28.283  1.00  0.00     0.188 C 
ENDROOT
BRANCH   1   2
ATOM      2  C   UNL A   1      35.505  33.209  29.034  1.00  0.00     0.188 C 
BRANCH   2   3
ATOM      3  O   UNL A   1      35.693  31.996  28.328  1.00  0.00    -0.376 OA
BRANCH   3   4
ATOM      4  C   UNL A   1      34.633  31.049  28.316  1.00  0.00     0.202 C 
BRANCH   4   5
ATOM      5  C   UNL A   1      33.543  31.233  27.256  1.00  0.00     0.261 C 
BRANCH   5   6
ATOM      6  O   UNL A   1      33.207  29.981  26.620  1.00  0.00    -0.463 OA
BRANCH   6   7
ATOM      7  C   UNL A   1      32.132  29.989  25.799  1.00  0.00     0.311 C 
ATOM      8  O   UNL A   1      31.337  30.920  25.722  1.00  0.00    -0.252 OA
BRANCH   7   9
ATOM      9  C   UNL A   1      32.002  28.770  24.897  1.00  0.00     0.123 C 
ATOM     10  C   UNL A   1      31.439  27.188  26.923  1.00  0.00     0.032 C 
ATOM     11  C   UNL A   1      31.709  27.356  25.430  1.00  0.00     0.098 C 
ATOM     12  N   UNL A   1      32.819  26.527  24.960  1.00  0.00    -0.321 N 
ATOM     13  C   UNL A   1      33.219  28.638  23.966  1.00  0.00     0.039 C 
ATOM     14  C   UNL A   1      33.774  27.240  24.154  1.00  0.00     0.122 C 
BRANCH  12  15
ATOM     15  C   UNL A   1      33.039  25.213  25.286  1.00  0.00     0.320 C 
ATOM     16  O   UNL A   1      33.927  24.873  26.062  1.00  0.00    -0.248 OA
BRANCH  15  17
ATOM     17  N   UNL A   1      32.256  24.290  24.600  1.00  0.00    -0.315 N 
ATOM     18  C   UNL A   1      31.153  23.643  25.336  1.00  0.00     0.144 C 
ATOM     19  C   UNL A   1      32.926  23.458  23.587  1.00  0.00     0.199 C 
ATOM     20  C   UNL A   1      31.331  22.123  25.525  1.00  0.00     0.146 C 
ATOM     21  C   UNL A   1      33.471  22.300  24.345  1.00  0.00     0.152 A 
ATOM     22  N   UNL A   1      32.701  21.724  25.318  1.00  0.00    -0.314 N 
ATOM     23  N   UNL A   1      34.677  21.784  24.398  1.00  0.00    -0.134 NA
ATOM     24  C   UNL A   1      33.507  20.904  26.021  1.00  0.00     0.226 A 
ATOM     25  N   UNL A   1      34.695  20.892  25.455  1.00  0.00    -0.139 NA
ENDBRANCH  15  17
ENDBRANCH  12  15
ENDBRANCH   7   9
ENDBRANCH   6   7
ENDBRANCH   5   6
ENDBRANCH   4   5
ENDBRANCH   3   4
ENDBRANCH   2   3
ENDBRANCH   1   2
BRANCH   1  26
ATOM     26  O   UNL A   1      33.653  34.933  28.574  1.00  0.00    -0.376 OA
BRANCH  26  27
ATOM     27  C   UNL A   1      33.430  36.320  28.720  1.00  0.00     0.202 C 
BRANCH  27  28
ATOM     28  C   UNL A   1      32.869  36.968  29.995  1.00  0.00     0.261 C 
BRANCH  28  29
ATOM     29  O   UNL A   1      32.315  36.091  30.974  1.00  0.00    -0.460 OA
BRANCH  29  30
ATOM     30  C   UNL A   1      32.790  36.259  32.236  1.00  0.00     0.338 C 
ATOM     31  O   UNL A   1      32.392  37.035  33.083  1.00  0.00    -0.246 OA
BRANCH  30  32
ATOM     32  C   UNL A   1      33.823  35.238  32.476  1.00  0.00     0.060 A 
ATOM     33  C   UNL A   1      33.449  33.995  33.007  1.00  0.00     0.016 A 
ATOM     34  C   UNL A   1      35.159  35.533  32.215  1.00  0.00     0.016 A 
ATOM     35  C   UNL A   1      34.423  33.034  33.283  1.00  0.00     0.010 A 
ATOM     36  C   UNL A   1      36.133  34.584  32.517  1.00  0.00     0.010 A 
ATOM     37  C   UNL A   1      35.772  33.342  33.072  1.00  0.00    -0.014 A 
BRANCH  37  38
ATOM     38  C   UNL A   1      36.849  32.469  33.589  1.00  0.00     0.031 A 
ATOM     39  C   UNL A   1      37.521  32.869  34.872  1.00  0.00     0.074 A 
ATOM     40  C   UNL A   1      37.287  31.411  32.886  1.00  0.00     0.049 A 
ATOM     41  N   UNL A   1      38.632  32.431  35.397  1.00  0.00    -0.248 NA
ATOM     42  C   UNL A   1      36.853  33.922  35.657  1.00  0.00     0.031 C 
ATOM     43  C   UNL A   1      36.689  30.911  31.650  1.00  0.00     0.029 A 
ATOM     44  N   UNL A   1      38.375  30.599  33.090  1.00  0.00    -0.354 N 
ATOM     45  C   UNL A   1      38.828  33.189  36.544  1.00  0.00     0.074 A 
ATOM     46  C   UNL A   1      37.713  34.105  36.646  1.00  0.00     0.031 C 
ATOM     47  C   UNL A   1      37.450  29.907  31.176  1.00  0.00     0.029 A 
ATOM     48  C   UNL A   1      38.609  29.732  32.048  1.00  0.00     0.049 A 
ATOM     49  H   UNL A   1      38.933  30.634  33.901  1.00  0.00     0.167 HD
ATOM     50  C   UNL A   1      39.849  33.128  37.430  1.00  0.00     0.034 A 
ATOM     51  C   UNL A   1      39.666  28.932  31.805  1.00  0.00     0.034 A 
ATOM     52  C   UNL A   1      40.940  32.201  37.327  1.00  0.00     0.049 A 
ATOM     53  C   UNL A   1      40.811  28.905  32.788  1.00  0.00     0.074 A 
ATOM     54  C   UNL A   1      42.010  32.033  38.188  1.00  0.00     0.029 A 
ATOM     55  N   UNL A   1      41.106  31.289  36.296  1.00  0.00    -0.354 N 
ATOM     56  N   UNL A   1      40.952  29.570  33.909  1.00  0.00    -0.248 NA
ATOM     57  C   UNL A   1      41.935  28.005  32.484  1.00  0.00     0.031 C 
ATOM     58  C   UNL A   1      42.837  31.037  37.662  1.00  0.00     0.029 A 
ATOM     59  C   UNL A   1      42.263  30.560  36.493  1.00  0.00     0.049 A 
ATOM     60  H   UNL A   1      40.490  31.178  35.536  1.00  0.00     0.167 HD
ATOM     61  C   UNL A   1      42.151  29.136  34.466  1.00  0.00     0.074 A 
ATOM     62  C   UNL A   1      42.697  28.148  33.560  1.00  0.00     0.031 C 
ATOM     63  C   UNL A   1      42.750  29.525  35.618  1.00  0.00     0.034 A 
BRANCH  50  64
ATOM     64  C   UNL A   1      39.830  34.089  38.586  1.00  0.00     0.023 A 
ATOM     65  C   UNL A   1      40.556  35.294  38.510  1.00  0.00     0.012 A 
ATOM     66  C   UNL A   1      39.052  33.821  39.730  1.00  0.00     0.148 A 
ATOM     67  C   UNL A   1      40.536  36.202  39.568  1.00  0.00     0.002 A 
ATOM     68  C   UNL A   1      39.000  34.751  40.760  1.00  0.00     0.091 A 
ATOM     69  F   UNL A   1      38.387  32.659  39.794  1.00  0.00    -0.205 F 
ATOM     70  C   UNL A   1      39.749  35.937  40.686  1.00  0.00     0.022 A 
BRANCH  68  71
ATOM     71  S   UNL A   1      37.956  34.536  42.207  1.00  0.00     0.127 S 
ATOM     72  O   UNL A   1      38.094  35.833  42.866  1.00  0.00    -0.237 OA
ATOM     73  O   UNL A   1      36.644  34.293  41.607  1.00  0.00    -0.237 OA
ATOM     74  O   UNL A   1      38.509  33.403  42.935  1.00  0.00    -0.744 OA
ENDBRANCH  68  71
ENDBRANCH  50  64
BRANCH  51  75
ATOM     75  C   UNL A   1      39.694  28.079  30.581  1.00  0.00     0.023 A 
ATOM     76  C   UNL A   1      38.948  26.884  30.556  1.00  0.00     0.012 A 
ATOM     77  C   UNL A   1      40.439  28.446  29.443  1.00  0.00     0.148 A 
ATOM     78  C   UNL A   1      38.968  26.056  29.433  1.00  0.00     0.002 A 
ATOM     79  C   UNL A   1      40.411  27.644  28.308  1.00  0.00     0.091 A 
ATOM     80  F   UNL A   1      41.157  29.578  29.492  1.00  0.00    -0.205 F 
ATOM     81  C   UNL A   1      39.691  26.441  28.307  1.00  0.00     0.022 A 
BRANCH  79  82
ATOM     82  S   UNL A   1      41.215  28.116  26.772  1.00  0.00     0.127 S 
ATOM     83  O   UNL A   1      41.081  26.897  25.977  1.00  0.00    -0.237 OA
ATOM     84  O   UNL A   1      40.383  29.235  26.328  1.00  0.00    -0.237 OA
ATOM     85  O   UNL A   1      42.576  28.486  27.136  1.00  0.00    -0.744 OA
ENDBRANCH  79  82
ENDBRANCH  51  75
BRANCH  63  86
ATOM     86  C   UNL A   1      44.030  28.843  36.023  1.00  0.00     0.023 A 
ATOM     87  C   UNL A   1      45.271  29.392  35.648  1.00  0.00     0.012 A 
ATOM     88  C   UNL A   1      43.994  27.734  36.892  1.00  0.00     0.148 A 
ATOM     89  C   UNL A   1      46.459  28.837  36.123  1.00  0.00     0.002 A 
ATOM     90  C   UNL A   1      45.179  27.218  37.400  1.00  0.00     0.091 A 
ATOM     91  F   UNL A   1      42.800  27.222  37.224  1.00  0.00    -0.205 F 
ATOM     92  C   UNL A   1      46.413  27.762  37.010  1.00  0.00     0.022 A 
BRANCH  90  93
ATOM     93  S   UNL A   1      45.216  25.905  38.626  1.00  0.00     0.127 S 
ATOM     94  O   UNL A   1      44.576  24.806  37.905  1.00  0.00    -0.237 OA
ATOM     95  O   UNL A   1      46.650  25.734  38.853  1.00  0.00    -0.237 OA
ATOM     96  O   UNL A   1      44.475  26.405  39.777  1.00  0.00    -0.744 OA
ENDBRANCH  90  93
ENDBRANCH  63  86
ENDBRANCH  37  38
ENDBRANCH  30  32
ENDBRANCH  29  30
ENDBRANCH  28  29
ENDBRANCH  27  28
ENDBRANCH  26  27
ENDBRANCH   1  26
TORSDOF 22
ENDMDL
MODEL 2
REMARK VINA RESULT:      -9.3      5.770     11.757
REMARK SMILES C[C@H]1[C@@H](C(=O)OCCOCCOCCOC(=O)c2ccc(-c3c4nc(c(-c5cccc(S(=O)(=O)[O-])c5F)c5ccc([nH]5)c(-c5cccc(S(=O)(=O)[O-])c5F)c5nc(c(-c6cccc(S(=O)(=O)[O-])c6F)c6ccc3[nH]6)C=C5)C=C4)cc2)CCN1C(=O)N1CCn2cnnc2C1
REMARK SMILES IDX 11 1 10 2 9 3 8 4 7 5 6 6 4 7 5 8 3 9 1 10 2 11 83 12 81 13
REMARK SMILES IDX 82 14 84 15 85 16 86 17 87 18 94 19 88 20 93 21 89 22 92 23
REMARK SMILES IDX 90 24 91 25 12 26 13 27 14 28 15 29 16 30 17 31 18 32 19 33
REMARK SMILES IDX 80 34 20 35 79 36 21 37 22 38 23 39 73 40 24 41 78 42 72 43
REMARK SMILES IDX 74 44 25 45 77 46 71 47 70 48 26 50 58 51 38 52 57 53 39 54
REMARK SMILES IDX 42 55 56 56 75 57 40 58 41 59 55 61 76 62 43 63 27 64 28 65
REMARK SMILES IDX 36 66 29 67 31 68 37 69 30 70 32 71 33 72 34 73 35 74 59 75
REMARK SMILES IDX 60 76 68 77 61 78 63 79 69 80 62 81 64 82 65 83 66 84 67 85
REMARK SMILES IDX 44 86 45 87 53 88 46 89 48 90 54 91 47 92 49 93 50 94 51 95
REMARK SMILES IDX 52 96
REMARK H PARENT 74 49 42 60
REMARK Flexibility Score: inf
ROOT
ATOM      1  C   UNL A   1      42.448  20.149  26.131  1.00  0.00     0.188 C 
ENDROOT
BRANCH   1   2
ATOM      2  C   UNL A   1      41.206  19.911  27.009  1.00  0.00     0.188 C 
BRANCH   2   3
ATOM      3  O   UNL A   1      40.787  20.936  27.893  1.00  0.00    -0.376 OA
BRANCH   3   4
ATOM      4  C   UNL A   1      41.522  22.151  27.916  1.00  0.00     0.202 C 
BRANCH   4   5
ATOM      5  C   UNL A   1      40.860  23.381  27.288  1.00  0.00     0.261 C 
BRANCH   5   6
ATOM      6  O   UNL A   1      41.123  24.575  28.056  1.00  0.00    -0.463 OA
BRANCH   6   7
ATOM      7  C   UNL A   1      40.905  25.755  27.434  1.00  0.00     0.311 C 
ATOM      8  O   UNL A   1      40.410  25.858  26.315  1.00  0.00    -0.252 OA
BRANCH   7   9
ATOM      9  C   UNL A   1      41.252  26.990  28.254  1.00  0.00     0.123 C 
ATOM     10  C   UNL A   1      38.853  27.088  29.331  1.00  0.00     0.032 C 
ATOM     11  C   UNL A   1      40.239  27.705  29.166  1.00  0.00     0.098 C 
ATOM     12  N   UNL A   1      40.188  29.085  28.682  1.00  0.00    -0.321 N 
ATOM     13  C   UNL A   1      41.885  28.080  27.373  1.00  0.00     0.039 C 
ATOM     14  C   UNL A   1      41.080  29.348  27.585  1.00  0.00     0.122 C 
BRANCH  12  15
ATOM     15  C   UNL A   1      39.337  30.064  29.125  1.00  0.00     0.320 C 
ATOM     16  O   UNL A   1      38.373  30.440  28.465  1.00  0.00    -0.248 OA
BRANCH  15  17
ATOM     17  N   UNL A   1      39.700  30.672  30.324  1.00  0.00    -0.315 N 
ATOM     18  C   UNL A   1      40.994  30.292  30.922  1.00  0.00     0.144 C 
ATOM     19  C   UNL A   1      38.621  30.986  31.275  1.00  0.00     0.199 C 
ATOM     20  C   UNL A   1      40.870  29.563  32.275  1.00  0.00     0.146 C 
ATOM     21  C   UNL A   1      38.436  29.740  32.066  1.00  0.00     0.152 A 
ATOM     22  N   UNL A   1      39.540  29.044  32.473  1.00  0.00    -0.314 N 
ATOM     23  N   UNL A   1      37.364  29.029  32.330  1.00  0.00    -0.134 NA
ATOM     24  C   UNL A   1      39.108  27.846  32.915  1.00  0.00     0.226 A 
ATOM     25  N   UNL A   1      37.791  27.832  32.878  1.00  0.00    -0.139 NA
ENDBRANCH  15  17
ENDBRANCH  12  15
ENDBRANCH   7   9
ENDBRANCH   6   7
ENDBRANCH   5   6
ENDBRANCH   4   5
ENDBRANCH   3   4
ENDBRANCH   2   3
ENDBRANCH   1   2
BRANCH   1  26
ATOM     26  O   UNL A   1      43.524  19.240  26.121  1.00  0.00    -0.376 OA
BRANCH  26  27
ATOM     27  C   UNL A   1      44.249  18.976  24.937  1.00  0.00     0.202 C 
BRANCH  27  28
ATOM     28  C   UNL A   1      45.412  19.843  24.434  1.00  0.00     0.261 C 
BRANCH  28  29
ATOM     29  O   UNL A   1      45.572  21.124  25.042  1.00  0.00    -0.460 OA
BRANCH  29  30
ATOM     30  C   UNL A   1      44.993  22.157  24.376  1.00  0.00     0.338 C 
ATOM     31  O   UNL A   1      44.373  22.114  23.331  1.00  0.00    -0.246 OA
BRANCH  30  32
ATOM     32  C   UNL A   1      45.131  23.368  25.201  1.00  0.00     0.060 A 
ATOM     33  C   UNL A   1      46.403  23.755  25.646  1.00  0.00     0.016 A 
ATOM     34  C   UNL A   1      43.996  24.089  25.562  1.00  0.00     0.016 A 
ATOM     35  C   UNL A   1      46.543  24.875  26.467  1.00  0.00     0.010 A 
ATOM     36  C   UNL A   1      44.133  25.190  26.405  1.00  0.00     0.010 A 
ATOM     37  C   UNL A   1      45.402  25.574  26.878  1.00  0.00    -0.014 A 
BRANCH  37  38
ATOM     38  C   UNL A   1      45.470  26.594  27.947  1.00  0.00     0.031 A 
ATOM     39  C   UNL A   1      45.282  26.138  29.366  1.00  0.00     0.074 A 
ATOM     40  C   UNL A   1      45.590  27.901  27.656  1.00  0.00     0.049 A 
ATOM     41  N   UNL A   1      45.051  26.843  30.439  1.00  0.00    -0.248 NA
ATOM     42  C   UNL A   1      45.349  24.685  29.597  1.00  0.00     0.031 C 
ATOM     43  C   UNL A   1      45.812  28.454  26.322  1.00  0.00     0.029 A 
ATOM     44  N   UNL A   1      45.486  29.004  28.468  1.00  0.00    -0.354 N 
ATOM     45  C   UNL A   1      44.888  25.920  31.464  1.00  0.00     0.074 A 
ATOM     46  C   UNL A   1      45.062  24.605  30.887  1.00  0.00     0.031 C 
ATOM     47  C   UNL A   1      45.777  29.797  26.398  1.00  0.00     0.029 A 
ATOM     48  C   UNL A   1      45.481  30.191  27.773  1.00  0.00     0.049 A 
ATOM     49  H   UNL A   1      45.422  28.950  29.449  1.00  0.00     0.167 HD
ATOM     50  C   UNL A   1      44.613  26.150  32.769  1.00  0.00     0.034 A 
ATOM     51  C   UNL A   1      45.213  31.443  28.196  1.00  0.00     0.034 A 
ATOM     52  C   UNL A   1      44.460  27.461  33.333  1.00  0.00     0.049 A 
ATOM     53  C   UNL A   1      44.874  31.673  29.648  1.00  0.00     0.074 A 
ATOM     54  C   UNL A   1      44.213  27.808  34.649  1.00  0.00     0.029 A 
ATOM     55  N   UNL A   1      44.533  28.643  32.612  1.00  0.00    -0.354 N 
ATOM     56  N   UNL A   1      44.797  30.803  30.626  1.00  0.00    -0.248 NA
ATOM     57  C   UNL A   1      44.603  33.059  30.062  1.00  0.00     0.031 C 
ATOM     58  C   UNL A   1      44.110  29.200  34.719  1.00  0.00     0.029 A 
ATOM     59  C   UNL A   1      44.328  29.721  33.452  1.00  0.00     0.049 A 
ATOM     60  H   UNL A   1      44.705  28.705  31.645  1.00  0.00     0.167 HD
ATOM     61  C   UNL A   1      44.518  31.538  31.774  1.00  0.00     0.074 A 
ATOM     62  C   UNL A   1      44.441  32.926  31.372  1.00  0.00     0.031 C 
ATOM     63  C   UNL A   1      44.332  31.102  33.045  1.00  0.00     0.034 A 
BRANCH  50  64
ATOM     64  C   UNL A   1      44.462  24.958  33.673  1.00  0.00     0.023 A 
ATOM     65  C   UNL A   1      43.181  24.442  33.948  1.00  0.00     0.012 A 
ATOM     66  C   UNL A   1      45.597  24.318  34.212  1.00  0.00     0.148 A 
ATOM     67  C   UNL A   1      43.027  23.328  34.771  1.00  0.00     0.002 A 
ATOM     68  C   UNL A   1      45.438  23.181  34.993  1.00  0.00     0.091 A 
ATOM     69  F   UNL A   1      46.806  24.838  33.958  1.00  0.00    -0.205 F 
ATOM     70  C   UNL A   1      44.154  22.691  35.283  1.00  0.00     0.022 A 
BRANCH  68  71
ATOM     71  S   UNL A   1      46.831  22.246  35.635  1.00  0.00     0.127 S 
ATOM     72  O   UNL A   1      47.408  21.695  34.410  1.00  0.00    -0.237 OA
ATOM     73  O   UNL A   1      47.635  23.289  36.272  1.00  0.00    -0.237 OA
ATOM     74  O   UNL A   1      46.269  21.268  36.556  1.00  0.00    -0.744 OA
ENDBRANCH  68  71
ENDBRANCH  50  64
BRANCH  51  75
ATOM     75  C   UNL A   1      45.261  32.583  27.235  1.00  0.00     0.023 A 
ATOM     76  C   UNL A   1      44.118  32.889  26.470  1.00  0.00     0.012 A 
ATOM     77  C   UNL A   1      46.419  33.370  27.082  1.00  0.00     0.148 A 
ATOM     78  C   UNL A   1      44.137  33.938  25.550  1.00  0.00     0.002 A 
ATOM     79  C   UNL A   1      46.414  34.447  26.204  1.00  0.00     0.091 A 
ATOM     80  F   UNL A   1      47.503  33.053  27.806  1.00  0.00    -0.205 F 
ATOM     81  C   UNL A   1      45.281  34.722  25.424  1.00  0.00     0.022 A 
BRANCH  79  82
ATOM     82  S   UNL A   1      47.799  35.584  26.060  1.00  0.00     0.127 S 
ATOM     83  O   UNL A   1      48.743  34.807  25.259  1.00  0.00    -0.237 OA
ATOM     84  O   UNL A   1      47.188  36.716  25.362  1.00  0.00    -0.237 OA
ATOM     85  O   UNL A   1      48.216  35.873  27.425  1.00  0.00    -0.744 OA
ENDBRANCH  79  82
ENDBRANCH  51  75
BRANCH  63  86
ATOM     86  C   UNL A   1      44.100  32.127  34.123  1.00  0.00     0.023 A 
ATOM     87  C   UNL A   1      45.188  32.647  34.849  1.00  0.00     0.012 A 
ATOM     88  C   UNL A   1      42.813  32.670  34.314  1.00  0.00     0.148 A 
ATOM     89  C   UNL A   1      44.996  33.685  35.761  1.00  0.00     0.002 A 
ATOM     90  C   UNL A   1      42.638  33.736  35.187  1.00  0.00     0.091 A 
ATOM     91  F   UNL A   1      41.791  32.149  33.620  1.00  0.00    -0.205 F 
ATOM     92  C   UNL A   1      43.726  34.239  35.918  1.00  0.00     0.022 A 
BRANCH  90  93
ATOM     93  S   UNL A   1      41.064  34.583  35.378  1.00  0.00     0.127 S 
ATOM     94  O   UNL A   1      40.126  33.461  35.419  1.00  0.00    -0.237 OA
ATOM     95  O   UNL A   1      41.240  35.278  36.652  1.00  0.00    -0.237 OA
ATOM     96  O   UNL A   1      40.933  35.458  34.221  1.00  0.00    -0.744 OA
ENDBRANCH  90  93
ENDBRANCH  63  86
ENDBRANCH  37  38
ENDBRANCH  30  32
ENDBRANCH  29  30
ENDBRANCH  28  29
ENDBRANCH  27  28
ENDBRANCH  26  27
ENDBRANCH   1  26
TORSDOF 22
ENDMDL
MODEL 3
REMARK VINA RESULT:      -9.3      1.455      7.743
REMARK SMILES C[C@H]1[C@@H](C(=O)OCCOCCOCCOC(=O)c2ccc(-c3c4nc(c(-c5cccc(S(=O)(=O)[O-])c5F)c5ccc([nH]5)c(-c5cccc(S(=O)(=O)[O-])c5F)c5nc(c(-c6cccc(S(=O)(=O)[O-])c6F)c6ccc3[nH]6)C=C5)C=C4)cc2)CCN1C(=O)N1CCn2cnnc2C1
REMARK SMILES IDX 11 1 10 2 9 3 8 4 7 5 6 6 4 7 5 8 3 9 1 10 2 11 83 12 81 13
REMARK SMILES IDX 82 14 84 15 85 16 86 17 87 18 94 19 88 20 93 21 89 22 92 23
REMARK SMILES IDX 90 24 91 25 12 26 13 27 14 28 15 29 16 30 17 31 18 32 19 33
REMARK SMILES IDX 80 34 20 35 79 36 21 37 22 38 23 39 73 40 24 41 78 42 72 43
REMARK SMILES IDX 74 44 25 45 77 46 71 47 70 48 26 50 58 51 38 52 57 53 39 54
REMARK SMILES IDX 42 55 56 56 75 57 40 58 41 59 55 61 76 62 43 63 27 64 28 65
REMARK SMILES IDX 36 66 29 67 31 68 37 69 30 70 32 71 33 72 34 73 35 74 59 75
REMARK SMILES IDX 60 76 68 77 61 78 63 79 69 80 62 81 64 82 65 83 66 84 67 85
REMARK SMILES IDX 44 86 45 87 53 88 46 89 48 90 54 91 47 92 49 93 50 94 51 95
REMARK SMILES IDX 52 96
REMARK H PARENT 74 49 42 60
REMARK Flexibility Score: inf
ROOT
ATOM      1  C   UNL A   1      34.969  33.525  28.020  1.00  0.00     0.188 C 
ENDROOT
BRANCH   1   2
ATOM      2  C   UNL A   1      34.561  32.064  28.282  1.00  0.00     0.188 C 
BRANCH   2   3
ATOM      3  O   UNL A   1      34.226  31.240  27.179  1.00  0.00    -0.376 OA
BRANCH   3   4
ATOM      4  C   UNL A   1      33.056  30.439  27.265  1.00  0.00     0.202 C 
BRANCH   4   5
ATOM      5  C   UNL A   1      31.964  30.682  26.219  1.00  0.00     0.261 C 
BRANCH   5   6
ATOM      6  O   UNL A   1      31.568  29.454  25.570  1.00  0.00    -0.463 OA
BRANCH   6   7
ATOM      7  C   UNL A   1      30.954  29.573  24.372  1.00  0.00     0.311 C 
ATOM      8  O   UNL A   1      30.013  30.332  24.158  1.00  0.00    -0.252 OA
BRANCH   7   9
ATOM      9  C   UNL A   1      31.560  28.741  23.251  1.00  0.00     0.123 C 
ATOM     10  C   UNL A   1      30.368  26.547  24.080  1.00  0.00     0.032 C 
ATOM     11  C   UNL A   1      31.329  27.226  23.109  1.00  0.00     0.098 C 
ATOM     12  N   UNL A   1      32.664  26.627  23.126  1.00  0.00    -0.321 N 
ATOM     13  C   UNL A   1      33.080  28.958  23.162  1.00  0.00     0.039 C 
ATOM     14  C   UNL A   1      33.730  27.589  23.226  1.00  0.00     0.122 C 
BRANCH  12  15
ATOM     15  C   UNL A   1      32.946  25.285  23.134  1.00  0.00     0.320 C 
ATOM     16  O   UNL A   1      32.463  24.511  22.314  1.00  0.00    -0.248 OA
BRANCH  15  17
ATOM     17  N   UNL A   1      33.734  24.849  24.195  1.00  0.00    -0.315 N 
ATOM     18  C   UNL A   1      34.600  23.676  23.970  1.00  0.00     0.144 C 
ATOM     19  C   UNL A   1      33.175  24.983  25.550  1.00  0.00     0.199 C 
ATOM     20  C   UNL A   1      34.219  22.443  24.814  1.00  0.00     0.146 C 
ATOM     21  C   UNL A   1      32.371  23.748  25.754  1.00  0.00     0.152 A 
ATOM     22  N   UNL A   1      32.876  22.551  25.327  1.00  0.00    -0.314 N 
ATOM     23  N   UNL A   1      31.126  23.573  26.132  1.00  0.00    -0.134 NA
ATOM     24  C   UNL A   1      31.866  21.660  25.375  1.00  0.00     0.226 A 
ATOM     25  N   UNL A   1      30.810  22.246  25.900  1.00  0.00    -0.139 NA
ENDBRANCH  15  17
ENDBRANCH  12  15
ENDBRANCH   7   9
ENDBRANCH   6   7
ENDBRANCH   5   6
ENDBRANCH   4   5
ENDBRANCH   3   4
ENDBRANCH   2   3
ENDBRANCH   1   2
BRANCH   1  26
ATOM     26  O   UNL A   1      34.013  34.505  27.689  1.00  0.00    -0.376 OA
BRANCH  26  27
ATOM     27  C   UNL A   1      33.967  35.742  28.371  1.00  0.00     0.202 C 
BRANCH  27  28
ATOM     28  C   UNL A   1      33.044  36.027  29.566  1.00  0.00     0.261 C 
BRANCH  28  29
ATOM     29  O   UNL A   1      32.741  34.928  30.423  1.00  0.00    -0.460 OA
BRANCH  29  30
ATOM     30  C   UNL A   1      33.159  35.064  31.708  1.00  0.00     0.338 C 
ATOM     31  O   UNL A   1      32.561  35.574  32.635  1.00  0.00    -0.246 OA
BRANCH  30  32
ATOM     32  C   UNL A   1      34.447  34.365  31.846  1.00  0.00     0.060 A 
ATOM     33  C   UNL A   1      34.495  33.140  32.528  1.00  0.00     0.016 A 
ATOM     34  C   UNL A   1      35.606  34.946  31.337  1.00  0.00     0.016 A 
ATOM     35  C   UNL A   1      35.716  32.489  32.706  1.00  0.00     0.010 A 
ATOM     36  C   UNL A   1      36.828  34.310  31.540  1.00  0.00     0.010 A 
ATOM     37  C   UNL A   1      36.892  33.092  32.243  1.00  0.00    -0.014 A 
BRANCH  37  38
ATOM     38  C   UNL A   1      38.224  32.580  32.634  1.00  0.00     0.031 A 
ATOM     39  C   UNL A   1      38.828  31.486  31.800  1.00  0.00     0.074 A 
ATOM     40  C   UNL A   1      38.831  33.002  33.756  1.00  0.00     0.049 A 
ATOM     41  N   UNL A   1      39.840  30.707  32.062  1.00  0.00    -0.248 NA
ATOM     42  C   UNL A   1      38.185  31.228  30.499  1.00  0.00     0.031 C 
ATOM     43  C   UNL A   1      38.355  34.079  34.621  1.00  0.00     0.029 A 
ATOM     44  N   UNL A   1      39.956  32.531  34.387  1.00  0.00    -0.354 N 
ATOM     45  C   UNL A   1      39.925  29.830  30.989  1.00  0.00     0.074 A 
ATOM     46  C   UNL A   1      38.870  30.182  30.064  1.00  0.00     0.031 C 
ATOM     47  C   UNL A   1      39.156  34.154  35.700  1.00  0.00     0.029 A 
ATOM     48  C   UNL A   1      40.164  33.100  35.622  1.00  0.00     0.049 A 
ATOM     49  H   UNL A   1      40.553  31.854  33.994  1.00  0.00     0.167 HD
ATOM     50  C   UNL A   1      40.802  28.818  30.795  1.00  0.00     0.034 A 
ATOM     51  C   UNL A   1      41.035  32.767  36.595  1.00  0.00     0.034 A 
ATOM     52  C   UNL A   1      41.857  28.490  31.712  1.00  0.00     0.049 A 
ATOM     53  C   UNL A   1      41.981  31.612  36.373  1.00  0.00     0.074 A 
ATOM     54  C   UNL A   1      42.821  27.505  31.597  1.00  0.00     0.029 A 
ATOM     55  N   UNL A   1      42.081  29.134  32.919  1.00  0.00    -0.354 N 
ATOM     56  N   UNL A   1      42.105  30.836  35.323  1.00  0.00    -0.248 NA
ATOM     57  C   UNL A   1      42.921  31.297  37.460  1.00  0.00     0.031 C 
ATOM     58  C   UNL A   1      43.613  27.537  32.748  1.00  0.00     0.029 A 
ATOM     59  C   UNL A   1      43.164  28.566  33.563  1.00  0.00     0.049 A 
ATOM     60  H   UNL A   1      41.549  29.886  33.265  1.00  0.00     0.167 HD
ATOM     61  C   UNL A   1      43.163  29.977  35.602  1.00  0.00     0.074 A 
ATOM     62  C   UNL A   1      43.649  30.328  36.920  1.00  0.00     0.031 C 
ATOM     63  C   UNL A   1      43.680  28.981  34.841  1.00  0.00     0.034 A 
BRANCH  50  64
ATOM     64  C   UNL A   1      40.658  27.997  29.543  1.00  0.00     0.023 A 
ATOM     65  C   UNL A   1      39.621  27.049  29.441  1.00  0.00     0.012 A 
ATOM     66  C   UNL A   1      41.521  28.200  28.448  1.00  0.00     0.148 A 
ATOM     67  C   UNL A   1      39.465  26.292  28.281  1.00  0.00     0.002 A 
ATOM     68  C   UNL A   1      41.331  27.475  27.279  1.00  0.00     0.091 A 
ATOM     69  F   UNL A   1      42.516  29.089  28.574  1.00  0.00    -0.205 F 
ATOM     70  C   UNL A   1      40.311  26.513  27.198  1.00  0.00     0.022 A 
BRANCH  68  71
ATOM     71  S   UNL A   1      42.320  27.741  25.803  1.00  0.00     0.127 S 
ATOM     72  O   UNL A   1      43.677  27.587  26.324  1.00  0.00    -0.237 OA
ATOM     73  O   UNL A   1      41.874  26.653  24.933  1.00  0.00    -0.237 OA
ATOM     74  O   UNL A   1      41.980  29.076  25.328  1.00  0.00    -0.744 OA
ENDBRANCH  68  71
ENDBRANCH  50  64
BRANCH  51  75
ATOM     75  C   UNL A   1      41.063  33.540  37.871  1.00  0.00     0.023 A 
ATOM     76  C   UNL A   1      41.994  34.586  38.023  1.00  0.00     0.012 A 
ATOM     77  C   UNL A   1      40.173  33.255  38.925  1.00  0.00     0.148 A 
ATOM     78  C   UNL A   1      42.057  35.316  39.211  1.00  0.00     0.002 A 
ATOM     79  C   UNL A   1      40.205  34.020  40.085  1.00  0.00     0.091 A 
ATOM     80  F   UNL A   1      39.307  32.243  38.769  1.00  0.00    -0.205 F 
ATOM     81  C   UNL A   1      41.157  35.039  40.237  1.00  0.00     0.022 A 
BRANCH  79  82
ATOM     82  S   UNL A   1      39.011  33.815  41.412  1.00  0.00     0.127 S 
ATOM     83  O   UNL A   1      37.850  34.528  40.883  1.00  0.00    -0.237 OA
ATOM     84  O   UNL A   1      38.866  32.359  41.464  1.00  0.00    -0.237 OA
ATOM     85  O   UNL A   1      39.628  34.400  42.593  1.00  0.00    -0.744 OA
ENDBRANCH  79  82
ENDBRANCH  51  75
BRANCH  63  86
ATOM     86  C   UNL A   1      44.879  28.234  35.363  1.00  0.00     0.023 A 
ATOM     87  C   UNL A   1      46.177  28.706  35.094  1.00  0.00     0.012 A 
ATOM     88  C   UNL A   1      44.704  27.140  36.236  1.00  0.00     0.148 A 
ATOM     89  C   UNL A   1      47.286  28.092  35.676  1.00  0.00     0.002 A 
ATOM     90  C   UNL A   1      45.809  26.566  36.850  1.00  0.00     0.091 A 
ATOM     91  F   UNL A   1      43.458  26.701  36.466  1.00  0.00    -0.205 F 
ATOM     92  C   UNL A   1      47.101  27.034  36.565  1.00  0.00     0.022 A 
BRANCH  90  93
ATOM     93  S   UNL A   1      45.663  25.270  38.087  1.00  0.00     0.127 S 
ATOM     94  O   UNL A   1      45.174  24.148  37.286  1.00  0.00    -0.237 OA
ATOM     95  O   UNL A   1      47.042  25.132  38.553  1.00  0.00    -0.237 OA
ATOM     96  O   UNL A   1      44.731  25.770  39.089  1.00  0.00    -0.744 OA
ENDBRANCH  90  93
ENDBRANCH  63  86
ENDBRANCH  37  38
ENDBRANCH  30  32
ENDBRANCH  29  30
ENDBRANCH  28  29
ENDBRANCH  27  28
ENDBRANCH  26  27
ENDBRANCH   1  26
TORSDOF 22
ENDMDL
