MODEL 1
REMARK VINA RESULT:     -10.8      0.000      0.000
REMARK SMILES Cc1cc(C(=O)OCCOCCOCCOC(=O)c2ccc(-c3c4nc(c(-c5cccc(S(=O)(=O)[O-])c5F)c5ccc([nH]5)c(-c5cccc(S(=O)(=O)[O-])c5F)c5nc(c(-c6cccc(S(=O)(=O)[O-])c6F)c6ccc3[nH]6)C=C5)C=C4)cc2)ccc1NC(=O)c1ccc(=O)n(CCOc2ccccc2)n1
REMARK SMILES IDX 10 1 9 2 8 3 7 4 5 5 6 6 4 7 1 8 2 9 3 10 84 11 83 12 82 13
REMARK SMILES IDX 85 14 86 15 87 17 88 18 89 19 103 20 90 21 93 22 91 23 92 24
REMARK SMILES IDX 94 25 95 26 96 27 97 28 98 29 102 30 99 31 101 32 100 33
REMARK SMILES IDX 11 34 12 35 13 36 14 37 15 38 16 39 17 40 18 41 19 42 20 43
REMARK SMILES IDX 81 44 21 45 80 46 22 47 23 48 24 49 74 50 25 51 79 52 73 53
REMARK SMILES IDX 75 54 26 55 78 56 72 57 71 58 27 60 59 61 39 62 58 63 40 64
REMARK SMILES IDX 43 65 57 66 76 67 41 68 42 69 56 71 77 72 44 73 28 74 29 75
REMARK SMILES IDX 37 76 30 77 32 78 38 79 31 80 33 81 34 82 35 83 36 84 60 85
REMARK SMILES IDX 61 86 69 87 62 88 64 89 70 90 63 91 65 92 66 93 67 94 68 95
REMARK SMILES IDX 45 96 46 97 54 98 47 99 49 100 55 101 48 102 50 103 51 104
REMARK SMILES IDX 52 105 53 106
REMARK H PARENT 85 16 75 59 43 70
REMARK Flexibility Score: inf
ROOT
ATOM      1  O   UNL A   1      38.325  19.739  25.351  1.00  0.00    -0.376 OA
ENDROOT
BRANCH   1   2
ATOM      2  C   UNL A   1      36.973  19.734  24.815  1.00  0.00     0.202 C 
BRANCH   2   3
ATOM      3  C   UNL A   1      36.171  18.320  24.895  1.00  0.00     0.261 C 
BRANCH   3   4
ATOM      4  O   UNL A   1      34.691  17.985  24.448  1.00  0.00    -0.460 OA
BRANCH   4   5
ATOM      5  C   UNL A   1      33.488  18.453  23.981  1.00  0.00     0.338 C 
ATOM      6  O   UNL A   1      32.572  17.929  23.384  1.00  0.00    -0.246 OA
BRANCH   5   7
ATOM      7  C   UNL A   1      33.061  19.762  24.492  1.00  0.00     0.060 A 
ATOM      8  C   UNL A   1      33.725  22.121  27.436  1.00  0.00     0.046 C 
ATOM      9  C   UNL A   1      33.048  21.432  26.287  1.00  0.00    -0.027 A 
ATOM     10  C   UNL A   1      33.594  20.288  25.702  1.00  0.00     0.021 A 
ATOM     11  C   UNL A   1      31.912  21.929  25.666  1.00  0.00     0.044 A 
ATOM     12  C   UNL A   1      31.707  21.682  24.310  1.00  0.00     0.027 A 
ATOM     13  C   UNL A   1      32.240  20.552  23.727  1.00  0.00     0.018 A 
BRANCH  11  14
ATOM     14  N   UNL A   1      30.828  22.357  26.458  1.00  0.00    -0.320 N 
ATOM     15  C   UNL A   1      30.409  23.686  26.562  1.00  0.00     0.276 C 
ATOM     16  H   UNL A   1      30.333  21.676  26.970  1.00  0.00     0.170 HD
ATOM     17  O   UNL A   1      29.465  24.026  27.269  1.00  0.00    -0.267 OA
BRANCH  15  18
ATOM     18  C   UNL A   1      31.160  24.763  25.762  1.00  0.00     0.149 A 
ATOM     19  C   UNL A   1      32.102  25.583  26.553  1.00  0.00     0.042 A 
ATOM     20  N   UNL A   1      30.984  24.875  24.478  1.00  0.00    -0.164 NA
ATOM     21  C   UNL A   1      33.060  26.199  25.859  1.00  0.00     0.076 A 
ATOM     22  N   UNL A   1      31.893  25.700  23.794  1.00  0.00    -0.226 N 
ATOM     23  C   UNL A   1      33.060  26.188  24.377  1.00  0.00     0.266 A 
ATOM     24  O   UNL A   1      34.047  26.635  23.802  1.00  0.00    -0.268 OA
BRANCH  22  25
ATOM     25  C   UNL A   1      31.606  26.009  22.387  1.00  0.00     0.190 C 
BRANCH  25  26
ATOM     26  C   UNL A   1      30.963  27.397  22.214  1.00  0.00     0.253 C 
BRANCH  26  27
ATOM     27  O   UNL A   1      29.701  27.564  22.871  1.00  0.00    -0.492 OA
BRANCH  27  28
ATOM     28  C   UNL A   1      29.217  28.794  23.192  1.00  0.00     0.119 A 
ATOM     29  C   UNL A   1      27.864  28.988  22.902  1.00  0.00     0.046 A 
ATOM     30  C   UNL A   1      29.940  29.852  23.727  1.00  0.00     0.046 A 
ATOM     31  C   UNL A   1      27.265  30.239  23.077  1.00  0.00     0.004 A 
ATOM     32  C   UNL A   1      29.367  31.124  23.839  1.00  0.00     0.004 A 
ATOM     33  C   UNL A   1      28.029  31.319  23.509  1.00  0.00     0.000 A 
ENDBRANCH  27  28
ENDBRANCH  26  27
ENDBRANCH  25  26
ENDBRANCH  22  25
ENDBRANCH  15  18
ENDBRANCH  11  14
ENDBRANCH   5   7
ENDBRANCH   4   5
ENDBRANCH   3   4
ENDBRANCH   2   3
ENDBRANCH   1   2
BRANCH   1  34
ATOM     34  C   UNL A   1      38.897  21.028  25.210  1.00  0.00     0.188 C 
BRANCH  34  35
ATOM     35  C   UNL A   1      39.315  21.730  26.496  1.00  0.00     0.188 C 
BRANCH  35  36
ATOM     36  O   UNL A   1      40.188  21.057  27.408  1.00  0.00    -0.376 OA
BRANCH  36  37
ATOM     37  C   UNL A   1      41.313  21.767  27.918  1.00  0.00     0.202 C 
BRANCH  37  38
ATOM     38  C   UNL A   1      42.677  21.641  27.184  1.00  0.00     0.261 C 
BRANCH  38  39
ATOM     39  O   UNL A   1      43.405  22.878  27.079  1.00  0.00    -0.460 OA
BRANCH  39  40
ATOM     40  C   UNL A   1      43.301  23.524  25.873  1.00  0.00     0.338 C 
ATOM     41  O   UNL A   1      43.088  22.978  24.798  1.00  0.00    -0.246 OA
BRANCH  40  42
ATOM     42  C   UNL A   1      43.717  24.931  26.110  1.00  0.00     0.060 A 
ATOM     43  C   UNL A   1      44.787  25.319  26.887  1.00  0.00     0.016 A 
ATOM     44  C   UNL A   1      42.858  25.926  25.782  1.00  0.00     0.016 A 
ATOM     45  C   UNL A   1      44.752  26.561  27.604  1.00  0.00     0.010 A 
ATOM     46  C   UNL A   1      42.781  27.026  26.659  1.00  0.00     0.010 A 
ATOM     47  C   UNL A   1      43.593  27.318  27.767  1.00  0.00    -0.014 A 
BRANCH  47  48
ATOM     48  C   UNL A   1      43.277  28.216  29.133  1.00  0.00     0.031 A 
ATOM     49  C   UNL A   1      41.947  29.011  29.664  1.00  0.00     0.074 A 
ATOM     50  C   UNL A   1      44.331  28.455  29.951  1.00  0.00     0.049 A 
ATOM     51  N   UNL A   1      41.535  30.231  29.396  1.00  0.00    -0.248 NA
ATOM     52  C   UNL A   1      41.019  28.454  30.673  1.00  0.00     0.031 C 
ATOM     53  C   UNL A   1      44.350  29.354  31.102  1.00  0.00     0.029 A 
ATOM     54  N   UNL A   1      45.685  28.193  29.732  1.00  0.00    -0.354 N 
ATOM     55  C   UNL A   1      40.248  30.415  29.935  1.00  0.00     0.074 A 
ATOM     56  C   UNL A   1      39.893  29.167  30.543  1.00  0.00     0.031 C 
ATOM     57  C   UNL A   1      45.589  29.879  31.171  1.00  0.00     0.029 A 
ATOM     58  C   UNL A   1      46.342  29.387  30.023  1.00  0.00     0.049 A 
ATOM     59  H   UNL A   1      46.090  27.346  29.436  1.00  0.00     0.167 HD
ATOM     60  C   UNL A   1      39.743  31.595  30.419  1.00  0.00     0.034 A 
ATOM     61  C   UNL A   1      46.968  30.135  29.064  1.00  0.00     0.034 A 
ATOM     62  C   UNL A   1      40.884  32.390  30.820  1.00  0.00     0.049 A 
ATOM     63  C   UNL A   1      46.412  31.552  29.012  1.00  0.00     0.074 A 
ATOM     64  C   UNL A   1      41.655  32.281  31.967  1.00  0.00     0.029 A 
ATOM     65  N   UNL A   1      41.635  33.054  29.879  1.00  0.00    -0.354 N 
ATOM     66  N   UNL A   1      45.274  31.932  29.534  1.00  0.00    -0.248 NA
ATOM     67  C   UNL A   1      47.119  32.651  28.363  1.00  0.00     0.031 C 
ATOM     68  C   UNL A   1      42.952  32.747  31.648  1.00  0.00     0.029 A 
ATOM     69  C   UNL A   1      42.926  33.234  30.354  1.00  0.00     0.049 A 
ATOM     70  H   UNL A   1      41.306  33.357  29.002  1.00  0.00     0.167 HD
ATOM     71  C   UNL A   1      45.055  33.257  29.238  1.00  0.00     0.074 A 
ATOM     72  C   UNL A   1      46.271  33.671  28.561  1.00  0.00     0.031 C 
ATOM     73  C   UNL A   1      43.891  33.920  29.519  1.00  0.00     0.034 A 
BRANCH  60  74
ATOM     74  C   UNL A   1      38.363  31.706  31.090  1.00  0.00     0.023 A 
ATOM     75  C   UNL A   1      37.242  31.109  30.470  1.00  0.00     0.012 A 
ATOM     76  C   UNL A   1      38.113  32.405  32.303  1.00  0.00     0.148 A 
ATOM     77  C   UNL A   1      35.934  31.291  30.946  1.00  0.00     0.002 A 
ATOM     78  C   UNL A   1      36.798  32.615  32.759  1.00  0.00     0.091 A 
ATOM     79  F   UNL A   1      39.159  32.869  33.002  1.00  0.00    -0.205 F 
ATOM     80  C   UNL A   1      35.709  32.069  32.072  1.00  0.00     0.022 A 
BRANCH  78  81
ATOM     81  S   UNL A   1      36.390  33.704  34.142  1.00  0.00     0.127 S 
ATOM     82  O   UNL A   1      36.637  35.034  33.576  1.00  0.00    -0.237 OA
ATOM     83  O   UNL A   1      34.979  33.406  34.380  1.00  0.00    -0.237 OA
ATOM     84  O   UNL A   1      37.310  33.338  35.208  1.00  0.00    -0.744 OA
ENDBRANCH  78  81
ENDBRANCH  60  74
BRANCH  61  85
ATOM     85  C   UNL A   1      47.628  29.412  27.906  1.00  0.00     0.023 A 
ATOM     86  C   UNL A   1      48.830  28.702  28.180  1.00  0.00     0.012 A 
ATOM     87  C   UNL A   1      47.044  29.213  26.635  1.00  0.00     0.148 A 
ATOM     88  C   UNL A   1      49.377  27.778  27.281  1.00  0.00     0.002 A 
ATOM     89  C   UNL A   1      47.586  28.269  25.743  1.00  0.00     0.091 A 
ATOM     90  F   UNL A   1      45.912  29.860  26.328  1.00  0.00    -0.205 F 
ATOM     91  C   UNL A   1      48.753  27.558  26.062  1.00  0.00     0.022 A 
BRANCH  89  92
ATOM     92  S   UNL A   1      46.662  27.740  24.279  1.00  0.00     0.127 S 
ATOM     93  O   UNL A   1      45.273  28.025  24.647  1.00  0.00    -0.237 OA
ATOM     94  O   UNL A   1      47.174  28.587  23.212  1.00  0.00    -0.237 OA
ATOM     95  O   UNL A   1      46.995  26.322  24.209  1.00  0.00    -0.744 OA
ENDBRANCH  89  92
ENDBRANCH  61  85
BRANCH  73  96
ATOM     96  C   UNL A   1      43.512  35.296  29.003  1.00  0.00     0.023 A 
ATOM     97  C   UNL A   1      42.427  35.485  28.131  1.00  0.00     0.012 A 
ATOM     98  C   UNL A   1      44.101  36.465  29.556  1.00  0.00     0.148 A 
ATOM     99  C   UNL A   1      41.988  36.762  27.771  1.00  0.00     0.002 A 
ATOM    100  C   UNL A   1      43.564  37.725  29.309  1.00  0.00     0.091 A 
ATOM    101  F   UNL A   1      45.190  36.369  30.337  1.00  0.00    -0.205 F 
ATOM    102  C   UNL A   1      42.535  37.883  28.382  1.00  0.00     0.022 A 
BRANCH 100 103
ATOM    103  S   UNL A   1      44.037  39.122  30.340  1.00  0.00     0.127 S 
ATOM    104  O   UNL A   1      43.077  40.146  29.944  1.00  0.00    -0.237 OA
ATOM    105  O   UNL A   1      43.846  38.602  31.697  1.00  0.00    -0.237 OA
ATOM    106  O   UNL A   1      45.432  39.366  29.992  1.00  0.00    -0.744 OA
ENDBRANCH 100 103
ENDBRANCH  73  96
ENDBRANCH  47  48
ENDBRANCH  40  42
ENDBRANCH  39  40
ENDBRANCH  38  39
ENDBRANCH  37  38
ENDBRANCH  36  37
ENDBRANCH  35  36
ENDBRANCH  34  35
ENDBRANCH   1  34
TORSDOF 26
ENDMDL
MODEL 2
REMARK VINA RESULT:     -10.8      5.554     10.660
REMARK SMILES Cc1cc(C(=O)OCCOCCOCCOC(=O)c2ccc(-c3c4nc(c(-c5cccc(S(=O)(=O)[O-])c5F)c5ccc([nH]5)c(-c5cccc(S(=O)(=O)[O-])c5F)c5nc(c(-c6cccc(S(=O)(=O)[O-])c6F)c6ccc3[nH]6)C=C5)C=C4)cc2)ccc1NC(=O)c1ccc(=O)n(CCOc2ccccc2)n1
REMARK SMILES IDX 10 1 9 2 8 3 7 4 5 5 6 6 4 7 1 8 2 9 3 10 84 11 83 12 82 13
REMARK SMILES IDX 85 14 86 15 87 17 88 18 89 19 103 20 90 21 93 22 91 23 92 24
REMARK SMILES IDX 94 25 95 26 96 27 97 28 98 29 102 30 99 31 101 32 100 33
REMARK SMILES IDX 11 34 12 35 13 36 14 37 15 38 16 39 17 40 18 41 19 42 20 43
REMARK SMILES IDX 81 44 21 45 80 46 22 47 23 48 24 49 74 50 25 51 79 52 73 53
REMARK SMILES IDX 75 54 26 55 78 56 72 57 71 58 27 60 59 61 39 62 58 63 40 64
REMARK SMILES IDX 43 65 57 66 76 67 41 68 42 69 56 71 77 72 44 73 28 74 29 75
REMARK SMILES IDX 37 76 30 77 32 78 38 79 31 80 33 81 34 82 35 83 36 84 60 85
REMARK SMILES IDX 61 86 69 87 62 88 64 89 70 90 63 91 65 92 66 93 67 94 68 95
REMARK SMILES IDX 45 96 46 97 54 98 47 99 49 100 55 101 48 102 50 103 51 104
REMARK SMILES IDX 52 105 53 106
REMARK H PARENT 85 16 75 59 43 70
REMARK Flexibility Score: inf
ROOT
ATOM      1  O   UNL A   1      38.460  20.583  25.406  1.00  0.00    -0.376 OA
ENDROOT
BRANCH   1   2
ATOM      2  C   UNL A   1      37.080  20.456  24.964  1.00  0.00     0.202 C 
BRANCH   2   3
ATOM      3  C   UNL A   1      36.528  18.939  24.754  1.00  0.00     0.261 C 
BRANCH   3   4
ATOM      4  O   UNL A   1      35.039  18.434  24.577  1.00  0.00    -0.460 OA
BRANCH   4   5
ATOM      5  C   UNL A   1      33.742  18.744  24.250  1.00  0.00     0.338 C 
ATOM      6  O   UNL A   1      32.818  18.087  23.820  1.00  0.00    -0.246 OA
BRANCH   5   7
ATOM      7  C   UNL A   1      33.247  20.042  24.728  1.00  0.00     0.060 A 
ATOM      8  C   UNL A   1      33.533  22.351  27.771  1.00  0.00     0.046 C 
ATOM      9  C   UNL A   1      33.005  21.680  26.536  1.00  0.00    -0.027 A 
ATOM     10  C   UNL A   1      33.626  20.548  26.003  1.00  0.00     0.021 A 
ATOM     11  C   UNL A   1      31.949  22.181  25.791  1.00  0.00     0.044 A 
ATOM     12  C   UNL A   1      31.911  21.957  24.416  1.00  0.00     0.027 A 
ATOM     13  C   UNL A   1      32.519  20.841  23.882  1.00  0.00     0.018 A 
BRANCH  11  14
ATOM     14  N   UNL A   1      30.773  22.589  26.453  1.00  0.00    -0.320 N 
ATOM     15  C   UNL A   1      30.314  23.909  26.494  1.00  0.00     0.276 C 
ATOM     16  H   UNL A   1      30.242  21.901  26.915  1.00  0.00     0.170 HD
ATOM     17  O   UNL A   1      29.290  24.232  27.088  1.00  0.00    -0.267 OA
BRANCH  15  18
ATOM     18  C   UNL A   1      31.123  24.996  25.769  1.00  0.00     0.149 A 
ATOM     19  C   UNL A   1      32.165  25.649  26.589  1.00  0.00     0.042 A 
ATOM     20  N   UNL A   1      30.905  25.255  24.512  1.00  0.00    -0.164 NA
ATOM     21  C   UNL A   1      33.144  26.251  25.913  1.00  0.00     0.076 A 
ATOM     22  N   UNL A   1      31.854  26.068  23.869  1.00  0.00    -0.226 N 
ATOM     23  C   UNL A   1      33.082  26.394  24.438  1.00  0.00     0.266 A 
ATOM     24  O   UNL A   1      34.080  26.815  23.863  1.00  0.00    -0.268 OA
BRANCH  22  25
ATOM     25  C   UNL A   1      31.537  26.544  22.517  1.00  0.00     0.190 C 
BRANCH  25  26
ATOM     26  C   UNL A   1      30.364  27.541  22.508  1.00  0.00     0.253 C 
BRANCH  26  27
ATOM     27  O   UNL A   1      30.708  28.881  22.877  1.00  0.00    -0.492 OA
BRANCH  27  28
ATOM     28  C   UNL A   1      29.806  29.897  22.812  1.00  0.00     0.119 A 
ATOM     29  C   UNL A   1      29.191  30.058  21.567  1.00  0.00     0.046 A 
ATOM     30  C   UNL A   1      29.485  30.785  23.830  1.00  0.00     0.046 A 
ATOM     31  C   UNL A   1      28.327  31.131  21.328  1.00  0.00     0.004 A 
ATOM     32  C   UNL A   1      28.678  31.899  23.579  1.00  0.00     0.004 A 
ATOM     33  C   UNL A   1      28.102  32.075  22.324  1.00  0.00     0.000 A 
ENDBRANCH  27  28
ENDBRANCH  26  27
ENDBRANCH  25  26
ENDBRANCH  22  25
ENDBRANCH  15  18
ENDBRANCH  11  14
ENDBRANCH   5   7
ENDBRANCH   4   5
ENDBRANCH   3   4
ENDBRANCH   2   3
ENDBRANCH   1   2
BRANCH   1  34
ATOM     34  C   UNL A   1      38.752  21.938  25.697  1.00  0.00     0.188 C 
BRANCH  34  35
ATOM     35  C   UNL A   1      39.691  22.194  26.870  1.00  0.00     0.188 C 
BRANCH  35  36
ATOM     36  O   UNL A   1      40.363  21.090  27.482  1.00  0.00    -0.376 OA
BRANCH  36  37
ATOM     37  C   UNL A   1      41.779  21.154  27.629  1.00  0.00     0.202 C 
BRANCH  37  38
ATOM     38  C   UNL A   1      42.591  22.081  26.683  1.00  0.00     0.261 C 
BRANCH  38  39
ATOM     39  O   UNL A   1      43.400  23.056  27.367  1.00  0.00    -0.460 OA
BRANCH  39  40
ATOM     40  C   UNL A   1      43.021  24.363  27.196  1.00  0.00     0.338 C 
ATOM     41  O   UNL A   1      42.659  24.858  26.136  1.00  0.00    -0.246 OA
BRANCH  40  42
ATOM     42  C   UNL A   1      43.353  25.068  28.461  1.00  0.00     0.060 A 
ATOM     43  C   UNL A   1      43.388  26.437  28.618  1.00  0.00     0.016 A 
ATOM     44  C   UNL A   1      43.926  24.363  29.467  1.00  0.00     0.016 A 
ATOM     45  C   UNL A   1      44.301  27.039  29.546  1.00  0.00     0.010 A 
ATOM     46  C   UNL A   1      44.941  25.002  30.205  1.00  0.00     0.010 A 
ATOM     47  C   UNL A   1      45.349  26.344  30.149  1.00  0.00    -0.014 A 
BRANCH  47  48
ATOM     48  C   UNL A   1      46.811  27.047  30.523  1.00  0.00     0.031 A 
ATOM     49  C   UNL A   1      48.299  26.954  29.846  1.00  0.00     0.074 A 
ATOM     50  C   UNL A   1      46.856  27.765  31.672  1.00  0.00     0.049 A 
ATOM     51  N   UNL A   1      49.259  26.076  30.044  1.00  0.00    -0.248 NA
ATOM     52  C   UNL A   1      48.839  27.985  28.931  1.00  0.00     0.031 C 
ATOM     53  C   UNL A   1      48.050  28.322  32.302  1.00  0.00     0.029 A 
ATOM     54  N   UNL A   1      45.891  27.869  32.676  1.00  0.00    -0.354 N 
ATOM     55  C   UNL A   1      50.287  26.295  29.108  1.00  0.00     0.074 A 
ATOM     56  C   UNL A   1      49.850  27.387  28.289  1.00  0.00     0.031 C 
ATOM     57  C   UNL A   1      47.851  28.277  33.633  1.00  0.00     0.029 A 
ATOM     58  C   UNL A   1      46.570  27.617  33.865  1.00  0.00     0.049 A 
ATOM     59  H   UNL A   1      44.935  28.077  32.567  1.00  0.00     0.167 HD
ATOM     60  C   UNL A   1      51.624  26.075  29.321  1.00  0.00     0.034 A 
ATOM     61  C   UNL A   1      46.343  26.500  34.621  1.00  0.00     0.034 A 
ATOM     62  C   UNL A   1      51.829  26.172  30.750  1.00  0.00     0.049 A 
ATOM     63  C   UNL A   1      47.620  25.694  34.823  1.00  0.00     0.074 A 
ATOM     64  C   UNL A   1      51.918  27.310  31.537  1.00  0.00     0.029 A 
ATOM     65  N   UNL A   1      51.487  25.126  31.575  1.00  0.00    -0.354 N 
ATOM     66  N   UNL A   1      48.708  25.820  34.108  1.00  0.00    -0.248 NA
ATOM     67  C   UNL A   1      47.754  24.683  35.866  1.00  0.00     0.031 C 
ATOM     68  C   UNL A   1      51.461  26.965  32.831  1.00  0.00     0.029 A 
ATOM     69  C   UNL A   1      51.206  25.605  32.847  1.00  0.00     0.049 A 
ATOM     70  H   UNL A   1      51.448  24.180  31.305  1.00  0.00     0.167 HD
ATOM     71  C   UNL A   1      49.634  24.890  34.518  1.00  0.00     0.074 A 
ATOM     72  C   UNL A   1      49.009  24.251  35.662  1.00  0.00     0.031 C 
ATOM     73  C   UNL A   1      50.826  24.667  33.882  1.00  0.00     0.034 A 
BRANCH  60  74
ATOM     74  C   UNL A   1      52.710  26.432  28.291  1.00  0.00     0.023 A 
ATOM     75  C   UNL A   1      53.686  27.399  28.621  1.00  0.00     0.012 A 
ATOM     76  C   UNL A   1      52.795  25.873  26.986  1.00  0.00     0.148 A 
ATOM     77  C   UNL A   1      54.616  27.879  27.685  1.00  0.00     0.002 A 
ATOM     78  C   UNL A   1      53.705  26.379  26.039  1.00  0.00     0.091 A 
ATOM     79  F   UNL A   1      51.982  24.854  26.671  1.00  0.00    -0.205 F 
ATOM     80  C   UNL A   1      54.605  27.392  26.387  1.00  0.00     0.022 A 
BRANCH  78  81
ATOM     81  S   UNL A   1      53.696  25.898  24.297  1.00  0.00     0.127 S 
ATOM     82  O   UNL A   1      54.997  26.389  23.832  1.00  0.00    -0.237 OA
ATOM     83  O   UNL A   1      53.593  24.442  24.367  1.00  0.00    -0.237 OA
ATOM     84  O   UNL A   1      52.560  26.593  23.710  1.00  0.00    -0.744 OA
ENDBRANCH  78  81
ENDBRANCH  60  74
BRANCH  61  85
ATOM     85  C   UNL A   1      44.936  25.933  34.660  1.00  0.00     0.023 A 
ATOM     86  C   UNL A   1      44.740  24.639  34.102  1.00  0.00     0.012 A 
ATOM     87  C   UNL A   1      43.857  26.489  35.381  1.00  0.00     0.148 A 
ATOM     88  C   UNL A   1      43.572  23.898  34.323  1.00  0.00     0.002 A 
ATOM     89  C   UNL A   1      42.694  25.733  35.616  1.00  0.00     0.091 A 
ATOM     90  F   UNL A   1      43.992  27.706  35.923  1.00  0.00    -0.205 F 
ATOM     91  C   UNL A   1      42.548  24.444  35.083  1.00  0.00     0.022 A 
BRANCH  89  92
ATOM     92  S   UNL A   1      41.463  26.278  36.827  1.00  0.00     0.127 S 
ATOM     93  O   UNL A   1      40.413  25.264  36.707  1.00  0.00    -0.237 OA
ATOM     94  O   UNL A   1      42.175  26.240  38.097  1.00  0.00    -0.237 OA
ATOM     95  O   UNL A   1      41.101  27.595  36.317  1.00  0.00    -0.744 OA
ENDBRANCH  89  92
ENDBRANCH  61  85
BRANCH  73  96
ATOM     96  C   UNL A   1      51.763  23.503  34.145  1.00  0.00     0.023 A 
ATOM     97  C   UNL A   1      51.666  22.300  33.426  1.00  0.00     0.012 A 
ATOM     98  C   UNL A   1      52.908  23.667  34.971  1.00  0.00     0.148 A 
ATOM     99  C   UNL A   1      52.617  21.283  33.565  1.00  0.00     0.002 A 
ATOM    100  C   UNL A   1      53.921  22.713  34.989  1.00  0.00     0.091 A 
ATOM    101  F   UNL A   1      53.032  24.756  35.747  1.00  0.00    -0.205 F 
ATOM    102  C   UNL A   1      53.761  21.500  34.322  1.00  0.00     0.022 A 
BRANCH 100 103
ATOM    103  S   UNL A   1      55.530  23.126  35.682  1.00  0.00     0.127 S 
ATOM    104  O   UNL A   1      55.206  23.433  37.072  1.00  0.00    -0.237 OA
ATOM    105  O   UNL A   1      56.291  21.888  35.495  1.00  0.00    -0.237 OA
ATOM    106  O   UNL A   1      55.998  24.237  34.862  1.00  0.00    -0.744 OA
ENDBRANCH 100 103
ENDBRANCH  73  96
ENDBRANCH  47  48
ENDBRANCH  40  42
ENDBRANCH  39  40
ENDBRANCH  38  39
ENDBRANCH  37  38
ENDBRANCH  36  37
ENDBRANCH  35  36
ENDBRANCH  34  35
ENDBRANCH   1  34
TORSDOF 26
ENDMDL
MODEL 3
REMARK VINA RESULT:     -10.5      2.491      4.312
REMARK SMILES Cc1cc(C(=O)OCCOCCOCCOC(=O)c2ccc(-c3c4nc(c(-c5cccc(S(=O)(=O)[O-])c5F)c5ccc([nH]5)c(-c5cccc(S(=O)(=O)[O-])c5F)c5nc(c(-c6cccc(S(=O)(=O)[O-])c6F)c6ccc3[nH]6)C=C5)C=C4)cc2)ccc1NC(=O)c1ccc(=O)n(CCOc2ccccc2)n1
REMARK SMILES IDX 10 1 9 2 8 3 7 4 5 5 6 6 4 7 1 8 2 9 3 10 84 11 83 12 82 13
REMARK SMILES IDX 85 14 86 15 87 17 88 18 89 19 103 20 90 21 93 22 91 23 92 24
REMARK SMILES IDX 94 25 95 26 96 27 97 28 98 29 102 30 99 31 101 32 100 33
REMARK SMILES IDX 11 34 12 35 13 36 14 37 15 38 16 39 17 40 18 41 19 42 20 43
REMARK SMILES IDX 81 44 21 45 80 46 22 47 23 48 24 49 74 50 25 51 79 52 73 53
REMARK SMILES IDX 75 54 26 55 78 56 72 57 71 58 27 60 59 61 39 62 58 63 40 64
REMARK SMILES IDX 43 65 57 66 76 67 41 68 42 69 56 71 77 72 44 73 28 74 29 75
REMARK SMILES IDX 37 76 30 77 32 78 38 79 31 80 33 81 34 82 35 83 36 84 60 85
REMARK SMILES IDX 61 86 69 87 62 88 64 89 70 90 63 91 65 92 66 93 67 94 68 95
REMARK SMILES IDX 45 96 46 97 54 98 47 99 49 100 55 101 48 102 50 103 51 104
REMARK SMILES IDX 52 105 53 106
REMARK H PARENT 85 16 75 59 43 70
REMARK Flexibility Score: inf
ROOT
ATOM      1  O   UNL A   1      36.436  20.317  25.235  1.00  0.00    -0.376 OA
ENDROOT
BRANCH   1   2
ATOM      2  C   UNL A   1      35.869  21.499  24.604  1.00  0.00     0.202 C 
BRANCH   2   3
ATOM      3  C   UNL A   1      34.269  21.463  24.312  1.00  0.00     0.261 C 
BRANCH   3   4
ATOM      4  O   UNL A   1      33.435  22.244  23.217  1.00  0.00    -0.460 OA
BRANCH   4   5
ATOM      5  C   UNL A   1      33.383  23.289  22.329  1.00  0.00     0.338 C 
ATOM      6  O   UNL A   1      33.621  23.381  21.144  1.00  0.00    -0.246 OA
BRANCH   5   7
ATOM      7  C   UNL A   1      32.667  24.489  22.784  1.00  0.00     0.060 A 
ATOM      8  C   UNL A   1      30.181  25.572  25.490  1.00  0.00     0.046 C 
ATOM      9  C   UNL A   1      30.957  25.521  24.206  1.00  0.00    -0.027 A 
ATOM     10  C   UNL A   1      31.782  24.438  23.898  1.00  0.00     0.021 A 
ATOM     11  C   UNL A   1      30.994  26.570  23.299  1.00  0.00     0.044 A 
ATOM     12  C   UNL A   1      32.137  26.770  22.528  1.00  0.00     0.027 A 
ATOM     13  C   UNL A   1      32.954  25.704  22.216  1.00  0.00     0.018 A 
BRANCH  11  14
ATOM     14  N   UNL A   1      29.787  27.186  22.913  1.00  0.00    -0.320 N 
ATOM     15  C   UNL A   1      29.404  28.473  23.302  1.00  0.00     0.276 C 
ATOM     16  H   UNL A   1      29.175  26.679  22.331  1.00  0.00     0.170 HD
ATOM     17  O   UNL A   1      28.341  28.977  22.954  1.00  0.00    -0.267 OA
BRANCH  15  18
ATOM     18  C   UNL A   1      30.350  29.287  24.200  1.00  0.00     0.149 A 
ATOM     19  C   UNL A   1      30.209  30.753  24.086  1.00  0.00     0.042 A 
ATOM     20  N   UNL A   1      31.164  28.685  25.019  1.00  0.00    -0.164 NA
ATOM     21  C   UNL A   1      30.667  31.463  25.119  1.00  0.00     0.076 A 
ATOM     22  N   UNL A   1      31.796  29.496  25.976  1.00  0.00    -0.226 N 
ATOM     23  C   UNL A   1      31.420  30.815  26.219  1.00  0.00     0.266 A 
ATOM     24  O   UNL A   1      31.677  31.490  27.210  1.00  0.00    -0.268 OA
BRANCH  22  25
ATOM     25  C   UNL A   1      32.867  28.892  26.779  1.00  0.00     0.190 C 
BRANCH  25  26
ATOM     26  C   UNL A   1      34.264  29.177  26.200  1.00  0.00     0.253 C 
BRANCH  26  27
ATOM     27  O   UNL A   1      35.341  29.067  27.138  1.00  0.00    -0.492 OA
BRANCH  27  28
ATOM     28  C   UNL A   1      35.544  29.999  28.108  1.00  0.00     0.119 A 
ATOM     29  C   UNL A   1      35.232  31.310  27.738  1.00  0.00     0.046 A 
ATOM     30  C   UNL A   1      36.058  29.772  29.378  1.00  0.00     0.046 A 
ATOM     31  C   UNL A   1      35.497  32.380  28.598  1.00  0.00     0.004 A 
ATOM     32  C   UNL A   1      36.391  30.842  30.215  1.00  0.00     0.004 A 
ATOM     33  C   UNL A   1      36.115  32.148  29.823  1.00  0.00     0.000 A 
ENDBRANCH  27  28
ENDBRANCH  26  27
ENDBRANCH  25  26
ENDBRANCH  22  25
ENDBRANCH  15  18
ENDBRANCH  11  14
ENDBRANCH   5   7
ENDBRANCH   4   5
ENDBRANCH   3   4
ENDBRANCH   2   3
ENDBRANCH   1   2
BRANCH   1  34
ATOM     34  C   UNL A   1      37.817  20.222  24.932  1.00  0.00     0.188 C 
BRANCH  34  35
ATOM     35  C   UNL A   1      38.721  21.288  25.539  1.00  0.00     0.188 C 
BRANCH  35  36
ATOM     36  O   UNL A   1      39.721  20.901  26.485  1.00  0.00    -0.376 OA
BRANCH  36  37
ATOM     37  C   UNL A   1      41.055  20.712  26.022  1.00  0.00     0.202 C 
BRANCH  37  38
ATOM     38  C   UNL A   1      42.056  21.898  26.111  1.00  0.00     0.261 C 
BRANCH  38  39
ATOM     39  O   UNL A   1      41.455  23.147  26.499  1.00  0.00    -0.460 OA
BRANCH  39  40
ATOM     40  C   UNL A   1      41.905  24.254  25.825  1.00  0.00     0.338 C 
ATOM     41  O   UNL A   1      42.827  24.261  25.020  1.00  0.00    -0.246 OA
BRANCH  40  42
ATOM     42  C   UNL A   1      41.221  25.425  26.432  1.00  0.00     0.060 A 
ATOM     43  C   UNL A   1      41.703  26.716  26.421  1.00  0.00     0.016 A 
ATOM     44  C   UNL A   1      40.195  25.205  27.290  1.00  0.00     0.016 A 
ATOM     45  C   UNL A   1      41.414  27.609  27.506  1.00  0.00     0.010 A 
ATOM     46  C   UNL A   1      40.111  26.041  28.421  1.00  0.00     0.010 A 
ATOM     47  C   UNL A   1      40.862  27.190  28.716  1.00  0.00    -0.014 A 
BRANCH  47  48
ATOM     48  C   UNL A   1      41.235  27.893  30.178  1.00  0.00     0.031 A 
ATOM     49  C   UNL A   1      40.459  28.981  31.124  1.00  0.00     0.074 A 
ATOM     50  C   UNL A   1      42.467  27.624  30.676  1.00  0.00     0.049 A 
ATOM     51  N   UNL A   1      40.473  30.296  31.077  1.00  0.00    -0.248 NA
ATOM     52  C   UNL A   1      39.663  28.601  32.312  1.00  0.00     0.031 C 
ATOM     53  C   UNL A   1      43.090  28.253  31.837  1.00  0.00     0.029 A 
ATOM     54  N   UNL A   1      43.535  26.967  30.061  1.00  0.00    -0.354 N 
ATOM     55  C   UNL A   1      39.513  30.802  31.973  1.00  0.00     0.074 A 
ATOM     56  C   UNL A   1      38.882  29.659  32.562  1.00  0.00     0.031 C 
ATOM     57  C   UNL A   1      44.413  28.315  31.589  1.00  0.00     0.029 A 
ATOM     58  C   UNL A   1      44.633  27.805  30.240  1.00  0.00     0.049 A 
ATOM     59  H   UNL A   1      43.516  26.098  29.599  1.00  0.00     0.167 HD
ATOM     60  C   UNL A   1      39.609  31.981  32.668  1.00  0.00     0.034 A 
ATOM     61  C   UNL A   1      45.240  28.455  29.201  1.00  0.00     0.034 A 
ATOM     62  C   UNL A   1      41.022  32.270  32.785  1.00  0.00     0.049 A 
ATOM     63  C   UNL A   1      45.249  29.964  29.416  1.00  0.00     0.074 A 
ATOM     64  C   UNL A   1      41.951  31.715  33.652  1.00  0.00     0.029 A 
ATOM     65  N   UNL A   1      41.715  32.798  31.720  1.00  0.00    -0.354 N 
ATOM     66  N   UNL A   1      44.491  30.605  30.267  1.00  0.00    -0.248 NA
ATOM     67  C   UNL A   1      46.132  30.858  28.676  1.00  0.00     0.031 C 
ATOM     68  C   UNL A   1      43.211  31.770  33.011  1.00  0.00     0.029 A 
ATOM     69  C   UNL A   1      43.055  32.453  31.818  1.00  0.00     0.049 A 
ATOM     70  H   UNL A   1      41.320  33.338  30.999  1.00  0.00     0.167 HD
ATOM     71  C   UNL A   1      44.709  31.957  30.146  1.00  0.00     0.074 A 
ATOM     72  C   UNL A   1      45.791  32.053  29.183  1.00  0.00     0.031 C 
ATOM     73  C   UNL A   1      43.974  32.911  30.796  1.00  0.00     0.034 A 
BRANCH  60  74
ATOM     74  C   UNL A   1      38.571  32.428  33.712  1.00  0.00     0.023 A 
ATOM     75  C   UNL A   1      37.633  33.430  33.370  1.00  0.00     0.012 A 
ATOM     76  C   UNL A   1      38.495  31.922  35.038  1.00  0.00     0.148 A 
ATOM     77  C   UNL A   1      36.754  33.988  34.311  1.00  0.00     0.002 A 
ATOM     78  C   UNL A   1      37.637  32.507  35.989  1.00  0.00     0.091 A 
ATOM     79  F   UNL A   1      39.266  30.877  35.370  1.00  0.00    -0.205 F 
ATOM     80  C   UNL A   1      36.777  33.549  35.626  1.00  0.00     0.022 A 
BRANCH  78  81
ATOM     81  S   UNL A   1      37.671  32.090  37.746  1.00  0.00     0.127 S 
ATOM     82  O   UNL A   1      37.372  30.654  37.732  1.00  0.00    -0.237 OA
ATOM     83  O   UNL A   1      39.044  32.414  38.126  1.00  0.00    -0.237 OA
ATOM     84  O   UNL A   1      36.630  32.903  38.357  1.00  0.00    -0.744 OA
ENDBRANCH  78  81
ENDBRANCH  60  74
BRANCH  61  85
ATOM     85  C   UNL A   1      45.290  27.764  27.852  1.00  0.00     0.023 A 
ATOM     86  C   UNL A   1      44.781  28.481  26.733  1.00  0.00     0.012 A 
ATOM     87  C   UNL A   1      45.981  26.563  27.580  1.00  0.00     0.148 A 
ATOM     88  C   UNL A   1      45.020  28.079  25.414  1.00  0.00     0.002 A 
ATOM     89  C   UNL A   1      46.236  26.173  26.252  1.00  0.00     0.091 A 
ATOM     90  F   UNL A   1      46.478  25.850  28.600  1.00  0.00    -0.205 F 
ATOM     91  C   UNL A   1      45.751  26.925  25.172  1.00  0.00     0.022 A 
BRANCH  89  92
ATOM     92  S   UNL A   1      47.416  24.850  25.884  1.00  0.00     0.127 S 
ATOM     93  O   UNL A   1      48.664  25.353  26.464  1.00  0.00    -0.237 OA
ATOM     94  O   UNL A   1      46.872  23.689  26.574  1.00  0.00    -0.237 OA
ATOM     95  O   UNL A   1      47.389  24.820  24.427  1.00  0.00    -0.744 OA
ENDBRANCH  89  92
ENDBRANCH  61  85
BRANCH  73  96
ATOM     96  C   UNL A   1      44.014  34.401  30.515  1.00  0.00     0.023 A 
ATOM     97  C   UNL A   1      44.813  35.275  31.271  1.00  0.00     0.012 A 
ATOM     98  C   UNL A   1      43.417  34.933  29.339  1.00  0.00     0.148 A 
ATOM     99  C   UNL A   1      44.962  36.621  30.922  1.00  0.00     0.002 A 
ATOM    100  C   UNL A   1      43.690  36.232  28.921  1.00  0.00     0.091 A 
ATOM    101  F   UNL A   1      42.579  34.181  28.607  1.00  0.00    -0.205 F 
ATOM    102  C   UNL A   1      44.426  37.094  29.731  1.00  0.00     0.022 A 
BRANCH 100 103
ATOM    103  S   UNL A   1      43.289  36.737  27.240  1.00  0.00     0.127 S 
ATOM    104  O   UNL A   1      43.811  35.629  26.445  1.00  0.00    -0.237 OA
ATOM    105  O   UNL A   1      41.828  36.829  27.270  1.00  0.00    -0.237 OA
ATOM    106  O   UNL A   1      43.960  38.022  27.085  1.00  0.00    -0.744 OA
ENDBRANCH 100 103
ENDBRANCH  73  96
ENDBRANCH  47  48
ENDBRANCH  40  42
ENDBRANCH  39  40
ENDBRANCH  38  39
ENDBRANCH  37  38
ENDBRANCH  36  37
ENDBRANCH  35  36
ENDBRANCH  34  35
ENDBRANCH   1  34
TORSDOF 26
ENDMDL
