MODEL 1
REMARK VINA RESULT:      -8.6      0.000      0.000
REMARK SMILES Cc1cc(C(=O)Nc2nc(CC(=O)OCCOCCOCCOC(=O)c3ccc(-c4c5nc(c(-c6cccc(S(=O)(=O)[O-])c6F)c6ccc([nH]6)c(-c6cccc(S(=O)(=O)[O-])c6F)c6nc(c(-c7cccc(S(=O)(=O)[O-])c7F)c7ccc4[nH]7)C=C6)C=C5)cc3)cs2)sc1C
REMARK SMILES IDX 18 1 17 2 16 3 15 4 14 5 12 6 13 7 11 8 10 9 8 10 9 11 90 12
REMARK SMILES IDX 89 13 7 14 5 15 6 16 4 18 1 19 2 20 3 21 92 22 91 23 93 24
REMARK SMILES IDX 19 25 20 26 21 27 22 28 23 29 24 30 25 31 26 32 27 33 88 34
REMARK SMILES IDX 28 35 87 36 29 37 30 38 31 39 81 40 32 41 86 42 80 43 82 44
REMARK SMILES IDX 33 45 85 46 79 47 78 48 34 50 66 51 46 52 65 53 47 54 50 55
REMARK SMILES IDX 64 56 83 57 48 58 49 59 63 61 84 62 51 63 35 64 36 65 44 66
REMARK SMILES IDX 37 67 39 68 45 69 38 70 40 71 41 72 42 73 43 74 67 75 68 76
REMARK SMILES IDX 76 77 69 78 71 79 77 80 70 81 72 82 73 83 74 84 75 85 52 86
REMARK SMILES IDX 53 87 61 88 54 89 56 90 62 91 55 92 57 93 58 94 59 95 60 96
REMARK H PARENT 7 17 82 49 50 60
REMARK Flexibility Score: inf
ROOT
ATOM      1  C   UNL A   1      46.223  40.679  28.249  1.00  0.00     0.188 C 
ENDROOT
BRANCH   1   2
ATOM      2  O   UNL A   1      45.598  41.420  27.210  1.00  0.00    -0.376 OA
BRANCH   2   3
ATOM      3  C   UNL A   1      44.195  41.286  27.002  1.00  0.00     0.202 C 
BRANCH   3   4
ATOM      4  C   UNL A   1      43.672  41.330  25.555  1.00  0.00     0.261 C 
BRANCH   4   5
ATOM      5  O   UNL A   1      43.593  42.653  24.968  1.00  0.00    -0.463 OA
BRANCH   5   6
ATOM      6  C   UNL A   1      44.272  42.840  23.808  1.00  0.00     0.311 C 
ATOM      7  O   UNL A   1      45.067  42.017  23.357  1.00  0.00    -0.252 OA
BRANCH   6   8
ATOM      8  C   UNL A   1      43.933  44.078  23.001  1.00  0.00     0.179 C 
BRANCH   8   9
ATOM      9  C   UNL A   1      43.212  43.983  21.686  1.00  0.00     0.065 A 
ATOM     10  C   UNL A   1      43.172  43.737  19.494  1.00  0.00     0.189 A 
ATOM     11  N   UNL A   1      43.935  44.097  20.500  1.00  0.00    -0.224 NA
ATOM     12  S   UNL A   1      41.514  43.539  19.823  1.00  0.00    -0.105 S 
ATOM     13  C   UNL A   1      41.939  43.465  21.484  1.00  0.00     0.093 A 
BRANCH  10  14
ATOM     14  N   UNL A   1      43.538  43.303  18.259  1.00  0.00    -0.297 N 
ATOM     15  C   UNL A   1      43.317  43.991  17.083  1.00  0.00     0.267 C 
ATOM     16  O   UNL A   1      43.456  43.345  16.039  1.00  0.00    -0.268 OA
ATOM     17  H   UNL A   1      43.994  42.434  18.199  1.00  0.00     0.172 HD
BRANCH  15  18
ATOM     18  C   UNL A   1      43.051  45.434  17.051  1.00  0.00     0.093 A 
ATOM     19  C   UNL A   1      41.098  48.424  15.830  1.00  0.00     0.045 C 
ATOM     20  C   UNL A   1      42.046  47.504  16.520  1.00  0.00    -0.037 A 
ATOM     21  C   UNL A   1      42.069  46.080  16.319  1.00  0.00     0.029 A 
ATOM     22  C   UNL A   1      42.994  47.876  17.455  1.00  0.00     0.005 A 
ATOM     23  S   UNL A   1      44.114  46.617  17.697  1.00  0.00    -0.135 S 
ATOM     24  C   UNL A   1      43.194  49.183  18.150  1.00  0.00     0.056 C 
ENDBRANCH  15  18
ENDBRANCH  10  14
ENDBRANCH   8   9
ENDBRANCH   6   8
ENDBRANCH   5   6
ENDBRANCH   4   5
ENDBRANCH   3   4
ENDBRANCH   2   3
ENDBRANCH   1   2
BRANCH   1  25
ATOM     25  C   UNL A   1      45.499  40.587  29.592  1.00  0.00     0.188 C 
BRANCH  25  26
ATOM     26  O   UNL A   1      46.343  40.675  30.716  1.00  0.00    -0.376 OA
BRANCH  26  27
ATOM     27  C   UNL A   1      45.846  41.335  31.859  1.00  0.00     0.202 C 
BRANCH  27  28
ATOM     28  C   UNL A   1      46.510  40.956  33.189  1.00  0.00     0.261 C 
BRANCH  28  29
ATOM     29  O   UNL A   1      45.732  40.141  34.087  1.00  0.00    -0.460 OA
BRANCH  29  30
ATOM     30  C   UNL A   1      44.419  39.971  33.813  1.00  0.00     0.338 C 
ATOM     31  O   UNL A   1      43.551  40.835  33.838  1.00  0.00    -0.246 OA
BRANCH  30  32
ATOM     32  C   UNL A   1      44.247  38.616  33.240  1.00  0.00     0.060 A 
ATOM     33  C   UNL A   1      44.403  37.498  34.070  1.00  0.00     0.016 A 
ATOM     34  C   UNL A   1      43.896  38.444  31.901  1.00  0.00     0.016 A 
ATOM     35  C   UNL A   1      44.183  36.208  33.576  1.00  0.00     0.010 A 
ATOM     36  C   UNL A   1      43.709  37.151  31.398  1.00  0.00     0.010 A 
ATOM     37  C   UNL A   1      43.851  36.024  32.229  1.00  0.00    -0.014 A 
BRANCH  37  38
ATOM     38  C   UNL A   1      43.730  34.661  31.654  1.00  0.00     0.031 A 
ATOM     39  C   UNL A   1      44.919  34.047  30.968  1.00  0.00     0.074 A 
ATOM     40  C   UNL A   1      42.561  33.992  31.702  1.00  0.00     0.049 A 
ATOM     41  N   UNL A   1      44.993  32.948  30.265  1.00  0.00    -0.248 NA
ATOM     42  C   UNL A   1      46.195  34.769  31.094  1.00  0.00     0.031 C 
ATOM     43  C   UNL A   1      41.345  34.460  32.364  1.00  0.00     0.029 A 
ATOM     44  N   UNL A   1      42.198  32.789  31.143  1.00  0.00    -0.354 N 
ATOM     45  C   UNL A   1      46.310  32.863  29.831  1.00  0.00     0.074 A 
ATOM     46  C   UNL A   1      47.003  34.021  30.356  1.00  0.00     0.031 C 
ATOM     47  C   UNL A   1      40.355  33.579  32.133  1.00  0.00     0.029 A 
ATOM     48  C   UNL A   1      40.856  32.511  31.271  1.00  0.00     0.049 A 
ATOM     49  H   UNL A   1      42.836  32.186  30.697  1.00  0.00     0.167 HD
ATOM     50  C   UNL A   1      46.892  31.905  29.072  1.00  0.00     0.034 A 
ATOM     51  C   UNL A   1      40.107  31.539  30.711  1.00  0.00     0.034 A 
ATOM     52  C   UNL A   1      46.205  30.749  28.561  1.00  0.00     0.049 A 
ATOM     53  C   UNL A   1      40.765  30.526  29.807  1.00  0.00     0.074 A 
ATOM     54  C   UNL A   1      46.719  29.709  27.806  1.00  0.00     0.029 A 
ATOM     55  N   UNL A   1      44.855  30.488  28.733  1.00  0.00    -0.354 N 
ATOM     56  N   UNL A   1      42.031  30.404  29.484  1.00  0.00    -0.248 NA
ATOM     57  C   UNL A   1      39.895  29.506  29.202  1.00  0.00     0.031 C 
ATOM     58  C   UNL A   1      45.672  28.837  27.492  1.00  0.00     0.029 A 
ATOM     59  C   UNL A   1      44.514  29.314  28.083  1.00  0.00     0.049 A 
ATOM     60  H   UNL A   1      44.231  31.053  29.243  1.00  0.00     0.167 HD
ATOM     61  C   UNL A   1      42.109  29.280  28.667  1.00  0.00     0.074 A 
ATOM     62  C   UNL A   1      40.771  28.738  28.570  1.00  0.00     0.031 C 
ATOM     63  C   UNL A   1      43.188  28.754  28.035  1.00  0.00     0.034 A 
BRANCH  50  64
ATOM     64  C   UNL A   1      48.356  32.050  28.750  1.00  0.00     0.023 A 
ATOM     65  C   UNL A   1      49.316  31.430  29.575  1.00  0.00     0.012 A 
ATOM     66  C   UNL A   1      48.774  32.722  27.585  1.00  0.00     0.148 A 
ATOM     67  C   UNL A   1      50.672  31.495  29.257  1.00  0.00     0.002 A 
ATOM     68  C   UNL A   1      50.122  32.745  27.251  1.00  0.00     0.091 A 
ATOM     69  F   UNL A   1      47.845  33.318  26.825  1.00  0.00    -0.205 F 
ATOM     70  C   UNL A   1      51.073  32.141  28.089  1.00  0.00     0.022 A 
BRANCH  68  71
ATOM     71  S   UNL A   1      50.736  33.483  25.732  1.00  0.00     0.127 S 
ATOM     72  O   UNL A   1      51.893  34.236  26.217  1.00  0.00    -0.237 OA
ATOM     73  O   UNL A   1      51.067  32.304  24.932  1.00  0.00    -0.237 OA
ATOM     74  O   UNL A   1      49.646  34.294  25.207  1.00  0.00    -0.744 OA
ENDBRANCH  68  71
ENDBRANCH  50  64
BRANCH  51  75
ATOM     75  C   UNL A   1      38.636  31.476  30.960  1.00  0.00     0.023 A 
ATOM     76  C   UNL A   1      38.144  30.725  32.047  1.00  0.00     0.012 A 
ATOM     77  C   UNL A   1      37.721  32.126  30.108  1.00  0.00     0.148 A 
ATOM     78  C   UNL A   1      36.771  30.588  32.254  1.00  0.00     0.002 A 
ATOM     79  C   UNL A   1      36.357  32.036  30.356  1.00  0.00     0.091 A 
ATOM     80  F   UNL A   1      38.205  32.816  29.066  1.00  0.00    -0.205 F 
ATOM     81  C   UNL A   1      35.878  31.250  31.415  1.00  0.00     0.022 A 
BRANCH  79  82
ATOM     82  S   UNL A   1      35.143  32.952  29.401  1.00  0.00     0.127 S 
ATOM     83  O   UNL A   1      34.904  32.050  28.277  1.00  0.00    -0.237 OA
ATOM     84  O   UNL A   1      34.035  33.062  30.349  1.00  0.00    -0.237 OA
ATOM     85  O   UNL A   1      35.780  34.219  29.070  1.00  0.00    -0.744 OA
ENDBRANCH  79  82
ENDBRANCH  51  75
BRANCH  63  86
ATOM     86  C   UNL A   1      42.982  27.511  27.207  1.00  0.00     0.023 A 
ATOM     87  C   UNL A   1      42.825  27.618  25.810  1.00  0.00     0.012 A 
ATOM     88  C   UNL A   1      43.018  26.234  27.802  1.00  0.00     0.148 A 
ATOM     89  C   UNL A   1      42.673  26.477  25.024  1.00  0.00     0.002 A 
ATOM     90  C   UNL A   1      42.918  25.100  27.006  1.00  0.00     0.091 A 
ATOM     91  F   UNL A   1      43.157  26.155  29.133  1.00  0.00    -0.205 F 
ATOM     92  C   UNL A   1      42.731  25.218  25.619  1.00  0.00     0.022 A 
BRANCH  90  93
ATOM     93  S   UNL A   1      43.074  23.436  27.666  1.00  0.00     0.127 S 
ATOM     94  O   UNL A   1      44.506  23.363  27.954  1.00  0.00    -0.237 OA
ATOM     95  O   UNL A   1      42.216  23.491  28.849  1.00  0.00    -0.237 OA
ATOM     96  O   UNL A   1      42.607  22.538  26.617  1.00  0.00    -0.744 OA
ENDBRANCH  90  93
ENDBRANCH  63  86
ENDBRANCH  37  38
ENDBRANCH  30  32
ENDBRANCH  29  30
ENDBRANCH  28  29
ENDBRANCH  27  28
ENDBRANCH  26  27
ENDBRANCH  25  26
ENDBRANCH   1  25
TORSDOF 23
ENDMDL
MODEL 2
REMARK VINA RESULT:      -8.5      4.797      5.763
REMARK SMILES Cc1cc(C(=O)Nc2nc(CC(=O)OCCOCCOCCOC(=O)c3ccc(-c4c5nc(c(-c6cccc(S(=O)(=O)[O-])c6F)c6ccc([nH]6)c(-c6cccc(S(=O)(=O)[O-])c6F)c6nc(c(-c7cccc(S(=O)(=O)[O-])c7F)c7ccc4[nH]7)C=C6)C=C5)cc3)cs2)sc1C
REMARK SMILES IDX 18 1 17 2 16 3 15 4 14 5 12 6 13 7 11 8 10 9 8 10 9 11 90 12
REMARK SMILES IDX 89 13 7 14 5 15 6 16 4 18 1 19 2 20 3 21 92 22 91 23 93 24
REMARK SMILES IDX 19 25 20 26 21 27 22 28 23 29 24 30 25 31 26 32 27 33 88 34
REMARK SMILES IDX 28 35 87 36 29 37 30 38 31 39 81 40 32 41 86 42 80 43 82 44
REMARK SMILES IDX 33 45 85 46 79 47 78 48 34 50 66 51 46 52 65 53 47 54 50 55
REMARK SMILES IDX 64 56 83 57 48 58 49 59 63 61 84 62 51 63 35 64 36 65 44 66
REMARK SMILES IDX 37 67 39 68 45 69 38 70 40 71 41 72 42 73 43 74 67 75 68 76
REMARK SMILES IDX 76 77 69 78 71 79 77 80 70 81 72 82 73 83 74 84 75 85 52 86
REMARK SMILES IDX 53 87 61 88 54 89 56 90 62 91 55 92 57 93 58 94 59 95 60 96
REMARK H PARENT 7 17 82 49 50 60
REMARK Flexibility Score: inf
ROOT
ATOM      1  C   UNL A   1      41.517  41.616  30.588  1.00  0.00     0.188 C 
ENDROOT
BRANCH   1   2
ATOM      2  O   UNL A   1      42.296  40.949  29.604  1.00  0.00    -0.376 OA
BRANCH   2   3
ATOM      3  C   UNL A   1      43.713  40.905  29.746  1.00  0.00     0.202 C 
BRANCH   3   4
ATOM      4  C   UNL A   1      44.571  41.070  28.479  1.00  0.00     0.261 C 
BRANCH   4   5
ATOM      5  O   UNL A   1      43.865  40.875  27.227  1.00  0.00    -0.463 OA
BRANCH   5   6
ATOM      6  C   UNL A   1      43.891  39.621  26.710  1.00  0.00     0.311 C 
ATOM      7  O   UNL A   1      44.923  39.082  26.310  1.00  0.00    -0.252 OA
BRANCH   6   8
ATOM      8  C   UNL A   1      42.595  38.834  26.739  1.00  0.00     0.179 C 
BRANCH   8   9
ATOM      9  C   UNL A   1      42.553  37.412  27.222  1.00  0.00     0.065 A 
ATOM     10  C   UNL A   1      43.018  35.265  27.016  1.00  0.00     0.189 A 
ATOM     11  N   UNL A   1      42.871  36.380  26.340  1.00  0.00    -0.224 NA
ATOM     12  S   UNL A   1      42.511  35.281  28.640  1.00  0.00    -0.105 S 
ATOM     13  C   UNL A   1      42.551  36.994  28.547  1.00  0.00     0.093 A 
BRANCH  10  14
ATOM     14  N   UNL A   1      43.703  34.142  26.670  1.00  0.00    -0.297 N 
ATOM     15  C   UNL A   1      45.032  34.110  26.301  1.00  0.00     0.267 C 
ATOM     16  O   UNL A   1      45.422  33.070  25.758  1.00  0.00    -0.268 OA
ATOM     17  H   UNL A   1      43.213  33.289  26.686  1.00  0.00     0.172 HD
BRANCH  15  18
ATOM     18  C   UNL A   1      45.969  35.188  26.635  1.00  0.00     0.093 A 
ATOM     19  C   UNL A   1      48.665  37.655  25.688  1.00  0.00     0.045 C 
ATOM     20  C   UNL A   1      47.628  36.853  26.397  1.00  0.00    -0.037 A 
ATOM     21  C   UNL A   1      46.858  35.811  25.773  1.00  0.00     0.029 A 
ATOM     22  C   UNL A   1      47.245  37.015  27.716  1.00  0.00     0.005 A 
ATOM     23  S   UNL A   1      46.342  35.670  28.240  1.00  0.00    -0.135 S 
ATOM     24  C   UNL A   1      47.586  38.097  28.687  1.00  0.00     0.056 C 
ENDBRANCH  15  18
ENDBRANCH  10  14
ENDBRANCH   8   9
ENDBRANCH   6   8
ENDBRANCH   5   6
ENDBRANCH   4   5
ENDBRANCH   3   4
ENDBRANCH   2   3
ENDBRANCH   1   2
BRANCH   1  25
ATOM     25  C   UNL A   1      41.944  41.477  32.049  1.00  0.00     0.188 C 
BRANCH  25  26
ATOM     26  O   UNL A   1      42.709  42.554  32.538  1.00  0.00    -0.376 OA
BRANCH  26  27
ATOM     27  C   UNL A   1      42.665  42.814  33.923  1.00  0.00     0.202 C 
BRANCH  27  28
ATOM     28  C   UNL A   1      43.504  41.880  34.803  1.00  0.00     0.261 C 
BRANCH  28  29
ATOM     29  O   UNL A   1      43.795  40.576  34.263  1.00  0.00    -0.460 OA
BRANCH  29  30
ATOM     30  C   UNL A   1      44.197  39.610  35.120  1.00  0.00     0.338 C 
ATOM     31  O   UNL A   1      44.441  39.748  36.313  1.00  0.00    -0.246 OA
BRANCH  30  32
ATOM     32  C   UNL A   1      44.056  38.305  34.432  1.00  0.00     0.060 A 
ATOM     33  C   UNL A   1      43.851  38.283  33.045  1.00  0.00     0.016 A 
ATOM     34  C   UNL A   1      44.165  37.108  35.138  1.00  0.00     0.016 A 
ATOM     35  C   UNL A   1      43.782  37.068  32.357  1.00  0.00     0.010 A 
ATOM     36  C   UNL A   1      44.061  35.892  34.453  1.00  0.00     0.010 A 
ATOM     37  C   UNL A   1      43.869  35.861  33.059  1.00  0.00    -0.014 A 
BRANCH  37  38
ATOM     38  C   UNL A   1      43.678  34.561  32.367  1.00  0.00     0.031 A 
ATOM     39  C   UNL A   1      44.863  33.888  31.733  1.00  0.00     0.074 A 
ATOM     40  C   UNL A   1      42.455  34.006  32.265  1.00  0.00     0.049 A 
ATOM     41  N   UNL A   1      44.901  32.841  30.951  1.00  0.00    -0.248 NA
ATOM     42  C   UNL A   1      46.183  34.473  32.021  1.00  0.00     0.031 C 
ATOM     43  C   UNL A   1      41.231  34.539  32.862  1.00  0.00     0.029 A 
ATOM     44  N   UNL A   1      42.036  32.888  31.583  1.00  0.00    -0.354 N 
ATOM     45  C   UNL A   1      46.239  32.662  30.621  1.00  0.00     0.074 A 
ATOM     46  C   UNL A   1      46.983  33.707  31.292  1.00  0.00     0.031 C 
ATOM     47  C   UNL A   1      40.191  33.776  32.480  1.00  0.00     0.029 A 
ATOM     48  C   UNL A   1      40.669  32.732  31.578  1.00  0.00     0.049 A 
ATOM     49  H   UNL A   1      42.654  32.261  31.142  1.00  0.00     0.167 HD
ATOM     50  C   UNL A   1      46.797  31.711  29.836  1.00  0.00     0.034 A 
ATOM     51  C   UNL A   1      39.888  31.879  30.881  1.00  0.00     0.034 A 
ATOM     52  C   UNL A   1      46.057  30.667  29.178  1.00  0.00     0.049 A 
ATOM     53  C   UNL A   1      40.531  30.878  29.955  1.00  0.00     0.074 A 
ATOM     54  C   UNL A   1      46.542  29.641  28.386  1.00  0.00     0.029 A 
ATOM     55  N   UNL A   1      44.680  30.525  29.218  1.00  0.00    -0.354 N 
ATOM     56  N   UNL A   1      41.804  30.659  29.727  1.00  0.00    -0.248 NA
ATOM     57  C   UNL A   1      39.629  29.993  29.201  1.00  0.00     0.031 C 
ATOM     58  C   UNL A   1      45.452  28.898  27.918  1.00  0.00     0.029 A 
ATOM     59  C   UNL A   1      44.293  29.440  28.449  1.00  0.00     0.049 A 
ATOM     60  H   UNL A   1      44.066  31.109  29.720  1.00  0.00     0.167 HD
ATOM     61  C   UNL A   1      41.853  29.595  28.830  1.00  0.00     0.074 A 
ATOM     62  C   UNL A   1      40.486  29.193  28.581  1.00  0.00     0.031 C 
ATOM     63  C   UNL A   1      42.932  29.016  28.248  1.00  0.00     0.034 A 
BRANCH  50  64
ATOM     64  C   UNL A   1      48.291  31.738  29.647  1.00  0.00     0.023 A 
ATOM     65  C   UNL A   1      49.122  31.070  30.569  1.00  0.00     0.012 A 
ATOM     66  C   UNL A   1      48.862  32.346  28.513  1.00  0.00     0.148 A 
ATOM     67  C   UNL A   1      50.502  31.025  30.375  1.00  0.00     0.002 A 
ATOM     68  C   UNL A   1      50.233  32.260  28.303  1.00  0.00     0.091 A 
ATOM     69  F   UNL A   1      48.054  32.990  27.659  1.00  0.00    -0.205 F 
ATOM     70  C   UNL A   1      51.055  31.609  29.237  1.00  0.00     0.022 A 
BRANCH  68  71
ATOM     71  S   UNL A   1      51.036  32.910  26.834  1.00  0.00     0.127 S 
ATOM     72  O   UNL A   1      50.527  32.011  25.798  1.00  0.00    -0.237 OA
ATOM     73  O   UNL A   1      50.504  34.272  26.774  1.00  0.00    -0.237 OA
ATOM     74  O   UNL A   1      52.468  32.821  27.081  1.00  0.00    -0.744 OA
ENDBRANCH  68  71
ENDBRANCH  50  64
BRANCH  51  75
ATOM     75  C   UNL A   1      38.401  31.940  31.004  1.00  0.00     0.023 A 
ATOM     76  C   UNL A   1      37.773  31.403  32.146  1.00  0.00     0.012 A 
ATOM     77  C   UNL A   1      37.605  32.495  29.983  1.00  0.00     0.148 A 
ATOM     78  C   UNL A   1      36.381  31.379  32.248  1.00  0.00     0.002 A 
ATOM     79  C   UNL A   1      36.222  32.522  30.117  1.00  0.00     0.091 A 
ATOM     80  F   UNL A   1      38.217  32.979  28.893  1.00  0.00    -0.205 F 
ATOM     81  C   UNL A   1      35.606  31.946  31.239  1.00  0.00     0.022 A 
BRANCH  79  82
ATOM     82  S   UNL A   1      35.155  33.339  28.926  1.00  0.00     0.127 S 
ATOM     83  O   UNL A   1      33.982  32.467  28.929  1.00  0.00    -0.237 OA
ATOM     84  O   UNL A   1      34.952  34.646  29.550  1.00  0.00    -0.237 OA
ATOM     85  O   UNL A   1      35.913  33.376  27.682  1.00  0.00    -0.744 OA
ENDBRANCH  79  82
ENDBRANCH  51  75
BRANCH  63  86
ATOM     86  C   UNL A   1      42.690  27.863  27.308  1.00  0.00     0.023 A 
ATOM     87  C   UNL A   1      42.504  28.108  25.932  1.00  0.00     0.012 A 
ATOM     88  C   UNL A   1      42.721  26.533  27.774  1.00  0.00     0.148 A 
ATOM     89  C   UNL A   1      42.318  27.050  25.042  1.00  0.00     0.002 A 
ATOM     90  C   UNL A   1      42.587  25.483  26.874  1.00  0.00     0.091 A 
ATOM     91  F   UNL A   1      42.888  26.322  29.088  1.00  0.00    -0.205 F 
ATOM     92  C   UNL A   1      42.371  25.739  25.510  1.00  0.00     0.022 A 
BRANCH  90  93
ATOM     93  S   UNL A   1      42.733  23.761  27.364  1.00  0.00     0.127 S 
ATOM     94  O   UNL A   1      42.367  23.067  26.131  1.00  0.00    -0.237 OA
ATOM     95  O   UNL A   1      44.148  23.662  27.723  1.00  0.00    -0.237 OA
ATOM     96  O   UNL A   1      41.810  23.576  28.477  1.00  0.00    -0.744 OA
ENDBRANCH  90  93
ENDBRANCH  63  86
ENDBRANCH  37  38
ENDBRANCH  30  32
ENDBRANCH  29  30
ENDBRANCH  28  29
ENDBRANCH  27  28
ENDBRANCH  26  27
ENDBRANCH  25  26
ENDBRANCH   1  25
TORSDOF 23
ENDMDL
MODEL 3
REMARK VINA RESULT:      -8.3      2.845      8.061
REMARK SMILES Cc1cc(C(=O)Nc2nc(CC(=O)OCCOCCOCCOC(=O)c3ccc(-c4c5nc(c(-c6cccc(S(=O)(=O)[O-])c6F)c6ccc([nH]6)c(-c6cccc(S(=O)(=O)[O-])c6F)c6nc(c(-c7cccc(S(=O)(=O)[O-])c7F)c7ccc4[nH]7)C=C6)C=C5)cc3)cs2)sc1C
REMARK SMILES IDX 18 1 17 2 16 3 15 4 14 5 12 6 13 7 11 8 10 9 8 10 9 11 90 12
REMARK SMILES IDX 89 13 7 14 5 15 6 16 4 18 1 19 2 20 3 21 92 22 91 23 93 24
REMARK SMILES IDX 19 25 20 26 21 27 22 28 23 29 24 30 25 31 26 32 27 33 88 34
REMARK SMILES IDX 28 35 87 36 29 37 30 38 31 39 81 40 32 41 86 42 80 43 82 44
REMARK SMILES IDX 33 45 85 46 79 47 78 48 34 50 66 51 46 52 65 53 47 54 50 55
REMARK SMILES IDX 64 56 83 57 48 58 49 59 63 61 84 62 51 63 35 64 36 65 44 66
REMARK SMILES IDX 37 67 39 68 45 69 38 70 40 71 41 72 42 73 43 74 67 75 68 76
REMARK SMILES IDX 76 77 69 78 71 79 77 80 70 81 72 82 73 83 74 84 75 85 52 86
REMARK SMILES IDX 53 87 61 88 54 89 56 90 62 91 55 92 57 93 58 94 59 95 60 96
REMARK H PARENT 7 17 82 49 50 60
REMARK Flexibility Score: inf
ROOT
ATOM      1  C   UNL A   1      46.109  42.828  26.690  1.00  0.00     0.188 C 
ENDROOT
BRANCH   1   2
ATOM      2  O   UNL A   1      46.731  43.303  25.503  1.00  0.00    -0.376 OA
BRANCH   2   3
ATOM      3  C   UNL A   1      46.281  44.520  24.916  1.00  0.00     0.202 C 
BRANCH   3   4
ATOM      4  C   UNL A   1      45.525  44.440  23.578  1.00  0.00     0.261 C 
BRANCH   4   5
ATOM      5  O   UNL A   1      45.029  43.123  23.229  1.00  0.00    -0.463 OA
BRANCH   5   6
ATOM      6  C   UNL A   1      45.683  42.478  22.231  1.00  0.00     0.311 C 
ATOM      7  O   UNL A   1      46.320  41.440  22.409  1.00  0.00    -0.252 OA
BRANCH   6   8
ATOM      8  C   UNL A   1      45.514  43.024  20.827  1.00  0.00     0.179 C 
BRANCH   8   9
ATOM      9  C   UNL A   1      44.154  43.327  20.263  1.00  0.00     0.065 A 
ATOM     10  C   UNL A   1      42.821  44.035  18.655  1.00  0.00     0.189 A 
ATOM     11  N   UNL A   1      44.050  44.104  19.111  1.00  0.00    -0.224 NA
ATOM     12  S   UNL A   1      41.662  43.326  19.679  1.00  0.00    -0.105 S 
ATOM     13  C   UNL A   1      42.975  42.656  20.559  1.00  0.00     0.093 A 
BRANCH  10  14
ATOM     14  N   UNL A   1      42.363  44.269  17.396  1.00  0.00    -0.297 N 
ATOM     15  C   UNL A   1      42.275  45.513  16.807  1.00  0.00     0.267 C 
ATOM     16  O   UNL A   1      41.590  45.584  15.780  1.00  0.00    -0.268 OA
ATOM     17  H   UNL A   1      42.074  43.492  16.865  1.00  0.00     0.172 HD
BRANCH  15  18
ATOM     18  C   UNL A   1      43.040  46.670  17.287  1.00  0.00     0.093 A 
ATOM     19  C   UNL A   1      43.240  50.174  18.676  1.00  0.00     0.045 C 
ATOM     20  C   UNL A   1      43.536  48.804  18.169  1.00  0.00    -0.037 A 
ATOM     21  C   UNL A   1      42.527  47.874  17.740  1.00  0.00     0.029 A 
ATOM     22  C   UNL A   1      44.792  48.235  18.069  1.00  0.00     0.005 A 
ATOM     23  S   UNL A   1      44.737  46.843  17.091  1.00  0.00    -0.135 S 
ATOM     24  C   UNL A   1      46.105  48.712  18.597  1.00  0.00     0.056 C 
ENDBRANCH  15  18
ENDBRANCH  10  14
ENDBRANCH   8   9
ENDBRANCH   6   8
ENDBRANCH   5   6
ENDBRANCH   4   5
ENDBRANCH   3   4
ENDBRANCH   2   3
ENDBRANCH   1   2
BRANCH   1  25
ATOM     25  C   UNL A   1      44.584  42.733  26.705  1.00  0.00     0.188 C 
BRANCH  25  26
ATOM     26  O   UNL A   1      44.068  41.785  27.610  1.00  0.00    -0.376 OA
BRANCH  26  27
ATOM     27  C   UNL A   1      44.719  41.645  28.853  1.00  0.00     0.202 C 
BRANCH  27  28
ATOM     28  C   UNL A   1      44.944  40.204  29.328  1.00  0.00     0.261 C 
BRANCH  28  29
ATOM     29  O   UNL A   1      46.116  39.535  28.823  1.00  0.00    -0.460 OA
BRANCH  29  30
ATOM     30  C   UNL A   1      46.841  38.787  29.687  1.00  0.00     0.338 C 
ATOM     31  O   UNL A   1      47.500  39.200  30.633  1.00  0.00    -0.246 OA
BRANCH  30  32
ATOM     32  C   UNL A   1      46.507  37.364  29.444  1.00  0.00     0.060 A 
ATOM     33  C   UNL A   1      46.037  36.978  28.182  1.00  0.00     0.016 A 
ATOM     34  C   UNL A   1      46.692  36.406  30.441  1.00  0.00     0.016 A 
ATOM     35  C   UNL A   1      45.778  35.633  27.900  1.00  0.00     0.010 A 
ATOM     36  C   UNL A   1      46.399  35.065  30.169  1.00  0.00     0.010 A 
ATOM     37  C   UNL A   1      45.940  34.667  28.900  1.00  0.00    -0.014 A 
BRANCH  37  38
ATOM     38  C   UNL A   1      45.556  33.252  28.661  1.00  0.00     0.031 A 
ATOM     39  C   UNL A   1      44.196  32.779  29.094  1.00  0.00     0.074 A 
ATOM     40  C   UNL A   1      46.424  32.386  28.105  1.00  0.00     0.049 A 
ATOM     41  N   UNL A   1      43.714  31.565  29.130  1.00  0.00    -0.248 NA
ATOM     42  C   UNL A   1      43.254  33.815  29.548  1.00  0.00     0.031 C 
ATOM     43  C   UNL A   1      47.758  32.723  27.612  1.00  0.00     0.029 A 
ATOM     44  N   UNL A   1      46.323  31.030  27.900  1.00  0.00    -0.354 N 
ATOM     45  C   UNL A   1      42.428  31.682  29.643  1.00  0.00     0.074 A 
ATOM     46  C   UNL A   1      42.203  33.088  29.901  1.00  0.00     0.031 C 
ATOM     47  C   UNL A   1      48.372  31.597  27.206  1.00  0.00     0.029 A 
ATOM     48  C   UNL A   1      47.493  30.457  27.453  1.00  0.00     0.049 A 
ATOM     49  H   UNL A   1      45.497  30.519  28.057  1.00  0.00     0.167 HD
ATOM     50  C   UNL A   1      41.516  30.708  29.872  1.00  0.00     0.034 A 
ATOM     51  C   UNL A   1      47.834  29.159  27.313  1.00  0.00     0.034 A 
ATOM     52  C   UNL A   1      41.738  29.312  29.605  1.00  0.00     0.049 A 
ATOM     53  C   UNL A   1      46.824  28.089  27.647  1.00  0.00     0.074 A 
ATOM     54  C   UNL A   1      40.861  28.255  29.777  1.00  0.00     0.029 A 
ATOM     55  N   UNL A   1      42.922  28.774  29.128  1.00  0.00    -0.354 N 
ATOM     56  N   UNL A   1      45.579  28.220  28.040  1.00  0.00    -0.248 NA
ATOM     57  C   UNL A   1      47.260  26.692  27.501  1.00  0.00     0.031 C 
ATOM     58  C   UNL A   1      41.527  27.073  29.438  1.00  0.00     0.029 A 
ATOM     59  C   UNL A   1      42.807  27.399  29.018  1.00  0.00     0.049 A 
ATOM     60  H   UNL A   1      43.727  29.293  28.900  1.00  0.00     0.167 HD
ATOM     61  C   UNL A   1      45.079  26.926  28.158  1.00  0.00     0.074 A 
ATOM     62  C   UNL A   1      46.143  26.028  27.764  1.00  0.00     0.031 C 
ATOM     63  C   UNL A   1      43.856  26.516  28.576  1.00  0.00     0.034 A 
BRANCH  50  64
ATOM     64  C   UNL A   1      40.177  31.111  30.431  1.00  0.00     0.023 A 
ATOM     65  C   UNL A   1      39.104  31.369  29.555  1.00  0.00     0.012 A 
ATOM     66  C   UNL A   1      39.960  31.146  31.823  1.00  0.00     0.148 A 
ATOM     67  C   UNL A   1      37.840  31.676  30.055  1.00  0.00     0.002 A 
ATOM     68  C   UNL A   1      38.687  31.410  32.313  1.00  0.00     0.091 A 
ATOM     69  F   UNL A   1      40.999  30.915  32.637  1.00  0.00    -0.205 F 
ATOM     70  C   UNL A   1      37.629  31.685  31.432  1.00  0.00     0.022 A 
BRANCH  68  71
ATOM     71  S   UNL A   1      38.291  31.371  34.065  1.00  0.00     0.127 S 
ATOM     72  O   UNL A   1      36.995  32.047  34.090  1.00  0.00    -0.237 OA
ATOM     73  O   UNL A   1      38.234  29.933  34.331  1.00  0.00    -0.237 OA
ATOM     74  O   UNL A   1      39.371  32.077  34.740  1.00  0.00    -0.744 OA
ENDBRANCH  68  71
ENDBRANCH  50  64
BRANCH  51  75
ATOM     75  C   UNL A   1      49.204  28.779  26.856  1.00  0.00     0.023 A 
ATOM     76  C   UNL A   1      49.425  28.469  25.499  1.00  0.00     0.012 A 
ATOM     77  C   UNL A   1      50.278  28.691  27.762  1.00  0.00     0.148 A 
ATOM     78  C   UNL A   1      50.679  28.037  25.063  1.00  0.00     0.002 A 
ATOM     79  C   UNL A   1      51.539  28.319  27.311  1.00  0.00     0.091 A 
ATOM     80  F   UNL A   1      50.044  28.968  29.053  1.00  0.00    -0.205 F 
ATOM     81  C   UNL A   1      51.737  27.970  25.966  1.00  0.00     0.022 A 
BRANCH  79  82
ATOM     82  S   UNL A   1      52.984  28.324  28.378  1.00  0.00     0.127 S 
ATOM     83  O   UNL A   1      52.690  27.216  29.283  1.00  0.00    -0.237 OA
ATOM     84  O   UNL A   1      54.063  28.070  27.424  1.00  0.00    -0.237 OA
ATOM     85  O   UNL A   1      53.017  29.647  28.986  1.00  0.00    -0.744 OA
ENDBRANCH  79  82
ENDBRANCH  51  75
BRANCH  63  86
ATOM     86  C   UNL A   1      43.581  25.034  28.601  1.00  0.00     0.023 A 
ATOM     87  C   UNL A   1      43.789  24.303  29.788  1.00  0.00     0.012 A 
ATOM     88  C   UNL A   1      43.047  24.381  27.472  1.00  0.00     0.148 A 
ATOM     89  C   UNL A   1      43.502  22.939  29.840  1.00  0.00     0.002 A 
ATOM     90  C   UNL A   1      42.715  23.034  27.547  1.00  0.00     0.091 A 
ATOM     91  F   UNL A   1      42.867  25.092  26.349  1.00  0.00    -0.205 F 
ATOM     92  C   UNL A   1      42.955  22.307  28.725  1.00  0.00     0.022 A 
BRANCH  90  93
ATOM     93  S   UNL A   1      41.921  22.153  26.197  1.00  0.00     0.127 S 
ATOM     94  O   UNL A   1      42.706  22.599  25.048  1.00  0.00    -0.237 OA
ATOM     95  O   UNL A   1      42.130  20.756  26.575  1.00  0.00    -0.237 OA
ATOM     96  O   UNL A   1      40.527  22.581  26.199  1.00  0.00    -0.744 OA
ENDBRANCH  90  93
ENDBRANCH  63  86
ENDBRANCH  37  38
ENDBRANCH  30  32
ENDBRANCH  29  30
ENDBRANCH  28  29
ENDBRANCH  27  28
ENDBRANCH  26  27
ENDBRANCH  25  26
ENDBRANCH   1  25
TORSDOF 23
ENDMDL
