MODEL 1
REMARK VINA RESULT:     -10.4      0.000      0.000
REMARK SMILES C[C@H]1[C@@H](C(=O)OCCOCCOCCOC(=O)c2ccc(-c3c4nc(c(-c5cccc(S(=O)(=O)[O-])c5F)c5ccc([nH]5)c(-c5cccc(S(=O)(=O)[O-])c5F)c5nc(c(-c6cccc(S(=O)(=O)[O-])c6F)c6ccc3[nH]6)C=C5)C=C4)cc2)CCN1C(=O)c1cncc(O)c1
REMARK SMILES IDX 10 1 9 2 8 3 7 4 6 5 4 6 5 7 3 8 1 9 2 10 83 11 81 12 82 13
REMARK SMILES IDX 84 14 85 15 86 16 87 17 92 18 88 19 90 20 89 21 91 22 11 24
REMARK SMILES IDX 12 25 13 26 14 27 15 28 16 29 17 30 18 31 19 32 80 33 20 34
REMARK SMILES IDX 79 35 21 36 22 37 23 38 73 39 24 40 78 41 72 42 74 43 25 44
REMARK SMILES IDX 77 45 71 46 70 47 26 49 58 50 38 51 57 52 39 53 42 54 56 55
REMARK SMILES IDX 75 56 40 57 41 58 55 60 76 61 43 62 27 63 28 64 36 65 29 66
REMARK SMILES IDX 31 67 37 68 30 69 32 70 33 71 34 72 35 73 59 74 60 75 68 76
REMARK SMILES IDX 61 77 63 78 69 79 62 80 64 81 65 82 66 83 67 84 44 85 45 86
REMARK SMILES IDX 53 87 46 88 48 89 54 90 47 91 49 92 50 93 51 94 52 95
REMARK H PARENT 91 23 74 48 42 59
REMARK Flexibility Score: inf
ROOT
ATOM      1  C   UNL A   1      31.958  28.300  27.014  1.00  0.00     0.188 C 
ENDROOT
BRANCH   1   2
ATOM      2  O   UNL A   1      32.526  27.010  26.896  1.00  0.00    -0.376 OA
BRANCH   2   3
ATOM      3  C   UNL A   1      33.686  26.837  26.100  1.00  0.00     0.202 C 
BRANCH   3   4
ATOM      4  C   UNL A   1      33.661  25.829  24.948  1.00  0.00     0.261 C 
BRANCH   4   5
ATOM      5  O   UNL A   1      32.405  25.805  24.239  1.00  0.00    -0.463 OA
BRANCH   5   6
ATOM      6  C   UNL A   1      32.246  26.714  23.250  1.00  0.00     0.311 C 
ATOM      7  O   UNL A   1      33.165  27.373  22.774  1.00  0.00    -0.252 OA
BRANCH   6   8
ATOM      8  C   UNL A   1      30.834  26.834  22.690  1.00  0.00     0.123 C 
ATOM      9  C   UNL A   1      30.926  29.456  22.690  1.00  0.00     0.032 C 
ATOM     10  C   UNL A   1      30.142  28.179  22.396  1.00  0.00     0.096 C 
ATOM     11  N   UNL A   1      28.827  28.110  23.064  1.00  0.00    -0.335 N 
ATOM     12  C   UNL A   1      29.831  25.993  23.492  1.00  0.00     0.039 C 
ATOM     13  C   UNL A   1      28.650  26.888  23.811  1.00  0.00     0.121 C 
BRANCH  11  14
ATOM     14  C   UNL A   1      27.773  29.016  23.048  1.00  0.00     0.255 C 
ATOM     15  O   UNL A   1      26.675  28.787  23.546  1.00  0.00    -0.269 OA
BRANCH  14  16
ATOM     16  C   UNL A   1      27.955  30.306  22.373  1.00  0.00     0.062 A 
ATOM     17  C   UNL A   1      27.866  30.381  20.990  1.00  0.00     0.125 A 
ATOM     18  C   UNL A   1      28.219  31.465  23.103  1.00  0.00     0.063 A 
ATOM     19  N   UNL A   1      27.943  31.550  20.306  1.00  0.00    -0.260 NA
ATOM     20  C   UNL A   1      28.280  32.670  22.426  1.00  0.00     0.134 A 
ATOM     21  C   UNL A   1      28.134  32.670  21.046  1.00  0.00     0.157 A 
BRANCH  20  22
ATOM     22  O   UNL A   1      28.455  33.847  23.087  1.00  0.00    -0.506 OA
ATOM     23  H   UNL A   1      28.992  33.878  23.855  1.00  0.00     0.293 HD
ENDBRANCH  20  22
ENDBRANCH  14  16
ENDBRANCH  11  14
ENDBRANCH   6   8
ENDBRANCH   5   6
ENDBRANCH   4   5
ENDBRANCH   3   4
ENDBRANCH   2   3
ENDBRANCH   1   2
BRANCH   1  24
ATOM     24  C   UNL A   1      32.448  29.434  26.093  1.00  0.00     0.188 C 
BRANCH  24  25
ATOM     25  O   UNL A   1      32.728  30.728  26.582  1.00  0.00    -0.376 OA
BRANCH  25  26
ATOM     26  C   UNL A   1      31.700  31.698  26.636  1.00  0.00     0.202 C 
BRANCH  26  27
ATOM     27  C   UNL A   1      31.987  33.160  26.999  1.00  0.00     0.261 C 
BRANCH  27  28
ATOM     28  O   UNL A   1      33.367  33.541  27.014  1.00  0.00    -0.460 OA
BRANCH  28  29
ATOM     29  C   UNL A   1      33.842  33.947  28.216  1.00  0.00     0.338 C 
ATOM     30  O   UNL A   1      33.383  34.823  28.938  1.00  0.00    -0.246 OA
BRANCH  29  31
ATOM     31  C   UNL A   1      34.921  33.036  28.632  1.00  0.00     0.060 A 
ATOM     32  C   UNL A   1      34.593  31.784  29.171  1.00  0.00     0.016 A 
ATOM     33  C   UNL A   1      36.249  33.438  28.516  1.00  0.00     0.016 A 
ATOM     34  C   UNL A   1      35.600  30.918  29.597  1.00  0.00     0.010 A 
ATOM     35  C   UNL A   1      37.253  32.587  28.974  1.00  0.00     0.010 A 
ATOM     36  C   UNL A   1      36.933  31.335  29.534  1.00  0.00    -0.014 A 
BRANCH  36  37
ATOM     37  C   UNL A   1      38.004  30.574  30.215  1.00  0.00     0.031 A 
ATOM     38  C   UNL A   1      38.378  30.987  31.610  1.00  0.00     0.074 A 
ATOM     39  C   UNL A   1      38.684  29.604  29.581  1.00  0.00     0.049 A 
ATOM     40  N   UNL A   1      39.420  30.654  32.321  1.00  0.00    -0.248 NA
ATOM     41  C   UNL A   1      37.454  31.915  32.285  1.00  0.00     0.031 C 
ATOM     42  C   UNL A   1      38.380  29.090  28.248  1.00  0.00     0.029 A 
ATOM     43  N   UNL A   1      39.810  28.917  29.963  1.00  0.00    -0.354 N 
ATOM     44  C   UNL A   1      39.311  31.377  33.502  1.00  0.00     0.074 A 
ATOM     45  C   UNL A   1      38.095  32.153  33.419  1.00  0.00     0.031 C 
ATOM     46  C   UNL A   1      39.329  28.204  27.898  1.00  0.00     0.029 A 
ATOM     47  C   UNL A   1      40.332  28.133  28.960  1.00  0.00     0.049 A 
ATOM     48  H   UNL A   1      40.204  28.978  30.863  1.00  0.00     0.167 HD
ATOM     49  C   UNL A   1      40.157  31.395  34.558  1.00  0.00     0.034 A 
ATOM     50  C   UNL A   1      41.512  27.484  28.888  1.00  0.00     0.034 A 
ATOM     51  C   UNL A   1      41.358  30.611  34.631  1.00  0.00     0.049 A 
ATOM     52  C   UNL A   1      42.464  27.558  30.056  1.00  0.00     0.074 A 
ATOM     53  C   UNL A   1      42.268  30.527  35.669  1.00  0.00     0.029 A 
ATOM     54  N   UNL A   1      41.826  29.788  33.618  1.00  0.00    -0.354 N 
ATOM     55  N   UNL A   1      42.322  28.187  31.198  1.00  0.00    -0.248 NA
ATOM     56  C   UNL A   1      43.730  26.817  29.937  1.00  0.00     0.031 C 
ATOM     57  C   UNL A   1      43.308  29.686  35.266  1.00  0.00     0.029 A 
ATOM     58  C   UNL A   1      43.018  29.202  34.000  1.00  0.00     0.049 A 
ATOM     59  H   UNL A   1      41.376  29.641  32.755  1.00  0.00     0.167 HD
ATOM     60  C   UNL A   1      43.451  27.877  31.949  1.00  0.00     0.074 A 
ATOM     61  C   UNL A   1      44.270  27.005  31.134  1.00  0.00     0.031 C 
ATOM     62  C   UNL A   1      43.783  28.280  33.201  1.00  0.00     0.034 A 
BRANCH  49  63
ATOM     63  C   UNL A   1      39.820  32.299  35.712  1.00  0.00     0.023 A 
ATOM     64  C   UNL A   1      40.381  33.589  35.786  1.00  0.00     0.012 A 
ATOM     65  C   UNL A   1      38.905  31.883  36.699  1.00  0.00     0.148 A 
ATOM     66  C   UNL A   1      40.064  34.439  36.846  1.00  0.00     0.002 A 
ATOM     67  C   UNL A   1      38.555  32.754  37.724  1.00  0.00     0.091 A 
ATOM     68  F   UNL A   1      38.400  30.643  36.623  1.00  0.00    -0.205 F 
ATOM     69  C   UNL A   1      39.144  34.026  37.807  1.00  0.00     0.022 A 
BRANCH  67  70
ATOM     70  S   UNL A   1      37.319  32.346  38.960  1.00  0.00     0.127 S 
ATOM     71  O   UNL A   1      37.679  33.254  40.049  1.00  0.00    -0.237 OA
ATOM     72  O   UNL A   1      36.074  32.686  38.271  1.00  0.00    -0.237 OA
ATOM     73  O   UNL A   1      37.487  30.929  39.250  1.00  0.00    -0.744 OA
ENDBRANCH  67  70
ENDBRANCH  49  63
BRANCH  50  74
ATOM     74  C   UNL A   1      41.868  26.708  27.665  1.00  0.00     0.023 A 
ATOM     75  C   UNL A   1      42.414  27.379  26.554  1.00  0.00     0.012 A 
ATOM     76  C   UNL A   1      41.673  25.315  27.597  1.00  0.00     0.148 A 
ATOM     77  C   UNL A   1      42.728  26.683  25.386  1.00  0.00     0.002 A 
ATOM     78  C   UNL A   1      42.040  24.619  26.451  1.00  0.00     0.091 A 
ATOM     79  F   UNL A   1      41.139  24.697  28.660  1.00  0.00    -0.205 F 
ATOM     80  C   UNL A   1      42.550  25.303  25.337  1.00  0.00     0.022 A 
BRANCH  78  81
ATOM     81  S   UNL A   1      41.957  22.828  26.338  1.00  0.00     0.127 S 
ATOM     82  O   UNL A   1      42.604  22.579  25.052  1.00  0.00    -0.237 OA
ATOM     83  O   UNL A   1      42.735  22.420  27.509  1.00  0.00    -0.237 OA
ATOM     84  O   UNL A   1      40.542  22.491  26.407  1.00  0.00    -0.744 OA
ENDBRANCH  78  81
ENDBRANCH  50  74
BRANCH  62  85
ATOM     85  C   UNL A   1      45.037  27.725  33.823  1.00  0.00     0.023 A 
ATOM     86  C   UNL A   1      46.237  28.459  33.786  1.00  0.00     0.012 A 
ATOM     87  C   UNL A   1      44.977  26.527  34.566  1.00  0.00     0.148 A 
ATOM     88  C   UNL A   1      47.365  28.000  34.468  1.00  0.00     0.002 A 
ATOM     89  C   UNL A   1      46.087  26.107  35.287  1.00  0.00     0.091 A 
ATOM     90  F   UNL A   1      43.826  25.839  34.575  1.00  0.00    -0.205 F 
ATOM     91  C   UNL A   1      47.285  26.836  35.231  1.00  0.00     0.022 A 
BRANCH  89  92
ATOM     92  S   UNL A   1      46.045  24.682  36.381  1.00  0.00     0.127 S 
ATOM     93  O   UNL A   1      44.977  25.052  37.309  1.00  0.00    -0.237 OA
ATOM     94  O   UNL A   1      45.707  23.598  35.460  1.00  0.00    -0.237 OA
ATOM     95  O   UNL A   1      47.373  24.586  36.973  1.00  0.00    -0.744 OA
ENDBRANCH  89  92
ENDBRANCH  62  85
ENDBRANCH  36  37
ENDBRANCH  29  31
ENDBRANCH  28  29
ENDBRANCH  27  28
ENDBRANCH  26  27
ENDBRANCH  25  26
ENDBRANCH  24  25
ENDBRANCH   1  24
TORSDOF 23
ENDMDL
MODEL 2
REMARK VINA RESULT:     -10.2      1.070      7.490
REMARK SMILES C[C@H]1[C@@H](C(=O)OCCOCCOCCOC(=O)c2ccc(-c3c4nc(c(-c5cccc(S(=O)(=O)[O-])c5F)c5ccc([nH]5)c(-c5cccc(S(=O)(=O)[O-])c5F)c5nc(c(-c6cccc(S(=O)(=O)[O-])c6F)c6ccc3[nH]6)C=C5)C=C4)cc2)CCN1C(=O)c1cncc(O)c1
REMARK SMILES IDX 10 1 9 2 8 3 7 4 6 5 4 6 5 7 3 8 1 9 2 10 83 11 81 12 82 13
REMARK SMILES IDX 84 14 85 15 86 16 87 17 92 18 88 19 90 20 89 21 91 22 11 24
REMARK SMILES IDX 12 25 13 26 14 27 15 28 16 29 17 30 18 31 19 32 80 33 20 34
REMARK SMILES IDX 79 35 21 36 22 37 23 38 73 39 24 40 78 41 72 42 74 43 25 44
REMARK SMILES IDX 77 45 71 46 70 47 26 49 58 50 38 51 57 52 39 53 42 54 56 55
REMARK SMILES IDX 75 56 40 57 41 58 55 60 76 61 43 62 27 63 28 64 36 65 29 66
REMARK SMILES IDX 31 67 37 68 30 69 32 70 33 71 34 72 35 73 59 74 60 75 68 76
REMARK SMILES IDX 61 77 63 78 69 79 62 80 64 81 65 82 66 83 67 84 44 85 45 86
REMARK SMILES IDX 53 87 46 88 48 89 54 90 47 91 49 92 50 93 51 94 52 95
REMARK H PARENT 91 23 74 48 42 59
REMARK Flexibility Score: inf
ROOT
ATOM      1  C   UNL A   1      32.050  28.151  27.004  1.00  0.00     0.188 C 
ENDROOT
BRANCH   1   2
ATOM      2  O   UNL A   1      32.811  26.959  26.958  1.00  0.00    -0.376 OA
BRANCH   2   3
ATOM      3  C   UNL A   1      33.889  26.864  26.043  1.00  0.00     0.202 C 
BRANCH   3   4
ATOM      4  C   UNL A   1      33.706  26.068  24.748  1.00  0.00     0.261 C 
BRANCH   4   5
ATOM      5  O   UNL A   1      32.362  26.128  24.228  1.00  0.00    -0.463 OA
BRANCH   5   6
ATOM      6  C   UNL A   1      32.190  26.781  23.056  1.00  0.00     0.311 C 
ATOM      7  O   UNL A   1      33.112  27.232  22.385  1.00  0.00    -0.252 OA
BRANCH   6   8
ATOM      8  C   UNL A   1      30.752  26.873  22.561  1.00  0.00     0.123 C 
ATOM      9  C   UNL A   1      30.768  29.496  22.628  1.00  0.00     0.032 C 
ATOM     10  C   UNL A   1      30.010  28.204  22.334  1.00  0.00     0.096 C 
ATOM     11  N   UNL A   1      28.728  28.078  23.055  1.00  0.00    -0.335 N 
ATOM     12  C   UNL A   1      29.810  25.982  23.383  1.00  0.00     0.039 C 
ATOM     13  C   UNL A   1      28.619  26.833  23.776  1.00  0.00     0.121 C 
BRANCH  11  14
ATOM     14  C   UNL A   1      27.648  28.953  23.109  1.00  0.00     0.255 C 
ATOM     15  O   UNL A   1      26.534  28.631  23.512  1.00  0.00    -0.269 OA
BRANCH  14  16
ATOM     16  C   UNL A   1      27.823  30.328  22.629  1.00  0.00     0.062 A 
ATOM     17  C   UNL A   1      28.000  31.360  23.540  1.00  0.00     0.125 A 
ATOM     18  C   UNL A   1      27.813  30.617  21.265  1.00  0.00     0.063 A 
ATOM     19  N   UNL A   1      28.247  32.641  23.167  1.00  0.00    -0.260 NA
ATOM     20  C   UNL A   1      28.084  31.914  20.864  1.00  0.00     0.134 A 
ATOM     21  C   UNL A   1      28.299  32.883  21.834  1.00  0.00     0.157 A 
BRANCH  20  22
ATOM     22  O   UNL A   1      28.169  32.245  19.547  1.00  0.00    -0.506 OA
ATOM     23  H   UNL A   1      28.885  31.933  19.029  1.00  0.00     0.293 HD
ENDBRANCH  20  22
ENDBRANCH  14  16
ENDBRANCH  11  14
ENDBRANCH   6   8
ENDBRANCH   5   6
ENDBRANCH   4   5
ENDBRANCH   3   4
ENDBRANCH   2   3
ENDBRANCH   1   2
BRANCH   1  24
ATOM     24  C   UNL A   1      32.536  29.393  26.233  1.00  0.00     0.188 C 
BRANCH  24  25
ATOM     25  O   UNL A   1      32.585  30.672  26.828  1.00  0.00    -0.376 OA
BRANCH  25  26
ATOM     26  C   UNL A   1      31.506  31.571  26.655  1.00  0.00     0.202 C 
BRANCH  26  27
ATOM     27  C   UNL A   1      31.693  33.089  26.765  1.00  0.00     0.261 C 
BRANCH  27  28
ATOM     28  O   UNL A   1      33.033  33.537  26.999  1.00  0.00    -0.460 OA
BRANCH  28  29
ATOM     29  C   UNL A   1      33.290  33.961  28.260  1.00  0.00     0.338 C 
ATOM     30  O   UNL A   1      32.560  34.627  28.982  1.00  0.00    -0.246 OA
BRANCH  29  31
ATOM     31  C   UNL A   1      34.539  33.336  28.724  1.00  0.00     0.060 A 
ATOM     32  C   UNL A   1      34.476  32.238  29.594  1.00  0.00     0.016 A 
ATOM     33  C   UNL A   1      35.765  33.860  28.324  1.00  0.00     0.016 A 
ATOM     34  C   UNL A   1      35.649  31.650  30.068  1.00  0.00     0.010 A 
ATOM     35  C   UNL A   1      36.936  33.294  28.825  1.00  0.00     0.010 A 
ATOM     36  C   UNL A   1      36.883  32.202  29.713  1.00  0.00    -0.014 A 
BRANCH  36  37
ATOM     37  C   UNL A   1      38.128  31.790  30.397  1.00  0.00     0.031 A 
ATOM     38  C   UNL A   1      38.971  30.733  29.743  1.00  0.00     0.074 A 
ATOM     39  C   UNL A   1      38.455  32.276  31.607  1.00  0.00     0.049 A 
ATOM     40  N   UNL A   1      39.957  30.036  30.236  1.00  0.00    -0.248 NA
ATOM     41  C   UNL A   1      38.641  30.411  28.343  1.00  0.00     0.031 C 
ATOM     42  C   UNL A   1      37.739  33.334  32.315  1.00  0.00     0.029 A 
ATOM     43  N   UNL A   1      39.449  31.897  32.475  1.00  0.00    -0.354 N 
ATOM     44  C   UNL A   1      40.327  29.151  29.232  1.00  0.00     0.074 A 
ATOM     45  C   UNL A   1      39.471  29.409  28.096  1.00  0.00     0.031 C 
ATOM     46  C   UNL A   1      38.285  33.485  33.535  1.00  0.00     0.029 A 
ATOM     47  C   UNL A   1      39.349  32.498  33.709  1.00  0.00     0.049 A 
ATOM     48  H   UNL A   1      40.162  31.260  32.239  1.00  0.00     0.167 HD
ATOM     49  C   UNL A   1      41.292  28.203  29.260  1.00  0.00     0.034 A 
ATOM     50  C   UNL A   1      40.002  32.236  34.859  1.00  0.00     0.034 A 
ATOM     51  C   UNL A   1      42.142  27.963  30.393  1.00  0.00     0.049 A 
ATOM     52  C   UNL A   1      41.038  31.140  34.883  1.00  0.00     0.074 A 
ATOM     53  C   UNL A   1      43.174  27.051  30.516  1.00  0.00     0.029 A 
ATOM     54  N   UNL A   1      42.046  28.628  31.605  1.00  0.00    -0.354 N 
ATOM     55  N   UNL A   1      41.432  30.354  33.910  1.00  0.00    -0.248 NA
ATOM     56  C   UNL A   1      41.736  30.906  36.157  1.00  0.00     0.031 C 
ATOM     57  C   UNL A   1      43.674  27.136  31.817  1.00  0.00     0.029 A 
ATOM     58  C   UNL A   1      42.992  28.139  32.486  1.00  0.00     0.049 A 
ATOM     59  H   UNL A   1      41.401  29.344  31.809  1.00  0.00     0.167 HD
ATOM     60  C   UNL A   1      42.454  29.572  34.438  1.00  0.00     0.074 A 
ATOM     61  C   UNL A   1      42.620  29.977  35.818  1.00  0.00     0.031 C 
ATOM     62  C   UNL A   1      43.189  28.604  33.836  1.00  0.00     0.034 A 
BRANCH  49  63
ATOM     63  C   UNL A   1      41.470  27.346  28.037  1.00  0.00     0.023 A 
ATOM     64  C   UNL A   1      42.102  27.871  26.892  1.00  0.00     0.012 A 
ATOM     65  C   UNL A   1      41.053  26.000  28.042  1.00  0.00     0.148 A 
ATOM     66  C   UNL A   1      42.282  27.079  25.758  1.00  0.00     0.002 A 
ATOM     67  C   UNL A   1      41.281  25.204  26.927  1.00  0.00     0.091 A 
ATOM     68  F   UNL A   1      40.433  25.527  29.134  1.00  0.00    -0.205 F 
ATOM     69  C   UNL A   1      41.883  25.745  25.780  1.00  0.00     0.022 A 
BRANCH  67  70
ATOM     70  S   UNL A   1      40.880  23.454  26.889  1.00  0.00     0.127 S 
ATOM     71  O   UNL A   1      39.424  23.488  26.756  1.00  0.00    -0.237 OA
ATOM     72  O   UNL A   1      41.591  23.003  25.693  1.00  0.00    -0.237 OA
ATOM     73  O   UNL A   1      41.377  22.898  28.140  1.00  0.00    -0.744 OA
ENDBRANCH  67  70
ENDBRANCH  49  63
BRANCH  50  74
ATOM     74  C   UNL A   1      39.696  33.020  36.090  1.00  0.00     0.023 A 
ATOM     75  C   UNL A   1      40.239  34.312  36.240  1.00  0.00     0.012 A 
ATOM     76  C   UNL A   1      38.872  32.500  37.107  1.00  0.00     0.148 A 
ATOM     77  C   UNL A   1      39.994  35.056  37.395  1.00  0.00     0.002 A 
ATOM     78  C   UNL A   1      38.587  33.269  38.230  1.00  0.00     0.091 A 
ATOM     79  F   UNL A   1      38.378  31.264  36.952  1.00  0.00    -0.205 F 
ATOM     80  C   UNL A   1      39.162  34.539  38.384  1.00  0.00     0.022 A 
BRANCH  78  81
ATOM     81  S   UNL A   1      37.434  32.736  39.500  1.00  0.00     0.127 S 
ATOM     82  O   UNL A   1      37.541  33.819  40.474  1.00  0.00    -0.237 OA
ATOM     83  O   UNL A   1      36.173  32.695  38.759  1.00  0.00    -0.237 OA
ATOM     84  O   UNL A   1      37.913  31.436  39.949  1.00  0.00    -0.744 OA
ENDBRANCH  78  81
ENDBRANCH  50  74
BRANCH  62  85
ATOM     85  C   UNL A   1      44.305  27.962  34.617  1.00  0.00     0.023 A 
ATOM     86  C   UNL A   1      45.642  28.337  34.391  1.00  0.00     0.012 A 
ATOM     87  C   UNL A   1      43.998  27.081  35.676  1.00  0.00     0.148 A 
ATOM     88  C   UNL A   1      46.661  27.832  35.199  1.00  0.00     0.002 A 
ATOM     89  C   UNL A   1      45.012  26.626  36.508  1.00  0.00     0.091 A 
ATOM     90  F   UNL A   1      42.719  26.728  35.862  1.00  0.00    -0.205 F 
ATOM     91  C   UNL A   1      46.345  26.993  36.266  1.00  0.00     0.022 A 
BRANCH  89  92
ATOM     92  S   UNL A   1      44.689  25.631  37.969  1.00  0.00     0.127 S 
ATOM     93  O   UNL A   1      44.318  24.346  37.377  1.00  0.00    -0.237 OA
ATOM     94  O   UNL A   1      45.987  25.642  38.641  1.00  0.00    -0.237 OA
ATOM     95  O   UNL A   1      43.621  26.309  38.693  1.00  0.00    -0.744 OA
ENDBRANCH  89  92
ENDBRANCH  62  85
ENDBRANCH  36  37
ENDBRANCH  29  31
ENDBRANCH  28  29
ENDBRANCH  27  28
ENDBRANCH  26  27
ENDBRANCH  25  26
ENDBRANCH  24  25
ENDBRANCH   1  24
TORSDOF 23
ENDMDL
MODEL 3
REMARK VINA RESULT:      -9.9      3.008      5.059
REMARK SMILES C[C@H]1[C@@H](C(=O)OCCOCCOCCOC(=O)c2ccc(-c3c4nc(c(-c5cccc(S(=O)(=O)[O-])c5F)c5ccc([nH]5)c(-c5cccc(S(=O)(=O)[O-])c5F)c5nc(c(-c6cccc(S(=O)(=O)[O-])c6F)c6ccc3[nH]6)C=C5)C=C4)cc2)CCN1C(=O)c1cncc(O)c1
REMARK SMILES IDX 10 1 9 2 8 3 7 4 6 5 4 6 5 7 3 8 1 9 2 10 83 11 81 12 82 13
REMARK SMILES IDX 84 14 85 15 86 16 87 17 92 18 88 19 90 20 89 21 91 22 11 24
REMARK SMILES IDX 12 25 13 26 14 27 15 28 16 29 17 30 18 31 19 32 80 33 20 34
REMARK SMILES IDX 79 35 21 36 22 37 23 38 73 39 24 40 78 41 72 42 74 43 25 44
REMARK SMILES IDX 77 45 71 46 70 47 26 49 58 50 38 51 57 52 39 53 42 54 56 55
REMARK SMILES IDX 75 56 40 57 41 58 55 60 76 61 43 62 27 63 28 64 36 65 29 66
REMARK SMILES IDX 31 67 37 68 30 69 32 70 33 71 34 72 35 73 59 74 60 75 68 76
REMARK SMILES IDX 61 77 63 78 69 79 62 80 64 81 65 82 66 83 67 84 44 85 45 86
REMARK SMILES IDX 53 87 46 88 48 89 54 90 47 91 49 92 50 93 51 94 52 95
REMARK H PARENT 91 23 74 48 42 59
REMARK Flexibility Score: inf
ROOT
ATOM      1  C   UNL A   1      34.807  31.501  28.651  1.00  0.00     0.188 C 
ENDROOT
BRANCH   1   2
ATOM      2  O   UNL A   1      34.654  31.017  27.330  1.00  0.00    -0.376 OA
BRANCH   2   3
ATOM      3  C   UNL A   1      33.359  30.683  26.863  1.00  0.00     0.202 C 
BRANCH   3   4
ATOM      4  C   UNL A   1      32.609  29.512  27.504  1.00  0.00     0.261 C 
BRANCH   4   5
ATOM      5  O   UNL A   1      31.875  28.715  26.550  1.00  0.00    -0.463 OA
BRANCH   5   6
ATOM      6  C   UNL A   1      31.711  29.242  25.315  1.00  0.00     0.311 C 
ATOM      7  O   UNL A   1      31.199  30.337  25.103  1.00  0.00    -0.252 OA
BRANCH   6   8
ATOM      8  C   UNL A   1      32.271  28.411  24.168  1.00  0.00     0.123 C 
ATOM      9  C   UNL A   1      30.239  26.751  24.217  1.00  0.00     0.032 C 
ATOM     10  C   UNL A   1      31.568  27.166  23.592  1.00  0.00     0.096 C 
ATOM     11  N   UNL A   1      32.588  26.099  23.578  1.00  0.00    -0.335 N 
ATOM     12  C   UNL A   1      33.732  28.012  24.416  1.00  0.00     0.039 C 
ATOM     13  C   UNL A   1      33.841  26.523  24.156  1.00  0.00     0.121 C 
BRANCH  11  14
ATOM     14  C   UNL A   1      32.513  24.803  23.079  1.00  0.00     0.255 C 
ATOM     15  O   UNL A   1      32.441  24.540  21.882  1.00  0.00    -0.269 OA
BRANCH  14  16
ATOM     16  C   UNL A   1      32.481  23.680  24.022  1.00  0.00     0.062 A 
ATOM     17  C   UNL A   1      33.645  22.977  24.299  1.00  0.00     0.125 A 
ATOM     18  C   UNL A   1      31.293  23.305  24.649  1.00  0.00     0.063 A 
ATOM     19  N   UNL A   1      33.707  21.981  25.218  1.00  0.00    -0.260 NA
ATOM     20  C   UNL A   1      31.339  22.306  25.606  1.00  0.00     0.134 A 
ATOM     21  C   UNL A   1      32.551  21.681  25.862  1.00  0.00     0.157 A 
BRANCH  20  22
ATOM     22  O   UNL A   1      30.231  21.948  26.311  1.00  0.00    -0.506 OA
ATOM     23  H   UNL A   1      30.321  21.548  27.154  1.00  0.00     0.293 HD
ENDBRANCH  20  22
ENDBRANCH  14  16
ENDBRANCH  11  14
ENDBRANCH   6   8
ENDBRANCH   5   6
ENDBRANCH   4   5
ENDBRANCH   3   4
ENDBRANCH   2   3
ENDBRANCH   1   2
BRANCH   1  24
ATOM     24  C   UNL A   1      35.026  33.008  28.887  1.00  0.00     0.188 C 
BRANCH  24  25
ATOM     25  O   UNL A   1      34.677  33.976  27.922  1.00  0.00    -0.376 OA
BRANCH  25  26
ATOM     26  C   UNL A   1      33.434  34.646  28.013  1.00  0.00     0.202 C 
BRANCH  26  27
ATOM     27  C   UNL A   1      33.129  35.632  29.147  1.00  0.00     0.261 C 
BRANCH  27  28
ATOM     28  O   UNL A   1      32.505  35.075  30.308  1.00  0.00    -0.460 OA
BRANCH  28  29
ATOM     29  C   UNL A   1      32.761  35.722  31.471  1.00  0.00     0.338 C 
ATOM     30  O   UNL A   1      32.136  36.659  31.951  1.00  0.00    -0.246 OA
BRANCH  29  31
ATOM     31  C   UNL A   1      33.824  35.004  32.190  1.00  0.00     0.060 A 
ATOM     32  C   UNL A   1      35.147  35.457  32.093  1.00  0.00     0.016 A 
ATOM     33  C   UNL A   1      33.512  33.867  32.932  1.00  0.00     0.016 A 
ATOM     34  C   UNL A   1      36.174  34.773  32.744  1.00  0.00     0.010 A 
ATOM     35  C   UNL A   1      34.543  33.164  33.553  1.00  0.00     0.010 A 
ATOM     36  C   UNL A   1      35.877  33.602  33.446  1.00  0.00    -0.014 A 
BRANCH  36  37
ATOM     37  C   UNL A   1      36.953  32.702  33.919  1.00  0.00     0.031 A 
ATOM     38  C   UNL A   1      37.672  33.075  35.183  1.00  0.00     0.074 A 
ATOM     39  C   UNL A   1      37.338  31.634  33.200  1.00  0.00     0.049 A 
ATOM     40  N   UNL A   1      38.786  32.604  35.673  1.00  0.00    -0.248 NA
ATOM     41  C   UNL A   1      37.055  34.138  35.996  1.00  0.00     0.031 C 
ATOM     42  C   UNL A   1      36.685  31.152  31.985  1.00  0.00     0.029 A 
ATOM     43  N   UNL A   1      38.413  30.795  33.365  1.00  0.00    -0.354 N 
ATOM     44  C   UNL A   1      39.037  33.350  36.816  1.00  0.00     0.074 A 
ATOM     45  C   UNL A   1      37.952  34.295  36.957  1.00  0.00     0.031 C 
ATOM     46  C   UNL A   1      37.404  30.132  31.483  1.00  0.00     0.029 A 
ATOM     47  C   UNL A   1      38.591  29.930  32.311  1.00  0.00     0.049 A 
ATOM     48  H   UNL A   1      38.995  30.811  34.158  1.00  0.00     0.167 HD
ATOM     49  C   UNL A   1      40.084  33.259  37.668  1.00  0.00     0.034 A 
ATOM     50  C   UNL A   1      39.626  29.115  32.021  1.00  0.00     0.034 A 
ATOM     51  C   UNL A   1      41.151  32.309  37.521  1.00  0.00     0.049 A 
ATOM     52  C   UNL A   1      40.807  29.065  32.956  1.00  0.00     0.074 A 
ATOM     53  C   UNL A   1      42.242  32.108  38.345  1.00  0.00     0.029 A 
ATOM     54  N   UNL A   1      41.270  31.413  36.470  1.00  0.00    -0.354 N 
ATOM     55  N   UNL A   1      41.005  29.724  34.074  1.00  0.00    -0.248 NA
ATOM     56  C   UNL A   1      41.902  28.146  32.606  1.00  0.00     0.031 C 
ATOM     57  C   UNL A   1      43.043  31.118  37.770  1.00  0.00     0.029 A 
ATOM     58  C   UNL A   1      42.422  30.665  36.618  1.00  0.00     0.049 A 
ATOM     59  H   UNL A   1      40.628  31.322  35.728  1.00  0.00     0.167 HD
ATOM     60  C   UNL A   1      42.214  29.262  34.583  1.00  0.00     0.074 A 
ATOM     61  C   UNL A   1      42.708  28.268  33.653  1.00  0.00     0.031 C 
ATOM     62  C   UNL A   1      42.861  29.629  35.716  1.00  0.00     0.034 A 
BRANCH  49  63
ATOM     63  C   UNL A   1      40.133  34.218  38.825  1.00  0.00     0.023 A 
ATOM     64  C   UNL A   1      40.917  35.386  38.743  1.00  0.00     0.012 A 
ATOM     65  C   UNL A   1      39.360  33.984  39.979  1.00  0.00     0.148 A 
ATOM     66  C   UNL A   1      40.959  36.288  39.806  1.00  0.00     0.002 A 
ATOM     67  C   UNL A   1      39.367  34.911  41.014  1.00  0.00     0.091 A 
ATOM     68  F   UNL A   1      38.638  32.856  40.047  1.00  0.00    -0.205 F 
ATOM     69  C   UNL A   1      40.176  36.056  40.935  1.00  0.00     0.022 A 
BRANCH  67  70
ATOM     70  S   UNL A   1      38.330  34.745  42.470  1.00  0.00     0.127 S 
ATOM     71  O   UNL A   1      36.994  34.690  41.876  1.00  0.00    -0.237 OA
ATOM     72  O   UNL A   1      38.797  33.479  43.035  1.00  0.00    -0.237 OA
ATOM     73  O   UNL A   1      38.597  35.915  43.293  1.00  0.00    -0.744 OA
ENDBRANCH  67  70
ENDBRANCH  49  63
BRANCH  50  74
ATOM     74  C   UNL A   1      39.598  28.279  30.786  1.00  0.00     0.023 A 
ATOM     75  C   UNL A   1      38.883  27.064  30.789  1.00  0.00     0.012 A 
ATOM     76  C   UNL A   1      40.268  28.677  29.614  1.00  0.00     0.148 A 
ATOM     77  C   UNL A   1      38.865  26.248  29.658  1.00  0.00     0.002 A 
ATOM     78  C   UNL A   1      40.200  27.886  28.473  1.00  0.00     0.091 A 
ATOM     79  F   UNL A   1      40.954  29.828  29.636  1.00  0.00    -0.205 F 
ATOM     80  C   UNL A   1      39.515  26.661  28.498  1.00  0.00     0.022 A 
BRANCH  78  81
ATOM     81  S   UNL A   1      40.905  28.391  26.900  1.00  0.00     0.127 S 
ATOM     82  O   UNL A   1      42.172  28.986  27.317  1.00  0.00    -0.237 OA
ATOM     83  O   UNL A   1      41.025  27.110  26.202  1.00  0.00    -0.237 OA
ATOM     84  O   UNL A   1      39.941  29.312  26.311  1.00  0.00    -0.744 OA
ENDBRANCH  78  81
ENDBRANCH  50  74
BRANCH  62  85
ATOM     85  C   UNL A   1      44.129  28.906  36.084  1.00  0.00     0.023 A 
ATOM     86  C   UNL A   1      45.382  29.428  35.712  1.00  0.00     0.012 A 
ATOM     87  C   UNL A   1      44.069  27.773  36.923  1.00  0.00     0.148 A 
ATOM     88  C   UNL A   1      46.558  28.823  36.159  1.00  0.00     0.002 A 
ATOM     89  C   UNL A   1      45.242  27.210  37.407  1.00  0.00     0.091 A 
ATOM     90  F   UNL A   1      42.864  27.286  37.252  1.00  0.00    -0.205 F 
ATOM     91  C   UNL A   1      46.488  27.728  37.018  1.00  0.00     0.022 A 
BRANCH  89  92
ATOM     92  S   UNL A   1      45.249  25.869  38.601  1.00  0.00     0.127 S 
ATOM     93  O   UNL A   1      46.682  25.655  38.800  1.00  0.00    -0.237 OA
ATOM     94  O   UNL A   1      44.557  26.469  39.741  1.00  0.00    -0.237 OA
ATOM     95  O   UNL A   1      44.540  24.762  37.972  1.00  0.00    -0.744 OA
ENDBRANCH  89  92
ENDBRANCH  62  85
ENDBRANCH  36  37
ENDBRANCH  29  31
ENDBRANCH  28  29
ENDBRANCH  27  28
ENDBRANCH  26  27
ENDBRANCH  25  26
ENDBRANCH  24  25
ENDBRANCH   1  24
TORSDOF 23
ENDMDL
