MODEL 1
REMARK VINA RESULT:     -10.9      0.000      0.000
REMARK SMILES C[C@@H](C(=O)OCCOCCOCCOC(=O)c1ccc(-c2c3nc(c(-c4cccc(S(=O)(=O)[O-])c4F)c4ccc([nH]4)c(-c4cccc(S(=O)(=O)[O-])c4F)c4nc(c(-c5cccc(S(=O)(=O)[O-])c5F)c5ccc2[nH]5)C=C4)C=C3)cc1)c1ccc(C[C@@H]2CCC[C@@H]2O)cc1
REMARK SMILES IDX 9 1 8 2 7 3 6 4 5 5 3 6 4 7 2 8 1 9 80 10 81 11 92 12 82 13
REMARK SMILES IDX 91 14 83 15 84 16 85 17 86 18 89 19 87 20 88 21 90 22 10 24
REMARK SMILES IDX 11 25 12 26 13 27 14 28 15 29 16 30 17 31 18 32 79 33 19 34
REMARK SMILES IDX 78 35 20 36 21 37 22 38 72 39 23 40 77 41 71 42 73 43 24 44
REMARK SMILES IDX 76 45 70 46 69 47 25 49 57 50 37 51 56 52 38 53 41 54 55 55
REMARK SMILES IDX 74 56 39 57 40 58 54 60 75 61 42 62 26 63 27 64 35 65 28 66
REMARK SMILES IDX 30 67 36 68 29 69 31 70 32 71 33 72 34 73 58 74 59 75 67 76
REMARK SMILES IDX 60 77 62 78 68 79 61 80 63 81 64 82 65 83 66 84 43 85 44 86
REMARK SMILES IDX 52 87 45 88 47 89 53 90 46 91 48 92 49 93 50 94 51 95
REMARK H PARENT 90 23 73 48 41 59
REMARK Flexibility Score: inf
ROOT
ATOM      1  C   UNL A   1      30.639  27.174  22.339  1.00  0.00     0.188 C 
ENDROOT
BRANCH   1   2
ATOM      2  O   UNL A   1      31.955  27.275  21.806  1.00  0.00    -0.376 OA
BRANCH   2   3
ATOM      3  C   UNL A   1      32.687  26.076  21.568  1.00  0.00     0.202 C 
BRANCH   3   4
ATOM      4  C   UNL A   1      33.707  25.612  22.621  1.00  0.00     0.261 C 
BRANCH   4   5
ATOM      5  O   UNL A   1      33.618  26.307  23.883  1.00  0.00    -0.463 OA
BRANCH   5   6
ATOM      6  C   UNL A   1      33.278  25.541  24.955  1.00  0.00     0.313 C 
ATOM      7  O   UNL A   1      33.987  25.402  25.947  1.00  0.00    -0.252 OA
BRANCH   6   8
ATOM      8  C   UNL A   1      31.898  24.878  24.837  1.00  0.00     0.126 C 
ATOM      9  C   UNL A   1      30.895  25.270  25.929  1.00  0.00     0.025 C 
BRANCH   8  10
ATOM     10  C   UNL A   1      31.992  23.391  24.498  1.00  0.00    -0.034 A 
ATOM     11  C   UNL A   1      32.209  22.476  25.542  1.00  0.00     0.005 A 
ATOM     12  C   UNL A   1      31.887  22.872  23.202  1.00  0.00     0.005 A 
ATOM     13  C   UNL A   1      32.356  21.106  25.298  1.00  0.00     0.004 A 
ATOM     14  C   UNL A   1      32.028  21.499  22.962  1.00  0.00     0.004 A 
ATOM     15  C   UNL A   1      32.305  20.601  23.997  1.00  0.00    -0.048 A 
BRANCH  15  16
ATOM     16  C   UNL A   1      32.544  19.131  23.727  1.00  0.00     0.041 C 
BRANCH  16  17
ATOM     17  C   UNL A   1      33.723  18.428  24.445  1.00  0.00     0.022 C 
ATOM     18  C   UNL A   1      34.487  17.408  23.590  1.00  0.00     0.007 C 
ATOM     19  C   UNL A   1      33.425  17.601  25.702  1.00  0.00     0.117 C 
ATOM     20  C   UNL A   1      33.887  16.037  23.920  1.00  0.00     0.003 C 
ATOM     21  C   UNL A   1      33.048  16.220  25.181  1.00  0.00     0.032 C 
BRANCH  19  22
ATOM     22  O   UNL A   1      32.456  18.138  26.574  1.00  0.00    -0.393 OA
ATOM     23  H   UNL A   1      32.845  18.872  27.074  1.00  0.00     0.210 HD
ENDBRANCH  19  22
ENDBRANCH  16  17
ENDBRANCH  15  16
ENDBRANCH   8  10
ENDBRANCH   6   8
ENDBRANCH   5   6
ENDBRANCH   4   5
ENDBRANCH   3   4
ENDBRANCH   2   3
ENDBRANCH   1   2
BRANCH   1  24
ATOM     24  C   UNL A   1      30.115  28.340  23.194  1.00  0.00     0.188 C 
BRANCH  24  25
ATOM     25  O   UNL A   1      31.123  29.170  23.731  1.00  0.00    -0.376 OA
BRANCH  25  26
ATOM     26  C   UNL A   1      31.321  29.173  25.133  1.00  0.00     0.202 C 
BRANCH  26  27
ATOM     27  C   UNL A   1      31.840  30.429  25.859  1.00  0.00     0.261 C 
BRANCH  27  28
ATOM     28  O   UNL A   1      33.117  30.335  26.508  1.00  0.00    -0.460 OA
BRANCH  28  29
ATOM     29  C   UNL A   1      33.540  31.412  27.201  1.00  0.00     0.338 C 
ATOM     30  O   UNL A   1      32.878  32.410  27.480  1.00  0.00    -0.246 OA
BRANCH  29  31
ATOM     31  C   UNL A   1      34.862  31.098  27.777  1.00  0.00     0.060 A 
ATOM     32  C   UNL A   1      35.160  29.764  28.081  1.00  0.00     0.016 A 
ATOM     33  C   UNL A   1      35.803  32.103  28.018  1.00  0.00     0.016 A 
ATOM     34  C   UNL A   1      36.396  29.433  28.631  1.00  0.00     0.010 A 
ATOM     35  C   UNL A   1      37.037  31.768  28.592  1.00  0.00     0.010 A 
ATOM     36  C   UNL A   1      37.333  30.433  28.915  1.00  0.00    -0.014 A 
BRANCH  36  37
ATOM     37  C   UNL A   1      38.531  30.082  29.716  1.00  0.00     0.031 A 
ATOM     38  C   UNL A   1      39.512  29.100  29.140  1.00  0.00     0.074 A 
ATOM     39  C   UNL A   1      38.783  30.667  30.901  1.00  0.00     0.049 A 
ATOM     40  N   UNL A   1      40.595  28.600  29.671  1.00  0.00    -0.248 NA
ATOM     41  C   UNL A   1      39.236  28.629  27.771  1.00  0.00     0.031 C 
ATOM     42  C   UNL A   1      37.954  31.687  31.536  1.00  0.00     0.029 A 
ATOM     43  N   UNL A   1      39.814  30.469  31.787  1.00  0.00    -0.354 N 
ATOM     44  C   UNL A   1      41.112  27.728  28.721  1.00  0.00     0.074 A 
ATOM     45  C   UNL A   1      40.228  27.773  27.577  1.00  0.00     0.031 C 
ATOM     46  C   UNL A   1      38.492  32.006  32.727  1.00  0.00     0.029 A 
ATOM     47  C   UNL A   1      39.679  31.183  32.955  1.00  0.00     0.049 A 
ATOM     48  H   UNL A   1      40.577  29.874  31.604  1.00  0.00     0.167 HD
ATOM     49  C   UNL A   1      42.224  26.960  28.791  1.00  0.00     0.034 A 
ATOM     50  C   UNL A   1      40.407  31.145  34.090  1.00  0.00     0.034 A 
ATOM     51  C   UNL A   1      43.108  26.918  29.923  1.00  0.00     0.049 A 
ATOM     52  C   UNL A   1      41.602  30.225  34.173  1.00  0.00     0.074 A 
ATOM     53  C   UNL A   1      44.255  26.163  30.091  1.00  0.00     0.029 A 
ATOM     54  N   UNL A   1      42.941  27.655  31.084  1.00  0.00    -0.354 N 
ATOM     55  N   UNL A   1      42.109  29.441  33.251  1.00  0.00    -0.248 NA
ATOM     56  C   UNL A   1      42.336  30.198  35.447  1.00  0.00     0.031 C 
ATOM     57  C   UNL A   1      44.762  26.418  31.369  1.00  0.00     0.029 A 
ATOM     58  C   UNL A   1      43.954  27.364  31.980  1.00  0.00     0.049 A 
ATOM     59  H   UNL A   1      42.208  28.293  31.249  1.00  0.00     0.167 HD
ATOM     60  C   UNL A   1      43.236  28.857  33.822  1.00  0.00     0.074 A 
ATOM     61  C   UNL A   1      43.350  29.393  35.161  1.00  0.00     0.031 C 
ATOM     62  C   UNL A   1      44.090  27.946  33.292  1.00  0.00     0.034 A 
BRANCH  49  63
ATOM     63  C   UNL A   1      42.532  26.084  27.608  1.00  0.00     0.023 A 
ATOM     64  C   UNL A   1      43.307  26.584  26.543  1.00  0.00     0.012 A 
ATOM     65  C   UNL A   1      42.071  24.753  27.566  1.00  0.00     0.148 A 
ATOM     66  C   UNL A   1      43.591  25.782  25.437  1.00  0.00     0.002 A 
ATOM     67  C   UNL A   1      42.397  23.947  26.483  1.00  0.00     0.091 A 
ATOM     68  F   UNL A   1      41.313  24.308  28.577  1.00  0.00    -0.205 F 
ATOM     69  C   UNL A   1      43.145  24.463  25.411  1.00  0.00     0.022 A 
BRANCH  67  70
ATOM     70  S   UNL A   1      41.929  22.216  26.393  1.00  0.00     0.127 S 
ATOM     71  O   UNL A   1      40.477  22.310  26.243  1.00  0.00    -0.237 OA
ATOM     72  O   UNL A   1      42.638  21.769  25.194  1.00  0.00    -0.237 OA
ATOM     73  O   UNL A   1      42.390  21.609  27.633  1.00  0.00    -0.744 OA
ENDBRANCH  67  70
ENDBRANCH  49  63
BRANCH  50  74
ATOM     74  C   UNL A   1      40.025  31.993  35.257  1.00  0.00     0.023 A 
ATOM     75  C   UNL A   1      40.607  33.265  35.420  1.00  0.00     0.012 A 
ATOM     76  C   UNL A   1      39.098  31.534  36.214  1.00  0.00     0.148 A 
ATOM     77  C   UNL A   1      40.296  34.052  36.531  1.00  0.00     0.002 A 
ATOM     78  C   UNL A   1      38.749  32.346  37.286  1.00  0.00     0.091 A 
ATOM     79  F   UNL A   1      38.576  30.311  36.056  1.00  0.00    -0.205 F 
ATOM     80  C   UNL A   1      39.360  33.597  37.458  1.00  0.00     0.022 A 
BRANCH  78  81
ATOM     81  S   UNL A   1      37.468  31.895  38.459  1.00  0.00     0.127 S 
ATOM     82  O   UNL A   1      38.131  32.143  39.737  1.00  0.00    -0.237 OA
ATOM     83  O   UNL A   1      36.405  32.843  38.122  1.00  0.00    -0.237 OA
ATOM     84  O   UNL A   1      37.145  30.503  38.175  1.00  0.00    -0.744 OA
ENDBRANCH  78  81
ENDBRANCH  50  74
BRANCH  62  85
ATOM     85  C   UNL A   1      45.257  27.495  34.134  1.00  0.00     0.023 A 
ATOM     86  C   UNL A   1      46.420  28.284  34.208  1.00  0.00     0.012 A 
ATOM     87  C   UNL A   1      45.161  26.329  34.922  1.00  0.00     0.148 A 
ATOM     88  C   UNL A   1      47.484  27.904  35.027  1.00  0.00     0.002 A 
ATOM     89  C   UNL A   1      46.204  25.985  35.774  1.00  0.00     0.091 A 
ATOM     90  F   UNL A   1      44.052  25.582  34.827  1.00  0.00    -0.205 F 
ATOM     91  C   UNL A   1      47.371  26.763  35.819  1.00  0.00     0.022 A 
BRANCH  89  92
ATOM     92  S   UNL A   1      46.107  24.590  36.902  1.00  0.00     0.127 S 
ATOM     93  O   UNL A   1      45.695  23.510  36.008  1.00  0.00    -0.237 OA
ATOM     94  O   UNL A   1      47.484  24.487  37.388  1.00  0.00    -0.237 OA
ATOM     95  O   UNL A   1      45.135  24.962  37.920  1.00  0.00    -0.744 OA
ENDBRANCH  89  92
ENDBRANCH  62  85
ENDBRANCH  36  37
ENDBRANCH  29  31
ENDBRANCH  28  29
ENDBRANCH  27  28
ENDBRANCH  26  27
ENDBRANCH  25  26
ENDBRANCH  24  25
ENDBRANCH   1  24
TORSDOF 24
ENDMDL
MODEL 2
REMARK VINA RESULT:     -10.8      1.736      2.100
REMARK SMILES C[C@@H](C(=O)OCCOCCOCCOC(=O)c1ccc(-c2c3nc(c(-c4cccc(S(=O)(=O)[O-])c4F)c4ccc([nH]4)c(-c4cccc(S(=O)(=O)[O-])c4F)c4nc(c(-c5cccc(S(=O)(=O)[O-])c5F)c5ccc2[nH]5)C=C4)C=C3)cc1)c1ccc(C[C@@H]2CCC[C@@H]2O)cc1
REMARK SMILES IDX 9 1 8 2 7 3 6 4 5 5 3 6 4 7 2 8 1 9 80 10 81 11 92 12 82 13
REMARK SMILES IDX 91 14 83 15 84 16 85 17 86 18 89 19 87 20 88 21 90 22 10 24
REMARK SMILES IDX 11 25 12 26 13 27 14 28 15 29 16 30 17 31 18 32 79 33 19 34
REMARK SMILES IDX 78 35 20 36 21 37 22 38 72 39 23 40 77 41 71 42 73 43 24 44
REMARK SMILES IDX 76 45 70 46 69 47 25 49 57 50 37 51 56 52 38 53 41 54 55 55
REMARK SMILES IDX 74 56 39 57 40 58 54 60 75 61 42 62 26 63 27 64 35 65 28 66
REMARK SMILES IDX 30 67 36 68 29 69 31 70 32 71 33 72 34 73 58 74 59 75 67 76
REMARK SMILES IDX 60 77 62 78 68 79 61 80 63 81 64 82 65 83 66 84 43 85 44 86
REMARK SMILES IDX 52 87 45 88 47 89 53 90 46 91 48 92 49 93 50 94 51 95
REMARK H PARENT 90 23 73 48 41 59
REMARK Flexibility Score: inf
ROOT
ATOM      1  C   UNL A   1      30.212  26.989  22.706  1.00  0.00     0.188 C 
ENDROOT
BRANCH   1   2
ATOM      2  O   UNL A   1      31.270  27.215  21.779  1.00  0.00    -0.376 OA
BRANCH   2   3
ATOM      3  C   UNL A   1      32.180  26.150  21.514  1.00  0.00     0.202 C 
BRANCH   3   4
ATOM      4  C   UNL A   1      33.525  26.127  22.259  1.00  0.00     0.261 C 
BRANCH   4   5
ATOM      5  O   UNL A   1      33.476  26.673  23.595  1.00  0.00    -0.463 OA
BRANCH   5   6
ATOM      6  C   UNL A   1      33.560  25.766  24.605  1.00  0.00     0.313 C 
ATOM      7  O   UNL A   1      34.572  25.582  25.276  1.00  0.00    -0.252 OA
BRANCH   6   8
ATOM      8  C   UNL A   1      32.256  24.997  24.866  1.00  0.00     0.126 C 
ATOM      9  C   UNL A   1      31.474  25.450  26.105  1.00  0.00     0.025 C 
BRANCH   8  10
ATOM     10  C   UNL A   1      32.420  23.490  24.674  1.00  0.00    -0.034 A 
ATOM     11  C   UNL A   1      32.135  22.938  23.413  1.00  0.00     0.005 A 
ATOM     12  C   UNL A   1      32.828  22.609  25.682  1.00  0.00     0.005 A 
ATOM     13  C   UNL A   1      32.215  21.560  23.181  1.00  0.00     0.004 A 
ATOM     14  C   UNL A   1      32.913  21.230  25.444  1.00  0.00     0.004 A 
ATOM     15  C   UNL A   1      32.569  20.681  24.206  1.00  0.00    -0.048 A 
BRANCH  15  16
ATOM     16  C   UNL A   1      32.577  19.185  23.974  1.00  0.00     0.041 C 
BRANCH  16  17
ATOM     17  C   UNL A   1      33.728  18.347  24.582  1.00  0.00     0.022 C 
ATOM     18  C   UNL A   1      34.493  17.472  23.580  1.00  0.00     0.007 C 
ATOM     19  C   UNL A   1      33.390  17.324  25.675  1.00  0.00     0.117 C 
ATOM     20  C   UNL A   1      33.863  16.077  23.661  1.00  0.00     0.003 C 
ATOM     21  C   UNL A   1      33.001  16.060  24.920  1.00  0.00     0.032 C 
BRANCH  19  22
ATOM     22  O   UNL A   1      32.413  17.725  26.608  1.00  0.00    -0.393 OA
ATOM     23  H   UNL A   1      32.634  17.365  27.481  1.00  0.00     0.210 HD
ENDBRANCH  19  22
ENDBRANCH  16  17
ENDBRANCH  15  16
ENDBRANCH   8  10
ENDBRANCH   6   8
ENDBRANCH   5   6
ENDBRANCH   4   5
ENDBRANCH   3   4
ENDBRANCH   2   3
ENDBRANCH   1   2
BRANCH   1  24
ATOM     24  C   UNL A   1      29.572  28.215  23.380  1.00  0.00     0.188 C 
BRANCH  24  25
ATOM     25  O   UNL A   1      30.481  29.241  23.713  1.00  0.00    -0.376 OA
BRANCH  25  26
ATOM     26  C   UNL A   1      31.250  29.106  24.895  1.00  0.00     0.202 C 
BRANCH  26  27
ATOM     27  C   UNL A   1      31.654  30.340  25.725  1.00  0.00     0.261 C 
BRANCH  27  28
ATOM     28  O   UNL A   1      33.007  30.400  26.202  1.00  0.00    -0.460 OA
BRANCH  28  29
ATOM     29  C   UNL A   1      33.333  31.429  27.010  1.00  0.00     0.338 C 
ATOM     30  O   UNL A   1      32.603  32.364  27.338  1.00  0.00    -0.246 OA
BRANCH  29  31
ATOM     31  C   UNL A   1      34.638  31.131  27.630  1.00  0.00     0.060 A 
ATOM     32  C   UNL A   1      34.924  29.807  27.985  1.00  0.00     0.016 A 
ATOM     33  C   UNL A   1      35.576  32.141  27.862  1.00  0.00     0.016 A 
ATOM     34  C   UNL A   1      36.145  29.492  28.577  1.00  0.00     0.010 A 
ATOM     35  C   UNL A   1      36.793  31.822  28.478  1.00  0.00     0.010 A 
ATOM     36  C   UNL A   1      37.078  30.498  28.852  1.00  0.00    -0.014 A 
BRANCH  36  37
ATOM     37  C   UNL A   1      38.253  30.170  29.695  1.00  0.00     0.031 A 
ATOM     38  C   UNL A   1      39.286  29.228  29.144  1.00  0.00     0.074 A 
ATOM     39  C   UNL A   1      38.440  30.743  30.898  1.00  0.00     0.049 A 
ATOM     40  N   UNL A   1      40.363  28.752  29.710  1.00  0.00    -0.248 NA
ATOM     41  C   UNL A   1      39.079  28.772  27.758  1.00  0.00     0.031 C 
ATOM     42  C   UNL A   1      37.555  31.727  31.515  1.00  0.00     0.029 A 
ATOM     43  N   UNL A   1      39.441  30.562  31.821  1.00  0.00    -0.354 N 
ATOM     44  C   UNL A   1      40.943  27.913  28.768  1.00  0.00     0.074 A 
ATOM     45  C   UNL A   1      40.104  27.949  27.590  1.00  0.00     0.031 C 
ATOM     46  C   UNL A   1      38.036  32.042  32.731  1.00  0.00     0.029 A 
ATOM     47  C   UNL A   1      39.238  31.252  32.993  1.00  0.00     0.049 A 
ATOM     48  H   UNL A   1      40.228  29.994  31.660  1.00  0.00     0.167 HD
ATOM     49  C   UNL A   1      42.074  27.178  28.871  1.00  0.00     0.034 A 
ATOM     50  C   UNL A   1      39.921  31.218  34.156  1.00  0.00     0.034 A 
ATOM     51  C   UNL A   1      42.914  27.144  30.036  1.00  0.00     0.049 A 
ATOM     52  C   UNL A   1      41.140  30.334  34.272  1.00  0.00     0.074 A 
ATOM     53  C   UNL A   1      44.076  26.422  30.239  1.00  0.00     0.029 A 
ATOM     54  N   UNL A   1      42.679  27.857  31.201  1.00  0.00    -0.354 N 
ATOM     55  N   UNL A   1      41.707  29.581  33.360  1.00  0.00    -0.248 NA
ATOM     56  C   UNL A   1      41.824  30.308  35.575  1.00  0.00     0.031 C 
ATOM     57  C   UNL A   1      44.525  26.671  31.539  1.00  0.00     0.029 A 
ATOM     58  C   UNL A   1      43.665  27.582  32.132  1.00  0.00     0.049 A 
ATOM     59  H   UNL A   1      41.921  28.469  31.346  1.00  0.00     0.167 HD
ATOM     60  C   UNL A   1      42.828  29.022  33.967  1.00  0.00     0.074 A 
ATOM     61  C   UNL A   1      42.873  29.539  35.317  1.00  0.00     0.031 C 
ATOM     62  C   UNL A   1      43.731  28.146  33.457  1.00  0.00     0.034 A 
BRANCH  49  63
ATOM     63  C   UNL A   1      42.456  26.331  27.688  1.00  0.00     0.023 A 
ATOM     64  C   UNL A   1      43.290  26.859  26.682  1.00  0.00     0.012 A 
ATOM     65  C   UNL A   1      42.006  24.999  27.587  1.00  0.00     0.148 A 
ATOM     66  C   UNL A   1      43.643  26.084  25.577  1.00  0.00     0.002 A 
ATOM     67  C   UNL A   1      42.398  24.221  26.507  1.00  0.00     0.091 A 
ATOM     68  F   UNL A   1      41.191  24.528  28.542  1.00  0.00    -0.205 F 
ATOM     69  C   UNL A   1      43.205  24.765  25.494  1.00  0.00     0.022 A 
BRANCH  67  70
ATOM     70  S   UNL A   1      41.945  22.490  26.349  1.00  0.00     0.127 S 
ATOM     71  O   UNL A   1      42.662  22.107  25.133  1.00  0.00    -0.237 OA
ATOM     72  O   UNL A   1      42.487  21.919  27.582  1.00  0.00    -0.237 OA
ATOM     73  O   UNL A   1      40.493  22.461  26.253  1.00  0.00    -0.744 OA
ENDBRANCH  67  70
ENDBRANCH  49  63
BRANCH  50  74
ATOM     74  C   UNL A   1      39.468  32.034  35.320  1.00  0.00     0.023 A 
ATOM     75  C   UNL A   1      38.585  31.478  36.266  1.00  0.00     0.012 A 
ATOM     76  C   UNL A   1      39.897  33.366  35.483  1.00  0.00     0.148 A 
ATOM     77  C   UNL A   1      38.114  32.243  37.335  1.00  0.00     0.002 A 
ATOM     78  C   UNL A   1      39.472  34.103  36.581  1.00  0.00     0.091 A 
ATOM     79  F   UNL A   1      40.716  33.887  34.558  1.00  0.00    -0.205 F 
ATOM     80  C   UNL A   1      38.565  33.551  37.498  1.00  0.00     0.022 A 
BRANCH  78  81
ATOM     81  S   UNL A   1      40.093  35.750  36.936  1.00  0.00     0.127 S 
ATOM     82  O   UNL A   1      41.535  35.526  36.965  1.00  0.00    -0.237 OA
ATOM     83  O   UNL A   1      39.609  36.507  35.781  1.00  0.00    -0.237 OA
ATOM     84  O   UNL A   1      39.487  36.135  38.204  1.00  0.00    -0.744 OA
ENDBRANCH  78  81
ENDBRANCH  50  74
BRANCH  62  85
ATOM     85  C   UNL A   1      44.877  27.717  34.338  1.00  0.00     0.023 A 
ATOM     86  C   UNL A   1      44.762  26.559  35.130  1.00  0.00     0.012 A 
ATOM     87  C   UNL A   1      46.100  28.418  34.313  1.00  0.00     0.148 A 
ATOM     88  C   UNL A   1      45.834  26.121  35.907  1.00  0.00     0.002 A 
ATOM     89  C   UNL A   1      47.180  27.947  35.050  1.00  0.00     0.091 A 
ATOM     90  F   UNL A   1      46.187  29.527  33.565  1.00  0.00    -0.205 F 
ATOM     91  C   UNL A   1      47.046  26.807  35.858  1.00  0.00     0.022 A 
BRANCH  89  92
ATOM     92  S   UNL A   1      48.807  28.707  34.971  1.00  0.00     0.127 S 
ATOM     93  O   UNL A   1      49.569  27.878  35.903  1.00  0.00    -0.237 OA
ATOM     94  O   UNL A   1      49.166  28.528  33.563  1.00  0.00    -0.237 OA
ATOM     95  O   UNL A   1      48.624  30.094  35.376  1.00  0.00    -0.744 OA
ENDBRANCH  89  92
ENDBRANCH  62  85
ENDBRANCH  36  37
ENDBRANCH  29  31
ENDBRANCH  28  29
ENDBRANCH  27  28
ENDBRANCH  26  27
ENDBRANCH  25  26
ENDBRANCH  24  25
ENDBRANCH   1  24
TORSDOF 24
ENDMDL
MODEL 3
REMARK VINA RESULT:      -9.4      2.348      7.823
REMARK SMILES C[C@@H](C(=O)OCCOCCOCCOC(=O)c1ccc(-c2c3nc(c(-c4cccc(S(=O)(=O)[O-])c4F)c4ccc([nH]4)c(-c4cccc(S(=O)(=O)[O-])c4F)c4nc(c(-c5cccc(S(=O)(=O)[O-])c5F)c5ccc2[nH]5)C=C4)C=C3)cc1)c1ccc(C[C@@H]2CCC[C@@H]2O)cc1
REMARK SMILES IDX 9 1 8 2 7 3 6 4 5 5 3 6 4 7 2 8 1 9 80 10 81 11 92 12 82 13
REMARK SMILES IDX 91 14 83 15 84 16 85 17 86 18 89 19 87 20 88 21 90 22 10 24
REMARK SMILES IDX 11 25 12 26 13 27 14 28 15 29 16 30 17 31 18 32 79 33 19 34
REMARK SMILES IDX 78 35 20 36 21 37 22 38 72 39 23 40 77 41 71 42 73 43 24 44
REMARK SMILES IDX 76 45 70 46 69 47 25 49 57 50 37 51 56 52 38 53 41 54 55 55
REMARK SMILES IDX 74 56 39 57 40 58 54 60 75 61 42 62 26 63 27 64 35 65 28 66
REMARK SMILES IDX 30 67 36 68 29 69 31 70 32 71 33 72 34 73 58 74 59 75 67 76
REMARK SMILES IDX 60 77 62 78 68 79 61 80 63 81 64 82 65 83 66 84 43 85 44 86
REMARK SMILES IDX 52 87 45 88 47 89 53 90 46 91 48 92 49 93 50 94 51 95
REMARK H PARENT 90 23 73 48 41 59
REMARK Flexibility Score: inf
ROOT
ATOM      1  C   UNL A   1      31.434  25.265  24.214  1.00  0.00     0.188 C 
ENDROOT
BRANCH   1   2
ATOM      2  O   UNL A   1      32.608  25.618  23.491  1.00  0.00    -0.376 OA
BRANCH   2   3
ATOM      3  C   UNL A   1      33.480  24.577  23.057  1.00  0.00     0.202 C 
BRANCH   3   4
ATOM      4  C   UNL A   1      34.868  24.459  23.706  1.00  0.00     0.261 C 
BRANCH   4   5
ATOM      5  O   UNL A   1      34.907  24.830  25.101  1.00  0.00    -0.463 OA
BRANCH   5   6
ATOM      6  C   UNL A   1      35.303  23.852  25.960  1.00  0.00     0.313 C 
ATOM      7  O   UNL A   1      36.470  23.666  26.293  1.00  0.00    -0.252 OA
BRANCH   6   8
ATOM      8  C   UNL A   1      34.150  23.004  26.516  1.00  0.00     0.126 C 
ATOM      9  C   UNL A   1      34.239  22.690  28.014  1.00  0.00     0.025 C 
BRANCH   8  10
ATOM     10  C   UNL A   1      33.785  21.840  25.595  1.00  0.00    -0.034 A 
ATOM     11  C   UNL A   1      32.437  21.656  25.245  1.00  0.00     0.005 A 
ATOM     12  C   UNL A   1      34.712  20.928  25.077  1.00  0.00     0.005 A 
ATOM     13  C   UNL A   1      32.026  20.582  24.447  1.00  0.00     0.004 A 
ATOM     14  C   UNL A   1      34.298  19.858  24.272  1.00  0.00     0.004 A 
ATOM     15  C   UNL A   1      32.948  19.644  23.980  1.00  0.00    -0.048 A 
BRANCH  15  16
ATOM     16  C   UNL A   1      32.491  18.440  23.184  1.00  0.00     0.041 C 
BRANCH  16  17
ATOM     17  C   UNL A   1      32.489  17.053  23.874  1.00  0.00     0.022 C 
ATOM     18  C   UNL A   1      32.323  17.089  25.399  1.00  0.00     0.007 C 
ATOM     19  C   UNL A   1      33.730  16.163  23.729  1.00  0.00     0.117 C 
ATOM     20  C   UNL A   1      33.738  17.023  25.986  1.00  0.00     0.003 C 
ATOM     21  C   UNL A   1      34.664  16.608  24.846  1.00  0.00     0.032 C 
BRANCH  19  22
ATOM     22  O   UNL A   1      34.349  16.176  22.463  1.00  0.00    -0.393 OA
ATOM     23  H   UNL A   1      34.704  15.295  22.268  1.00  0.00     0.210 HD
ENDBRANCH  19  22
ENDBRANCH  16  17
ENDBRANCH  15  16
ENDBRANCH   8  10
ENDBRANCH   6   8
ENDBRANCH   5   6
ENDBRANCH   4   5
ENDBRANCH   3   4
ENDBRANCH   2   3
ENDBRANCH   1   2
BRANCH   1  24
ATOM     24  C   UNL A   1      30.343  26.335  24.384  1.00  0.00     0.188 C 
BRANCH  24  25
ATOM     25  O   UNL A   1      30.791  27.661  24.203  1.00  0.00    -0.376 OA
BRANCH  25  26
ATOM     26  C   UNL A   1      31.396  28.326  25.296  1.00  0.00     0.202 C 
BRANCH  26  27
ATOM     27  C   UNL A   1      32.055  29.708  25.120  1.00  0.00     0.261 C 
BRANCH  27  28
ATOM     28  O   UNL A   1      33.295  29.940  25.805  1.00  0.00    -0.460 OA
BRANCH  28  29
ATOM     29  C   UNL A   1      33.309  30.904  26.748  1.00  0.00     0.338 C 
ATOM     30  O   UNL A   1      32.404  31.697  27.000  1.00  0.00    -0.246 OA
BRANCH  29  31
ATOM     31  C   UNL A   1      34.502  30.701  27.593  1.00  0.00     0.060 A 
ATOM     32  C   UNL A   1      35.450  31.728  27.670  1.00  0.00     0.016 A 
ATOM     33  C   UNL A   1      34.690  29.514  28.307  1.00  0.00     0.016 A 
ATOM     34  C   UNL A   1      36.590  31.569  28.455  1.00  0.00     0.010 A 
ATOM     35  C   UNL A   1      35.849  29.349  29.076  1.00  0.00     0.010 A 
ATOM     36  C   UNL A   1      36.811  30.370  29.143  1.00  0.00    -0.014 A 
BRANCH  36  37
ATOM     37  C   UNL A   1      38.137  30.140  29.767  1.00  0.00     0.031 A 
ATOM     38  C   UNL A   1      38.388  30.705  31.137  1.00  0.00     0.074 A 
ATOM     39  C   UNL A   1      39.080  29.392  29.165  1.00  0.00     0.049 A 
ATOM     40  N   UNL A   1      39.478  30.683  31.857  1.00  0.00    -0.248 NA
ATOM     41  C   UNL A   1      37.248  31.375  31.785  1.00  0.00     0.031 C 
ATOM     42  C   UNL A   1      38.937  28.727  27.873  1.00  0.00     0.029 A 
ATOM     43  N   UNL A   1      40.356  29.080  29.567  1.00  0.00    -0.354 N 
ATOM     44  C   UNL A   1      39.169  31.366  33.026  1.00  0.00     0.074 A 
ATOM     45  C   UNL A   1      37.788  31.785  32.923  1.00  0.00     0.031 C 
ATOM     46  C   UNL A   1      40.093  28.109  27.572  1.00  0.00     0.029 A 
ATOM     47  C   UNL A   1      41.068  28.369  28.630  1.00  0.00     0.049 A 
ATOM     48  H   UNL A   1      40.725  29.340  30.442  1.00  0.00     0.167 HD
ATOM     49  C   UNL A   1      39.961  31.621  34.093  1.00  0.00     0.034 A 
ATOM     50  C   UNL A   1      42.368  28.007  28.612  1.00  0.00     0.034 A 
ATOM     51  C   UNL A   1      41.331  31.201  34.202  1.00  0.00     0.049 A 
ATOM     52  C   UNL A   1      43.253  28.367  29.782  1.00  0.00     0.074 A 
ATOM     53  C   UNL A   1      42.219  31.421  35.240  1.00  0.00     0.029 A 
ATOM     54  N   UNL A   1      42.017  30.482  33.236  1.00  0.00    -0.354 N 
ATOM     55  N   UNL A   1      42.939  28.971  30.903  1.00  0.00    -0.248 NA
ATOM     56  C   UNL A   1      44.669  27.979  29.691  1.00  0.00     0.031 C 
ATOM     57  C   UNL A   1      43.451  30.865  34.887  1.00  0.00     0.029 A 
ATOM     58  C   UNL A   1      43.320  30.261  33.646  1.00  0.00     0.049 A 
ATOM     59  H   UNL A   1      41.634  30.173  32.383  1.00  0.00     0.167 HD
ATOM     60  C   UNL A   1      44.106  29.005  31.660  1.00  0.00     0.074 A 
ATOM     61  C   UNL A   1      45.128  28.341  30.881  1.00  0.00     0.031 C 
ATOM     62  C   UNL A   1      44.316  29.550  32.885  1.00  0.00     0.034 A 
BRANCH  49  63
ATOM     63  C   UNL A   1      39.363  32.414  35.223  1.00  0.00     0.023 A 
ATOM     64  C   UNL A   1      39.398  33.822  35.192  1.00  0.00     0.012 A 
ATOM     65  C   UNL A   1      38.743  31.758  36.305  1.00  0.00     0.148 A 
ATOM     66  C   UNL A   1      38.854  34.566  36.240  1.00  0.00     0.002 A 
ATOM     67  C   UNL A   1      38.164  32.506  37.321  1.00  0.00     0.091 A 
ATOM     68  F   UNL A   1      38.746  30.418  36.326  1.00  0.00    -0.205 F 
ATOM     69  C   UNL A   1      38.229  33.909  37.298  1.00  0.00     0.022 A 
BRANCH  67  70
ATOM     70  S   UNL A   1      37.274  31.753  38.687  1.00  0.00     0.127 S 
ATOM     71  O   UNL A   1      38.247  31.871  39.773  1.00  0.00    -0.237 OA
ATOM     72  O   UNL A   1      36.110  32.629  38.814  1.00  0.00    -0.237 OA
ATOM     73  O   UNL A   1      36.969  30.393  38.269  1.00  0.00    -0.744 OA
ENDBRANCH  67  70
ENDBRANCH  49  63
BRANCH  50  74
ATOM     74  C   UNL A   1      42.928  27.272  27.441  1.00  0.00     0.023 A 
ATOM     75  C   UNL A   1      43.623  27.975  26.438  1.00  0.00     0.012 A 
ATOM     76  C   UNL A   1      42.759  25.879  27.311  1.00  0.00     0.148 A 
ATOM     77  C   UNL A   1      44.113  27.309  25.312  1.00  0.00     0.002 A 
ATOM     78  C   UNL A   1      43.300  25.214  26.218  1.00  0.00     0.091 A 
ATOM     79  F   UNL A   1      42.072  25.232  28.262  1.00  0.00    -0.205 F 
ATOM     80  C   UNL A   1      43.961  25.928  25.207  1.00  0.00     0.022 A 
BRANCH  78  81
ATOM     81  S   UNL A   1      43.257  23.426  26.060  1.00  0.00     0.127 S 
ATOM     82  O   UNL A   1      44.009  23.003  27.238  1.00  0.00    -0.237 OA
ATOM     83  O   UNL A   1      41.820  23.155  26.117  1.00  0.00    -0.237 OA
ATOM     84  O   UNL A   1      43.875  23.128  24.775  1.00  0.00    -0.744 OA
ENDBRANCH  78  81
ENDBRANCH  50  74
BRANCH  62  85
ATOM     85  C   UNL A   1      45.691  29.420  33.491  1.00  0.00     0.023 A 
ATOM     86  C   UNL A   1      46.021  28.285  34.256  1.00  0.00     0.012 A 
ATOM     87  C   UNL A   1      46.683  30.386  33.226  1.00  0.00     0.148 A 
ATOM     88  C   UNL A   1      47.306  28.128  34.775  1.00  0.00     0.002 A 
ATOM     89  C   UNL A   1      47.975  30.198  33.703  1.00  0.00     0.091 A 
ATOM     90  F   UNL A   1      46.347  31.468  32.509  1.00  0.00    -0.205 F 
ATOM     91  C   UNL A   1      48.285  29.077  34.489  1.00  0.00     0.022 A 
BRANCH  89  92
ATOM     92  S   UNL A   1      49.324  31.314  33.303  1.00  0.00     0.127 S 
ATOM     93  O   UNL A   1      48.990  32.488  34.108  1.00  0.00    -0.237 OA
ATOM     94  O   UNL A   1      50.494  30.569  33.769  1.00  0.00    -0.237 OA
ATOM     95  O   UNL A   1      49.270  31.511  31.861  1.00  0.00    -0.744 OA
ENDBRANCH  89  92
ENDBRANCH  62  85
ENDBRANCH  36  37
ENDBRANCH  29  31
ENDBRANCH  28  29
ENDBRANCH  27  28
ENDBRANCH  26  27
ENDBRANCH  25  26
ENDBRANCH  24  25
ENDBRANCH   1  24
TORSDOF 24
ENDMDL
