MODEL 1
REMARK VINA RESULT:      -7.4      0.000      0.000
REMARK SMILES CC(C)(C)c1cc2c(cc1Cl)C=C(C(=O)OCCOCCOCCOC(=O)c1ccc(-c3c4nc(c(-c5cccc(S(=O)(=O)[O-])c5F)c5ccc([nH]5)c(-c5cccc(S(=O)(=O)[O-])c5F)c5nc(c(-c6cccc(S(=O)(=O)[O-])c6F)c6ccc3[nH]6)C=C5)C=C4)cc1)[C@@H](C(F)(F)F)O2
REMARK SMILES IDX 21 1 20 2 19 3 18 4 17 5 16 6 14 7 15 8 13 9 5 10 6 11 10 12
REMARK SMILES IDX 7 13 9 14 11 15 8 16 96 17 12 18 91 19 2 20 1 21 3 22 4 23
REMARK SMILES IDX 92 24 93 25 94 26 95 27 22 28 23 29 24 30 25 31 26 32 27 33
REMARK SMILES IDX 28 34 29 35 90 36 30 37 89 38 31 39 32 40 33 41 83 42 34 43
REMARK SMILES IDX 88 44 82 45 84 46 35 47 87 48 81 49 80 50 36 52 68 53 48 54
REMARK SMILES IDX 67 55 49 56 52 57 66 58 85 59 50 60 51 61 65 63 86 64 53 65
REMARK SMILES IDX 37 66 38 67 46 68 39 69 41 70 47 71 40 72 42 73 43 74 44 75
REMARK SMILES IDX 45 76 69 77 70 78 78 79 71 80 73 81 79 82 72 83 74 84 75 85
REMARK SMILES IDX 76 86 77 87 54 88 55 89 63 90 56 91 58 92 64 93 57 94 59 95
REMARK SMILES IDX 60 96 61 97 62 98
REMARK H PARENT 84 51 52 62
REMARK Flexibility Score: inf
ROOT
ATOM      1  C   UNL A   1      38.441  34.213  33.192  1.00  0.00     0.188 C 
ENDROOT
BRANCH   1   2
ATOM      2  C   UNL A   1      38.543  34.486  31.675  1.00  0.00     0.188 C 
BRANCH   2   3
ATOM      3  O   UNL A   1      37.303  34.388  31.009  1.00  0.00    -0.376 OA
BRANCH   3   4
ATOM      4  C   UNL A   1      36.870  33.140  30.502  1.00  0.00     0.202 C 
BRANCH   4   5
ATOM      5  C   UNL A   1      37.164  32.658  29.068  1.00  0.00     0.261 C 
BRANCH   5   6
ATOM      6  O   UNL A   1      38.235  31.726  28.898  1.00  0.00    -0.460 OA
BRANCH   6   7
ATOM      7  C   UNL A   1      37.906  30.515  28.394  1.00  0.00     0.338 C 
ATOM      8  O   UNL A   1      36.882  30.230  27.800  1.00  0.00    -0.246 OA
BRANCH   7   9
ATOM      9  C   UNL A   1      39.050  29.599  28.570  1.00  0.00     0.087 C 
ATOM     10  C   UNL A   1      42.478  25.920  28.025  1.00  0.00    -0.020 A 
ATOM     11  C   UNL A   1      42.077  26.786  29.074  1.00  0.00     0.053 A 
ATOM     12  C   UNL A   1      41.939  26.205  26.750  1.00  0.00     0.045 A 
ATOM     13  C   UNL A   1      41.131  27.802  28.890  1.00  0.00     0.128 A 
ATOM     14  C   UNL A   1      41.007  27.241  26.566  1.00  0.00     0.032 A 
ATOM     15  Cl  UNL A   1      42.289  25.305  25.317  1.00  0.00    -0.084 Cl
ATOM     16  C   UNL A   1      40.566  28.008  27.640  1.00  0.00     0.019 A 
ATOM     17  O   UNL A   1      40.797  28.521  30.002  1.00  0.00    -0.475 OA
ATOM     18  C   UNL A   1      39.479  28.957  27.477  1.00  0.00     0.027 C 
ATOM     19  C   UNL A   1      39.679  29.450  29.932  1.00  0.00     0.316 C 
BRANCH  10  20
ATOM     20  C   UNL A   1      43.349  24.677  28.349  1.00  0.00    -0.012 C 
ATOM     21  C   UNL A   1      43.856  24.640  29.818  1.00  0.00     0.016 C 
ATOM     22  C   UNL A   1      44.624  24.563  27.484  1.00  0.00     0.016 C 
ATOM     23  C   UNL A   1      42.474  23.416  28.164  1.00  0.00     0.016 C 
ENDBRANCH  10  20
BRANCH  19  24
ATOM     24  C   UNL A   1      38.656  29.056  31.007  1.00  0.00     0.430 C 
ATOM     25  F   UNL A   1      37.678  28.270  30.493  1.00  0.00    -0.167 F 
ATOM     26  F   UNL A   1      39.229  28.347  32.009  1.00  0.00    -0.167 F 
ATOM     27  F   UNL A   1      38.057  30.132  31.565  1.00  0.00    -0.167 F 
ENDBRANCH  19  24
ENDBRANCH   7   9
ENDBRANCH   6   7
ENDBRANCH   5   6
ENDBRANCH   4   5
ENDBRANCH   3   4
ENDBRANCH   2   3
ENDBRANCH   1   2
BRANCH   1  28
ATOM     28  O   UNL A   1      37.496  34.929  33.981  1.00  0.00    -0.376 OA
BRANCH  28  29
ATOM     29  C   UNL A   1      36.282  34.291  34.365  1.00  0.00     0.202 C 
BRANCH  29  30
ATOM     30  C   UNL A   1      36.095  33.791  35.806  1.00  0.00     0.261 C 
BRANCH  30  31
ATOM     31  O   UNL A   1      37.295  33.710  36.587  1.00  0.00    -0.460 OA
BRANCH  31  32
ATOM     32  C   UNL A   1      37.577  32.484  37.099  1.00  0.00     0.338 C 
ATOM     33  O   UNL A   1      36.966  31.898  37.979  1.00  0.00    -0.246 OA
BRANCH  32  34
ATOM     34  C   UNL A   1      38.638  31.854  36.286  1.00  0.00     0.060 A 
ATOM     35  C   UNL A   1      38.320  31.022  35.213  1.00  0.00     0.016 A 
ATOM     36  C   UNL A   1      39.977  32.114  36.611  1.00  0.00     0.016 A 
ATOM     37  C   UNL A   1      39.349  30.470  34.446  1.00  0.00     0.010 A 
ATOM     38  C   UNL A   1      41.004  31.552  35.850  1.00  0.00     0.010 A 
ATOM     39  C   UNL A   1      40.696  30.742  34.749  1.00  0.00    -0.014 A 
BRANCH  39  40
ATOM     40  C   UNL A   1      41.754  30.312  33.805  1.00  0.00     0.031 A 
ATOM     41  C   UNL A   1      42.280  31.213  32.729  1.00  0.00     0.074 A 
ATOM     42  C   UNL A   1      42.249  29.066  33.939  1.00  0.00     0.049 A 
ATOM     43  N   UNL A   1      43.313  31.030  31.947  1.00  0.00    -0.248 NA
ATOM     44  C   UNL A   1      41.561  32.473  32.492  1.00  0.00     0.031 C 
ATOM     45  C   UNL A   1      41.761  28.071  34.897  1.00  0.00     0.029 A 
ATOM     46  N   UNL A   1      43.268  28.427  33.281  1.00  0.00    -0.354 N 
ATOM     47  C   UNL A   1      43.375  32.146  31.126  1.00  0.00     0.074 A 
ATOM     48  C   UNL A   1      42.257  32.995  31.488  1.00  0.00     0.031 C 
ATOM     49  C   UNL A   1      42.498  26.956  34.782  1.00  0.00     0.029 A 
ATOM     50  C   UNL A   1      43.507  27.156  33.746  1.00  0.00     0.049 A 
ATOM     51  H   UNL A   1      43.778  28.838  32.547  1.00  0.00     0.167 HD
ATOM     52  C   UNL A   1      44.298  32.445  30.182  1.00  0.00     0.034 A 
ATOM     53  C   UNL A   1      44.449  26.258  33.399  1.00  0.00     0.034 A 
ATOM     54  C   UNL A   1      45.416  31.604  29.841  1.00  0.00     0.049 A 
ATOM     55  C   UNL A   1      45.476  26.625  32.368  1.00  0.00     0.074 A 
ATOM     56  C   UNL A   1      46.449  31.869  28.959  1.00  0.00     0.029 A 
ATOM     57  N   UNL A   1      45.639  30.334  30.347  1.00  0.00    -0.354 N 
ATOM     58  N   UNL A   1      45.628  27.761  31.733  1.00  0.00    -0.248 NA
ATOM     59  C   UNL A   1      46.479  25.606  32.030  1.00  0.00     0.031 C 
ATOM     60  C   UNL A   1      47.289  30.752  28.921  1.00  0.00     0.029 A 
ATOM     61  C   UNL A   1      46.784  29.796  29.786  1.00  0.00     0.049 A 
ATOM     62  H   UNL A   1      45.068  29.881  31.010  1.00  0.00     0.167 HD
ATOM     63  C   UNL A   1      46.750  27.600  30.929  1.00  0.00     0.074 A 
ATOM     64  C   UNL A   1      47.251  26.263  31.172  1.00  0.00     0.031 C 
ATOM     65  C   UNL A   1      47.300  28.479  30.059  1.00  0.00     0.034 A 
BRANCH  52  66
ATOM     66  C   UNL A   1      44.202  33.776  29.489  1.00  0.00     0.023 A 
ATOM     67  C   UNL A   1      43.514  33.851  28.261  1.00  0.00     0.012 A 
ATOM     68  C   UNL A   1      44.661  34.957  30.103  1.00  0.00     0.148 A 
ATOM     69  C   UNL A   1      43.291  35.083  27.648  1.00  0.00     0.002 A 
ATOM     70  C   UNL A   1      44.412  36.184  29.499  1.00  0.00     0.091 A 
ATOM     71  F   UNL A   1      45.317  34.857  31.267  1.00  0.00    -0.205 F 
ATOM     72  C   UNL A   1      43.729  36.249  28.271  1.00  0.00     0.022 A 
BRANCH  70  73
ATOM     73  S   UNL A   1      44.883  37.752  30.238  1.00  0.00     0.127 S 
ATOM     74  O   UNL A   1      46.341  37.633  30.274  1.00  0.00    -0.237 OA
ATOM     75  O   UNL A   1      44.374  38.716  29.265  1.00  0.00    -0.237 OA
ATOM     76  O   UNL A   1      44.234  37.795  31.541  1.00  0.00    -0.744 OA
ENDBRANCH  70  73
ENDBRANCH  52  66
BRANCH  53  77
ATOM     77  C   UNL A   1      44.504  24.958  34.117  1.00  0.00     0.023 A 
ATOM     78  C   UNL A   1      43.939  23.818  33.515  1.00  0.00     0.012 A 
ATOM     79  C   UNL A   1      45.187  24.831  35.340  1.00  0.00     0.148 A 
ATOM     80  C   UNL A   1      44.047  22.569  34.126  1.00  0.00     0.002 A 
ATOM     81  C   UNL A   1      45.323  23.579  35.926  1.00  0.00     0.091 A 
ATOM     82  F   UNL A   1      45.716  25.934  35.887  1.00  0.00    -0.205 F 
ATOM     83  C   UNL A   1      44.747  22.448  35.324  1.00  0.00     0.022 A 
BRANCH  81  84
ATOM     84  S   UNL A   1      46.291  23.302  37.413  1.00  0.00     0.127 S 
ATOM     85  O   UNL A   1      45.596  24.148  38.382  1.00  0.00    -0.237 OA
ATOM     86  O   UNL A   1      46.120  21.863  37.616  1.00  0.00    -0.237 OA
ATOM     87  O   UNL A   1      47.649  23.713  37.086  1.00  0.00    -0.744 OA
ENDBRANCH  81  84
ENDBRANCH  53  77
BRANCH  65  88
ATOM     88  C   UNL A   1      48.508  28.044  29.277  1.00  0.00     0.023 A 
ATOM     89  C   UNL A   1      49.775  28.086  29.893  1.00  0.00     0.012 A 
ATOM     90  C   UNL A   1      48.375  27.468  27.998  1.00  0.00     0.148 A 
ATOM     91  C   UNL A   1      50.892  27.563  29.245  1.00  0.00     0.002 A 
ATOM     92  C   UNL A   1      49.487  26.918  27.373  1.00  0.00     0.091 A 
ATOM     93  F   UNL A   1      47.158  27.445  27.434  1.00  0.00    -0.205 F 
ATOM     94  C   UNL A   1      50.747  26.968  27.994  1.00  0.00     0.022 A 
BRANCH  92  95
ATOM     95  S   UNL A   1      49.395  26.066  25.795  1.00  0.00     0.127 S 
ATOM     96  O   UNL A   1      50.766  25.583  25.636  1.00  0.00    -0.237 OA
ATOM     97  O   UNL A   1      48.407  25.021  26.066  1.00  0.00    -0.237 OA
ATOM     98  O   UNL A   1      48.977  27.063  24.819  1.00  0.00    -0.744 OA
ENDBRANCH  92  95
ENDBRANCH  65  88
ENDBRANCH  39  40
ENDBRANCH  32  34
ENDBRANCH  31  32
ENDBRANCH  30  31
ENDBRANCH  29  30
ENDBRANCH  28  29
ENDBRANCH   1  28
TORSDOF 22
ENDMDL
MODEL 2
REMARK VINA RESULT:      -7.4      2.600      8.984
REMARK SMILES CC(C)(C)c1cc2c(cc1Cl)C=C(C(=O)OCCOCCOCCOC(=O)c1ccc(-c3c4nc(c(-c5cccc(S(=O)(=O)[O-])c5F)c5ccc([nH]5)c(-c5cccc(S(=O)(=O)[O-])c5F)c5nc(c(-c6cccc(S(=O)(=O)[O-])c6F)c6ccc3[nH]6)C=C5)C=C4)cc1)[C@@H](C(F)(F)F)O2
REMARK SMILES IDX 21 1 20 2 19 3 18 4 17 5 16 6 14 7 15 8 13 9 5 10 6 11 10 12
REMARK SMILES IDX 7 13 9 14 11 15 8 16 96 17 12 18 91 19 2 20 1 21 3 22 4 23
REMARK SMILES IDX 92 24 93 25 94 26 95 27 22 28 23 29 24 30 25 31 26 32 27 33
REMARK SMILES IDX 28 34 29 35 90 36 30 37 89 38 31 39 32 40 33 41 83 42 34 43
REMARK SMILES IDX 88 44 82 45 84 46 35 47 87 48 81 49 80 50 36 52 68 53 48 54
REMARK SMILES IDX 67 55 49 56 52 57 66 58 85 59 50 60 51 61 65 63 86 64 53 65
REMARK SMILES IDX 37 66 38 67 46 68 39 69 41 70 47 71 40 72 42 73 43 74 44 75
REMARK SMILES IDX 45 76 69 77 70 78 78 79 71 80 73 81 79 82 72 83 74 84 75 85
REMARK SMILES IDX 76 86 77 87 54 88 55 89 63 90 56 91 58 92 64 93 57 94 59 95
REMARK SMILES IDX 60 96 61 97 62 98
REMARK H PARENT 84 51 52 62
REMARK Flexibility Score: inf
ROOT
ATOM      1  C   UNL A   1      44.557  22.904  25.224  1.00  0.00     0.188 C 
ENDROOT
BRANCH   1   2
ATOM      2  C   UNL A   1      43.034  23.033  25.001  1.00  0.00     0.188 C 
BRANCH   2   3
ATOM      3  O   UNL A   1      42.434  24.008  25.825  1.00  0.00    -0.376 OA
BRANCH   3   4
ATOM      4  C   UNL A   1      41.495  23.620  26.810  1.00  0.00     0.202 C 
BRANCH   4   5
ATOM      5  C   UNL A   1      41.004  24.557  27.931  1.00  0.00     0.261 C 
BRANCH   5   6
ATOM      6  O   UNL A   1      39.992  25.509  27.592  1.00  0.00    -0.460 OA
BRANCH   6   7
ATOM      7  C   UNL A   1      40.399  26.788  27.425  1.00  0.00     0.338 C 
ATOM      8  O   UNL A   1      41.204  27.193  26.608  1.00  0.00    -0.246 OA
BRANCH   7   9
ATOM      9  C   UNL A   1      39.615  27.658  28.326  1.00  0.00     0.087 C 
ATOM     10  C   UNL A   1      36.755  31.352  30.264  1.00  0.00    -0.020 A 
ATOM     11  C   UNL A   1      37.594  30.337  30.789  1.00  0.00     0.053 A 
ATOM     12  C   UNL A   1      36.483  31.272  28.879  1.00  0.00     0.045 A 
ATOM     13  C   UNL A   1      38.201  29.368  29.979  1.00  0.00     0.128 A 
ATOM     14  C   UNL A   1      37.076  30.283  28.074  1.00  0.00     0.032 A 
ATOM     15  Cl  UNL A   1      35.478  32.379  28.013  1.00  0.00    -0.084 Cl
ATOM     16  C   UNL A   1      37.970  29.362  28.612  1.00  0.00     0.019 A 
ATOM     17  O   UNL A   1      39.031  28.488  30.613  1.00  0.00    -0.475 OA
ATOM     18  C   UNL A   1      38.711  28.457  27.750  1.00  0.00     0.027 C 
ATOM     19  C   UNL A   1      39.849  27.589  29.813  1.00  0.00     0.316 C 
BRANCH  10  20
ATOM     20  C   UNL A   1      36.306  32.523  31.177  1.00  0.00    -0.012 C 
ATOM     21  C   UNL A   1      36.850  32.421  32.630  1.00  0.00     0.016 C 
ATOM     22  C   UNL A   1      34.773  32.645  31.331  1.00  0.00     0.016 C 
ATOM     23  C   UNL A   1      36.882  33.834  30.594  1.00  0.00     0.016 C 
ENDBRANCH  10  20
BRANCH  19  24
ATOM     24  C   UNL A   1      41.322  27.819  30.184  1.00  0.00     0.430 C 
ATOM     25  F   UNL A   1      41.485  27.892  31.528  1.00  0.00    -0.167 F 
ATOM     26  F   UNL A   1      42.111  26.804  29.757  1.00  0.00    -0.167 F 
ATOM     27  F   UNL A   1      41.812  28.962  29.654  1.00  0.00    -0.167 F 
ENDBRANCH  19  24
ENDBRANCH   7   9
ENDBRANCH   6   7
ENDBRANCH   5   6
ENDBRANCH   4   5
ENDBRANCH   3   4
ENDBRANCH   2   3
ENDBRANCH   1   2
BRANCH   1  28
ATOM     28  O   UNL A   1      45.248  23.880  25.997  1.00  0.00    -0.376 OA
BRANCH  28  29
ATOM     29  C   UNL A   1      46.643  24.076  25.788  1.00  0.00     0.202 C 
BRANCH  29  30
ATOM     30  C   UNL A   1      47.141  24.767  24.509  1.00  0.00     0.261 C 
BRANCH  30  31
ATOM     31  O   UNL A   1      47.856  25.993  24.713  1.00  0.00    -0.460 OA
BRANCH  31  32
ATOM     32  C   UNL A   1      47.127  27.128  24.555  1.00  0.00     0.338 C 
ATOM     33  O   UNL A   1      46.785  27.638  23.500  1.00  0.00    -0.246 OA
BRANCH  32  34
ATOM     34  C   UNL A   1      46.625  27.567  25.873  1.00  0.00     0.060 A 
ATOM     35  C   UNL A   1      47.502  27.998  26.867  1.00  0.00     0.016 A 
ATOM     36  C   UNL A   1      45.242  27.549  26.105  1.00  0.00     0.016 A 
ATOM     37  C   UNL A   1      46.988  28.437  28.090  1.00  0.00     0.010 A 
ATOM     38  C   UNL A   1      44.731  27.978  27.331  1.00  0.00     0.010 A 
ATOM     39  C   UNL A   1      45.601  28.445  28.326  1.00  0.00    -0.014 A 
BRANCH  39  40
ATOM     40  C   UNL A   1      45.074  29.101  29.546  1.00  0.00     0.031 A 
ATOM     41  C   UNL A   1      44.660  30.540  29.564  1.00  0.00     0.074 A 
ATOM     42  C   UNL A   1      44.969  28.357  30.665  1.00  0.00     0.049 A 
ATOM     43  N   UNL A   1      44.031  31.195  30.506  1.00  0.00    -0.248 NA
ATOM     44  C   UNL A   1      44.995  31.355  28.386  1.00  0.00     0.031 C 
ATOM     45  C   UNL A   1      45.415  26.968  30.791  1.00  0.00     0.029 A 
ATOM     46  N   UNL A   1      44.452  28.657  31.898  1.00  0.00    -0.354 N 
ATOM     47  C   UNL A   1      43.888  32.494  30.041  1.00  0.00     0.074 A 
ATOM     48  C   UNL A   1      44.521  32.545  28.739  1.00  0.00     0.031 C 
ATOM     49  C   UNL A   1      45.128  26.528  32.025  1.00  0.00     0.029 A 
ATOM     50  C   UNL A   1      44.482  27.600  32.776  1.00  0.00     0.049 A 
ATOM     51  H   UNL A   1      44.096  29.544  32.134  1.00  0.00     0.167 HD
ATOM     52  C   UNL A   1      43.260  33.535  30.637  1.00  0.00     0.034 A 
ATOM     53  C   UNL A   1      44.018  27.492  34.035  1.00  0.00     0.034 A 
ATOM     54  C   UNL A   1      42.618  33.471  31.923  1.00  0.00     0.049 A 
ATOM     55  C   UNL A   1      43.302  28.653  34.661  1.00  0.00     0.074 A 
ATOM     56  C   UNL A   1      41.883  34.454  32.563  1.00  0.00     0.029 A 
ATOM     57  N   UNL A   1      42.649  32.378  32.774  1.00  0.00    -0.354 N 
ATOM     58  N   UNL A   1      43.016  29.818  34.134  1.00  0.00    -0.248 NA
ATOM     59  C   UNL A   1      42.817  28.478  36.037  1.00  0.00     0.031 C 
ATOM     60  C   UNL A   1      41.480  33.960  33.807  1.00  0.00     0.029 A 
ATOM     61  C   UNL A   1      41.957  32.666  33.938  1.00  0.00     0.049 A 
ATOM     62  H   UNL A   1      43.095  31.522  32.579  1.00  0.00     0.167 HD
ATOM     63  C   UNL A   1      42.306  30.512  35.107  1.00  0.00     0.074 A 
ATOM     64  C   UNL A   1      42.189  29.628  36.249  1.00  0.00     0.031 C 
ATOM     65  C   UNL A   1      41.811  31.771  35.057  1.00  0.00     0.034 A 
BRANCH  52  66
ATOM     66  C   UNL A   1      43.155  34.830  29.878  1.00  0.00     0.023 A 
ATOM     67  C   UNL A   1      42.105  34.986  28.951  1.00  0.00     0.012 A 
ATOM     68  C   UNL A   1      43.991  35.923  30.174  1.00  0.00     0.148 A 
ATOM     69  C   UNL A   1      41.894  36.212  28.320  1.00  0.00     0.002 A 
ATOM     70  C   UNL A   1      43.757  37.150  29.562  1.00  0.00     0.091 A 
ATOM     71  F   UNL A   1      44.984  35.746  31.056  1.00  0.00    -0.205 F 
ATOM     72  C   UNL A   1      42.711  37.294  28.633  1.00  0.00     0.022 A 
BRANCH  70  73
ATOM     73  S   UNL A   1      44.714  38.625  29.930  1.00  0.00     0.127 S 
ATOM     74  O   UNL A   1      46.018  38.278  29.365  1.00  0.00    -0.237 OA
ATOM     75  O   UNL A   1      43.985  39.655  29.194  1.00  0.00    -0.237 OA
ATOM     76  O   UNL A   1      44.688  38.772  31.379  1.00  0.00    -0.744 OA
ENDBRANCH  70  73
ENDBRANCH  52  66
BRANCH  53  77
ATOM     77  C   UNL A   1      44.143  26.189  34.741  1.00  0.00     0.023 A 
ATOM     78  C   UNL A   1      43.168  25.198  34.526  1.00  0.00     0.012 A 
ATOM     79  C   UNL A   1      45.263  25.902  35.543  1.00  0.00     0.148 A 
ATOM     80  C   UNL A   1      43.303  23.938  35.109  1.00  0.00     0.002 A 
ATOM     81  C   UNL A   1      45.409  24.634  36.090  1.00  0.00     0.091 A 
ATOM     82  F   UNL A   1      46.175  26.867  35.725  1.00  0.00    -0.205 F 
ATOM     83  C   UNL A   1      44.426  23.653  35.881  1.00  0.00     0.022 A 
BRANCH  81  84
ATOM     84  S   UNL A   1      46.867  24.137  37.013  1.00  0.00     0.127 S 
ATOM     85  O   UNL A   1      46.431  22.873  37.602  1.00  0.00    -0.237 OA
ATOM     86  O   UNL A   1      47.865  24.012  35.950  1.00  0.00    -0.237 OA
ATOM     87  O   UNL A   1      47.123  25.213  37.962  1.00  0.00    -0.744 OA
ENDBRANCH  81  84
ENDBRANCH  53  77
BRANCH  65  88
ATOM     88  C   UNL A   1      41.102  32.304  36.270  1.00  0.00     0.023 A 
ATOM     89  C   UNL A   1      41.781  33.195  37.125  1.00  0.00     0.012 A 
ATOM     90  C   UNL A   1      39.735  32.038  36.486  1.00  0.00     0.148 A 
ATOM     91  C   UNL A   1      41.109  33.812  38.179  1.00  0.00     0.002 A 
ATOM     92  C   UNL A   1      39.065  32.683  37.518  1.00  0.00     0.091 A 
ATOM     93  F   UNL A   1      39.115  31.183  35.660  1.00  0.00    -0.205 F 
ATOM     94  C   UNL A   1      39.752  33.567  38.368  1.00  0.00     0.022 A 
BRANCH  92  95
ATOM     95  S   UNL A   1      37.301  32.493  37.801  1.00  0.00     0.127 S 
ATOM     96  O   UNL A   1      37.155  31.038  37.806  1.00  0.00    -0.237 OA
ATOM     97  O   UNL A   1      37.128  33.129  39.107  1.00  0.00    -0.237 OA
ATOM     98  O   UNL A   1      36.638  33.174  36.697  1.00  0.00    -0.744 OA
ENDBRANCH  92  95
ENDBRANCH  65  88
ENDBRANCH  39  40
ENDBRANCH  32  34
ENDBRANCH  31  32
ENDBRANCH  30  31
ENDBRANCH  29  30
ENDBRANCH  28  29
ENDBRANCH   1  28
TORSDOF 22
ENDMDL
MODEL 3
REMARK VINA RESULT:      -7.1      5.100     10.804
REMARK SMILES CC(C)(C)c1cc2c(cc1Cl)C=C(C(=O)OCCOCCOCCOC(=O)c1ccc(-c3c4nc(c(-c5cccc(S(=O)(=O)[O-])c5F)c5ccc([nH]5)c(-c5cccc(S(=O)(=O)[O-])c5F)c5nc(c(-c6cccc(S(=O)(=O)[O-])c6F)c6ccc3[nH]6)C=C5)C=C4)cc1)[C@@H](C(F)(F)F)O2
REMARK SMILES IDX 21 1 20 2 19 3 18 4 17 5 16 6 14 7 15 8 13 9 5 10 6 11 10 12
REMARK SMILES IDX 7 13 9 14 11 15 8 16 96 17 12 18 91 19 2 20 1 21 3 22 4 23
REMARK SMILES IDX 92 24 93 25 94 26 95 27 22 28 23 29 24 30 25 31 26 32 27 33
REMARK SMILES IDX 28 34 29 35 90 36 30 37 89 38 31 39 32 40 33 41 83 42 34 43
REMARK SMILES IDX 88 44 82 45 84 46 35 47 87 48 81 49 80 50 36 52 68 53 48 54
REMARK SMILES IDX 67 55 49 56 52 57 66 58 85 59 50 60 51 61 65 63 86 64 53 65
REMARK SMILES IDX 37 66 38 67 46 68 39 69 41 70 47 71 40 72 42 73 43 74 44 75
REMARK SMILES IDX 45 76 69 77 70 78 78 79 71 80 73 81 79 82 72 83 74 84 75 85
REMARK SMILES IDX 76 86 77 87 54 88 55 89 63 90 56 91 58 92 64 93 57 94 59 95
REMARK SMILES IDX 60 96 61 97 62 98
REMARK H PARENT 84 51 52 62
REMARK Flexibility Score: inf
ROOT
ATOM      1  C   UNL A   1      41.483  27.585  27.803  1.00  0.00     0.188 C 
ENDROOT
BRANCH   1   2
ATOM      2  C   UNL A   1      40.985  27.547  29.265  1.00  0.00     0.188 C 
BRANCH   2   3
ATOM      3  O   UNL A   1      40.625  28.817  29.761  1.00  0.00    -0.376 OA
BRANCH   3   4
ATOM      4  C   UNL A   1      39.613  29.567  29.115  1.00  0.00     0.202 C 
BRANCH   4   5
ATOM      5  C   UNL A   1      39.067  30.902  29.658  1.00  0.00     0.261 C 
BRANCH   5   6
ATOM      6  O   UNL A   1      37.937  31.467  28.990  1.00  0.00    -0.460 OA
BRANCH   6   7
ATOM      7  C   UNL A   1      36.814  31.619  29.728  1.00  0.00     0.338 C 
ATOM      8  O   UNL A   1      36.740  32.083  30.851  1.00  0.00    -0.246 OA
BRANCH   7   9
ATOM      9  C   UNL A   1      35.649  31.239  28.905  1.00  0.00     0.087 C 
ATOM     10  C   UNL A   1      32.549  29.057  25.555  1.00  0.00    -0.020 A 
ATOM     11  C   UNL A   1      32.526  30.238  26.339  1.00  0.00     0.053 A 
ATOM     12  C   UNL A   1      33.587  28.142  25.848  1.00  0.00     0.045 A 
ATOM     13  C   UNL A   1      33.522  30.537  27.278  1.00  0.00     0.128 A 
ATOM     14  C   UNL A   1      34.570  28.437  26.809  1.00  0.00     0.032 A 
ATOM     15  Cl  UNL A   1      33.814  26.630  25.044  1.00  0.00    -0.084 Cl
ATOM     16  C   UNL A   1      34.567  29.651  27.489  1.00  0.00     0.019 A 
ATOM     17  O   UNL A   1      33.404  31.738  27.918  1.00  0.00    -0.475 OA
ATOM     18  C   UNL A   1      35.677  30.022  28.349  1.00  0.00     0.027 C 
ATOM     19  C   UNL A   1      34.501  32.204  28.751  1.00  0.00     0.316 C 
BRANCH  10  20
ATOM     20  C   UNL A   1      31.551  28.899  24.378  1.00  0.00    -0.012 C 
ATOM     21  C   UNL A   1      32.241  28.797  22.989  1.00  0.00     0.016 C 
ATOM     22  C   UNL A   1      30.551  30.069  24.244  1.00  0.00     0.016 C 
ATOM     23  C   UNL A   1      30.783  27.571  24.575  1.00  0.00     0.016 C 
ENDBRANCH  10  20
BRANCH  19  24
ATOM     24  C   UNL A   1      34.957  33.574  28.227  1.00  0.00     0.430 C 
ATOM     25  F   UNL A   1      33.974  34.182  27.519  1.00  0.00    -0.167 F 
ATOM     26  F   UNL A   1      35.278  34.417  29.237  1.00  0.00    -0.167 F 
ATOM     27  F   UNL A   1      36.037  33.481  27.419  1.00  0.00    -0.167 F 
ENDBRANCH  19  24
ENDBRANCH   7   9
ENDBRANCH   6   7
ENDBRANCH   5   6
ENDBRANCH   4   5
ENDBRANCH   3   4
ENDBRANCH   2   3
ENDBRANCH   1   2
BRANCH   1  28
ATOM     28  O   UNL A   1      40.592  27.263  26.740  1.00  0.00    -0.376 OA
BRANCH  28  29
ATOM     29  C   UNL A   1      40.810  26.077  25.983  1.00  0.00     0.202 C 
BRANCH  29  30
ATOM     30  C   UNL A   1      40.486  24.703  26.590  1.00  0.00     0.261 C 
BRANCH  30  31
ATOM     31  O   UNL A   1      41.606  23.996  27.139  1.00  0.00    -0.460 OA
BRANCH  31  32
ATOM     32  C   UNL A   1      42.569  23.645  26.248  1.00  0.00     0.338 C 
ATOM     33  O   UNL A   1      42.483  22.805  25.366  1.00  0.00    -0.246 OA
BRANCH  32  34
ATOM     34  C   UNL A   1      43.703  24.585  26.368  1.00  0.00     0.060 A 
ATOM     35  C   UNL A   1      44.343  25.085  25.235  1.00  0.00     0.016 A 
ATOM     36  C   UNL A   1      44.122  24.972  27.649  1.00  0.00     0.016 A 
ATOM     37  C   UNL A   1      45.390  25.997  25.386  1.00  0.00     0.010 A 
ATOM     38  C   UNL A   1      45.176  25.876  27.798  1.00  0.00     0.010 A 
ATOM     39  C   UNL A   1      45.805  26.410  26.666  1.00  0.00    -0.014 A 
BRANCH  39  40
ATOM     40  C   UNL A   1      46.774  27.524  26.792  1.00  0.00     0.031 A 
ATOM     41  C   UNL A   1      48.248  27.291  26.913  1.00  0.00     0.074 A 
ATOM     42  C   UNL A   1      46.289  28.782  26.793  1.00  0.00     0.049 A 
ATOM     43  N   UNL A   1      49.218  28.169  26.862  1.00  0.00    -0.248 NA
ATOM     44  C   UNL A   1      48.699  25.908  27.122  1.00  0.00     0.031 C 
ATOM     45  C   UNL A   1      44.867  29.131  26.762  1.00  0.00     0.029 A 
ATOM     46  N   UNL A   1      46.932  29.993  26.813  1.00  0.00    -0.354 N 
ATOM     47  C   UNL A   1      50.393  27.452  27.028  1.00  0.00     0.074 A 
ATOM     48  C   UNL A   1      50.016  26.064  27.208  1.00  0.00     0.031 C 
ATOM     49  C   UNL A   1      44.746  30.467  26.739  1.00  0.00     0.029 A 
ATOM     50  C   UNL A   1      46.076  31.067  26.754  1.00  0.00     0.049 A 
ATOM     51  H   UNL A   1      47.910  30.084  26.866  1.00  0.00     0.167 HD
ATOM     52  C   UNL A   1      51.667  27.908  27.002  1.00  0.00     0.034 A 
ATOM     53  C   UNL A   1      46.331  32.388  26.692  1.00  0.00     0.034 A 
ATOM     54  C   UNL A   1      52.035  29.286  26.805  1.00  0.00     0.049 A 
ATOM     55  C   UNL A   1      47.753  32.865  26.637  1.00  0.00     0.074 A 
ATOM     56  C   UNL A   1      53.303  29.824  26.676  1.00  0.00     0.029 A 
ATOM     57  N   UNL A   1      51.143  30.343  26.726  1.00  0.00    -0.354 N 
ATOM     58  N   UNL A   1      48.854  32.155  26.611  1.00  0.00    -0.248 NA
ATOM     59  C   UNL A   1      47.969  34.317  26.569  1.00  0.00     0.031 C 
ATOM     60  C   UNL A   1      53.180  31.209  26.534  1.00  0.00     0.029 A 
ATOM     61  C   UNL A   1      51.833  31.532  26.565  1.00  0.00     0.049 A 
ATOM     62  H   UNL A   1      50.163  30.261  26.775  1.00  0.00     0.167 HD
ATOM     63  C   UNL A   1      49.894  33.071  26.511  1.00  0.00     0.074 A 
ATOM     64  C   UNL A   1      49.291  34.387  26.461  1.00  0.00     0.031 C 
ATOM     65  C   UNL A   1      51.227  32.836  26.478  1.00  0.00     0.034 A 
BRANCH  52  66
ATOM     66  C   UNL A   1      52.785  26.907  27.110  1.00  0.00     0.023 A 
ATOM     67  C   UNL A   1      53.192  26.222  25.948  1.00  0.00     0.012 A 
ATOM     68  C   UNL A   1      53.511  26.745  28.305  1.00  0.00     0.148 A 
ATOM     69  C   UNL A   1      54.305  25.381  25.974  1.00  0.00     0.002 A 
ATOM     70  C   UNL A   1      54.635  25.926  28.317  1.00  0.00     0.091 A 
ATOM     71  F   UNL A   1      53.099  27.404  29.396  1.00  0.00    -0.205 F 
ATOM     72  C   UNL A   1      55.031  25.242  27.154  1.00  0.00     0.022 A 
BRANCH  70  73
ATOM     73  S   UNL A   1      55.676  25.716  29.766  1.00  0.00     0.127 S 
ATOM     74  O   UNL A   1      56.623  24.702  29.302  1.00  0.00    -0.237 OA
ATOM     75  O   UNL A   1      56.244  27.052  29.932  1.00  0.00    -0.237 OA
ATOM     76  O   UNL A   1      54.790  25.288  30.841  1.00  0.00    -0.744 OA
ENDBRANCH  70  73
ENDBRANCH  52  66
BRANCH  53  77
ATOM     77  C   UNL A   1      45.191  33.337  26.583  1.00  0.00     0.023 A 
ATOM     78  C   UNL A   1      44.626  33.585  25.319  1.00  0.00     0.012 A 
ATOM     79  C   UNL A   1      44.616  33.916  27.728  1.00  0.00     0.148 A 
ATOM     80  C   UNL A   1      43.505  34.406  25.196  1.00  0.00     0.002 A 
ATOM     81  C   UNL A   1      43.477  34.702  27.603  1.00  0.00     0.091 A 
ATOM     82  F   UNL A   1      45.176  33.657  28.918  1.00  0.00    -0.205 F 
ATOM     83  C   UNL A   1      42.925  34.955  26.337  1.00  0.00     0.022 A 
BRANCH  81  84
ATOM     84  S   UNL A   1      42.599  35.370  29.020  1.00  0.00     0.127 S 
ATOM     85  O   UNL A   1      41.676  36.308  28.383  1.00  0.00    -0.237 OA
ATOM     86  O   UNL A   1      41.973  34.170  29.575  1.00  0.00    -0.237 OA
ATOM     87  O   UNL A   1      43.616  35.974  29.870  1.00  0.00    -0.744 OA
ENDBRANCH  81  84
ENDBRANCH  53  77
BRANCH  65  88
ATOM     88  C   UNL A   1      52.155  34.016  26.399  1.00  0.00     0.023 A 
ATOM     89  C   UNL A   1      52.715  34.529  27.585  1.00  0.00     0.012 A 
ATOM     90  C   UNL A   1      52.577  34.524  25.154  1.00  0.00     0.148 A 
ATOM     91  C   UNL A   1      53.681  35.532  27.534  1.00  0.00     0.002 A 
ATOM     92  C   UNL A   1      53.565  35.500  25.110  1.00  0.00     0.091 A 
ATOM     93  F   UNL A   1      52.023  34.021  24.040  1.00  0.00    -0.205 F 
ATOM     94  C   UNL A   1      54.115  36.008  26.299  1.00  0.00     0.022 A 
BRANCH  92  95
ATOM     95  S   UNL A   1      54.245  36.127  23.570  1.00  0.00     0.127 S 
ATOM     96  O   UNL A   1      53.429  37.320  23.347  1.00  0.00    -0.237 OA
ATOM     97  O   UNL A   1      55.636  36.397  23.934  1.00  0.00    -0.237 OA
ATOM     98  O   UNL A   1      54.066  35.067  22.586  1.00  0.00    -0.744 OA
ENDBRANCH  92  95
ENDBRANCH  65  88
ENDBRANCH  39  40
ENDBRANCH  32  34
ENDBRANCH  31  32
ENDBRANCH  30  31
ENDBRANCH  29  30
ENDBRANCH  28  29
ENDBRANCH   1  28
TORSDOF 22
ENDMDL
