MODEL 1
REMARK VINA RESULT:     -12.6      0.000      0.000
REMARK SMILES COc1cc2ccccc2cc1C(=O)Nc1cc(C(=O)OCCOCCOCCOC(=O)c2ccc(-c3c4nc(c(-c5cccc(S(=O)(=O)[O-])c5F)c5ccc([nH]5)c(-c5cccc(S(=O)(=O)[O-])c5F)c5nc(c(-c6cccc(S(=O)(=O)[O-])c6F)c6ccc3[nH]6)C=C5)C=C4)cc2)ccc1C
REMARK SMILES IDX 25 1 24 2 23 3 22 4 21 5 19 6 20 7 18 8 16 9 17 10 98 11
REMARK SMILES IDX 97 12 99 13 96 14 15 15 13 16 14 17 12 19 3 20 4 21 5 22
REMARK SMILES IDX 11 23 6 24 10 25 7 26 9 27 8 28 2 29 1 30 26 31 27 32 28 33
REMARK SMILES IDX 29 34 30 35 31 36 32 37 33 38 34 39 95 40 35 41 94 42 36 43
REMARK SMILES IDX 37 44 38 45 88 46 39 47 93 48 87 49 89 50 40 51 92 52 86 53
REMARK SMILES IDX 85 54 41 56 73 57 53 58 72 59 54 60 57 61 71 62 90 63 55 64
REMARK SMILES IDX 56 65 70 67 91 68 58 69 42 70 43 71 51 72 44 73 46 74 52 75
REMARK SMILES IDX 45 76 47 77 48 78 49 79 50 80 74 81 75 82 83 83 76 84 78 85
REMARK SMILES IDX 84 86 77 87 79 88 80 89 81 90 82 91 59 92 60 93 68 94 61 95
REMARK SMILES IDX 63 96 69 97 62 98 64 99 65 100 66 101 67 102
REMARK H PARENT 15 18 89 55 57 66
REMARK Flexibility Score: inf
ROOT
ATOM      1  C   UNL A   1      34.464  33.610  28.146  1.00  0.00     0.188 C 
ENDROOT
BRANCH   1   2
ATOM      2  O   UNL A   1      34.316  32.314  28.682  1.00  0.00    -0.376 OA
BRANCH   2   3
ATOM      3  C   UNL A   1      34.029  31.405  27.583  1.00  0.00     0.202 C 
BRANCH   3   4
ATOM      4  C   UNL A   1      34.668  29.948  27.758  1.00  0.00     0.261 C 
BRANCH   4   5
ATOM      5  O   UNL A   1      34.745  28.720  26.811  1.00  0.00    -0.460 OA
BRANCH   5   6
ATOM      6  C   UNL A   1      33.973  27.894  26.034  1.00  0.00     0.338 C 
ATOM      7  O   UNL A   1      33.754  26.693  26.060  1.00  0.00    -0.246 OA
BRANCH   6   8
ATOM      8  C   UNL A   1      33.105  28.485  25.046  1.00  0.00     0.062 A 
ATOM      9  C   UNL A   1      32.193  28.060  22.930  1.00  0.00     0.045 A 
ATOM     10  C   UNL A   1      33.284  28.019  23.777  1.00  0.00     0.042 A 
ATOM     11  C   UNL A   1      31.025  28.795  23.244  1.00  0.00    -0.027 A 
ATOM     12  C   UNL A   1      30.864  29.266  24.552  1.00  0.00     0.006 A 
ATOM     13  C   UNL A   1      29.845  28.910  22.329  1.00  0.00     0.046 C 
ATOM     14  C   UNL A   1      31.884  29.070  25.466  1.00  0.00     0.016 A 
BRANCH   9  15
ATOM     15  N   UNL A   1      32.234  27.219  21.823  1.00  0.00    -0.322 N 
ATOM     16  C   UNL A   1      32.858  25.987  21.712  1.00  0.00     0.259 C 
ATOM     17  O   UNL A   1      33.169  25.634  20.571  1.00  0.00    -0.269 OA
ATOM     18  H   UNL A   1      31.761  27.537  21.020  1.00  0.00     0.170 HD
BRANCH  16  19
ATOM     19  C   UNL A   1      33.052  25.009  22.856  1.00  0.00     0.082 A 
ATOM     20  C   UNL A   1      32.057  24.493  23.704  1.00  0.00     0.132 A 
ATOM     21  C   UNL A   1      32.332  23.444  24.604  1.00  0.00     0.056 A 
ATOM     22  C   UNL A   1      33.593  22.846  24.651  1.00  0.00    -0.015 A 
ATOM     23  C   UNL A   1      34.330  24.423  22.944  1.00  0.00     0.026 A 
ATOM     24  C   UNL A   1      33.875  21.794  25.536  1.00  0.00     0.009 A 
ATOM     25  C   UNL A   1      34.607  23.342  23.808  1.00  0.00    -0.017 A 
ATOM     26  C   UNL A   1      35.147  21.230  25.583  1.00  0.00     0.001 A 
ATOM     27  C   UNL A   1      35.874  22.742  23.849  1.00  0.00     0.009 A 
ATOM     28  C   UNL A   1      36.137  21.686  24.723  1.00  0.00     0.001 A 
BRANCH  20  29
ATOM     29  O   UNL A   1      30.805  25.029  23.789  1.00  0.00    -0.496 OA
ATOM     30  C   UNL A   1      30.499  25.476  25.102  1.00  0.00     0.278 C 
ENDBRANCH  20  29
ENDBRANCH  16  19
ENDBRANCH   9  15
ENDBRANCH   6   8
ENDBRANCH   5   6
ENDBRANCH   4   5
ENDBRANCH   3   4
ENDBRANCH   2   3
ENDBRANCH   1   2
BRANCH   1  31
ATOM     31  C   UNL A   1      34.264  34.751  29.117  1.00  0.00     0.188 C 
BRANCH  31  32
ATOM     32  O   UNL A   1      33.080  34.742  29.901  1.00  0.00    -0.376 OA
BRANCH  32  33
ATOM     33  C   UNL A   1      32.836  35.918  30.663  1.00  0.00     0.202 C 
BRANCH  33  34
ATOM     34  C   UNL A   1      32.849  35.797  32.219  1.00  0.00     0.261 C 
BRANCH  34  35
ATOM     35  O   UNL A   1      33.452  34.578  32.716  1.00  0.00    -0.460 OA
BRANCH  35  36
ATOM     36  C   UNL A   1      34.796  34.596  33.057  1.00  0.00     0.338 C 
ATOM     37  O   UNL A   1      35.442  35.561  33.285  1.00  0.00    -0.246 OA
BRANCH  36  38
ATOM     38  C   UNL A   1      35.269  33.171  33.040  1.00  0.00     0.060 A 
ATOM     39  C   UNL A   1      36.262  32.659  33.849  1.00  0.00     0.016 A 
ATOM     40  C   UNL A   1      34.860  32.345  32.048  1.00  0.00     0.016 A 
ATOM     41  C   UNL A   1      37.107  31.607  33.363  1.00  0.00     0.010 A 
ATOM     42  C   UNL A   1      35.794  31.406  31.561  1.00  0.00     0.010 A 
ATOM     43  C   UNL A   1      37.087  31.135  32.050  1.00  0.00    -0.014 A 
BRANCH  43  44
ATOM     44  C   UNL A   1      38.449  30.489  31.310  1.00  0.00     0.031 A 
ATOM     45  C   UNL A   1      38.862  29.041  30.602  1.00  0.00     0.074 A 
ATOM     46  C   UNL A   1      39.392  31.413  31.019  1.00  0.00     0.049 A 
ATOM     47  N   UNL A   1      39.268  28.900  29.346  1.00  0.00    -0.248 NA
ATOM     48  C   UNL A   1      38.855  27.679  31.216  1.00  0.00     0.031 C 
ATOM     49  C   UNL A   1      40.588  31.298  30.190  1.00  0.00     0.029 A 
ATOM     50  N   UNL A   1      39.557  32.641  31.639  1.00  0.00    -0.354 N 
ATOM     51  C   UNL A   1      39.392  27.535  29.034  1.00  0.00     0.074 A 
ATOM     52  C   UNL A   1      38.839  26.846  30.176  1.00  0.00     0.031 C 
ATOM     53  C   UNL A   1      41.462  32.248  30.562  1.00  0.00     0.029 A 
ATOM     54  C   UNL A   1      40.922  32.882  31.750  1.00  0.00     0.049 A 
ATOM     55  H   UNL A   1      38.836  33.236  31.947  1.00  0.00     0.167 HD
ATOM     56  C   UNL A   1      40.498  26.903  28.537  1.00  0.00     0.034 A 
ATOM     57  C   UNL A   1      41.475  32.789  32.998  1.00  0.00     0.034 A 
ATOM     58  C   UNL A   1      41.736  27.460  29.085  1.00  0.00     0.049 A 
ATOM     59  C   UNL A   1      42.371  31.564  33.146  1.00  0.00     0.074 A 
ATOM     60  C   UNL A   1      42.730  28.266  28.576  1.00  0.00     0.029 A 
ATOM     61  N   UNL A   1      41.988  27.365  30.466  1.00  0.00    -0.354 N 
ATOM     62  N   UNL A   1      42.430  30.548  32.320  1.00  0.00    -0.248 NA
ATOM     63  C   UNL A   1      43.312  31.441  34.250  1.00  0.00     0.031 C 
ATOM     64  C   UNL A   1      43.497  28.759  29.673  1.00  0.00     0.029 A 
ATOM     65  C   UNL A   1      43.022  28.206  30.856  1.00  0.00     0.049 A 
ATOM     66  H   UNL A   1      41.493  26.774  31.079  1.00  0.00     0.167 HD
ATOM     67  C   UNL A   1      43.301  29.605  32.807  1.00  0.00     0.074 A 
ATOM     68  C   UNL A   1      43.886  30.261  33.970  1.00  0.00     0.031 C 
ATOM     69  C   UNL A   1      43.457  28.351  32.258  1.00  0.00     0.034 A 
BRANCH  56  70
ATOM     70  C   UNL A   1      40.347  25.564  27.771  1.00  0.00     0.023 A 
ATOM     71  C   UNL A   1      39.055  25.125  27.411  1.00  0.00     0.012 A 
ATOM     72  C   UNL A   1      41.419  24.678  27.422  1.00  0.00     0.148 A 
ATOM     73  C   UNL A   1      38.833  23.909  26.733  1.00  0.00     0.002 A 
ATOM     74  C   UNL A   1      41.199  23.498  26.685  1.00  0.00     0.091 A 
ATOM     75  F   UNL A   1      42.664  24.954  27.839  1.00  0.00    -0.205 F 
ATOM     76  C   UNL A   1      39.902  23.105  26.350  1.00  0.00     0.022 A 
BRANCH  74  77
ATOM     77  S   UNL A   1      42.550  22.494  26.014  1.00  0.00     0.127 S 
ATOM     78  O   UNL A   1      43.053  23.331  24.926  1.00  0.00    -0.237 OA
ATOM     79  O   UNL A   1      43.461  22.375  27.154  1.00  0.00    -0.237 OA
ATOM     80  O   UNL A   1      41.938  21.233  25.613  1.00  0.00    -0.744 OA
ENDBRANCH  74  77
ENDBRANCH  56  70
BRANCH  57  81
ATOM     81  C   UNL A   1      40.619  33.409  34.083  1.00  0.00     0.023 A 
ATOM     82  C   UNL A   1      39.984  34.642  33.759  1.00  0.00     0.012 A 
ATOM     83  C   UNL A   1      40.165  32.719  35.223  1.00  0.00     0.148 A 
ATOM     84  C   UNL A   1      38.842  35.082  34.430  1.00  0.00     0.002 A 
ATOM     85  C   UNL A   1      39.025  33.173  35.903  1.00  0.00     0.091 A 
ATOM     86  F   UNL A   1      40.789  31.595  35.598  1.00  0.00    -0.205 F 
ATOM     87  C   UNL A   1      38.353  34.338  35.494  1.00  0.00     0.022 A 
BRANCH  85  88
ATOM     88  S   UNL A   1      38.224  32.157  37.162  1.00  0.00     0.127 S 
ATOM     89  O   UNL A   1      39.114  32.309  38.318  1.00  0.00    -0.237 OA
ATOM     90  O   UNL A   1      36.911  32.767  37.348  1.00  0.00    -0.237 OA
ATOM     91  O   UNL A   1      38.248  30.844  36.542  1.00  0.00    -0.744 OA
ENDBRANCH  85  88
ENDBRANCH  57  81
BRANCH  69  92
ATOM     92  C   UNL A   1      44.177  27.214  33.004  1.00  0.00     0.023 A 
ATOM     93  C   UNL A   1      45.574  27.021  32.884  1.00  0.00     0.012 A 
ATOM     94  C   UNL A   1      43.522  26.345  33.915  1.00  0.00     0.148 A 
ATOM     95  C   UNL A   1      46.254  25.941  33.454  1.00  0.00     0.002 A 
ATOM     96  C   UNL A   1      44.226  25.330  34.578  1.00  0.00     0.091 A 
ATOM     97  F   UNL A   1      42.215  26.511  34.158  1.00  0.00    -0.205 F 
ATOM     98  C   UNL A   1      45.577  25.092  34.305  1.00  0.00     0.022 A 
BRANCH  96  99
ATOM     99  S   UNL A   1      43.524  24.330  35.900  1.00  0.00     0.127 S 
ATOM    100  O   UNL A   1      42.269  23.879  35.301  1.00  0.00    -0.237 OA
ATOM    101  O   UNL A   1      44.536  23.284  36.055  1.00  0.00    -0.237 OA
ATOM    102  O   UNL A   1      43.385  25.220  37.042  1.00  0.00    -0.744 OA
ENDBRANCH  96  99
ENDBRANCH  69  92
ENDBRANCH  43  44
ENDBRANCH  36  38
ENDBRANCH  35  36
ENDBRANCH  34  35
ENDBRANCH  33  34
ENDBRANCH  32  33
ENDBRANCH  31  32
ENDBRANCH   1  31
TORSDOF 23
ENDMDL
MODEL 2
REMARK VINA RESULT:     -11.9      1.772      2.228
REMARK SMILES COc1cc2ccccc2cc1C(=O)Nc1cc(C(=O)OCCOCCOCCOC(=O)c2ccc(-c3c4nc(c(-c5cccc(S(=O)(=O)[O-])c5F)c5ccc([nH]5)c(-c5cccc(S(=O)(=O)[O-])c5F)c5nc(c(-c6cccc(S(=O)(=O)[O-])c6F)c6ccc3[nH]6)C=C5)C=C4)cc2)ccc1C
REMARK SMILES IDX 25 1 24 2 23 3 22 4 21 5 19 6 20 7 18 8 16 9 17 10 98 11
REMARK SMILES IDX 97 12 99 13 96 14 15 15 13 16 14 17 12 19 3 20 4 21 5 22
REMARK SMILES IDX 11 23 6 24 10 25 7 26 9 27 8 28 2 29 1 30 26 31 27 32 28 33
REMARK SMILES IDX 29 34 30 35 31 36 32 37 33 38 34 39 95 40 35 41 94 42 36 43
REMARK SMILES IDX 37 44 38 45 88 46 39 47 93 48 87 49 89 50 40 51 92 52 86 53
REMARK SMILES IDX 85 54 41 56 73 57 53 58 72 59 54 60 57 61 71 62 90 63 55 64
REMARK SMILES IDX 56 65 70 67 91 68 58 69 42 70 43 71 51 72 44 73 46 74 52 75
REMARK SMILES IDX 45 76 47 77 48 78 49 79 50 80 74 81 75 82 83 83 76 84 78 85
REMARK SMILES IDX 84 86 77 87 79 88 80 89 81 90 82 91 59 92 60 93 68 94 61 95
REMARK SMILES IDX 63 96 69 97 62 98 64 99 65 100 66 101 67 102
REMARK H PARENT 15 18 89 55 57 66
REMARK Flexibility Score: inf
ROOT
ATOM      1  C   UNL A   1      34.918  33.378  28.494  1.00  0.00     0.188 C 
ENDROOT
BRANCH   1   2
ATOM      2  O   UNL A   1      34.594  32.033  28.768  1.00  0.00    -0.376 OA
BRANCH   2   3
ATOM      3  C   UNL A   1      34.887  31.250  27.578  1.00  0.00     0.202 C 
BRANCH   3   4
ATOM      4  C   UNL A   1      35.012  29.677  27.846  1.00  0.00     0.261 C 
BRANCH   4   5
ATOM      5  O   UNL A   1      34.763  28.440  26.941  1.00  0.00    -0.460 OA
BRANCH   5   6
ATOM      6  C   UNL A   1      33.787  27.785  26.235  1.00  0.00     0.338 C 
ATOM      7  O   UNL A   1      33.262  26.690  26.361  1.00  0.00    -0.246 OA
BRANCH   6   8
ATOM      8  C   UNL A   1      33.081  28.502  25.203  1.00  0.00     0.062 A 
ATOM      9  C   UNL A   1      32.350  28.262  22.989  1.00  0.00     0.045 A 
ATOM     10  C   UNL A   1      33.341  28.076  23.933  1.00  0.00     0.042 A 
ATOM     11  C   UNL A   1      31.230  29.095  23.229  1.00  0.00    -0.027 A 
ATOM     12  C   UNL A   1      30.984  29.522  24.539  1.00  0.00     0.006 A 
ATOM     13  C   UNL A   1      30.165  29.366  22.213  1.00  0.00     0.046 C 
ATOM     14  C   UNL A   1      31.885  29.186  25.535  1.00  0.00     0.016 A 
BRANCH   9  15
ATOM     15  N   UNL A   1      32.421  27.471  21.848  1.00  0.00    -0.322 N 
ATOM     16  C   UNL A   1      32.749  26.127  21.763  1.00  0.00     0.259 C 
ATOM     17  O   UNL A   1      33.198  25.743  20.680  1.00  0.00    -0.269 OA
ATOM     18  H   UNL A   1      32.214  27.919  20.996  1.00  0.00     0.170 HD
BRANCH  16  19
ATOM     19  C   UNL A   1      32.466  25.097  22.841  1.00  0.00     0.082 A 
ATOM     20  C   UNL A   1      31.243  24.874  23.496  1.00  0.00     0.132 A 
ATOM     21  C   UNL A   1      31.055  23.761  24.339  1.00  0.00     0.056 A 
ATOM     22  C   UNL A   1      32.064  22.812  24.516  1.00  0.00    -0.015 A 
ATOM     23  C   UNL A   1      33.488  24.154  23.062  1.00  0.00     0.026 A 
ATOM     24  C   UNL A   1      31.883  21.694  25.345  1.00  0.00     0.009 A 
ATOM     25  C   UNL A   1      33.298  23.010  23.867  1.00  0.00    -0.017 A 
ATOM     26  C   UNL A   1      32.912  20.774  25.527  1.00  0.00     0.001 A 
ATOM     27  C   UNL A   1      34.313  22.057  24.040  1.00  0.00     0.009 A 
ATOM     28  C   UNL A   1      34.115  20.942  24.855  1.00  0.00     0.001 A 
BRANCH  20  29
ATOM     29  O   UNL A   1      30.203  25.757  23.445  1.00  0.00    -0.496 OA
ATOM     30  C   UNL A   1      29.682  26.049  24.734  1.00  0.00     0.278 C 
ENDBRANCH  20  29
ENDBRANCH  16  19
ENDBRANCH   9  15
ENDBRANCH   6   8
ENDBRANCH   5   6
ENDBRANCH   4   5
ENDBRANCH   3   4
ENDBRANCH   2   3
ENDBRANCH   1   2
BRANCH   1  31
ATOM     31  C   UNL A   1      34.542  34.377  29.564  1.00  0.00     0.188 C 
BRANCH  31  32
ATOM     32  O   UNL A   1      33.160  34.636  29.760  1.00  0.00    -0.376 OA
BRANCH  32  33
ATOM     33  C   UNL A   1      32.840  35.929  30.258  1.00  0.00     0.202 C 
BRANCH  33  34
ATOM     34  C   UNL A   1      32.394  36.048  31.749  1.00  0.00     0.261 C 
BRANCH  34  35
ATOM     35  O   UNL A   1      32.968  35.047  32.624  1.00  0.00    -0.460 OA
BRANCH  35  36
ATOM     36  C   UNL A   1      34.239  35.263  33.133  1.00  0.00     0.338 C 
ATOM     37  O   UNL A   1      34.773  36.313  33.244  1.00  0.00    -0.246 OA
BRANCH  36  38
ATOM     38  C   UNL A   1      34.808  33.916  33.472  1.00  0.00     0.060 A 
ATOM     39  C   UNL A   1      35.774  33.684  34.429  1.00  0.00     0.016 A 
ATOM     40  C   UNL A   1      34.527  32.855  32.678  1.00  0.00     0.016 A 
ATOM     41  C   UNL A   1      36.720  32.623  34.246  1.00  0.00     0.010 A 
ATOM     42  C   UNL A   1      35.554  31.909  32.473  1.00  0.00     0.010 A 
ATOM     43  C   UNL A   1      36.825  31.865  33.079  1.00  0.00    -0.014 A 
BRANCH  43  44
ATOM     44  C   UNL A   1      38.277  31.182  32.583  1.00  0.00     0.031 A 
ATOM     45  C   UNL A   1      38.743  29.829  31.733  1.00  0.00     0.074 A 
ATOM     46  C   UNL A   1      39.334  32.014  32.711  1.00  0.00     0.049 A 
ATOM     47  N   UNL A   1      39.450  29.846  30.610  1.00  0.00    -0.248 NA
ATOM     48  C   UNL A   1      38.466  28.397  32.055  1.00  0.00     0.031 C 
ATOM     49  C   UNL A   1      40.692  31.887  32.191  1.00  0.00     0.029 A 
ATOM     50  N   UNL A   1      39.430  33.093  33.576  1.00  0.00    -0.354 N 
ATOM     51  C   UNL A   1      39.541  28.546  30.082  1.00  0.00     0.074 A 
ATOM     52  C   UNL A   1      38.656  27.755  30.903  1.00  0.00     0.031 C 
ATOM     53  C   UNL A   1      41.512  32.644  32.939  1.00  0.00     0.029 A 
ATOM     54  C   UNL A   1      40.733  33.137  34.059  1.00  0.00     0.049 A 
ATOM     55  H   UNL A   1      38.703  33.715  33.807  1.00  0.00     0.167 HD
ATOM     56  C   UNL A   1      40.685  27.869  29.757  1.00  0.00     0.034 A 
ATOM     57  C   UNL A   1      40.930  32.771  35.363  1.00  0.00     0.034 A 
ATOM     58  C   UNL A   1      41.776  28.168  30.686  1.00  0.00     0.049 A 
ATOM     59  C   UNL A   1      41.655  31.436  35.486  1.00  0.00     0.074 A 
ATOM     60  C   UNL A   1      42.931  28.914  30.597  1.00  0.00     0.029 A 
ATOM     61  N   UNL A   1      41.650  27.816  32.042  1.00  0.00    -0.354 N 
ATOM     62  N   UNL A   1      41.847  30.569  34.521  1.00  0.00    -0.248 NA
ATOM     63  C   UNL A   1      42.262  31.015  36.742  1.00  0.00     0.031 C 
ATOM     64  C   UNL A   1      43.421  29.119  31.921  1.00  0.00     0.029 A 
ATOM     65  C   UNL A   1      42.610  28.444  32.825  1.00  0.00     0.049 A 
ATOM     66  H   UNL A   1      40.967  27.201  32.392  1.00  0.00     0.167 HD
ATOM     67  C   UNL A   1      42.480  29.457  35.016  1.00  0.00     0.074 A 
ATOM     68  C   UNL A   1      42.791  29.834  36.389  1.00  0.00     0.031 C 
ATOM     69  C   UNL A   1      42.674  28.300  34.292  1.00  0.00     0.034 A 
BRANCH  56  70
ATOM     70  C   UNL A   1      40.632  26.705  28.737  1.00  0.00     0.023 A 
ATOM     71  C   UNL A   1      39.401  26.387  28.126  1.00  0.00     0.012 A 
ATOM     72  C   UNL A   1      41.735  25.863  28.375  1.00  0.00     0.148 A 
ATOM     73  C   UNL A   1      39.266  25.328  27.204  1.00  0.00     0.002 A 
ATOM     74  C   UNL A   1      41.611  24.852  27.403  1.00  0.00     0.091 A 
ATOM     75  F   UNL A   1      42.911  26.012  29.003  1.00  0.00    -0.205 F 
ATOM     76  C   UNL A   1      40.372  24.574  26.825  1.00  0.00     0.022 A 
BRANCH  74  77
ATOM     77  S   UNL A   1      43.035  23.945  26.744  1.00  0.00     0.127 S 
ATOM     78  O   UNL A   1      43.544  24.859  25.722  1.00  0.00    -0.237 OA
ATOM     79  O   UNL A   1      43.902  23.807  27.916  1.00  0.00    -0.237 OA
ATOM     80  O   UNL A   1      42.501  22.681  26.253  1.00  0.00    -0.744 OA
ENDBRANCH  74  77
ENDBRANCH  56  70
BRANCH  57  81
ATOM     81  C   UNL A   1      39.874  33.308  36.305  1.00  0.00     0.023 A 
ATOM     82  C   UNL A   1      38.868  32.387  36.717  1.00  0.00     0.012 A 
ATOM     83  C   UNL A   1      39.997  34.509  37.028  1.00  0.00     0.148 A 
ATOM     84  C   UNL A   1      38.138  32.570  37.893  1.00  0.00     0.002 A 
ATOM     85  C   UNL A   1      39.249  34.695  38.201  1.00  0.00     0.091 A 
ATOM     86  F   UNL A   1      40.881  35.429  36.622  1.00  0.00    -0.205 F 
ATOM     87  C   UNL A   1      38.340  33.719  38.644  1.00  0.00     0.022 A 
BRANCH  85  88
ATOM     88  S   UNL A   1      39.603  36.063  39.325  1.00  0.00     0.127 S 
ATOM     89  O   UNL A   1      38.711  35.792  40.458  1.00  0.00    -0.237 OA
ATOM     90  O   UNL A   1      41.020  35.921  39.646  1.00  0.00    -0.237 OA
ATOM     91  O   UNL A   1      39.232  37.213  38.518  1.00  0.00    -0.744 OA
ENDBRANCH  85  88
ENDBRANCH  57  81
BRANCH  69  92
ATOM     92  C   UNL A   1      43.079  26.975  34.959  1.00  0.00     0.023 A 
ATOM     93  C   UNL A   1      42.114  25.996  35.300  1.00  0.00     0.012 A 
ATOM     94  C   UNL A   1      44.427  26.606  35.200  1.00  0.00     0.148 A 
ATOM     95  C   UNL A   1      42.420  24.827  36.003  1.00  0.00     0.002 A 
ATOM     96  C   UNL A   1      44.744  25.380  35.802  1.00  0.00     0.091 A 
ATOM     97  F   UNL A   1      45.412  27.435  34.828  1.00  0.00    -0.205 F 
ATOM     98  C   UNL A   1      43.740  24.518  36.255  1.00  0.00     0.022 A 
BRANCH  96  99
ATOM     99  S   UNL A   1      46.422  24.746  35.948  1.00  0.00     0.127 S 
ATOM    100  O   UNL A   1      46.968  25.032  34.622  1.00  0.00    -0.237 OA
ATOM    101  O   UNL A   1      46.965  25.576  37.023  1.00  0.00    -0.237 OA
ATOM    102  O   UNL A   1      46.288  23.335  36.275  1.00  0.00    -0.744 OA
ENDBRANCH  96  99
ENDBRANCH  69  92
ENDBRANCH  43  44
ENDBRANCH  36  38
ENDBRANCH  35  36
ENDBRANCH  34  35
ENDBRANCH  33  34
ENDBRANCH  32  33
ENDBRANCH  31  32
ENDBRANCH   1  31
TORSDOF 23
ENDMDL
MODEL 3
REMARK VINA RESULT:     -11.6      2.705      4.252
REMARK SMILES COc1cc2ccccc2cc1C(=O)Nc1cc(C(=O)OCCOCCOCCOC(=O)c2ccc(-c3c4nc(c(-c5cccc(S(=O)(=O)[O-])c5F)c5ccc([nH]5)c(-c5cccc(S(=O)(=O)[O-])c5F)c5nc(c(-c6cccc(S(=O)(=O)[O-])c6F)c6ccc3[nH]6)C=C5)C=C4)cc2)ccc1C
REMARK SMILES IDX 25 1 24 2 23 3 22 4 21 5 19 6 20 7 18 8 16 9 17 10 98 11
REMARK SMILES IDX 97 12 99 13 96 14 15 15 13 16 14 17 12 19 3 20 4 21 5 22
REMARK SMILES IDX 11 23 6 24 10 25 7 26 9 27 8 28 2 29 1 30 26 31 27 32 28 33
REMARK SMILES IDX 29 34 30 35 31 36 32 37 33 38 34 39 95 40 35 41 94 42 36 43
REMARK SMILES IDX 37 44 38 45 88 46 39 47 93 48 87 49 89 50 40 51 92 52 86 53
REMARK SMILES IDX 85 54 41 56 73 57 53 58 72 59 54 60 57 61 71 62 90 63 55 64
REMARK SMILES IDX 56 65 70 67 91 68 58 69 42 70 43 71 51 72 44 73 46 74 52 75
REMARK SMILES IDX 45 76 47 77 48 78 49 79 50 80 74 81 75 82 83 83 76 84 78 85
REMARK SMILES IDX 84 86 77 87 79 88 80 89 81 90 82 91 59 92 60 93 68 94 61 95
REMARK SMILES IDX 63 96 69 97 62 98 64 99 65 100 66 101 67 102
REMARK H PARENT 15 18 89 55 57 66
REMARK Flexibility Score: inf
ROOT
ATOM      1  C   UNL A   1      33.686  31.126  27.837  1.00  0.00     0.188 C 
ENDROOT
BRANCH   1   2
ATOM      2  O   UNL A   1      33.596  30.543  26.556  1.00  0.00    -0.376 OA
BRANCH   2   3
ATOM      3  C   UNL A   1      32.226  30.095  26.363  1.00  0.00     0.202 C 
BRANCH   3   4
ATOM      4  C   UNL A   1      31.960  28.588  26.834  1.00  0.00     0.261 C 
BRANCH   4   5
ATOM      5  O   UNL A   1      31.453  27.331  26.076  1.00  0.00    -0.460 OA
BRANCH   5   6
ATOM      6  C   UNL A   1      31.568  26.655  24.888  1.00  0.00     0.338 C 
ATOM      7  O   UNL A   1      30.819  26.519  23.933  1.00  0.00    -0.246 OA
BRANCH   6   8
ATOM      8  C   UNL A   1      32.840  26.068  24.546  1.00  0.00     0.062 A 
ATOM      9  C   UNL A   1      34.394  24.500  25.330  1.00  0.00     0.045 A 
ATOM     10  C   UNL A   1      33.526  25.539  25.600  1.00  0.00     0.042 A 
ATOM     11  C   UNL A   1      34.782  24.168  24.009  1.00  0.00    -0.027 A 
ATOM     12  C   UNL A   1      34.066  24.725  22.943  1.00  0.00     0.006 A 
ATOM     13  C   UNL A   1      35.764  23.087  23.680  1.00  0.00     0.046 C 
ATOM     14  C   UNL A   1      33.063  25.639  23.214  1.00  0.00     0.016 A 
BRANCH   9  15
ATOM     15  N   UNL A   1      34.752  23.693  26.405  1.00  0.00    -0.322 N 
ATOM     16  C   UNL A   1      34.169  22.501  26.805  1.00  0.00     0.259 C 
ATOM     17  O   UNL A   1      34.311  22.196  27.992  1.00  0.00    -0.269 OA
ATOM     18  H   UNL A   1      35.511  24.006  26.948  1.00  0.00     0.170 HD
BRANCH  16  19
ATOM     19  C   UNL A   1      33.508  21.504  25.870  1.00  0.00     0.082 A 
ATOM     20  C   UNL A   1      32.388  21.727  25.052  1.00  0.00     0.132 A 
ATOM     21  C   UNL A   1      31.985  20.785  24.086  1.00  0.00     0.056 A 
ATOM     22  C   UNL A   1      32.716  19.614  23.873  1.00  0.00    -0.015 A 
ATOM     23  C   UNL A   1      34.210  20.300  25.673  1.00  0.00     0.026 A 
ATOM     24  C   UNL A   1      32.330  18.673  22.905  1.00  0.00     0.009 A 
ATOM     25  C   UNL A   1      33.846  19.368  24.678  1.00  0.00    -0.017 A 
ATOM     26  C   UNL A   1      33.060  17.500  22.728  1.00  0.00     0.001 A 
ATOM     27  C   UNL A   1      34.584  18.195  24.464  1.00  0.00     0.009 A 
ATOM     28  C   UNL A   1      34.199  17.274  23.489  1.00  0.00     0.001 A 
BRANCH  20  29
ATOM     29  O   UNL A   1      31.564  22.806  25.203  1.00  0.00    -0.496 OA
ATOM     30  C   UNL A   1      30.615  22.616  26.243  1.00  0.00     0.278 C 
ENDBRANCH  20  29
ENDBRANCH  16  19
ENDBRANCH   9  15
ENDBRANCH   6   8
ENDBRANCH   5   6
ENDBRANCH   4   5
ENDBRANCH   3   4
ENDBRANCH   2   3
ENDBRANCH   1   2
BRANCH   1  31
ATOM     31  C   UNL A   1      33.722  32.637  27.872  1.00  0.00     0.188 C 
BRANCH  31  32
ATOM     32  O   UNL A   1      34.956  33.268  27.565  1.00  0.00    -0.376 OA
BRANCH  32  33
ATOM     33  C   UNL A   1      35.341  34.324  28.437  1.00  0.00     0.202 C 
BRANCH  33  34
ATOM     34  C   UNL A   1      36.219  33.964  29.677  1.00  0.00     0.261 C 
BRANCH  34  35
ATOM     35  O   UNL A   1      36.916  32.699  29.567  1.00  0.00    -0.460 OA
BRANCH  35  36
ATOM     36  C   UNL A   1      36.449  31.621  30.302  1.00  0.00     0.338 C 
ATOM     37  O   UNL A   1      35.827  31.683  31.307  1.00  0.00    -0.246 OA
BRANCH  36  38
ATOM     38  C   UNL A   1      36.917  30.379  29.600  1.00  0.00     0.060 A 
ATOM     39  C   UNL A   1      37.090  29.150  30.201  1.00  0.00     0.016 A 
ATOM     40  C   UNL A   1      37.400  30.470  28.338  1.00  0.00     0.016 A 
ATOM     41  C   UNL A   1      38.117  28.266  29.735  1.00  0.00     0.010 A 
ATOM     42  C   UNL A   1      38.481  29.629  27.997  1.00  0.00     0.010 A 
ATOM     43  C   UNL A   1      39.070  28.615  28.776  1.00  0.00    -0.014 A 
BRANCH  43  44
ATOM     44  C   UNL A   1      40.606  27.936  28.753  1.00  0.00     0.031 A 
ATOM     45  C   UNL A   1      41.272  26.480  28.299  1.00  0.00     0.074 A 
ATOM     46  C   UNL A   1      41.595  28.836  28.952  1.00  0.00     0.049 A 
ATOM     47  N   UNL A   1      42.217  26.334  27.378  1.00  0.00    -0.248 NA
ATOM     48  C   UNL A   1      40.949  25.117  28.817  1.00  0.00     0.031 C 
ATOM     49  C   UNL A   1      43.037  28.694  28.780  1.00  0.00     0.029 A 
ATOM     50  N   UNL A   1      41.475  30.057  29.596  1.00  0.00    -0.354 N 
ATOM     51  C   UNL A   1      42.444  24.966  27.140  1.00  0.00     0.074 A 
ATOM     52  C   UNL A   1      41.406  24.289  27.878  1.00  0.00     0.031 C 
ATOM     53  C   UNL A   1      43.654  29.618  29.534  1.00  0.00     0.029 A 
ATOM     54  C   UNL A   1      42.633  30.262  30.339  1.00  0.00     0.049 A 
ATOM     55  H   UNL A   1      40.706  30.669  29.539  1.00  0.00     0.167 HD
ATOM     56  C   UNL A   1      43.641  24.308  27.211  1.00  0.00     0.034 A 
ATOM     57  C   UNL A   1      42.532  30.150  31.699  1.00  0.00     0.034 A 
ATOM     58  C   UNL A   1      44.487  24.830  28.284  1.00  0.00     0.049 A 
ATOM     59  C   UNL A   1      43.228  28.902  32.231  1.00  0.00     0.074 A 
ATOM     60  C   UNL A   1      45.622  25.612  28.314  1.00  0.00     0.029 A 
ATOM     61  N   UNL A   1      44.060  24.724  29.620  1.00  0.00    -0.354 N 
ATOM     62  N   UNL A   1      43.647  27.887  31.514  1.00  0.00    -0.248 NA
ATOM     63  C   UNL A   1      43.538  28.750  33.646  1.00  0.00     0.031 C 
ATOM     64  C   UNL A   1      45.793  26.081  29.650  1.00  0.00     0.029 A 
ATOM     65  C   UNL A   1      44.807  25.536  30.463  1.00  0.00     0.049 A 
ATOM     66  H   UNL A   1      43.323  24.144  29.920  1.00  0.00     0.167 HD
ATOM     67  C   UNL A   1      44.166  26.921  32.338  1.00  0.00     0.074 A 
ATOM     68  C   UNL A   1      44.151  27.557  33.649  1.00  0.00     0.031 C 
ATOM     69  C   UNL A   1      44.536  25.665  31.907  1.00  0.00     0.034 A 
BRANCH  56  70
ATOM     70  C   UNL A   1      43.839  22.976  26.443  1.00  0.00     0.023 A 
ATOM     71  C   UNL A   1      44.832  22.905  25.444  1.00  0.00     0.012 A 
ATOM     72  C   UNL A   1      43.058  21.787  26.622  1.00  0.00     0.148 A 
ATOM     73  C   UNL A   1      45.058  21.737  24.686  1.00  0.00     0.002 A 
ATOM     74  C   UNL A   1      43.332  20.603  25.912  1.00  0.00     0.091 A 
ATOM     75  F   UNL A   1      42.010  21.808  27.460  1.00  0.00    -0.205 F 
ATOM     76  C   UNL A   1      44.326  20.580  24.933  1.00  0.00     0.022 A 
BRANCH  74  77
ATOM     77  S   UNL A   1      42.534  19.022  26.295  1.00  0.00     0.127 S 
ATOM     78  O   UNL A   1      43.480  18.051  25.748  1.00  0.00    -0.237 OA
ATOM     79  O   UNL A   1      42.465  19.040  27.757  1.00  0.00    -0.237 OA
ATOM     80  O   UNL A   1      41.232  19.073  25.642  1.00  0.00    -0.744 OA
ENDBRANCH  74  77
ENDBRANCH  56  70
BRANCH  57  81
ATOM     81  C   UNL A   1      41.281  30.788  32.265  1.00  0.00     0.023 A 
ATOM     82  C   UNL A   1      40.148  29.937  32.411  1.00  0.00     0.012 A 
ATOM     83  C   UNL A   1      41.259  32.028  32.932  1.00  0.00     0.148 A 
ATOM     84  C   UNL A   1      39.121  30.224  33.312  1.00  0.00     0.002 A 
ATOM     85  C   UNL A   1      40.217  32.318  33.825  1.00  0.00     0.091 A 
ATOM     86  F   UNL A   1      42.274  32.883  32.756  1.00  0.00    -0.205 F 
ATOM     87  C   UNL A   1      39.164  31.410  34.032  1.00  0.00     0.022 A 
BRANCH  85  88
ATOM     88  S   UNL A   1      40.308  33.740  34.934  1.00  0.00     0.127 S 
ATOM     89  O   UNL A   1      40.460  34.867  34.006  1.00  0.00    -0.237 OA
ATOM     90  O   UNL A   1      39.034  33.735  35.647  1.00  0.00    -0.237 OA
ATOM     91  O   UNL A   1      41.492  33.430  35.717  1.00  0.00    -0.744 OA
ENDBRANCH  85  88
ENDBRANCH  57  81
BRANCH  69  92
ATOM     92  C   UNL A   1      44.796  24.507  32.886  1.00  0.00     0.023 A 
ATOM     93  C   UNL A   1      43.852  23.467  33.067  1.00  0.00     0.012 A 
ATOM     94  C   UNL A   1      46.011  24.354  33.603  1.00  0.00     0.148 A 
ATOM     95  C   UNL A   1      43.995  22.455  34.020  1.00  0.00     0.002 A 
ATOM     96  C   UNL A   1      46.202  23.273  34.476  1.00  0.00     0.091 A 
ATOM     97  F   UNL A   1      46.996  25.244  33.427  1.00  0.00    -0.205 F 
ATOM     98  C   UNL A   1      45.175  22.358  34.728  1.00  0.00     0.022 A 
BRANCH  96  99
ATOM     99  S   UNL A   1      47.779  22.888  35.255  1.00  0.00     0.127 S 
ATOM    100  O   UNL A   1      48.266  24.217  35.620  1.00  0.00    -0.237 OA
ATOM    101  O   UNL A   1      47.361  22.060  36.386  1.00  0.00    -0.237 OA
ATOM    102  O   UNL A   1      48.562  22.193  34.245  1.00  0.00    -0.744 OA
ENDBRANCH  96  99
ENDBRANCH  69  92
ENDBRANCH  43  44
ENDBRANCH  36  38
ENDBRANCH  35  36
ENDBRANCH  34  35
ENDBRANCH  33  34
ENDBRANCH  32  33
ENDBRANCH  31  32
ENDBRANCH   1  31
TORSDOF 23
ENDMDL
