MODEL 1
REMARK VINA RESULT:     -10.9      0.000      0.000
REMARK SMILES O=C(OCCOCCOCCOC(=O)[C@@H]1CCCC[C@@H]1C(=O)Nc1cccc(C(F)(F)F)c1)c1ccc(-c2c3nc(c(-c4cccc(S(=O)(=O)[O-])c4F)c4ccc([nH]4)c(-c4cccc(S(=O)(=O)[O-])c4F)c4nc(c(-c5cccc(S(=O)(=O)[O-])c5F)c5ccc2[nH]5)C=C4)C=C3)cc1
REMARK SMILES IDX 7 1 6 2 5 3 4 4 3 5 2 6 1 7 34 8 35 9 96 10 36 11 95 12
REMARK SMILES IDX 37 13 38 14 39 15 89 16 40 17 94 18 88 19 90 20 41 21 93 22
REMARK SMILES IDX 87 23 86 24 42 26 74 27 54 28 73 29 55 30 58 31 72 32 91 33
REMARK SMILES IDX 56 34 57 35 71 37 92 38 59 39 43 40 44 41 52 42 45 43 47 44
REMARK SMILES IDX 53 45 46 46 48 47 49 48 50 49 51 50 75 51 76 52 84 53 77 54
REMARK SMILES IDX 79 55 85 56 78 57 80 58 81 59 82 60 83 61 60 62 61 63 69 64
REMARK SMILES IDX 62 65 64 66 70 67 63 68 65 69 66 70 67 71 68 72 8 73 9 74
REMARK SMILES IDX 10 75 11 76 12 77 13 78 14 79 15 80 16 81 20 82 17 83 19 84
REMARK SMILES IDX 18 85 21 86 22 87 23 88 24 90 25 91 33 92 26 93 28 94 27 95
REMARK SMILES IDX 29 96 30 97 31 98 32 99
REMARK H PARENT 90 25 58 36 23 89
REMARK Flexibility Score: inf
ROOT
ATOM      1  C   UNL A   1      36.616  22.043  25.457  1.00  0.00     0.188 C 
ENDROOT
BRANCH   1   2
ATOM      2  O   UNL A   1      37.214  21.158  24.506  1.00  0.00    -0.376 OA
BRANCH   2   3
ATOM      3  C   UNL A   1      37.197  19.781  24.893  1.00  0.00     0.202 C 
BRANCH   3   4
ATOM      4  C   UNL A   1      38.554  19.184  25.306  1.00  0.00     0.261 C 
BRANCH   4   5
ATOM      5  O   UNL A   1      39.159  19.839  26.433  1.00  0.00    -0.460 OA
BRANCH   5   6
ATOM      6  C   UNL A   1      40.408  20.365  26.535  1.00  0.00     0.338 C 
ATOM      7  O   UNL A   1      41.366  19.633  26.291  1.00  0.00    -0.246 OA
BRANCH   6   8
ATOM      8  C   UNL A   1      40.689  21.780  26.942  1.00  0.00     0.060 A 
ATOM      9  C   UNL A   1      40.126  22.908  26.348  1.00  0.00     0.016 A 
ATOM     10  C   UNL A   1      41.544  21.984  28.039  1.00  0.00     0.016 A 
ATOM     11  C   UNL A   1      40.453  24.193  26.748  1.00  0.00     0.010 A 
ATOM     12  C   UNL A   1      41.852  23.277  28.482  1.00  0.00     0.010 A 
ATOM     13  C   UNL A   1      41.329  24.386  27.807  1.00  0.00    -0.014 A 
BRANCH  13  14
ATOM     14  C   UNL A   1      41.796  25.760  28.047  1.00  0.00     0.031 A 
ATOM     15  C   UNL A   1      43.158  26.125  27.547  1.00  0.00     0.074 A 
ATOM     16  C   UNL A   1      40.963  26.682  28.561  1.00  0.00     0.049 A 
ATOM     17  N   UNL A   1      43.783  27.266  27.622  1.00  0.00    -0.248 NA
ATOM     18  C   UNL A   1      43.902  25.073  26.830  1.00  0.00     0.031 C 
ATOM     19  C   UNL A   1      39.568  26.442  28.928  1.00  0.00     0.029 A 
ATOM     20  N   UNL A   1      41.159  28.001  28.865  1.00  0.00    -0.354 N 
ATOM     21  C   UNL A   1      45.006  27.061  27.000  1.00  0.00     0.074 A 
ATOM     22  C   UNL A   1      45.038  25.690  26.547  1.00  0.00     0.031 C 
ATOM     23  C   UNL A   1      39.053  27.551  29.479  1.00  0.00     0.029 A 
ATOM     24  C   UNL A   1      40.085  28.577  29.503  1.00  0.00     0.049 A 
ATOM     25  H   UNL A   1      41.986  28.489  28.648  1.00  0.00     0.167 HD
ATOM     26  C   UNL A   1      46.011  27.947  26.828  1.00  0.00     0.034 A 
ATOM     27  C   UNL A   1      39.968  29.792  30.066  1.00  0.00     0.034 A 
ATOM     28  C   UNL A   1      45.947  29.300  27.298  1.00  0.00     0.049 A 
ATOM     29  C   UNL A   1      41.135  30.728  29.944  1.00  0.00     0.074 A 
ATOM     30  C   UNL A   1      46.908  30.288  27.216  1.00  0.00     0.029 A 
ATOM     31  N   UNL A   1      44.857  29.848  27.962  1.00  0.00    -0.354 N 
ATOM     32  N   UNL A   1      42.281  30.535  29.334  1.00  0.00    -0.248 NA
ATOM     33  C   UNL A   1      40.988  32.055  30.552  1.00  0.00     0.031 C 
ATOM     34  C   UNL A   1      46.415  31.421  27.873  1.00  0.00     0.029 A 
ATOM     35  C   UNL A   1      45.127  31.155  28.317  1.00  0.00     0.049 A 
ATOM     36  H   UNL A   1      44.015  29.374  28.153  1.00  0.00     0.167 HD
ATOM     37  C   UNL A   1      42.981  31.726  29.453  1.00  0.00     0.074 A 
ATOM     38  C   UNL A   1      42.119  32.639  30.181  1.00  0.00     0.031 C 
ATOM     39  C   UNL A   1      44.224  32.039  29.011  1.00  0.00     0.034 A 
BRANCH  26  40
ATOM     40  C   UNL A   1      47.259  27.444  26.160  1.00  0.00     0.023 A 
ATOM     41  C   UNL A   1      47.443  27.605  24.772  1.00  0.00     0.012 A 
ATOM     42  C   UNL A   1      48.244  26.781  26.916  1.00  0.00     0.148 A 
ATOM     43  C   UNL A   1      48.570  27.076  24.140  1.00  0.00     0.002 A 
ATOM     44  C   UNL A   1      49.385  26.300  26.290  1.00  0.00     0.091 A 
ATOM     45  F   UNL A   1      48.032  26.610  28.229  1.00  0.00    -0.205 F 
ATOM     46  C   UNL A   1      49.544  26.432  24.900  1.00  0.00     0.022 A 
BRANCH  44  47
ATOM     47  S   UNL A   1      50.724  25.511  27.189  1.00  0.00     0.127 S 
ATOM     48  O   UNL A   1      51.705  25.295  26.128  1.00  0.00    -0.237 OA
ATOM     49  O   UNL A   1      51.087  26.542  28.158  1.00  0.00    -0.237 OA
ATOM     50  O   UNL A   1      50.160  24.297  27.769  1.00  0.00    -0.744 OA
ENDBRANCH  44  47
ENDBRANCH  26  40
BRANCH  27  51
ATOM     51  C   UNL A   1      38.727  30.172  30.794  1.00  0.00     0.023 A 
ATOM     52  C   UNL A   1      38.528  29.758  32.124  1.00  0.00     0.012 A 
ATOM     53  C   UNL A   1      37.739  30.955  30.164  1.00  0.00     0.148 A 
ATOM     54  C   UNL A   1      37.352  30.091  32.802  1.00  0.00     0.002 A 
ATOM     55  C   UNL A   1      36.590  31.316  30.857  1.00  0.00     0.091 A 
ATOM     56  F   UNL A   1      37.937  31.328  28.892  1.00  0.00    -0.205 F 
ATOM     57  C   UNL A   1      36.388  30.875  32.173  1.00  0.00     0.022 A 
BRANCH  55  58
ATOM     58  S   UNL A   1      35.354  32.401  30.135  1.00  0.00     0.127 S 
ATOM     59  O   UNL A   1      36.146  33.578  29.799  1.00  0.00    -0.237 OA
ATOM     60  O   UNL A   1      34.888  31.623  28.990  1.00  0.00    -0.237 OA
ATOM     61  O   UNL A   1      34.346  32.580  31.176  1.00  0.00    -0.744 OA
ENDBRANCH  55  58
ENDBRANCH  27  51
BRANCH  39  62
ATOM     62  C   UNL A   1      44.705  33.438  29.266  1.00  0.00     0.023 A 
ATOM     63  C   UNL A   1      45.584  33.699  30.334  1.00  0.00     0.012 A 
ATOM     64  C   UNL A   1      44.346  34.476  28.386  1.00  0.00     0.148 A 
ATOM     65  C   UNL A   1      46.077  34.986  30.540  1.00  0.00     0.002 A 
ATOM     66  C   UNL A   1      44.888  35.741  28.562  1.00  0.00     0.091 A 
ATOM     67  F   UNL A   1      43.491  34.204  27.390  1.00  0.00    -0.205 F 
ATOM     68  C   UNL A   1      45.741  36.001  29.647  1.00  0.00     0.022 A 
BRANCH  66  69
ATOM     69  S   UNL A   1      44.601  37.074  27.396  1.00  0.00     0.127 S 
ATOM     70  O   UNL A   1      43.485  36.549  26.612  1.00  0.00    -0.237 OA
ATOM     71  O   UNL A   1      44.256  38.187  28.282  1.00  0.00    -0.237 OA
ATOM     72  O   UNL A   1      45.850  37.247  26.666  1.00  0.00    -0.744 OA
ENDBRANCH  66  69
ENDBRANCH  39  62
ENDBRANCH  13  14
ENDBRANCH   6   8
ENDBRANCH   5   6
ENDBRANCH   4   5
ENDBRANCH   3   4
ENDBRANCH   2   3
ENDBRANCH   1   2
BRANCH   1  73
ATOM     73  C   UNL A   1      36.512  23.485  24.957  1.00  0.00     0.188 C 
BRANCH  73  74
ATOM     74  O   UNL A   1      36.024  23.673  23.631  1.00  0.00    -0.376 OA
BRANCH  74  75
ATOM     75  C   UNL A   1      34.863  24.479  23.480  1.00  0.00     0.202 C 
BRANCH  75  76
ATOM     76  C   UNL A   1      33.701  23.976  22.604  1.00  0.00     0.261 C 
BRANCH  76  77
ATOM     77  O   UNL A   1      32.375  24.366  23.004  1.00  0.00    -0.463 OA
BRANCH  77  78
ATOM     78  C   UNL A   1      31.741  23.465  23.806  1.00  0.00     0.309 C 
ATOM     79  O   UNL A   1      30.559  23.155  23.679  1.00  0.00    -0.252 OA
BRANCH  78  80
ATOM     80  C   UNL A   1      32.607  22.975  24.968  1.00  0.00     0.111 C 
ATOM     81  C   UNL A   1      32.397  21.541  25.479  1.00  0.00     0.016 C 
ATOM     82  C   UNL A   1      32.483  24.000  26.114  1.00  0.00     0.093 C 
ATOM     83  C   UNL A   1      33.237  21.208  26.724  1.00  0.00     0.001 C 
ATOM     84  C   UNL A   1      33.505  23.656  27.205  1.00  0.00     0.014 C 
ATOM     85  C   UNL A   1      33.231  22.285  27.801  1.00  0.00     0.001 C 
BRANCH  82  86
ATOM     86  C   UNL A   1      31.033  24.097  26.668  1.00  0.00     0.228 C 
ATOM     87  O   UNL A   1      30.522  23.203  27.350  1.00  0.00    -0.274 OA
ATOM     88  N   UNL A   1      30.312  25.254  26.522  1.00  0.00    -0.326 N 
ATOM     89  H   UNL A   1      29.460  25.311  27.012  1.00  0.00     0.169 HD
BRANCH  88  90
ATOM     90  C   UNL A   1      30.663  26.360  25.748  1.00  0.00     0.041 A 
ATOM     91  C   UNL A   1      30.059  26.517  24.504  1.00  0.00     0.026 A 
ATOM     92  C   UNL A   1      31.496  27.353  26.261  1.00  0.00     0.039 A 
ATOM     93  C   UNL A   1      30.152  27.749  23.860  1.00  0.00     0.003 A 
ATOM     94  C   UNL A   1      31.579  28.600  25.638  1.00  0.00     0.058 A 
ATOM     95  C   UNL A   1      30.881  28.794  24.438  1.00  0.00     0.013 A 
BRANCH  94  96
ATOM     96  C   UNL A   1      32.389  29.704  26.269  1.00  0.00     0.416 C 
ATOM     97  F   UNL A   1      31.807  30.924  26.076  1.00  0.00    -0.166 F 
ATOM     98  F   UNL A   1      32.549  29.577  27.606  1.00  0.00    -0.166 F 
ATOM     99  F   UNL A   1      33.644  29.819  25.743  1.00  0.00    -0.166 F 
ENDBRANCH  94  96
ENDBRANCH  88  90
ENDBRANCH  82  86
ENDBRANCH  78  80
ENDBRANCH  77  78
ENDBRANCH  76  77
ENDBRANCH  75  76
ENDBRANCH  74  75
ENDBRANCH  73  74
ENDBRANCH   1  73
TORSDOF 23
ENDMDL
MODEL 2
REMARK VINA RESULT:     -10.0      2.529      7.956
REMARK SMILES O=C(OCCOCCOCCOC(=O)[C@@H]1CCCC[C@@H]1C(=O)Nc1cccc(C(F)(F)F)c1)c1ccc(-c2c3nc(c(-c4cccc(S(=O)(=O)[O-])c4F)c4ccc([nH]4)c(-c4cccc(S(=O)(=O)[O-])c4F)c4nc(c(-c5cccc(S(=O)(=O)[O-])c5F)c5ccc2[nH]5)C=C4)C=C3)cc1
REMARK SMILES IDX 7 1 6 2 5 3 4 4 3 5 2 6 1 7 34 8 35 9 96 10 36 11 95 12
REMARK SMILES IDX 37 13 38 14 39 15 89 16 40 17 94 18 88 19 90 20 41 21 93 22
REMARK SMILES IDX 87 23 86 24 42 26 74 27 54 28 73 29 55 30 58 31 72 32 91 33
REMARK SMILES IDX 56 34 57 35 71 37 92 38 59 39 43 40 44 41 52 42 45 43 47 44
REMARK SMILES IDX 53 45 46 46 48 47 49 48 50 49 51 50 75 51 76 52 84 53 77 54
REMARK SMILES IDX 79 55 85 56 78 57 80 58 81 59 82 60 83 61 60 62 61 63 69 64
REMARK SMILES IDX 62 65 64 66 70 67 63 68 65 69 66 70 67 71 68 72 8 73 9 74
REMARK SMILES IDX 10 75 11 76 12 77 13 78 14 79 15 80 16 81 20 82 17 83 19 84
REMARK SMILES IDX 18 85 21 86 22 87 23 88 24 90 25 91 33 92 26 93 28 94 27 95
REMARK SMILES IDX 29 96 30 97 31 98 32 99
REMARK H PARENT 90 25 58 36 23 89
REMARK Flexibility Score: inf
ROOT
ATOM      1  C   UNL A   1      35.216  23.851  24.741  1.00  0.00     0.188 C 
ENDROOT
BRANCH   1   2
ATOM      2  O   UNL A   1      35.818  22.716  24.109  1.00  0.00    -0.376 OA
BRANCH   2   3
ATOM      3  C   UNL A   1      35.400  21.457  24.644  1.00  0.00     0.202 C 
BRANCH   3   4
ATOM      4  C   UNL A   1      36.465  20.681  25.439  1.00  0.00     0.261 C 
BRANCH   4   5
ATOM      5  O   UNL A   1      37.815  20.975  25.044  1.00  0.00    -0.460 OA
BRANCH   5   6
ATOM      6  C   UNL A   1      38.922  21.072  25.826  1.00  0.00     0.338 C 
ATOM      7  O   UNL A   1      39.492  20.032  26.155  1.00  0.00    -0.246 OA
BRANCH   6   8
ATOM      8  C   UNL A   1      39.485  22.369  26.322  1.00  0.00     0.060 A 
ATOM      9  C   UNL A   1      39.134  23.629  25.839  1.00  0.00     0.016 A 
ATOM     10  C   UNL A   1      40.396  22.317  27.393  1.00  0.00     0.016 A 
ATOM     11  C   UNL A   1      39.717  24.790  26.318  1.00  0.00     0.010 A 
ATOM     12  C   UNL A   1      40.961  23.487  27.916  1.00  0.00     0.010 A 
ATOM     13  C   UNL A   1      40.643  24.726  27.348  1.00  0.00    -0.014 A 
BRANCH  13  14
ATOM     14  C   UNL A   1      41.376  25.962  27.667  1.00  0.00     0.031 A 
ATOM     15  C   UNL A   1      40.665  26.997  28.481  1.00  0.00     0.074 A 
ATOM     16  C   UNL A   1      42.680  26.078  27.363  1.00  0.00     0.049 A 
ATOM     17  N   UNL A   1      41.097  28.152  28.901  1.00  0.00    -0.248 NA
ATOM     18  C   UNL A   1      39.294  26.669  28.914  1.00  0.00     0.031 C 
ATOM     19  C   UNL A   1      43.485  25.047  26.709  1.00  0.00     0.029 A 
ATOM     20  N   UNL A   1      43.561  27.105  27.559  1.00  0.00    -0.354 N 
ATOM     21  C   UNL A   1      40.043  28.706  29.611  1.00  0.00     0.074 A 
ATOM     22  C   UNL A   1      38.950  27.763  29.575  1.00  0.00     0.031 C 
ATOM     23  C   UNL A   1      44.721  25.518  26.487  1.00  0.00     0.029 A 
ATOM     24  C   UNL A   1      44.791  26.884  26.984  1.00  0.00     0.049 A 
ATOM     25  H   UNL A   1      43.338  27.921  28.063  1.00  0.00     0.167 HD
ATOM     26  C   UNL A   1      39.999  29.902  30.238  1.00  0.00     0.034 A 
ATOM     27  C   UNL A   1      45.842  27.712  26.852  1.00  0.00     0.034 A 
ATOM     28  C   UNL A   1      41.102  30.819  30.248  1.00  0.00     0.049 A 
ATOM     29  C   UNL A   1      45.735  29.073  27.475  1.00  0.00     0.074 A 
ATOM     30  C   UNL A   1      41.176  32.074  30.818  1.00  0.00     0.029 A 
ATOM     31  N   UNL A   1      42.326  30.578  29.636  1.00  0.00    -0.354 N 
ATOM     32  N   UNL A   1      44.743  29.582  28.167  1.00  0.00    -0.248 NA
ATOM     33  C   UNL A   1      46.894  29.960  27.335  1.00  0.00     0.031 C 
ATOM     34  C   UNL A   1      42.430  32.612  30.510  1.00  0.00     0.029 A 
ATOM     35  C   UNL A   1      43.157  31.670  29.794  1.00  0.00     0.049 A 
ATOM     36  H   UNL A   1      42.566  29.751  29.159  1.00  0.00     0.167 HD
ATOM     37  C   UNL A   1      45.168  30.837  28.575  1.00  0.00     0.074 A 
ATOM     38  C   UNL A   1      46.516  31.001  28.065  1.00  0.00     0.031 C 
ATOM     39  C   UNL A   1      44.506  31.775  29.298  1.00  0.00     0.034 A 
BRANCH  26  40
ATOM     40  C   UNL A   1      38.703  30.284  30.896  1.00  0.00     0.023 A 
ATOM     41  C   UNL A   1      38.415  29.861  32.209  1.00  0.00     0.012 A 
ATOM     42  C   UNL A   1      37.753  31.045  30.189  1.00  0.00     0.148 A 
ATOM     43  C   UNL A   1      37.182  30.156  32.794  1.00  0.00     0.002 A 
ATOM     44  C   UNL A   1      36.548  31.376  30.794  1.00  0.00     0.091 A 
ATOM     45  F   UNL A   1      38.034  31.408  28.930  1.00  0.00    -0.205 F 
ATOM     46  C   UNL A   1      36.253  30.920  32.090  1.00  0.00     0.022 A 
BRANCH  44  47
ATOM     47  S   UNL A   1      35.314  32.406  29.996  1.00  0.00     0.127 S 
ATOM     48  O   UNL A   1      34.316  32.545  31.054  1.00  0.00    -0.237 OA
ATOM     49  O   UNL A   1      36.074  33.620  29.707  1.00  0.00    -0.237 OA
ATOM     50  O   UNL A   1      34.872  31.666  28.819  1.00  0.00    -0.744 OA
ENDBRANCH  44  47
ENDBRANCH  26  40
BRANCH  27  51
ATOM     51  C   UNL A   1      47.052  27.284  26.099  1.00  0.00     0.023 A 
ATOM     52  C   UNL A   1      48.048  26.518  26.731  1.00  0.00     0.012 A 
ATOM     53  C   UNL A   1      47.214  27.636  24.743  1.00  0.00     0.148 A 
ATOM     54  C   UNL A   1      49.199  26.137  26.034  1.00  0.00     0.002 A 
ATOM     55  C   UNL A   1      48.341  27.219  24.045  1.00  0.00     0.091 A 
ATOM     56  F   UNL A   1      46.262  28.379  24.161  1.00  0.00    -0.205 F 
ATOM     57  C   UNL A   1      49.342  26.479  24.691  1.00  0.00     0.022 A 
BRANCH  55  58
ATOM     58  S   UNL A   1      48.540  27.549  22.291  1.00  0.00     0.127 S 
ATOM     59  O   UNL A   1      47.313  28.272  21.979  1.00  0.00    -0.237 OA
ATOM     60  O   UNL A   1      49.756  28.357  22.262  1.00  0.00    -0.237 OA
ATOM     61  O   UNL A   1      48.688  26.237  21.668  1.00  0.00    -0.744 OA
ENDBRANCH  55  58
ENDBRANCH  27  51
BRANCH  39  62
ATOM     62  C   UNL A   1      45.250  33.040  29.614  1.00  0.00     0.023 A 
ATOM     63  C   UNL A   1      45.180  34.138  28.736  1.00  0.00     0.012 A 
ATOM     64  C   UNL A   1      45.947  33.161  30.831  1.00  0.00     0.148 A 
ATOM     65  C   UNL A   1      45.823  35.334  29.053  1.00  0.00     0.002 A 
ATOM     66  C   UNL A   1      46.533  34.372  31.166  1.00  0.00     0.091 A 
ATOM     67  F   UNL A   1      46.015  32.092  31.638  1.00  0.00    -0.205 F 
ATOM     68  C   UNL A   1      46.485  35.454  30.273  1.00  0.00     0.022 A 
BRANCH  66  69
ATOM     69  S   UNL A   1      47.305  34.650  32.762  1.00  0.00     0.127 S 
ATOM     70  O   UNL A   1      46.198  34.385  33.679  1.00  0.00    -0.237 OA
ATOM     71  O   UNL A   1      48.363  33.639  32.772  1.00  0.00    -0.237 OA
ATOM     72  O   UNL A   1      47.784  36.025  32.744  1.00  0.00    -0.744 OA
ENDBRANCH  66  69
ENDBRANCH  39  62
ENDBRANCH  13  14
ENDBRANCH   6   8
ENDBRANCH   5   6
ENDBRANCH   4   5
ENDBRANCH   3   4
ENDBRANCH   2   3
ENDBRANCH   1   2
BRANCH   1  73
ATOM     73  C   UNL A   1      34.906  23.622  26.222  1.00  0.00     0.188 C 
BRANCH  73  74
ATOM     74  O   UNL A   1      33.636  24.068  26.689  1.00  0.00    -0.376 OA
BRANCH  74  75
ATOM     75  C   UNL A   1      32.668  23.067  26.977  1.00  0.00     0.202 C 
BRANCH  75  76
ATOM     76  C   UNL A   1      31.172  23.387  26.801  1.00  0.00     0.261 C 
BRANCH  76  77
ATOM     77  O   UNL A   1      30.712  23.605  25.455  1.00  0.00    -0.463 OA
BRANCH  77  78
ATOM     78  C   UNL A   1      30.658  24.915  25.084  1.00  0.00     0.309 C 
ATOM     79  O   UNL A   1      30.240  25.811  25.812  1.00  0.00    -0.252 OA
BRANCH  78  80
ATOM     80  C   UNL A   1      31.043  25.146  23.621  1.00  0.00     0.111 C 
ATOM     81  C   UNL A   1      32.204  24.326  23.036  1.00  0.00     0.016 C 
ATOM     82  C   UNL A   1      31.274  26.658  23.428  1.00  0.00     0.093 C 
ATOM     83  C   UNL A   1      32.575  24.735  21.599  1.00  0.00     0.001 C 
ATOM     84  C   UNL A   1      31.445  26.951  21.932  1.00  0.00     0.014 C 
ATOM     85  C   UNL A   1      32.664  26.237  21.370  1.00  0.00     0.001 C 
BRANCH  82  86
ATOM     86  C   UNL A   1      32.464  27.190  24.276  1.00  0.00     0.228 C 
ATOM     87  O   UNL A   1      33.500  26.540  24.448  1.00  0.00    -0.274 OA
ATOM     88  N   UNL A   1      32.450  28.473  24.761  1.00  0.00    -0.326 N 
ATOM     89  H   UNL A   1      33.284  28.803  25.167  1.00  0.00     0.169 HD
BRANCH  88  90
ATOM     90  C   UNL A   1      31.374  29.359  24.738  1.00  0.00     0.041 A 
ATOM     91  C   UNL A   1      31.411  30.469  25.576  1.00  0.00     0.026 A 
ATOM     92  C   UNL A   1      30.349  29.211  23.805  1.00  0.00     0.039 A 
ATOM     93  C   UNL A   1      30.517  31.514  25.352  1.00  0.00     0.003 A 
ATOM     94  C   UNL A   1      29.462  30.259  23.554  1.00  0.00     0.058 A 
ATOM     95  C   UNL A   1      29.568  31.424  24.327  1.00  0.00     0.013 A 
BRANCH  94  96
ATOM     96  C   UNL A   1      28.435  30.130  22.457  1.00  0.00     0.416 C 
ATOM     97  F   UNL A   1      27.603  31.212  22.420  1.00  0.00    -0.166 F 
ATOM     98  F   UNL A   1      28.961  30.024  21.217  1.00  0.00    -0.166 F 
ATOM     99  F   UNL A   1      27.611  29.052  22.617  1.00  0.00    -0.166 F 
ENDBRANCH  94  96
ENDBRANCH  88  90
ENDBRANCH  82  86
ENDBRANCH  78  80
ENDBRANCH  77  78
ENDBRANCH  76  77
ENDBRANCH  75  76
ENDBRANCH  74  75
ENDBRANCH  73  74
ENDBRANCH   1  73
TORSDOF 23
ENDMDL
MODEL 3
REMARK VINA RESULT:      -9.9      2.114      8.032
REMARK SMILES O=C(OCCOCCOCCOC(=O)[C@@H]1CCCC[C@@H]1C(=O)Nc1cccc(C(F)(F)F)c1)c1ccc(-c2c3nc(c(-c4cccc(S(=O)(=O)[O-])c4F)c4ccc([nH]4)c(-c4cccc(S(=O)(=O)[O-])c4F)c4nc(c(-c5cccc(S(=O)(=O)[O-])c5F)c5ccc2[nH]5)C=C4)C=C3)cc1
REMARK SMILES IDX 7 1 6 2 5 3 4 4 3 5 2 6 1 7 34 8 35 9 96 10 36 11 95 12
REMARK SMILES IDX 37 13 38 14 39 15 89 16 40 17 94 18 88 19 90 20 41 21 93 22
REMARK SMILES IDX 87 23 86 24 42 26 74 27 54 28 73 29 55 30 58 31 72 32 91 33
REMARK SMILES IDX 56 34 57 35 71 37 92 38 59 39 43 40 44 41 52 42 45 43 47 44
REMARK SMILES IDX 53 45 46 46 48 47 49 48 50 49 51 50 75 51 76 52 84 53 77 54
REMARK SMILES IDX 79 55 85 56 78 57 80 58 81 59 82 60 83 61 60 62 61 63 69 64
REMARK SMILES IDX 62 65 64 66 70 67 63 68 65 69 66 70 67 71 68 72 8 73 9 74
REMARK SMILES IDX 10 75 11 76 12 77 13 78 14 79 15 80 16 81 20 82 17 83 19 84
REMARK SMILES IDX 18 85 21 86 22 87 23 88 24 90 25 91 33 92 26 93 28 94 27 95
REMARK SMILES IDX 29 96 30 97 31 98 32 99
REMARK H PARENT 90 25 58 36 23 89
REMARK Flexibility Score: inf
ROOT
ATOM      1  C   UNL A   1      34.542  24.320  24.755  1.00  0.00     0.188 C 
ENDROOT
BRANCH   1   2
ATOM      2  O   UNL A   1      35.513  23.285  24.578  1.00  0.00    -0.376 OA
BRANCH   2   3
ATOM      3  C   UNL A   1      35.062  21.985  24.972  1.00  0.00     0.202 C 
BRANCH   3   4
ATOM      4  C   UNL A   1      36.091  21.119  25.721  1.00  0.00     0.261 C 
BRANCH   4   5
ATOM      5  O   UNL A   1      37.411  21.163  25.156  1.00  0.00    -0.460 OA
BRANCH   5   6
ATOM      6  C   UNL A   1      38.606  21.213  25.800  1.00  0.00     0.338 C 
ATOM      7  O   UNL A   1      39.201  20.154  26.000  1.00  0.00    -0.246 OA
BRANCH   6   8
ATOM      8  C   UNL A   1      39.237  22.478  26.297  1.00  0.00     0.060 A 
ATOM      9  C   UNL A   1      38.783  23.764  26.006  1.00  0.00     0.016 A 
ATOM     10  C   UNL A   1      40.338  22.361  27.164  1.00  0.00     0.016 A 
ATOM     11  C   UNL A   1      39.431  24.897  26.468  1.00  0.00     0.010 A 
ATOM     12  C   UNL A   1      40.978  23.498  27.673  1.00  0.00     0.010 A 
ATOM     13  C   UNL A   1      40.540  24.771  27.292  1.00  0.00    -0.014 A 
BRANCH  13  14
ATOM     14  C   UNL A   1      41.304  25.996  27.577  1.00  0.00     0.031 A 
ATOM     15  C   UNL A   1      40.637  27.053  28.399  1.00  0.00     0.074 A 
ATOM     16  C   UNL A   1      42.602  26.085  27.235  1.00  0.00     0.049 A 
ATOM     17  N   UNL A   1      41.102  28.204  28.793  1.00  0.00    -0.248 NA
ATOM     18  C   UNL A   1      39.273  26.756  28.874  1.00  0.00     0.031 C 
ATOM     19  C   UNL A   1      43.368  25.032  26.570  1.00  0.00     0.029 A 
ATOM     20  N   UNL A   1      43.507  27.097  27.394  1.00  0.00    -0.354 N 
ATOM     21  C   UNL A   1      40.078  28.786  29.527  1.00  0.00     0.074 A 
ATOM     22  C   UNL A   1      38.967  27.863  29.532  1.00  0.00     0.031 C 
ATOM     23  C   UNL A   1      44.606  25.477  26.307  1.00  0.00     0.029 A 
ATOM     24  C   UNL A   1      44.715  26.846  26.787  1.00  0.00     0.049 A 
ATOM     25  H   UNL A   1      43.313  27.922  27.895  1.00  0.00     0.167 HD
ATOM     26  C   UNL A   1      40.074  29.989  30.141  1.00  0.00     0.034 A 
ATOM     27  C   UNL A   1      45.777  27.653  26.616  1.00  0.00     0.034 A 
ATOM     28  C   UNL A   1      41.195  30.885  30.110  1.00  0.00     0.049 A 
ATOM     29  C   UNL A   1      45.713  29.022  27.227  1.00  0.00     0.074 A 
ATOM     30  C   UNL A   1      41.308  32.145  30.663  1.00  0.00     0.029 A 
ATOM     31  N   UNL A   1      42.396  30.615  29.466  1.00  0.00    -0.354 N 
ATOM     32  N   UNL A   1      44.751  29.557  27.941  1.00  0.00    -0.248 NA
ATOM     33  C   UNL A   1      46.884  29.886  27.044  1.00  0.00     0.031 C 
ATOM     34  C   UNL A   1      42.563  32.655  30.314  1.00  0.00     0.029 A 
ATOM     35  C   UNL A   1      43.251  31.693  29.588  1.00  0.00     0.049 A 
ATOM     36  H   UNL A   1      42.606  29.778  28.992  1.00  0.00     0.167 HD
ATOM     37  C   UNL A   1      45.211  30.809  28.323  1.00  0.00     0.074 A 
ATOM     38  C   UNL A   1      46.547  30.942  27.773  1.00  0.00     0.031 C 
ATOM     39  C   UNL A   1      44.587  31.766  29.054  1.00  0.00     0.034 A 
BRANCH  26  40
ATOM     40  C   UNL A   1      38.805  30.402  30.831  1.00  0.00     0.023 A 
ATOM     41  C   UNL A   1      38.433  29.816  32.057  1.00  0.00     0.012 A 
ATOM     42  C   UNL A   1      37.963  31.362  30.238  1.00  0.00     0.148 A 
ATOM     43  C   UNL A   1      37.220  30.147  32.662  1.00  0.00     0.002 A 
ATOM     44  C   UNL A   1      36.780  31.723  30.869  1.00  0.00     0.091 A 
ATOM     45  F   UNL A   1      38.320  31.882  29.056  1.00  0.00    -0.205 F 
ATOM     46  C   UNL A   1      36.398  31.106  32.073  1.00  0.00     0.022 A 
BRANCH  44  47
ATOM     47  S   UNL A   1      35.686  32.991  30.224  1.00  0.00     0.127 S 
ATOM     48  O   UNL A   1      34.372  32.442  30.551  1.00  0.00    -0.237 OA
ATOM     49  O   UNL A   1      36.076  34.158  31.012  1.00  0.00    -0.237 OA
ATOM     50  O   UNL A   1      35.979  33.089  28.798  1.00  0.00    -0.744 OA
ENDBRANCH  44  47
ENDBRANCH  26  40
BRANCH  27  51
ATOM     51  C   UNL A   1      46.957  27.195  25.834  1.00  0.00     0.023 A 
ATOM     52  C   UNL A   1      47.903  26.330  26.416  1.00  0.00     0.012 A 
ATOM     53  C   UNL A   1      47.141  27.615  24.501  1.00  0.00     0.148 A 
ATOM     54  C   UNL A   1      49.026  25.919  25.693  1.00  0.00     0.002 A 
ATOM     55  C   UNL A   1      48.238  27.170  23.775  1.00  0.00     0.091 A 
ATOM     56  F   UNL A   1      46.238  28.450  23.967  1.00  0.00    -0.205 F 
ATOM     57  C   UNL A   1      49.190  26.330  24.372  1.00  0.00     0.022 A 
BRANCH  55  58
ATOM     58  S   UNL A   1      48.457  27.590  22.042  1.00  0.00     0.127 S 
ATOM     59  O   UNL A   1      47.142  28.110  21.690  1.00  0.00    -0.237 OA
ATOM     60  O   UNL A   1      49.522  28.588  22.097  1.00  0.00    -0.237 OA
ATOM     61  O   UNL A   1      48.850  26.343  21.392  1.00  0.00    -0.744 OA
ENDBRANCH  55  58
ENDBRANCH  27  51
BRANCH  39  62
ATOM     62  C   UNL A   1      45.363  33.021  29.334  1.00  0.00     0.023 A 
ATOM     63  C   UNL A   1      46.153  33.118  30.495  1.00  0.00     0.012 A 
ATOM     64  C   UNL A   1      45.369  34.068  28.394  1.00  0.00     0.148 A 
ATOM     65  C   UNL A   1      46.918  34.258  30.731  1.00  0.00     0.002 A 
ATOM     66  C   UNL A   1      46.179  35.174  28.607  1.00  0.00     0.091 A 
ATOM     67  F   UNL A   1      44.591  33.958  27.308  1.00  0.00    -0.205 F 
ATOM     68  C   UNL A   1      46.943  35.277  29.781  1.00  0.00     0.022 A 
BRANCH  66  69
ATOM     69  S   UNL A   1      46.359  36.475  27.386  1.00  0.00     0.127 S 
ATOM     70  O   UNL A   1      47.750  36.881  27.586  1.00  0.00    -0.237 OA
ATOM     71  O   UNL A   1      46.105  35.760  26.135  1.00  0.00    -0.237 OA
ATOM     72  O   UNL A   1      45.362  37.483  27.719  1.00  0.00    -0.744 OA
ENDBRANCH  66  69
ENDBRANCH  39  62
ENDBRANCH  13  14
ENDBRANCH   6   8
ENDBRANCH   5   6
ENDBRANCH   4   5
ENDBRANCH   3   4
ENDBRANCH   2   3
ENDBRANCH   1   2
BRANCH   1  73
ATOM     73  C   UNL A   1      33.514  24.005  25.844  1.00  0.00     0.188 C 
BRANCH  73  74
ATOM     74  O   UNL A   1      32.590  25.038  26.175  1.00  0.00    -0.376 OA
BRANCH  74  75
ATOM     75  C   UNL A   1      31.208  24.731  26.045  1.00  0.00     0.202 C 
BRANCH  75  76
ATOM     76  C   UNL A   1      30.180  25.876  25.986  1.00  0.00     0.261 C 
BRANCH  76  77
ATOM     77  O   UNL A   1      30.506  26.993  25.140  1.00  0.00    -0.463 OA
BRANCH  77  78
ATOM     78  C   UNL A   1      29.811  27.036  23.969  1.00  0.00     0.309 C 
ATOM     79  O   UNL A   1      29.944  26.210  23.070  1.00  0.00    -0.252 OA
BRANCH  78  80
ATOM     80  C   UNL A   1      28.943  28.288  23.825  1.00  0.00     0.111 C 
ATOM     81  C   UNL A   1      27.903  28.327  22.696  1.00  0.00     0.016 C 
ATOM     82  C   UNL A   1      29.885  29.508  23.761  1.00  0.00     0.093 C 
ATOM     83  C   UNL A   1      27.181  29.682  22.579  1.00  0.00     0.001 C 
ATOM     84  C   UNL A   1      29.047  30.790  23.839  1.00  0.00     0.014 C 
ATOM     85  C   UNL A   1      28.096  30.897  22.658  1.00  0.00     0.001 C 
BRANCH  82  86
ATOM     86  C   UNL A   1      30.809  29.479  22.511  1.00  0.00     0.228 C 
ATOM     87  O   UNL A   1      30.405  29.763  21.379  1.00  0.00    -0.274 OA
ATOM     88  N   UNL A   1      32.155  29.256  22.650  1.00  0.00    -0.326 N 
ATOM     89  H   UNL A   1      32.712  29.389  21.849  1.00  0.00     0.169 HD
BRANCH  88  90
ATOM     90  C   UNL A   1      32.817  28.862  23.813  1.00  0.00     0.041 A 
ATOM     91  C   UNL A   1      33.646  27.746  23.756  1.00  0.00     0.026 A 
ATOM     92  C   UNL A   1      32.755  29.640  24.967  1.00  0.00     0.039 A 
ATOM     93  C   UNL A   1      34.544  27.519  24.797  1.00  0.00     0.003 A 
ATOM     94  C   UNL A   1      33.665  29.439  26.007  1.00  0.00     0.058 A 
ATOM     95  C   UNL A   1      34.575  28.379  25.902  1.00  0.00     0.013 A 
BRANCH  94  96
ATOM     96  C   UNL A   1      33.664  30.365  27.197  1.00  0.00     0.416 C 
ATOM     97  F   UNL A   1      34.514  29.928  28.172  1.00  0.00    -0.166 F 
ATOM     98  F   UNL A   1      34.046  31.630  26.912  1.00  0.00    -0.166 F 
ATOM     99  F   UNL A   1      32.444  30.461  27.802  1.00  0.00    -0.166 F 
ENDBRANCH  94  96
ENDBRANCH  88  90
ENDBRANCH  82  86
ENDBRANCH  78  80
ENDBRANCH  77  78
ENDBRANCH  76  77
ENDBRANCH  75  76
ENDBRANCH  74  75
ENDBRANCH  73  74
ENDBRANCH   1  73
TORSDOF 23
ENDMDL
