MODEL 1
REMARK VINA RESULT:     -10.1      0.000      0.000
REMARK SMILES CS(=O)(=O)c1ccc(C2=NN(c3ccc(C(=O)OCCOCCOCCOC(=O)c4ccc(-c5c6nc(c(-c7cccc(S(=O)(=O)[O-])c7F)c7ccc([nH]7)c(-c7cccc(S(=O)(=O)[O-])c7F)c7nc(c(-c8cccc(S(=O)(=O)[O-])c8F)c8ccc5[nH]8)C=C7)C=C6)cc4)cc3)[C@H](c3ccc(Cl)cc3)C2)cc1
REMARK SMILES IDX 22 1 21 2 20 3 19 4 18 5 16 6 17 7 15 8 12 9 13 10 94 11
REMARK SMILES IDX 14 12 93 13 11 14 9 15 10 16 103 17 95 18 8 19 5 20 6 21
REMARK SMILES IDX 105 22 7 23 104 24 2 25 1 26 3 27 4 28 96 29 97 30 102 31
REMARK SMILES IDX 98 32 101 33 99 34 100 35 23 36 24 37 25 38 26 39 27 40
REMARK SMILES IDX 28 41 29 42 30 43 31 44 92 45 32 46 91 47 33 48 34 49 35 50
REMARK SMILES IDX 85 51 36 52 90 53 84 54 86 55 37 56 89 57 83 58 82 59 38 61
REMARK SMILES IDX 70 62 50 63 69 64 51 65 54 66 68 67 87 68 52 69 53 70 67 72
REMARK SMILES IDX 88 73 55 74 39 75 40 76 48 77 41 78 43 79 49 80 42 81 44 82
REMARK SMILES IDX 45 83 46 84 47 85 71 86 72 87 80 88 73 89 75 90 81 91 74 92
REMARK SMILES IDX 76 93 77 94 78 95 79 96 56 97 57 98 65 99 58 100 60 101
REMARK SMILES IDX 66 102 59 103 61 104 62 105 63 106 64 107
REMARK H PARENT 86 60 54 71
REMARK Flexibility Score: inf
ROOT
ATOM      1  C   UNL A   1      37.052  30.270  32.646  1.00  0.00     0.188 C 
ENDROOT
BRANCH   1   2
ATOM      2  O   UNL A   1      36.398  29.508  31.659  1.00  0.00    -0.376 OA
BRANCH   2   3
ATOM      3  C   UNL A   1      36.613  29.762  30.282  1.00  0.00     0.202 C 
BRANCH   3   4
ATOM      4  C   UNL A   1      36.245  31.057  29.533  1.00  0.00     0.261 C 
BRANCH   4   5
ATOM      5  O   UNL A   1      35.817  30.938  28.175  1.00  0.00    -0.460 OA
BRANCH   5   6
ATOM      6  C   UNL A   1      34.487  31.112  27.960  1.00  0.00     0.338 C 
ATOM      7  O   UNL A   1      33.792  32.020  28.383  1.00  0.00    -0.246 OA
BRANCH   6   8
ATOM      8  C   UNL A   1      33.987  30.093  27.007  1.00  0.00     0.060 A 
ATOM      9  C   UNL A   1      32.894  28.137  25.308  1.00  0.00     0.060 A 
ATOM     10  C   UNL A   1      32.235  29.357  25.498  1.00  0.00     0.029 A 
ATOM     11  C   UNL A   1      34.165  27.966  25.879  1.00  0.00     0.029 A 
ATOM     12  C   UNL A   1      32.772  30.329  26.350  1.00  0.00     0.018 A 
ATOM     13  C   UNL A   1      34.704  28.924  26.741  1.00  0.00     0.018 A 
BRANCH   9  14
ATOM     14  N   UNL A   1      32.261  27.039  24.705  1.00  0.00    -0.257 N 
ATOM     15  C   UNL A   1      32.403  24.982  24.132  1.00  0.00     0.071 C 
ATOM     16  N   UNL A   1      32.556  25.781  25.142  1.00  0.00    -0.176 NA
ATOM     17  C   UNL A   1      32.058  25.632  22.823  1.00  0.00     0.091 C 
ATOM     18  C   UNL A   1      32.029  27.107  23.244  1.00  0.00     0.144 C 
BRANCH  15  19
ATOM     19  C   UNL A   1      32.483  23.514  24.244  1.00  0.00    -0.002 A 
ATOM     20  C   UNL A   1      32.740  20.738  24.319  1.00  0.00     0.067 A 
ATOM     21  C   UNL A   1      32.271  21.354  23.158  1.00  0.00     0.021 A 
ATOM     22  C   UNL A   1      33.062  21.501  25.449  1.00  0.00     0.021 A 
ATOM     23  C   UNL A   1      32.132  22.745  23.129  1.00  0.00     0.011 A 
ATOM     24  C   UNL A   1      32.946  22.895  25.408  1.00  0.00     0.011 A 
BRANCH  20  25
ATOM     25  S   UNL A   1      32.957  18.973  24.413  1.00  0.00     0.175 S 
ATOM     26  C   UNL A   1      32.400  18.293  22.875  1.00  0.00     0.163 C 
ATOM     27  O   UNL A   1      32.058  18.495  25.446  1.00  0.00    -0.224 OA
ATOM     28  O   UNL A   1      34.387  18.750  24.507  1.00  0.00    -0.224 OA
ENDBRANCH  20  25
ENDBRANCH  15  19
BRANCH  18  29
ATOM     29  C   UNL A   1      30.780  27.928  22.918  1.00  0.00    -0.023 A 
ATOM     30  C   UNL A   1      29.487  27.603  23.351  1.00  0.00     0.007 A 
ATOM     31  C   UNL A   1      30.940  29.129  22.193  1.00  0.00     0.007 A 
ATOM     32  C   UNL A   1      28.406  28.459  23.097  1.00  0.00     0.021 A 
ATOM     33  C   UNL A   1      29.875  30.009  21.986  1.00  0.00     0.021 A 
ATOM     34  C   UNL A   1      28.609  29.668  22.440  1.00  0.00     0.041 A 
ATOM     35  Cl  UNL A   1      27.292  30.749  22.200  1.00  0.00    -0.084 Cl
ENDBRANCH  18  29
ENDBRANCH   9  14
ENDBRANCH   6   8
ENDBRANCH   5   6
ENDBRANCH   4   5
ENDBRANCH   3   4
ENDBRANCH   2   3
ENDBRANCH   1   2
BRANCH   1  36
ATOM     36  C   UNL A   1      36.409  31.628  32.999  1.00  0.00     0.188 C 
BRANCH  36  37
ATOM     37  O   UNL A   1      36.636  32.221  34.265  1.00  0.00    -0.376 OA
BRANCH  37  38
ATOM     38  C   UNL A   1      37.667  33.186  34.401  1.00  0.00     0.202 C 
BRANCH  38  39
ATOM     39  C   UNL A   1      39.166  32.844  34.287  1.00  0.00     0.261 C 
BRANCH  39  40
ATOM     40  O   UNL A   1      39.884  33.420  33.190  1.00  0.00    -0.460 OA
BRANCH  40  41
ATOM     41  C   UNL A   1      39.741  32.791  31.998  1.00  0.00     0.338 C 
ATOM     42  O   UNL A   1      38.954  33.067  31.104  1.00  0.00    -0.246 OA
BRANCH  41  43
ATOM     43  C   UNL A   1      40.820  31.799  31.851  1.00  0.00     0.060 A 
ATOM     44  C   UNL A   1      40.579  30.459  32.197  1.00  0.00     0.016 A 
ATOM     45  C   UNL A   1      42.075  32.201  31.399  1.00  0.00     0.016 A 
ATOM     46  C   UNL A   1      41.599  29.515  32.091  1.00  0.00     0.010 A 
ATOM     47  C   UNL A   1      43.102  31.260  31.323  1.00  0.00     0.010 A 
ATOM     48  C   UNL A   1      42.877  29.919  31.689  1.00  0.00    -0.014 A 
BRANCH  48  49
ATOM     49  C   UNL A   1      44.036  29.005  31.807  1.00  0.00     0.031 A 
ATOM     50  C   UNL A   1      44.801  28.996  33.100  1.00  0.00     0.074 A 
ATOM     51  C   UNL A   1      44.445  28.260  30.765  1.00  0.00     0.049 A 
ATOM     52  N   UNL A   1      45.940  28.424  33.385  1.00  0.00    -0.248 NA
ATOM     53  C   UNL A   1      44.203  29.745  34.219  1.00  0.00     0.031 C 
ATOM     54  C   UNL A   1      43.770  28.168  29.472  1.00  0.00     0.029 A 
ATOM     55  N   UNL A   1      45.563  27.475  30.622  1.00  0.00    -0.354 N 
ATOM     56  C   UNL A   1      46.224  28.787  34.695  1.00  0.00     0.074 A 
ATOM     57  C   UNL A   1      45.133  29.618  35.153  1.00  0.00     0.031 C 
ATOM     58  C   UNL A   1      44.514  27.407  28.649  1.00  0.00     0.029 A 
ATOM     59  C   UNL A   1      45.733  26.997  29.342  1.00  0.00     0.049 A 
ATOM     60  H   UNL A   1      46.182  27.273  31.361  1.00  0.00     0.167 HD
ATOM     61  C   UNL A   1      47.299  28.456  35.447  1.00  0.00     0.034 A 
ATOM     62  C   UNL A   1      46.776  26.346  28.788  1.00  0.00     0.034 A 
ATOM     63  C   UNL A   1      48.372  27.620  34.988  1.00  0.00     0.049 A 
ATOM     64  C   UNL A   1      47.982  26.027  29.636  1.00  0.00     0.074 A 
ATOM     65  C   UNL A   1      49.480  27.184  35.691  1.00  0.00     0.029 A 
ATOM     66  N   UNL A   1      48.486  27.113  33.703  1.00  0.00    -0.354 N 
ATOM     67  N   UNL A   1      48.195  26.286  30.903  1.00  0.00    -0.248 NA
ATOM     68  C   UNL A   1      49.086  25.305  28.982  1.00  0.00     0.031 C 
ATOM     69  C   UNL A   1      50.288  26.449  34.817  1.00  0.00     0.029 A 
ATOM     70  C   UNL A   1      49.655  26.384  33.586  1.00  0.00     0.049 A 
ATOM     71  H   UNL A   1      47.832  27.252  32.980  1.00  0.00     0.167 HD
ATOM     72  C   UNL A   1      49.428  25.718  31.210  1.00  0.00     0.074 A 
ATOM     73  C   UNL A   1      49.915  25.096  29.997  1.00  0.00     0.031 C 
ATOM     74  C   UNL A   1      50.097  25.715  32.389  1.00  0.00     0.034 A 
BRANCH  61  75
ATOM     75  C   UNL A   1      47.372  29.004  36.847  1.00  0.00     0.023 A 
ATOM     76  C   UNL A   1      47.929  30.278  37.077  1.00  0.00     0.012 A 
ATOM     77  C   UNL A   1      46.834  28.279  37.928  1.00  0.00     0.148 A 
ATOM     78  C   UNL A   1      47.978  30.807  38.366  1.00  0.00     0.002 A 
ATOM     79  C   UNL A   1      46.842  28.832  39.201  1.00  0.00     0.091 A 
ATOM     80  F   UNL A   1      46.329  27.059  37.691  1.00  0.00    -0.205 F 
ATOM     81  C   UNL A   1      47.425  30.091  39.424  1.00  0.00     0.022 A 
BRANCH  79  82
ATOM     82  S   UNL A   1      46.081  28.027  40.614  1.00  0.00     0.127 S 
ATOM     83  O   UNL A   1      46.914  26.834  40.756  1.00  0.00    -0.237 OA
ATOM     84  O   UNL A   1      46.259  29.026  41.667  1.00  0.00    -0.237 OA
ATOM     85  O   UNL A   1      44.696  27.778  40.237  1.00  0.00    -0.744 OA
ENDBRANCH  79  82
ENDBRANCH  61  75
BRANCH  62  86
ATOM     86  C   UNL A   1      46.728  25.938  27.355  1.00  0.00     0.023 A 
ATOM     87  C   UNL A   1      47.304  26.773  26.377  1.00  0.00     0.012 A 
ATOM     88  C   UNL A   1      46.115  24.734  26.953  1.00  0.00     0.148 A 
ATOM     89  C   UNL A   1      47.241  26.436  25.025  1.00  0.00     0.002 A 
ATOM     90  C   UNL A   1      46.104  24.377  25.610  1.00  0.00     0.091 A 
ATOM     91  F   UNL A   1      45.560  23.960  27.895  1.00  0.00    -0.205 F 
ATOM     92  C   UNL A   1      46.649  25.235  24.643  1.00  0.00     0.022 A 
BRANCH  90  93
ATOM     93  S   UNL A   1      45.467  22.800  25.032  1.00  0.00     0.127 S 
ATOM     94  O   UNL A   1      44.127  22.788  25.612  1.00  0.00    -0.237 OA
ATOM     95  O   UNL A   1      45.509  22.976  23.580  1.00  0.00    -0.237 OA
ATOM     96  O   UNL A   1      46.385  21.792  25.545  1.00  0.00    -0.744 OA
ENDBRANCH  90  93
ENDBRANCH  62  86
BRANCH  74  97
ATOM     97  C   UNL A   1      51.400  24.962  32.468  1.00  0.00     0.023 A 
ATOM     98  C   UNL A   1      52.620  25.623  32.236  1.00  0.00     0.012 A 
ATOM     99  C   UNL A   1      51.411  23.618  32.897  1.00  0.00     0.148 A 
ATOM    100  C   UNL A   1      53.832  24.953  32.408  1.00  0.00     0.002 A 
ATOM    101  C   UNL A   1      52.621  22.974  33.118  1.00  0.00     0.091 A 
ATOM    102  F   UNL A   1      50.236  23.004  33.100  1.00  0.00    -0.205 F 
ATOM    103  C   UNL A   1      53.833  23.636  32.863  1.00  0.00     0.022 A 
BRANCH 101 104
ATOM    104  S   UNL A   1      52.723  21.316  33.803  1.00  0.00     0.127 S 
ATOM    105  O   UNL A   1      54.063  20.904  33.388  1.00  0.00    -0.237 OA
ATOM    106  O   UNL A   1      52.579  21.566  35.237  1.00  0.00    -0.237 OA
ATOM    107  O   UNL A   1      51.630  20.561  33.206  1.00  0.00    -0.744 OA
ENDBRANCH 101 104
ENDBRANCH  74  97
ENDBRANCH  48  49
ENDBRANCH  41  43
ENDBRANCH  40  41
ENDBRANCH  39  40
ENDBRANCH  38  39
ENDBRANCH  37  38
ENDBRANCH  36  37
ENDBRANCH   1  36
TORSDOF 24
ENDMDL
MODEL 2
REMARK VINA RESULT:     -10.0      5.873      9.230
REMARK SMILES CS(=O)(=O)c1ccc(C2=NN(c3ccc(C(=O)OCCOCCOCCOC(=O)c4ccc(-c5c6nc(c(-c7cccc(S(=O)(=O)[O-])c7F)c7ccc([nH]7)c(-c7cccc(S(=O)(=O)[O-])c7F)c7nc(c(-c8cccc(S(=O)(=O)[O-])c8F)c8ccc5[nH]8)C=C7)C=C6)cc4)cc3)[C@H](c3ccc(Cl)cc3)C2)cc1
REMARK SMILES IDX 22 1 21 2 20 3 19 4 18 5 16 6 17 7 15 8 12 9 13 10 94 11
REMARK SMILES IDX 14 12 93 13 11 14 9 15 10 16 103 17 95 18 8 19 5 20 6 21
REMARK SMILES IDX 105 22 7 23 104 24 2 25 1 26 3 27 4 28 96 29 97 30 102 31
REMARK SMILES IDX 98 32 101 33 99 34 100 35 23 36 24 37 25 38 26 39 27 40
REMARK SMILES IDX 28 41 29 42 30 43 31 44 92 45 32 46 91 47 33 48 34 49 35 50
REMARK SMILES IDX 85 51 36 52 90 53 84 54 86 55 37 56 89 57 83 58 82 59 38 61
REMARK SMILES IDX 70 62 50 63 69 64 51 65 54 66 68 67 87 68 52 69 53 70 67 72
REMARK SMILES IDX 88 73 55 74 39 75 40 76 48 77 41 78 43 79 49 80 42 81 44 82
REMARK SMILES IDX 45 83 46 84 47 85 71 86 72 87 80 88 73 89 75 90 81 91 74 92
REMARK SMILES IDX 76 93 77 94 78 95 79 96 56 97 57 98 65 99 58 100 60 101
REMARK SMILES IDX 66 102 59 103 61 104 62 105 63 106 64 107
REMARK H PARENT 86 60 54 71
REMARK Flexibility Score: inf
ROOT
ATOM      1  C   UNL A   1      35.430  33.238  31.509  1.00  0.00     0.188 C 
ENDROOT
BRANCH   1   2
ATOM      2  O   UNL A   1      34.173  33.535  30.946  1.00  0.00    -0.376 OA
BRANCH   2   3
ATOM      3  C   UNL A   1      34.072  34.140  29.670  1.00  0.00     0.202 C 
BRANCH   3   4
ATOM      4  C   UNL A   1      34.398  33.468  28.321  1.00  0.00     0.261 C 
BRANCH   4   5
ATOM      5  O   UNL A   1      33.713  32.256  28.002  1.00  0.00    -0.460 OA
BRANCH   5   6
ATOM      6  C   UNL A   1      34.459  31.123  28.069  1.00  0.00     0.338 C 
ATOM      7  O   UNL A   1      35.341  30.877  28.873  1.00  0.00    -0.246 OA
BRANCH   6   8
ATOM      8  C   UNL A   1      33.965  30.129  27.086  1.00  0.00     0.060 A 
ATOM      9  C   UNL A   1      32.897  28.200  25.341  1.00  0.00     0.060 A 
ATOM     10  C   UNL A   1      32.154  29.338  25.678  1.00  0.00     0.029 A 
ATOM     11  C   UNL A   1      34.224  28.109  25.789  1.00  0.00     0.029 A 
ATOM     12  C   UNL A   1      32.680  30.295  26.553  1.00  0.00     0.018 A 
ATOM     13  C   UNL A   1      34.754  29.053  26.673  1.00  0.00     0.018 A 
BRANCH   9  14
ATOM     14  N   UNL A   1      32.310  27.091  24.711  1.00  0.00    -0.257 N 
ATOM     15  C   UNL A   1      32.527  25.048  24.112  1.00  0.00     0.071 C 
ATOM     16  N   UNL A   1      32.638  25.836  25.135  1.00  0.00    -0.176 NA
ATOM     17  C   UNL A   1      32.183  25.706  22.807  1.00  0.00     0.091 C 
ATOM     18  C   UNL A   1      32.100  27.174  23.248  1.00  0.00     0.144 C 
BRANCH  15  19
ATOM     19  C   UNL A   1      32.653  23.582  24.204  1.00  0.00    -0.002 A 
ATOM     20  C   UNL A   1      33.023  20.832  24.485  1.00  0.00     0.067 A 
ATOM     21  C   UNL A   1      34.077  21.625  24.028  1.00  0.00     0.021 A 
ATOM     22  C   UNL A   1      31.780  21.404  24.784  1.00  0.00     0.021 A 
ATOM     23  C   UNL A   1      33.884  23.002  23.876  1.00  0.00     0.011 A 
ATOM     24  C   UNL A   1      31.597  22.786  24.656  1.00  0.00     0.011 A 
BRANCH  20  25
ATOM     25  S   UNL A   1      33.213  19.077  24.717  1.00  0.00     0.175 S 
ATOM     26  C   UNL A   1      32.406  18.278  23.358  1.00  0.00     0.163 C 
ATOM     27  O   UNL A   1      32.477  18.732  25.918  1.00  0.00    -0.224 OA
ATOM     28  O   UNL A   1      34.635  18.810  24.611  1.00  0.00    -0.224 OA
ENDBRANCH  20  25
ENDBRANCH  15  19
BRANCH  18  29
ATOM     29  C   UNL A   1      30.830  27.959  22.914  1.00  0.00    -0.023 A 
ATOM     30  C   UNL A   1      29.547  27.614  23.362  1.00  0.00     0.007 A 
ATOM     31  C   UNL A   1      30.958  29.147  22.162  1.00  0.00     0.007 A 
ATOM     32  C   UNL A   1      28.446  28.439  23.097  1.00  0.00     0.021 A 
ATOM     33  C   UNL A   1      29.872  29.998  21.943  1.00  0.00     0.021 A 
ATOM     34  C   UNL A   1      28.617  29.639  22.412  1.00  0.00     0.041 A 
ATOM     35  Cl  UNL A   1      27.275  30.684  22.159  1.00  0.00    -0.084 Cl
ENDBRANCH  18  29
ENDBRANCH   9  14
ENDBRANCH   6   8
ENDBRANCH   5   6
ENDBRANCH   4   5
ENDBRANCH   3   4
ENDBRANCH   2   3
ENDBRANCH   1   2
BRANCH   1  36
ATOM     36  C   UNL A   1      35.979  34.255  32.531  1.00  0.00     0.188 C 
BRANCH  36  37
ATOM     37  O   UNL A   1      37.295  34.124  33.037  1.00  0.00    -0.376 OA
BRANCH  37  38
ATOM     38  C   UNL A   1      37.504  33.400  34.240  1.00  0.00     0.202 C 
BRANCH  38  39
ATOM     39  C   UNL A   1      37.207  31.895  34.384  1.00  0.00     0.261 C 
BRANCH  39  40
ATOM     40  O   UNL A   1      37.286  31.098  33.197  1.00  0.00    -0.460 OA
BRANCH  40  41
ATOM     41  C   UNL A   1      38.373  30.294  33.100  1.00  0.00     0.338 C 
ATOM     42  O   UNL A   1      38.476  29.138  33.485  1.00  0.00    -0.246 OA
BRANCH  41  43
ATOM     43  C   UNL A   1      39.396  30.971  32.284  1.00  0.00     0.060 A 
ATOM     44  C   UNL A   1      39.249  31.014  30.888  1.00  0.00     0.016 A 
ATOM     45  C   UNL A   1      40.511  31.536  32.899  1.00  0.00     0.016 A 
ATOM     46  C   UNL A   1      40.223  31.626  30.101  1.00  0.00     0.010 A 
ATOM     47  C   UNL A   1      41.499  32.121  32.107  1.00  0.00     0.010 A 
ATOM     48  C   UNL A   1      41.372  32.150  30.705  1.00  0.00    -0.014 A 
BRANCH  48  49
ATOM     49  C   UNL A   1      42.532  32.575  29.889  1.00  0.00     0.031 A 
ATOM     50  C   UNL A   1      43.593  31.556  29.584  1.00  0.00     0.074 A 
ATOM     51  C   UNL A   1      42.679  33.853  29.497  1.00  0.00     0.049 A 
ATOM     52  N   UNL A   1      44.773  31.723  29.049  1.00  0.00    -0.248 NA
ATOM     53  C   UNL A   1      43.285  30.161  29.943  1.00  0.00     0.031 C 
ATOM     54  C   UNL A   1      41.706  34.922  29.713  1.00  0.00     0.029 A 
ATOM     55  N   UNL A   1      43.734  34.474  28.874  1.00  0.00    -0.354 N 
ATOM     56  C   UNL A   1      45.370  30.469  29.056  1.00  0.00     0.074 A 
ATOM     57  C   UNL A   1      44.418  29.548  29.638  1.00  0.00     0.031 C 
ATOM     58  C   UNL A   1      42.229  36.079  29.272  1.00  0.00     0.029 A 
ATOM     59  C   UNL A   1      43.586  35.839  28.785  1.00  0.00     0.049 A 
ATOM     60  H   UNL A   1      44.518  33.991  28.526  1.00  0.00     0.167 HD
ATOM     61  C   UNL A   1      46.599  30.117  28.617  1.00  0.00     0.034 A 
ATOM     62  C   UNL A   1      44.466  36.786  28.399  1.00  0.00     0.034 A 
ATOM     63  C   UNL A   1      47.534  31.036  28.030  1.00  0.00     0.049 A 
ATOM     64  C   UNL A   1      45.847  36.373  27.954  1.00  0.00     0.074 A 
ATOM     65  C   UNL A   1      48.786  30.769  27.506  1.00  0.00     0.029 A 
ATOM     66  N   UNL A   1      47.331  32.402  27.909  1.00  0.00    -0.354 N 
ATOM     67  N   UNL A   1      46.364  35.171  27.868  1.00  0.00    -0.248 NA
ATOM     68  C   UNL A   1      46.761  37.447  27.532  1.00  0.00     0.031 C 
ATOM     69  C   UNL A   1      49.359  31.980  27.109  1.00  0.00     0.029 A 
ATOM     70  C   UNL A   1      48.441  32.995  27.337  1.00  0.00     0.049 A 
ATOM     71  H   UNL A   1      46.517  32.880  28.190  1.00  0.00     0.167 HD
ATOM     72  C   UNL A   1      47.640  35.339  27.339  1.00  0.00     0.074 A 
ATOM     73  C   UNL A   1      47.818  36.759  27.118  1.00  0.00     0.031 C 
ATOM     74  C   UNL A   1      48.580  34.403  27.063  1.00  0.00     0.034 A 
BRANCH  61  75
ATOM     75  C   UNL A   1      47.012  28.677  28.760  1.00  0.00     0.023 A 
ATOM     76  C   UNL A   1      47.651  28.241  29.937  1.00  0.00     0.012 A 
ATOM     77  C   UNL A   1      46.711  27.743  27.749  1.00  0.00     0.148 A 
ATOM     78  C   UNL A   1      48.014  26.903  30.092  1.00  0.00     0.002 A 
ATOM     79  C   UNL A   1      47.031  26.405  27.930  1.00  0.00     0.091 A 
ATOM     80  F   UNL A   1      46.123  28.184  26.627  1.00  0.00    -0.205 F 
ATOM     81  C   UNL A   1      47.694  25.985  29.096  1.00  0.00     0.022 A 
BRANCH  79  82
ATOM     82  S   UNL A   1      46.587  25.132  26.744  1.00  0.00     0.127 S 
ATOM     83  O   UNL A   1      46.858  25.806  25.474  1.00  0.00    -0.237 OA
ATOM     84  O   UNL A   1      47.525  24.061  27.079  1.00  0.00    -0.237 OA
ATOM     85  O   UNL A   1      45.187  24.818  26.995  1.00  0.00    -0.744 OA
ENDBRANCH  79  82
ENDBRANCH  61  75
BRANCH  62  86
ATOM     86  C   UNL A   1      44.069  38.223  28.401  1.00  0.00     0.023 A 
ATOM     87  C   UNL A   1      43.745  38.854  27.183  1.00  0.00     0.012 A 
ATOM     88  C   UNL A   1      44.013  38.969  29.596  1.00  0.00     0.148 A 
ATOM     89  C   UNL A   1      43.407  40.207  27.150  1.00  0.00     0.002 A 
ATOM     90  C   UNL A   1      43.622  40.302  29.562  1.00  0.00     0.091 A 
ATOM     91  F   UNL A   1      44.337  38.356  30.742  1.00  0.00    -0.205 F 
ATOM     92  C   UNL A   1      43.337  40.928  28.339  1.00  0.00     0.022 A 
BRANCH  90  93
ATOM     93  S   UNL A   1      43.391  41.282  31.050  1.00  0.00     0.127 S 
ATOM     94  O   UNL A   1      42.769  40.315  31.951  1.00  0.00    -0.237 OA
ATOM     95  O   UNL A   1      44.770  41.641  31.387  1.00  0.00    -0.237 OA
ATOM     96  O   UNL A   1      42.554  42.406  30.657  1.00  0.00    -0.744 OA
ENDBRANCH  90  93
ENDBRANCH  62  86
BRANCH  74  97
ATOM     97  C   UNL A   1      49.869  34.851  26.424  1.00  0.00     0.023 A 
ATOM     98  C   UNL A   1      49.974  34.940  25.023  1.00  0.00     0.012 A 
ATOM     99  C   UNL A   1      50.936  35.300  27.229  1.00  0.00     0.148 A 
ATOM    100  C   UNL A   1      51.131  35.450  24.431  1.00  0.00     0.002 A 
ATOM    101  C   UNL A   1      52.062  35.857  26.635  1.00  0.00     0.091 A 
ATOM    102  F   UNL A   1      50.819  35.194  28.560  1.00  0.00    -0.205 F 
ATOM    103  C   UNL A   1      52.166  35.922  25.236  1.00  0.00     0.022 A 
BRANCH 101 104
ATOM    104  S   UNL A   1      53.397  36.586  27.590  1.00  0.00     0.127 S 
ATOM    105  O   UNL A   1      52.686  37.595  28.374  1.00  0.00    -0.237 OA
ATOM    106  O   UNL A   1      53.882  35.444  28.365  1.00  0.00    -0.237 OA
ATOM    107  O   UNL A   1      54.350  37.112  26.622  1.00  0.00    -0.744 OA
ENDBRANCH 101 104
ENDBRANCH  74  97
ENDBRANCH  48  49
ENDBRANCH  41  43
ENDBRANCH  40  41
ENDBRANCH  39  40
ENDBRANCH  38  39
ENDBRANCH  37  38
ENDBRANCH  36  37
ENDBRANCH   1  36
TORSDOF 24
ENDMDL
MODEL 3
REMARK VINA RESULT:      -9.7      3.873      6.621
REMARK SMILES CS(=O)(=O)c1ccc(C2=NN(c3ccc(C(=O)OCCOCCOCCOC(=O)c4ccc(-c5c6nc(c(-c7cccc(S(=O)(=O)[O-])c7F)c7ccc([nH]7)c(-c7cccc(S(=O)(=O)[O-])c7F)c7nc(c(-c8cccc(S(=O)(=O)[O-])c8F)c8ccc5[nH]8)C=C7)C=C6)cc4)cc3)[C@H](c3ccc(Cl)cc3)C2)cc1
REMARK SMILES IDX 22 1 21 2 20 3 19 4 18 5 16 6 17 7 15 8 12 9 13 10 94 11
REMARK SMILES IDX 14 12 93 13 11 14 9 15 10 16 103 17 95 18 8 19 5 20 6 21
REMARK SMILES IDX 105 22 7 23 104 24 2 25 1 26 3 27 4 28 96 29 97 30 102 31
REMARK SMILES IDX 98 32 101 33 99 34 100 35 23 36 24 37 25 38 26 39 27 40
REMARK SMILES IDX 28 41 29 42 30 43 31 44 92 45 32 46 91 47 33 48 34 49 35 50
REMARK SMILES IDX 85 51 36 52 90 53 84 54 86 55 37 56 89 57 83 58 82 59 38 61
REMARK SMILES IDX 70 62 50 63 69 64 51 65 54 66 68 67 87 68 52 69 53 70 67 72
REMARK SMILES IDX 88 73 55 74 39 75 40 76 48 77 41 78 43 79 49 80 42 81 44 82
REMARK SMILES IDX 45 83 46 84 47 85 71 86 72 87 80 88 73 89 75 90 81 91 74 92
REMARK SMILES IDX 76 93 77 94 78 95 79 96 56 97 57 98 65 99 58 100 60 101
REMARK SMILES IDX 66 102 59 103 61 104 62 105 63 106 64 107
REMARK H PARENT 86 60 54 71
REMARK Flexibility Score: inf
ROOT
ATOM      1  C   UNL A   1      35.488  33.258  31.978  1.00  0.00     0.188 C 
ENDROOT
BRANCH   1   2
ATOM      2  O   UNL A   1      34.283  33.671  31.379  1.00  0.00    -0.376 OA
BRANCH   2   3
ATOM      3  C   UNL A   1      34.279  34.305  30.112  1.00  0.00     0.202 C 
BRANCH   3   4
ATOM      4  C   UNL A   1      34.654  33.647  28.770  1.00  0.00     0.261 C 
BRANCH   4   5
ATOM      5  O   UNL A   1      33.982  32.437  28.415  1.00  0.00    -0.460 OA
BRANCH   5   6
ATOM      6  C   UNL A   1      34.723  31.303  28.510  1.00  0.00     0.338 C 
ATOM      7  O   UNL A   1      35.569  31.052  29.351  1.00  0.00    -0.246 OA
BRANCH   6   8
ATOM      8  C   UNL A   1      34.271  30.313  27.502  1.00  0.00     0.060 A 
ATOM      9  C   UNL A   1      33.270  28.403  25.698  1.00  0.00     0.060 A 
ATOM     10  C   UNL A   1      32.565  29.589  25.937  1.00  0.00     0.029 A 
ATOM     11  C   UNL A   1      34.539  28.250  26.278  1.00  0.00     0.029 A 
ATOM     12  C   UNL A   1      33.056  30.537  26.842  1.00  0.00     0.018 A 
ATOM     13  C   UNL A   1      35.033  29.185  27.191  1.00  0.00     0.018 A 
BRANCH   9  14
ATOM     14  N   UNL A   1      32.683  27.313  25.035  1.00  0.00    -0.257 N 
ATOM     15  C   UNL A   1      32.875  25.268  24.435  1.00  0.00     0.071 C 
ATOM     16  N   UNL A   1      32.959  26.048  25.467  1.00  0.00    -0.176 NA
ATOM     17  C   UNL A   1      32.611  25.941  23.119  1.00  0.00     0.091 C 
ATOM     18  C   UNL A   1      32.545  27.408  23.565  1.00  0.00     0.144 C 
BRANCH  15  19
ATOM     19  C   UNL A   1      32.958  23.798  24.525  1.00  0.00    -0.002 A 
ATOM     20  C   UNL A   1      33.177  21.018  24.534  1.00  0.00     0.067 A 
ATOM     21  C   UNL A   1      32.414  21.645  23.547  1.00  0.00     0.021 A 
ATOM     22  C   UNL A   1      33.814  21.773  25.527  1.00  0.00     0.021 A 
ATOM     23  C   UNL A   1      32.296  23.039  23.553  1.00  0.00     0.011 A 
ATOM     24  C   UNL A   1      33.716  23.169  25.515  1.00  0.00     0.011 A 
BRANCH  20  25
ATOM     25  S   UNL A   1      33.380  19.250  24.568  1.00  0.00     0.175 S 
ATOM     26  C   UNL A   1      32.835  18.689  26.157  1.00  0.00     0.163 C 
ATOM     27  O   UNL A   1      34.805  18.991  24.486  1.00  0.00    -0.224 OA
ATOM     28  O   UNL A   1      32.469  18.722  23.571  1.00  0.00    -0.224 OA
ENDBRANCH  20  25
ENDBRANCH  15  19
BRANCH  18  29
ATOM     29  C   UNL A   1      31.314  28.228  23.175  1.00  0.00    -0.023 A 
ATOM     30  C   UNL A   1      31.361  29.424  22.444  1.00  0.00     0.007 A 
ATOM     31  C   UNL A   1      30.040  27.721  23.509  1.00  0.00     0.007 A 
ATOM     32  C   UNL A   1      30.183  30.066  22.038  1.00  0.00     0.021 A 
ATOM     33  C   UNL A   1      28.865  28.330  23.060  1.00  0.00     0.021 A 
ATOM     34  C   UNL A   1      28.943  29.503  22.325  1.00  0.00     0.041 A 
ATOM     35  Cl  UNL A   1      27.505  30.256  21.756  1.00  0.00    -0.084 Cl
ENDBRANCH  18  29
ENDBRANCH   9  14
ENDBRANCH   6   8
ENDBRANCH   5   6
ENDBRANCH   4   5
ENDBRANCH   3   4
ENDBRANCH   2   3
ENDBRANCH   1   2
BRANCH   1  36
ATOM     36  C   UNL A   1      36.134  34.248  32.970  1.00  0.00     0.188 C 
BRANCH  36  37
ATOM     37  O   UNL A   1      37.448  34.029  33.449  1.00  0.00    -0.376 OA
BRANCH  37  38
ATOM     38  C   UNL A   1      37.755  34.348  34.797  1.00  0.00     0.202 C 
BRANCH  38  39
ATOM     39  C   UNL A   1      37.232  33.535  35.998  1.00  0.00     0.261 C 
BRANCH  39  40
ATOM     40  O   UNL A   1      37.005  32.137  35.790  1.00  0.00    -0.460 OA
BRANCH  40  41
ATOM     41  C   UNL A   1      38.024  31.317  36.143  1.00  0.00     0.338 C 
ATOM     42  O   UNL A   1      38.117  30.646  37.161  1.00  0.00    -0.246 OA
BRANCH  41  43
ATOM     43  C   UNL A   1      38.961  31.207  35.011  1.00  0.00     0.060 A 
ATOM     44  C   UNL A   1      38.510  30.682  33.789  1.00  0.00     0.016 A 
ATOM     45  C   UNL A   1      40.289  31.595  35.170  1.00  0.00     0.016 A 
ATOM     46  C   UNL A   1      39.392  30.545  32.718  1.00  0.00     0.010 A 
ATOM     47  C   UNL A   1      41.177  31.429  34.107  1.00  0.00     0.010 A 
ATOM     48  C   UNL A   1      40.739  30.883  32.885  1.00  0.00    -0.014 A 
BRANCH  48  49
ATOM     49  C   UNL A   1      41.747  30.517  31.863  1.00  0.00     0.031 A 
ATOM     50  C   UNL A   1      42.422  29.181  31.982  1.00  0.00     0.074 A 
ATOM     51  C   UNL A   1      42.109  31.382  30.899  1.00  0.00     0.049 A 
ATOM     52  N   UNL A   1      43.448  28.709  31.327  1.00  0.00    -0.248 NA
ATOM     53  C   UNL A   1      41.870  28.255  32.987  1.00  0.00     0.031 C 
ATOM     54  C   UNL A   1      41.508  32.694  30.670  1.00  0.00     0.029 A 
ATOM     55  N   UNL A   1      43.110  31.298  29.963  1.00  0.00    -0.354 N 
ATOM     56  C   UNL A   1      43.701  27.458  31.874  1.00  0.00     0.074 A 
ATOM     57  C   UNL A   1      42.714  27.238  32.907  1.00  0.00     0.031 C 
ATOM     58  C   UNL A   1      42.185  33.314  29.686  1.00  0.00     0.029 A 
ATOM     59  C   UNL A   1      43.288  32.462  29.250  1.00  0.00     0.049 A 
ATOM     60  H   UNL A   1      43.647  30.486  29.816  1.00  0.00     0.167 HD
ATOM     61  C   UNL A   1      44.669  26.573  31.544  1.00  0.00     0.034 A 
ATOM     62  C   UNL A   1      44.260  32.810  28.381  1.00  0.00     0.034 A 
ATOM     63  C   UNL A   1      45.638  26.794  30.508  1.00  0.00     0.049 A 
ATOM     64  C   UNL A   1      45.354  31.821  28.062  1.00  0.00     0.074 A 
ATOM     65  C   UNL A   1      46.628  25.937  30.062  1.00  0.00     0.029 A 
ATOM     66  N   UNL A   1      45.757  27.962  29.773  1.00  0.00    -0.354 N 
ATOM     67  N   UNL A   1      45.523  30.601  28.510  1.00  0.00    -0.248 NA
ATOM     68  C   UNL A   1      46.381  32.250  27.099  1.00  0.00     0.031 C 
ATOM     69  C   UNL A   1      47.374  26.605  29.087  1.00  0.00     0.029 A 
ATOM     70  C   UNL A   1      46.815  27.858  28.889  1.00  0.00     0.049 A 
ATOM     71  H   UNL A   1      45.175  28.751  29.866  1.00  0.00     0.167 HD
ATOM     72  C   UNL A   1      46.642  30.101  27.850  1.00  0.00     0.074 A 
ATOM     73  C   UNL A   1      47.108  31.148  26.967  1.00  0.00     0.031 C 
ATOM     74  C   UNL A   1      47.230  28.885  27.968  1.00  0.00     0.034 A 
BRANCH  61  75
ATOM     75  C   UNL A   1      44.734  25.282  32.316  1.00  0.00     0.023 A 
ATOM     76  C   UNL A   1      44.126  24.121  31.798  1.00  0.00     0.012 A 
ATOM     77  C   UNL A   1      45.449  25.208  33.527  1.00  0.00     0.148 A 
ATOM     78  C   UNL A   1      44.202  22.913  32.491  1.00  0.00     0.002 A 
ATOM     79  C   UNL A   1      45.563  23.992  34.187  1.00  0.00     0.091 A 
ATOM     80  F   UNL A   1      46.000  26.330  34.013  1.00  0.00    -0.205 F 
ATOM     81  C   UNL A   1      44.929  22.846  33.677  1.00  0.00     0.022 A 
BRANCH  79  82
ATOM     82  S   UNL A   1      46.546  23.784  35.674  1.00  0.00     0.127 S 
ATOM     83  O   UNL A   1      46.041  22.509  36.185  1.00  0.00    -0.237 OA
ATOM     84  O   UNL A   1      47.905  23.731  35.137  1.00  0.00    -0.237 OA
ATOM     85  O   UNL A   1      46.264  24.943  36.509  1.00  0.00    -0.744 OA
ENDBRANCH  79  82
ENDBRANCH  61  75
BRANCH  62  86
ATOM     86  C   UNL A   1      44.242  34.154  27.737  1.00  0.00     0.023 A 
ATOM     87  C   UNL A   1      43.596  34.319  26.496  1.00  0.00     0.012 A 
ATOM     88  C   UNL A   1      44.862  35.267  28.340  1.00  0.00     0.148 A 
ATOM     89  C   UNL A   1      43.596  35.556  25.851  1.00  0.00     0.002 A 
ATOM     90  C   UNL A   1      44.811  36.509  27.719  1.00  0.00     0.091 A 
ATOM     91  F   UNL A   1      45.484  35.088  29.513  1.00  0.00    -0.205 F 
ATOM     92  C   UNL A   1      44.195  36.652  26.466  1.00  0.00     0.022 A 
BRANCH  90  93
ATOM     93  S   UNL A   1      45.454  38.002  28.484  1.00  0.00     0.127 S 
ATOM     94  O   UNL A   1      44.790  39.045  27.707  1.00  0.00    -0.237 OA
ATOM     95  O   UNL A   1      44.977  37.861  29.861  1.00  0.00    -0.237 OA
ATOM     96  O   UNL A   1      46.901  37.930  28.337  1.00  0.00    -0.744 OA
ENDBRANCH  90  93
ENDBRANCH  62  86
BRANCH  74  97
ATOM     97  C   UNL A   1      48.405  28.571  27.077  1.00  0.00     0.023 A 
ATOM     98  C   UNL A   1      49.715  28.599  27.591  1.00  0.00     0.012 A 
ATOM     99  C   UNL A   1      48.188  28.129  25.756  1.00  0.00     0.148 A 
ATOM    100  C   UNL A   1      50.795  28.211  26.797  1.00  0.00     0.002 A 
ATOM    101  C   UNL A   1      49.261  27.693  24.989  1.00  0.00     0.091 A 
ATOM    102  F   UNL A   1      46.933  28.123  25.283  1.00  0.00    -0.205 F 
ATOM    103  C   UNL A   1      50.566  27.744  25.504  1.00  0.00     0.022 A 
BRANCH 101 104
ATOM    104  S   UNL A   1      49.053  26.978  23.354  1.00  0.00     0.127 S 
ATOM    105  O   UNL A   1      48.451  28.087  22.618  1.00  0.00    -0.237 OA
ATOM    106  O   UNL A   1      50.432  26.671  22.974  1.00  0.00    -0.237 OA
ATOM    107  O   UNL A   1      48.198  25.811  23.527  1.00  0.00    -0.744 OA
ENDBRANCH 101 104
ENDBRANCH  74  97
ENDBRANCH  48  49
ENDBRANCH  41  43
ENDBRANCH  40  41
ENDBRANCH  39  40
ENDBRANCH  38  39
ENDBRANCH  37  38
ENDBRANCH  36  37
ENDBRANCH   1  36
TORSDOF 24
ENDMDL
