MODEL 1
REMARK VINA RESULT:      -8.0      0.000      0.000
REMARK SMILES CC[C@@H](C)[C@@H](NC(=O)[C@H](C)[NH3+])C(=O)OCCOCCOCCOC(=O)c1ccc(-c2c3nc(c(-c4cccc(S(=O)(=O)[O-])c4F)c4ccc([nH]4)c(-c4cccc(S(=O)(=O)[O-])c4F)c4nc(c(-c5cccc(S(=O)(=O)[O-])c5F)c5ccc2[nH]5)C=C4)C=C3)cc1
REMARK SMILES IDX 18 1 17 2 16 3 15 4 14 5 12 6 13 7 5 8 3 9 4 10 2 11 1 12
REMARK SMILES IDX 6 13 7 14 8 16 9 17 10 18 11 19 19 23 20 24 21 25 22 26
REMARK SMILES IDX 23 27 24 28 25 29 26 30 27 31 88 32 28 33 87 34 29 35 30 36
REMARK SMILES IDX 31 37 81 38 32 39 86 40 80 41 82 42 33 43 85 44 79 45 78 46
REMARK SMILES IDX 34 48 66 49 46 50 65 51 47 52 50 53 64 54 83 55 48 56 49 57
REMARK SMILES IDX 63 59 84 60 51 61 35 62 36 63 44 64 37 65 39 66 45 67 38 68
REMARK SMILES IDX 40 69 41 70 42 71 43 72 67 73 68 74 76 75 69 76 71 77 77 78
REMARK SMILES IDX 70 79 72 80 73 81 74 82 75 83 52 84 53 85 61 86 54 87 56 88
REMARK SMILES IDX 62 89 55 90 57 91 58 92 59 93 60 94
REMARK H PARENT 6 15 11 20 11 21 11 22 82 47 50 58
REMARK Flexibility Score: inf
ROOT
ATOM      1  C   UNL A   1      39.006  21.703  25.995  1.00  0.00     0.188 C 
ENDROOT
BRANCH   1   2
ATOM      2  O   UNL A   1      38.192  22.723  25.439  1.00  0.00    -0.376 OA
BRANCH   2   3
ATOM      3  C   UNL A   1      37.046  23.084  26.199  1.00  0.00     0.202 C 
BRANCH   3   4
ATOM      4  C   UNL A   1      35.785  23.503  25.427  1.00  0.00     0.261 C 
BRANCH   4   5
ATOM      5  O   UNL A   1      34.641  22.599  25.393  1.00  0.00    -0.462 OA
BRANCH   5   6
ATOM      6  C   UNL A   1      34.218  22.246  24.144  1.00  0.00     0.328 C 
ATOM      7  O   UNL A   1      34.610  22.803  23.120  1.00  0.00    -0.250 OA
BRANCH   6   8
ATOM      8  C   UNL A   1      33.097  21.175  24.065  1.00  0.00     0.195 C 
BRANCH   8   9
ATOM      9  C   UNL A   1      33.321  19.630  24.169  1.00  0.00     0.019 C 
ATOM     10  C   UNL A   1      32.511  18.869  23.123  1.00  0.00     0.010 C 
BRANCH   9  11
ATOM     11  C   UNL A   1      32.908  19.138  25.599  1.00  0.00     0.002 C 
ATOM     12  C   UNL A   1      32.589  17.655  25.755  1.00  0.00     0.004 C 
ENDBRANCH   9  11
ENDBRANCH   8   9
BRANCH   8  13
ATOM     13  N   UNL A   1      31.913  21.581  24.867  1.00  0.00    -0.337 N 
ATOM     14  C   UNL A   1      31.428  22.795  25.245  1.00  0.00     0.278 C 
ATOM     15  H   UNL A   1      31.373  20.823  25.186  1.00  0.00     0.164 HD
ATOM     16  O   UNL A   1      30.786  22.841  26.302  1.00  0.00    -0.268 OA
BRANCH  14  17
ATOM     17  C   UNL A   1      31.513  24.032  24.319  1.00  0.00     0.267 C 
ATOM     18  C   UNL A   1      32.131  25.264  24.955  1.00  0.00     0.086 C 
BRANCH  17  19
ATOM     19  N   UNL A   1      30.149  24.405  23.864  1.00  0.00    -0.348 N 
ATOM     20  H   UNL A   1      29.964  23.976  22.958  1.00  0.00     0.345 HD
ATOM     21  H   UNL A   1      30.085  25.420  23.780  1.00  0.00     0.345 HD
ATOM     22  H   UNL A   1      29.462  24.076  24.543  1.00  0.00     0.345 HD
ENDBRANCH  17  19
ENDBRANCH  14  17
ENDBRANCH   8  13
ENDBRANCH   6   8
ENDBRANCH   5   6
ENDBRANCH   4   5
ENDBRANCH   3   4
ENDBRANCH   2   3
ENDBRANCH   1   2
BRANCH   1  23
ATOM     23  C   UNL A   1      40.021  22.168  27.044  1.00  0.00     0.188 C 
BRANCH  23  24
ATOM     24  O   UNL A   1      40.744  21.124  27.688  1.00  0.00    -0.376 OA
BRANCH  24  25
ATOM     25  C   UNL A   1      40.847  19.874  27.003  1.00  0.00     0.202 C 
BRANCH  25  26
ATOM     26  C   UNL A   1      42.156  19.627  26.239  1.00  0.00     0.261 C 
BRANCH  26  27
ATOM     27  O   UNL A   1      42.560  20.729  25.404  1.00  0.00    -0.460 OA
BRANCH  27  28
ATOM     28  C   UNL A   1      43.785  21.263  25.624  1.00  0.00     0.338 C 
ATOM     29  O   UNL A   1      44.842  20.863  25.162  1.00  0.00    -0.246 OA
BRANCH  28  30
ATOM     30  C   UNL A   1      43.599  22.586  26.280  1.00  0.00     0.060 A 
ATOM     31  C   UNL A   1      43.133  23.652  25.498  1.00  0.00     0.016 A 
ATOM     32  C   UNL A   1      43.749  22.753  27.664  1.00  0.00     0.016 A 
ATOM     33  C   UNL A   1      42.871  24.893  26.081  1.00  0.00     0.010 A 
ATOM     34  C   UNL A   1      43.487  23.994  28.248  1.00  0.00     0.010 A 
ATOM     35  C   UNL A   1      43.095  25.082  27.451  1.00  0.00    -0.014 A 
BRANCH  35  36
ATOM     36  C   UNL A   1      43.199  26.459  27.994  1.00  0.00     0.031 A 
ATOM     37  C   UNL A   1      44.576  27.063  28.081  1.00  0.00     0.074 A 
ATOM     38  C   UNL A   1      42.126  27.165  28.393  1.00  0.00     0.049 A 
ATOM     39  N   UNL A   1      44.945  28.227  28.544  1.00  0.00    -0.248 NA
ATOM     40  C   UNL A   1      45.686  26.234  27.578  1.00  0.00     0.031 C 
ATOM     41  C   UNL A   1      40.740  26.704  28.355  1.00  0.00     0.029 A 
ATOM     42  N   UNL A   1      42.049  28.424  28.935  1.00  0.00    -0.354 N 
ATOM     43  C   UNL A   1      46.329  28.259  28.413  1.00  0.00     0.074 A 
ATOM     44  C   UNL A   1      46.735  26.993  27.846  1.00  0.00     0.031 C 
ATOM     45  C   UNL A   1      39.951  27.660  28.879  1.00  0.00     0.029 A 
ATOM     46  C   UNL A   1      40.776  28.788  29.309  1.00  0.00     0.049 A 
ATOM     47  H   UNL A   1      42.832  29.012  29.046  1.00  0.00     0.167 HD
ATOM     48  C   UNL A   1      47.189  29.257  28.716  1.00  0.00     0.034 A 
ATOM     49  C   UNL A   1      40.338  29.895  29.946  1.00  0.00     0.034 A 
ATOM     50  C   UNL A   1      46.792  30.521  29.266  1.00  0.00     0.049 A 
ATOM     51  C   UNL A   1      41.321  30.982  30.307  1.00  0.00     0.074 A 
ATOM     52  C   UNL A   1      47.588  31.608  29.581  1.00  0.00     0.029 A 
ATOM     53  N   UNL A   1      45.492  30.866  29.596  1.00  0.00    -0.354 N 
ATOM     54  N   UNL A   1      42.610  31.045  30.077  1.00  0.00    -0.248 NA
ATOM     55  C   UNL A   1      40.781  32.168  30.993  1.00  0.00     0.031 C 
ATOM     56  C   UNL A   1      46.770  32.602  30.127  1.00  0.00     0.029 A 
ATOM     57  C   UNL A   1      45.462  32.145  30.121  1.00  0.00     0.049 A 
ATOM     58  H   UNL A   1      44.705  30.286  29.476  1.00  0.00     0.167 HD
ATOM     59  C   UNL A   1      43.027  32.286  30.554  1.00  0.00     0.074 A 
ATOM     60  C   UNL A   1      41.848  32.950  31.069  1.00  0.00     0.031 C 
ATOM     61  C   UNL A   1      44.274  32.820  30.576  1.00  0.00     0.034 A 
BRANCH  48  62
ATOM     62  C   UNL A   1      48.646  29.018  28.435  1.00  0.00     0.023 A 
ATOM     63  C   UNL A   1      49.507  28.642  29.486  1.00  0.00     0.012 A 
ATOM     64  C   UNL A   1      49.158  29.142  27.130  1.00  0.00     0.148 A 
ATOM     65  C   UNL A   1      50.864  28.427  29.249  1.00  0.00     0.002 A 
ATOM     66  C   UNL A   1      50.501  28.880  26.893  1.00  0.00     0.091 A 
ATOM     67  F   UNL A   1      48.328  29.531  26.152  1.00  0.00    -0.205 F 
ATOM     68  C   UNL A   1      51.358  28.535  27.952  1.00  0.00     0.022 A 
BRANCH  66  69
ATOM     69  S   UNL A   1      51.217  28.923  25.247  1.00  0.00     0.127 S 
ATOM     70  O   UNL A   1      51.331  30.361  25.012  1.00  0.00    -0.237 OA
ATOM     71  O   UNL A   1      52.491  28.234  25.450  1.00  0.00    -0.237 OA
ATOM     72  O   UNL A   1      50.278  28.220  24.383  1.00  0.00    -0.744 OA
ENDBRANCH  66  69
ENDBRANCH  48  62
BRANCH  49  73
ATOM     73  C   UNL A   1      38.890  30.048  30.270  1.00  0.00     0.023 A 
ATOM     74  C   UNL A   1      38.354  29.396  31.399  1.00  0.00     0.012 A 
ATOM     75  C   UNL A   1      38.041  30.827  29.460  1.00  0.00     0.148 A 
ATOM     76  C   UNL A   1      36.993  29.493  31.697  1.00  0.00     0.002 A 
ATOM     77  C   UNL A   1      36.698  30.963  29.794  1.00  0.00     0.091 A 
ATOM     78  F   UNL A   1      38.565  31.420  28.379  1.00  0.00    -0.205 F 
ATOM     79  C   UNL A   1      36.169  30.283  30.901  1.00  0.00     0.022 A 
BRANCH  77  80
ATOM     80  S   UNL A   1      35.587  32.051  28.894  1.00  0.00     0.127 S 
ATOM     81  O   UNL A   1      34.424  32.086  29.778  1.00  0.00    -0.237 OA
ATOM     82  O   UNL A   1      36.359  33.292  28.841  1.00  0.00    -0.237 OA
ATOM     83  O   UNL A   1      35.378  31.415  27.600  1.00  0.00    -0.744 OA
ENDBRANCH  77  80
ENDBRANCH  49  73
BRANCH  61  84
ATOM     84  C   UNL A   1      44.440  34.210  31.135  1.00  0.00     0.023 A 
ATOM     85  C   UNL A   1      44.848  34.388  32.472  1.00  0.00     0.012 A 
ATOM     86  C   UNL A   1      44.282  35.339  30.306  1.00  0.00     0.148 A 
ATOM     87  C   UNL A   1      45.068  35.667  32.982  1.00  0.00     0.002 A 
ATOM     88  C   UNL A   1      44.550  36.607  30.807  1.00  0.00     0.091 A 
ATOM     89  F   UNL A   1      43.878  35.152  29.041  1.00  0.00    -0.205 F 
ATOM     90  C   UNL A   1      44.932  36.774  32.147  1.00  0.00     0.022 A 
BRANCH  88  91
ATOM     91  S   UNL A   1      44.498  38.081  29.779  1.00  0.00     0.127 S 
ATOM     92  O   UNL A   1      44.712  39.139  30.765  1.00  0.00    -0.237 OA
ATOM     93  O   UNL A   1      45.619  37.862  28.866  1.00  0.00    -0.237 OA
ATOM     94  O   UNL A   1      43.189  38.078  29.140  1.00  0.00    -0.744 OA
ENDBRANCH  88  91
ENDBRANCH  61  84
ENDBRANCH  35  36
ENDBRANCH  28  30
ENDBRANCH  27  28
ENDBRANCH  26  27
ENDBRANCH  25  26
ENDBRANCH  24  25
ENDBRANCH  23  24
ENDBRANCH   1  23
TORSDOF 25
ENDMDL
MODEL 2
REMARK VINA RESULT:      -7.5      8.064     14.704
REMARK SMILES CC[C@@H](C)[C@@H](NC(=O)[C@H](C)[NH3+])C(=O)OCCOCCOCCOC(=O)c1ccc(-c2c3nc(c(-c4cccc(S(=O)(=O)[O-])c4F)c4ccc([nH]4)c(-c4cccc(S(=O)(=O)[O-])c4F)c4nc(c(-c5cccc(S(=O)(=O)[O-])c5F)c5ccc2[nH]5)C=C4)C=C3)cc1
REMARK SMILES IDX 18 1 17 2 16 3 15 4 14 5 12 6 13 7 5 8 3 9 4 10 2 11 1 12
REMARK SMILES IDX 6 13 7 14 8 16 9 17 10 18 11 19 19 23 20 24 21 25 22 26
REMARK SMILES IDX 23 27 24 28 25 29 26 30 27 31 88 32 28 33 87 34 29 35 30 36
REMARK SMILES IDX 31 37 81 38 32 39 86 40 80 41 82 42 33 43 85 44 79 45 78 46
REMARK SMILES IDX 34 48 66 49 46 50 65 51 47 52 50 53 64 54 83 55 48 56 49 57
REMARK SMILES IDX 63 59 84 60 51 61 35 62 36 63 44 64 37 65 39 66 45 67 38 68
REMARK SMILES IDX 40 69 41 70 42 71 43 72 67 73 68 74 76 75 69 76 71 77 77 78
REMARK SMILES IDX 70 79 72 80 73 81 74 82 75 83 52 84 53 85 61 86 54 87 56 88
REMARK SMILES IDX 62 89 55 90 57 91 58 92 59 93 60 94
REMARK H PARENT 6 15 11 20 11 21 11 22 82 47 50 58
REMARK Flexibility Score: inf
ROOT
ATOM      1  C   UNL A   1      29.744  37.434  34.958  1.00  0.00     0.188 C 
ENDROOT
BRANCH   1   2
ATOM      2  O   UNL A   1      30.711  37.254  35.981  1.00  0.00    -0.376 OA
BRANCH   2   3
ATOM      3  C   UNL A   1      30.197  37.078  37.294  1.00  0.00     0.202 C 
BRANCH   3   4
ATOM      4  C   UNL A   1      31.150  37.340  38.471  1.00  0.00     0.261 C 
BRANCH   4   5
ATOM      5  O   UNL A   1      30.741  36.948  39.815  1.00  0.00    -0.462 OA
BRANCH   5   6
ATOM      6  C   UNL A   1      31.642  37.233  40.801  1.00  0.00     0.328 C 
ATOM      7  O   UNL A   1      32.655  37.904  40.612  1.00  0.00    -0.250 OA
BRANCH   6   8
ATOM      8  C   UNL A   1      31.405  36.556  42.177  1.00  0.00     0.195 C 
BRANCH   8   9
ATOM      9  C   UNL A   1      30.694  37.227  43.399  1.00  0.00     0.019 C 
ATOM     10  C   UNL A   1      30.759  38.751  43.326  1.00  0.00     0.010 C 
BRANCH   9  11
ATOM     11  C   UNL A   1      31.373  36.745  44.727  1.00  0.00     0.002 C 
ATOM     12  C   UNL A   1      30.725  35.567  45.447  1.00  0.00     0.004 C 
ENDBRANCH   9  11
ENDBRANCH   8   9
BRANCH   8  13
ATOM     13  N   UNL A   1      30.935  35.156  42.010  1.00  0.00    -0.337 N 
ATOM     14  C   UNL A   1      31.590  33.984  41.789  1.00  0.00     0.278 C 
ATOM     15  H   UNL A   1      29.958  35.057  42.072  1.00  0.00     0.164 HD
ATOM     16  O   UNL A   1      30.975  33.102  41.175  1.00  0.00    -0.268 OA
BRANCH  14  17
ATOM     17  C   UNL A   1      32.969  33.688  42.424  1.00  0.00     0.267 C 
ATOM     18  C   UNL A   1      34.124  33.622  41.441  1.00  0.00     0.086 C 
BRANCH  17  19
ATOM     19  N   UNL A   1      32.917  32.385  43.135  1.00  0.00    -0.348 N 
ATOM     20  H   UNL A   1      32.193  32.417  43.852  1.00  0.00     0.345 HD
ATOM     21  H   UNL A   1      33.821  32.201  43.573  1.00  0.00     0.345 HD
ATOM     22  H   UNL A   1      32.706  31.642  42.470  1.00  0.00     0.345 HD
ENDBRANCH  17  19
ENDBRANCH  14  17
ENDBRANCH   8  13
ENDBRANCH   6   8
ENDBRANCH   5   6
ENDBRANCH   4   5
ENDBRANCH   3   4
ENDBRANCH   2   3
ENDBRANCH   1   2
BRANCH   1  23
ATOM     23  C   UNL A   1      30.034  36.704  33.642  1.00  0.00     0.188 C 
BRANCH  23  24
ATOM     24  O   UNL A   1      31.368  36.837  33.160  1.00  0.00    -0.376 OA
BRANCH  24  25
ATOM     25  C   UNL A   1      31.759  36.003  32.068  1.00  0.00     0.202 C 
BRANCH  25  26
ATOM     26  C   UNL A   1      33.236  36.079  31.653  1.00  0.00     0.261 C 
BRANCH  26  27
ATOM     27  O   UNL A   1      33.438  36.141  30.228  1.00  0.00    -0.460 OA
BRANCH  27  28
ATOM     28  C   UNL A   1      33.277  34.996  29.523  1.00  0.00     0.338 C 
ATOM     29  O   UNL A   1      32.455  34.798  28.644  1.00  0.00    -0.246 OA
BRANCH  28  30
ATOM     30  C   UNL A   1      34.452  34.122  29.790  1.00  0.00     0.060 A 
ATOM     31  C   UNL A   1      34.269  33.001  30.612  1.00  0.00     0.016 A 
ATOM     32  C   UNL A   1      35.680  34.316  29.141  1.00  0.00     0.016 A 
ATOM     33  C   UNL A   1      35.321  32.109  30.832  1.00  0.00     0.010 A 
ATOM     34  C   UNL A   1      36.731  33.424  29.361  1.00  0.00     0.010 A 
ATOM     35  C   UNL A   1      36.571  32.344  30.246  1.00  0.00    -0.014 A 
BRANCH  35  36
ATOM     36  C   UNL A   1      37.771  31.648  30.773  1.00  0.00     0.031 A 
ATOM     37  C   UNL A   1      38.291  32.091  32.114  1.00  0.00     0.074 A 
ATOM     38  C   UNL A   1      38.384  30.654  30.105  1.00  0.00     0.049 A 
ATOM     39  N   UNL A   1      39.333  31.674  32.781  1.00  0.00    -0.248 NA
ATOM     40  C   UNL A   1      37.528  33.154  32.794  1.00  0.00     0.031 C 
ATOM     41  C   UNL A   1      37.980  30.124  28.805  1.00  0.00     0.029 A 
ATOM     42  N   UNL A   1      39.503  29.930  30.433  1.00  0.00    -0.354 N 
ATOM     43  C   UNL A   1      39.367  32.439  33.941  1.00  0.00     0.074 A 
ATOM     44  C   UNL A   1      38.253  33.358  33.880  1.00  0.00     0.031 C 
ATOM     45  C   UNL A   1      38.857  29.174  28.433  1.00  0.00     0.029 A 
ATOM     46  C   UNL A   1      39.896  29.046  29.455  1.00  0.00     0.049 A 
ATOM     47  H   UNL A   1      39.981  30.034  31.288  1.00  0.00     0.167 HD
ATOM     48  C   UNL A   1      40.232  32.374  34.978  1.00  0.00     0.034 A 
ATOM     49  C   UNL A   1      40.980  28.245  29.388  1.00  0.00     0.034 A 
ATOM     50  C   UNL A   1      41.332  31.456  35.052  1.00  0.00     0.049 A 
ATOM     51  C   UNL A   1      41.953  28.215  30.542  1.00  0.00     0.074 A 
ATOM     52  C   UNL A   1      42.249  31.295  36.075  1.00  0.00     0.029 A 
ATOM     53  N   UNL A   1      41.674  30.553  34.060  1.00  0.00    -0.354 N 
ATOM     54  N   UNL A   1      41.911  28.864  31.680  1.00  0.00    -0.248 NA
ATOM     55  C   UNL A   1      43.112  27.315  30.413  1.00  0.00     0.031 C 
ATOM     56  C   UNL A   1      43.162  30.310  35.689  1.00  0.00     0.029 A 
ATOM     57  C   UNL A   1      42.794  29.836  34.440  1.00  0.00     0.049 A 
ATOM     58  H   UNL A   1      41.192  30.438  33.209  1.00  0.00     0.167 HD
ATOM     59  C   UNL A   1      43.011  28.427  32.414  1.00  0.00     0.074 A 
ATOM     60  C   UNL A   1      43.690  27.442  31.600  1.00  0.00     0.031 C 
ATOM     61  C   UNL A   1      43.428  28.816  33.646  1.00  0.00     0.034 A 
BRANCH  48  62
ATOM     62  C   UNL A   1      40.002  33.318  36.124  1.00  0.00     0.023 A 
ATOM     63  C   UNL A   1      40.463  34.648  36.039  1.00  0.00     0.012 A 
ATOM     64  C   UNL A   1      39.309  32.898  37.276  1.00  0.00     0.148 A 
ATOM     65  C   UNL A   1      40.270  35.535  37.096  1.00  0.00     0.002 A 
ATOM     66  C   UNL A   1      39.079  33.801  38.305  1.00  0.00     0.091 A 
ATOM     67  F   UNL A   1      38.907  31.621  37.349  1.00  0.00    -0.205 F 
ATOM     68  C   UNL A   1      39.569  35.115  38.223  1.00  0.00     0.022 A 
BRANCH  66  69
ATOM     69  S   UNL A   1      38.125  33.376  39.766  1.00  0.00     0.127 S 
ATOM     70  O   UNL A   1      36.822  33.060  39.185  1.00  0.00    -0.237 OA
ATOM     71  O   UNL A   1      38.859  32.222  40.285  1.00  0.00    -0.237 OA
ATOM     72  O   UNL A   1      38.159  34.553  40.623  1.00  0.00    -0.744 OA
ENDBRANCH  66  69
ENDBRANCH  48  62
BRANCH  49  73
ATOM     73  C   UNL A   1      41.202  27.384  28.191  1.00  0.00     0.023 A 
ATOM     74  C   UNL A   1      41.866  27.911  27.065  1.00  0.00     0.012 A 
ATOM     75  C   UNL A   1      40.750  26.050  28.159  1.00  0.00     0.148 A 
ATOM     76  C   UNL A   1      42.048  27.134  25.918  1.00  0.00     0.002 A 
ATOM     77  C   UNL A   1      40.982  25.267  27.035  1.00  0.00     0.091 A 
ATOM     78  F   UNL A   1      40.101  25.576  29.231  1.00  0.00    -0.205 F 
ATOM     79  C   UNL A   1      41.616  25.811  25.907  1.00  0.00     0.022 A 
BRANCH  77  80
ATOM     80  S   UNL A   1      40.563  23.521  26.974  1.00  0.00     0.127 S 
ATOM     81  O   UNL A   1      41.348  22.987  28.084  1.00  0.00    -0.237 OA
ATOM     82  O   UNL A   1      39.118  23.551  27.199  1.00  0.00    -0.237 OA
ATOM     83  O   UNL A   1      40.958  23.068  25.646  1.00  0.00    -0.744 OA
ENDBRANCH  77  80
ENDBRANCH  49  73
BRANCH  61  84
ATOM     84  C   UNL A   1      44.654  28.153  34.221  1.00  0.00     0.023 A 
ATOM     85  C   UNL A   1      45.921  28.744  34.049  1.00  0.00     0.012 A 
ATOM     86  C   UNL A   1      44.536  26.994  35.014  1.00  0.00     0.148 A 
ATOM     87  C   UNL A   1      47.054  28.176  34.631  1.00  0.00     0.002 A 
ATOM     88  C   UNL A   1      45.661  26.461  35.631  1.00  0.00     0.091 A 
ATOM     89  F   UNL A   1      43.324  26.436  35.155  1.00  0.00    -0.205 F 
ATOM     90  C   UNL A   1      46.922  27.044  35.432  1.00  0.00     0.022 A 
BRANCH  88  91
ATOM     91  S   UNL A   1      45.572  25.065  36.760  1.00  0.00     0.127 S 
ATOM     92  O   UNL A   1      45.525  23.935  35.833  1.00  0.00    -0.237 OA
ATOM     93  O   UNL A   1      46.823  25.189  37.507  1.00  0.00    -0.237 OA
ATOM     94  O   UNL A   1      44.370  25.270  37.557  1.00  0.00    -0.744 OA
ENDBRANCH  88  91
ENDBRANCH  61  84
ENDBRANCH  35  36
ENDBRANCH  28  30
ENDBRANCH  27  28
ENDBRANCH  26  27
ENDBRANCH  25  26
ENDBRANCH  24  25
ENDBRANCH  23  24
ENDBRANCH   1  23
TORSDOF 25
ENDMDL
MODEL 3
REMARK VINA RESULT:      -7.4      4.483      6.749
REMARK SMILES CC[C@@H](C)[C@@H](NC(=O)[C@H](C)[NH3+])C(=O)OCCOCCOCCOC(=O)c1ccc(-c2c3nc(c(-c4cccc(S(=O)(=O)[O-])c4F)c4ccc([nH]4)c(-c4cccc(S(=O)(=O)[O-])c4F)c4nc(c(-c5cccc(S(=O)(=O)[O-])c5F)c5ccc2[nH]5)C=C4)C=C3)cc1
REMARK SMILES IDX 18 1 17 2 16 3 15 4 14 5 12 6 13 7 5 8 3 9 4 10 2 11 1 12
REMARK SMILES IDX 6 13 7 14 8 16 9 17 10 18 11 19 19 23 20 24 21 25 22 26
REMARK SMILES IDX 23 27 24 28 25 29 26 30 27 31 88 32 28 33 87 34 29 35 30 36
REMARK SMILES IDX 31 37 81 38 32 39 86 40 80 41 82 42 33 43 85 44 79 45 78 46
REMARK SMILES IDX 34 48 66 49 46 50 65 51 47 52 50 53 64 54 83 55 48 56 49 57
REMARK SMILES IDX 63 59 84 60 51 61 35 62 36 63 44 64 37 65 39 66 45 67 38 68
REMARK SMILES IDX 40 69 41 70 42 71 43 72 67 73 68 74 76 75 69 76 71 77 77 78
REMARK SMILES IDX 70 79 72 80 73 81 74 82 75 83 52 84 53 85 61 86 54 87 56 88
REMARK SMILES IDX 62 89 55 90 57 91 58 92 59 93 60 94
REMARK H PARENT 6 15 11 20 11 21 11 22 82 47 50 58
REMARK Flexibility Score: inf
ROOT
ATOM      1  C   UNL A   1      39.374  21.181  25.992  1.00  0.00     0.188 C 
ENDROOT
BRANCH   1   2
ATOM      2  O   UNL A   1      38.109  21.417  25.395  1.00  0.00    -0.376 OA
BRANCH   2   3
ATOM      3  C   UNL A   1      37.570  22.719  25.582  1.00  0.00     0.202 C 
BRANCH   3   4
ATOM      4  C   UNL A   1      36.419  23.151  24.658  1.00  0.00     0.261 C 
BRANCH   4   5
ATOM      5  O   UNL A   1      35.652  24.345  24.993  1.00  0.00    -0.462 OA
BRANCH   5   6
ATOM      6  C   UNL A   1      34.461  24.112  25.619  1.00  0.00     0.328 C 
ATOM      7  O   UNL A   1      34.349  23.371  26.594  1.00  0.00    -0.250 OA
BRANCH   6   8
ATOM      8  C   UNL A   1      33.197  24.729  24.963  1.00  0.00     0.195 C 
BRANCH   8   9
ATOM      9  C   UNL A   1      32.616  26.144  25.287  1.00  0.00     0.019 C 
ATOM     10  C   UNL A   1      33.609  27.000  26.070  1.00  0.00     0.010 C 
BRANCH   9  11
ATOM     11  C   UNL A   1      31.298  25.989  26.124  1.00  0.00     0.002 C 
ATOM     12  C   UNL A   1      29.989  25.927  25.346  1.00  0.00     0.004 C 
ENDBRANCH   9  11
ENDBRANCH   8   9
BRANCH   8  13
ATOM     13  N   UNL A   1      33.186  24.490  23.496  1.00  0.00    -0.337 N 
ATOM     14  C   UNL A   1      33.101  23.355  22.747  1.00  0.00     0.278 C 
ATOM     15  H   UNL A   1      33.251  25.312  22.960  1.00  0.00     0.164 HD
ATOM     16  O   UNL A   1      33.636  23.376  21.631  1.00  0.00    -0.268 OA
BRANCH  14  17
ATOM     17  C   UNL A   1      32.230  22.154  23.183  1.00  0.00     0.267 C 
ATOM     18  C   UNL A   1      32.922  21.162  24.099  1.00  0.00     0.086 C 
BRANCH  17  19
ATOM     19  N   UNL A   1      31.779  21.408  21.980  1.00  0.00    -0.348 N 
ATOM     20  H   UNL A   1      32.529  21.392  21.289  1.00  0.00     0.345 HD
ATOM     21  H   UNL A   1      30.959  21.867  21.582  1.00  0.00     0.345 HD
ATOM     22  H   UNL A   1      31.538  20.452  22.243  1.00  0.00     0.345 HD
ENDBRANCH  17  19
ENDBRANCH  14  17
ENDBRANCH   8  13
ENDBRANCH   6   8
ENDBRANCH   5   6
ENDBRANCH   4   5
ENDBRANCH   3   4
ENDBRANCH   2   3
ENDBRANCH   1   2
BRANCH   1  23
ATOM     23  C   UNL A   1      40.054  22.410  26.603  1.00  0.00     0.188 C 
BRANCH  23  24
ATOM     24  O   UNL A   1      41.428  22.238  26.933  1.00  0.00    -0.376 OA
BRANCH  24  25
ATOM     25  C   UNL A   1      42.167  21.269  26.188  1.00  0.00     0.202 C 
BRANCH  25  26
ATOM     26  C   UNL A   1      43.464  21.765  25.530  1.00  0.00     0.261 C 
BRANCH  26  27
ATOM     27  O   UNL A   1      43.344  23.059  24.909  1.00  0.00    -0.460 OA
BRANCH  27  28
ATOM     28  C   UNL A   1      44.468  23.805  24.797  1.00  0.00     0.338 C 
ATOM     29  O   UNL A   1      45.326  23.695  23.937  1.00  0.00    -0.246 OA
BRANCH  28  30
ATOM     30  C   UNL A   1      44.343  24.969  25.717  1.00  0.00     0.060 A 
ATOM     31  C   UNL A   1      45.520  25.565  26.193  1.00  0.00     0.016 A 
ATOM     32  C   UNL A   1      43.102  25.554  26.005  1.00  0.00     0.016 A 
ATOM     33  C   UNL A   1      45.458  26.704  26.997  1.00  0.00     0.010 A 
ATOM     34  C   UNL A   1      43.040  26.693  26.809  1.00  0.00     0.010 A 
ATOM     35  C   UNL A   1      44.214  27.244  27.349  1.00  0.00    -0.014 A 
BRANCH  35  36
ATOM     36  C   UNL A   1      44.120  28.186  28.492  1.00  0.00     0.031 A 
ATOM     37  C   UNL A   1      44.064  27.590  29.873  1.00  0.00     0.074 A 
ATOM     38  C   UNL A   1      44.092  29.521  28.330  1.00  0.00     0.049 A 
ATOM     39  N   UNL A   1      43.948  28.183  31.031  1.00  0.00    -0.248 NA
ATOM     40  C   UNL A   1      44.147  26.120  29.956  1.00  0.00     0.031 C 
ATOM     41  C   UNL A   1      44.148  30.227  27.053  1.00  0.00     0.029 A 
ATOM     42  N   UNL A   1      43.984  30.521  29.265  1.00  0.00    -0.354 N 
ATOM     43  C   UNL A   1      43.917  27.162  31.973  1.00  0.00     0.074 A 
ATOM     44  C   UNL A   1      44.007  25.912  31.254  1.00  0.00     0.031 C 
ATOM     45  C   UNL A   1      44.047  31.549  27.284  1.00  0.00     0.029 A 
ATOM     46  C   UNL A   1      43.896  31.780  28.720  1.00  0.00     0.049 A 
ATOM     47  H   UNL A   1      43.970  30.352  30.236  1.00  0.00     0.167 HD
ATOM     48  C   UNL A   1      43.841  27.250  33.320  1.00  0.00     0.034 A 
ATOM     49  C   UNL A   1      43.694  32.976  29.314  1.00  0.00     0.034 A 
ATOM     50  C   UNL A   1      43.764  28.487  34.043  1.00  0.00     0.049 A 
ATOM     51  C   UNL A   1      43.576  33.047  30.818  1.00  0.00     0.074 A 
ATOM     52  C   UNL A   1      43.713  28.680  35.411  1.00  0.00     0.029 A 
ATOM     53  N   UNL A   1      43.715  29.741  33.458  1.00  0.00    -0.354 N 
ATOM     54  N   UNL A   1      43.660  32.084  31.703  1.00  0.00    -0.248 NA
ATOM     55  C   UNL A   1      43.365  34.380  31.407  1.00  0.00     0.031 C 
ATOM     56  C   UNL A   1      43.606  30.053  35.653  1.00  0.00     0.029 A 
ATOM     57  C   UNL A   1      43.624  30.715  34.435  1.00  0.00     0.049 A 
ATOM     58  H   UNL A   1      43.741  29.914  32.488  1.00  0.00     0.167 HD
ATOM     59  C   UNL A   1      43.549  32.695  32.949  1.00  0.00     0.074 A 
ATOM     60  C   UNL A   1      43.411  34.115  32.705  1.00  0.00     0.031 C 
ATOM     61  C   UNL A   1      43.547  32.130  34.183  1.00  0.00     0.034 A 
BRANCH  48  62
ATOM     62  C   UNL A   1      43.858  25.962  34.095  1.00  0.00     0.023 A 
ATOM     63  C   UNL A   1      42.643  25.311  34.395  1.00  0.00     0.012 A 
ATOM     64  C   UNL A   1      45.074  25.384  34.505  1.00  0.00     0.148 A 
ATOM     65  C   UNL A   1      42.636  24.122  35.122  1.00  0.00     0.002 A 
ATOM     66  C   UNL A   1      45.062  24.174  35.188  1.00  0.00     0.091 A 
ATOM     67  F   UNL A   1      46.215  26.035  34.235  1.00  0.00    -0.205 F 
ATOM     68  C   UNL A   1      43.846  23.549  35.509  1.00  0.00     0.022 A 
BRANCH  66  69
ATOM     69  S   UNL A   1      46.568  23.321  35.665  1.00  0.00     0.127 S 
ATOM     70  O   UNL A   1      47.247  23.179  34.378  1.00  0.00    -0.237 OA
ATOM     71  O   UNL A   1      47.186  24.281  36.579  1.00  0.00    -0.237 OA
ATOM     72  O   UNL A   1      46.143  22.075  36.289  1.00  0.00    -0.744 OA
ENDBRANCH  66  69
ENDBRANCH  48  62
BRANCH  49  73
ATOM     73  C   UNL A   1      43.608  34.216  28.491  1.00  0.00     0.023 A 
ATOM     74  C   UNL A   1      42.350  34.681  28.056  1.00  0.00     0.012 A 
ATOM     75  C   UNL A   1      44.766  34.931  28.127  1.00  0.00     0.148 A 
ATOM     76  C   UNL A   1      42.251  35.817  27.250  1.00  0.00     0.002 A 
ATOM     77  C   UNL A   1      44.655  36.091  27.370  1.00  0.00     0.091 A 
ATOM     78  F   UNL A   1      45.954  34.460  28.531  1.00  0.00    -0.205 F 
ATOM     79  C   UNL A   1      43.401  36.527  26.916  1.00  0.00     0.022 A 
BRANCH  77  80
ATOM     80  S   UNL A   1      46.069  37.132  26.989  1.00  0.00     0.127 S 
ATOM     81  O   UNL A   1      45.422  38.340  26.484  1.00  0.00    -0.237 OA
ATOM     82  O   UNL A   1      46.700  37.274  28.301  1.00  0.00    -0.237 OA
ATOM     83  O   UNL A   1      46.857  36.384  26.018  1.00  0.00    -0.744 OA
ENDBRANCH  77  80
ENDBRANCH  49  73
BRANCH  61  84
ATOM     84  C   UNL A   1      43.435  33.041  35.380  1.00  0.00     0.023 A 
ATOM     85  C   UNL A   1      42.169  33.339  35.921  1.00  0.00     0.012 A 
ATOM     86  C   UNL A   1      44.592  33.524  36.023  1.00  0.00     0.148 A 
ATOM     87  C   UNL A   1      42.056  34.128  37.067  1.00  0.00     0.002 A 
ATOM     88  C   UNL A   1      44.474  34.267  37.191  1.00  0.00     0.091 A 
ATOM     89  F   UNL A   1      45.788  33.242  35.485  1.00  0.00    -0.205 F 
ATOM     90  C   UNL A   1      43.207  34.579  37.708  1.00  0.00     0.022 A 
BRANCH  88  91
ATOM     91  S   UNL A   1      45.902  34.806  38.140  1.00  0.00     0.127 S 
ATOM     92  O   UNL A   1      46.563  33.535  38.432  1.00  0.00    -0.237 OA
ATOM     93  O   UNL A   1      46.609  35.655  37.181  1.00  0.00    -0.237 OA
ATOM     94  O   UNL A   1      45.371  35.515  39.296  1.00  0.00    -0.744 OA
ENDBRANCH  88  91
ENDBRANCH  61  84
ENDBRANCH  35  36
ENDBRANCH  28  30
ENDBRANCH  27  28
ENDBRANCH  26  27
ENDBRANCH  25  26
ENDBRANCH  24  25
ENDBRANCH  23  24
ENDBRANCH   1  23
TORSDOF 25
ENDMDL
