MODEL 1
REMARK VINA RESULT:     -11.2      0.000      0.000
REMARK SMILES O=C(OCCOCCOCCOC(=O)c1cc(-c2ccc(F)c(C(F)(F)F)c2)cnc1O)c1ccc(-c2c3nc(c(-c4cccc(S(=O)(=O)[O-])c4F)c4ccc([nH]4)c(-c4cccc(S(=O)(=O)[O-])c4F)c4nc(c(-c5cccc(S(=O)(=O)[O-])c5F)c5ccc2[nH]5)C=C4)C=C3)cc1
REMARK SMILES IDX 7 1 6 2 5 3 4 4 3 5 2 6 1 7 33 8 34 9 95 10 35 11 94 12
REMARK SMILES IDX 36 13 37 14 38 15 88 16 39 17 93 18 87 19 89 20 40 21 92 22
REMARK SMILES IDX 86 23 85 24 41 26 73 27 53 28 72 29 54 30 57 31 71 32 90 33
REMARK SMILES IDX 55 34 56 35 70 37 91 38 58 39 42 40 43 41 51 42 44 43 46 44
REMARK SMILES IDX 52 45 45 46 47 47 48 48 49 49 50 50 74 51 75 52 83 53 76 54
REMARK SMILES IDX 78 55 84 56 77 57 79 58 80 59 81 60 82 61 59 62 60 63 68 64
REMARK SMILES IDX 61 65 63 66 69 67 62 68 64 69 65 70 66 71 67 72 8 73 9 74
REMARK SMILES IDX 10 75 11 76 12 77 13 78 14 79 15 80 16 81 31 82 17 83 30 84
REMARK SMILES IDX 29 85 32 86 18 88 19 89 28 90 20 91 23 92 21 93 22 94 24 95
REMARK SMILES IDX 25 96 26 97 27 98
REMARK H PARENT 89 25 57 36 32 87
REMARK Flexibility Score: inf
ROOT
ATOM      1  C   UNL A   1      34.104  29.488  26.680  1.00  0.00     0.188 C 
ENDROOT
BRANCH   1   2
ATOM      2  O   UNL A   1      33.469  30.625  27.227  1.00  0.00    -0.376 OA
BRANCH   2   3
ATOM      3  C   UNL A   1      32.152  30.987  26.860  1.00  0.00     0.202 C 
BRANCH   3   4
ATOM      4  C   UNL A   1      31.688  32.445  26.920  1.00  0.00     0.261 C 
BRANCH   4   5
ATOM      5  O   UNL A   1      32.718  33.432  26.954  1.00  0.00    -0.460 OA
BRANCH   5   6
ATOM      6  C   UNL A   1      33.034  34.030  28.133  1.00  0.00     0.338 C 
ATOM      7  O   UNL A   1      32.575  35.122  28.444  1.00  0.00    -0.246 OA
BRANCH   6   8
ATOM      8  C   UNL A   1      34.275  33.509  28.764  1.00  0.00     0.060 A 
ATOM      9  C   UNL A   1      34.113  32.674  29.871  1.00  0.00     0.016 A 
ATOM     10  C   UNL A   1      35.563  33.826  28.325  1.00  0.00     0.016 A 
ATOM     11  C   UNL A   1      35.232  32.203  30.560  1.00  0.00     0.010 A 
ATOM     12  C   UNL A   1      36.681  33.395  29.047  1.00  0.00     0.010 A 
ATOM     13  C   UNL A   1      36.522  32.575  30.169  1.00  0.00    -0.014 A 
BRANCH  13  14
ATOM     14  C   UNL A   1      37.674  31.830  30.722  1.00  0.00     0.031 A 
ATOM     15  C   UNL A   1      38.440  30.796  29.957  1.00  0.00     0.074 A 
ATOM     16  C   UNL A   1      38.007  32.138  31.988  1.00  0.00     0.049 A 
ATOM     17  N   UNL A   1      39.511  30.143  30.331  1.00  0.00    -0.248 NA
ATOM     18  C   UNL A   1      37.966  30.454  28.609  1.00  0.00     0.031 C 
ATOM     19  C   UNL A   1      37.301  33.120  32.817  1.00  0.00     0.029 A 
ATOM     20  N   UNL A   1      38.987  31.650  32.807  1.00  0.00    -0.354 N 
ATOM     21  C   UNL A   1      39.859  29.329  29.259  1.00  0.00     0.074 A 
ATOM     22  C   UNL A   1      38.869  29.551  28.230  1.00  0.00     0.031 C 
ATOM     23  C   UNL A   1      37.842  33.131  34.039  1.00  0.00     0.029 A 
ATOM     24  C   UNL A   1      38.922  32.152  34.082  1.00  0.00     0.049 A 
ATOM     25  H   UNL A   1      39.670  31.004  32.511  1.00  0.00     0.167 HD
ATOM     26  C   UNL A   1      40.922  28.496  29.153  1.00  0.00     0.034 A 
ATOM     27  C   UNL A   1      39.637  31.850  35.179  1.00  0.00     0.034 A 
ATOM     28  C   UNL A   1      41.873  28.268  30.211  1.00  0.00     0.049 A 
ATOM     29  C   UNL A   1      40.762  30.876  35.058  1.00  0.00     0.074 A 
ATOM     30  C   UNL A   1      43.006  27.472  30.189  1.00  0.00     0.029 A 
ATOM     31  N   UNL A   1      41.788  28.808  31.485  1.00  0.00    -0.354 N 
ATOM     32  N   UNL A   1      41.165  30.229  33.992  1.00  0.00    -0.248 NA
ATOM     33  C   UNL A   1      41.555  30.614  36.264  1.00  0.00     0.031 C 
ATOM     34  C   UNL A   1      43.588  27.506  31.458  1.00  0.00     0.029 A 
ATOM     35  C   UNL A   1      42.830  28.341  32.265  1.00  0.00     0.049 A 
ATOM     36  H   UNL A   1      41.090  29.431  31.789  1.00  0.00     0.167 HD
ATOM     37  C   UNL A   1      42.273  29.498  34.390  1.00  0.00     0.074 A 
ATOM     38  C   UNL A   1      42.483  29.786  35.795  1.00  0.00     0.031 C 
ATOM     39  C   UNL A   1      43.041  28.661  33.653  1.00  0.00     0.034 A 
BRANCH  26  40
ATOM     40  C   UNL A   1      41.187  27.800  27.842  1.00  0.00     0.023 A 
ATOM     41  C   UNL A   1      41.640  28.568  26.750  1.00  0.00     0.012 A 
ATOM     42  C   UNL A   1      41.188  26.394  27.744  1.00  0.00     0.148 A 
ATOM     43  C   UNL A   1      42.107  27.949  25.591  1.00  0.00     0.002 A 
ATOM     44  C   UNL A   1      41.671  25.783  26.589  1.00  0.00     0.091 A 
ATOM     45  F   UNL A   1      40.754  25.683  28.795  1.00  0.00    -0.205 F 
ATOM     46  C   UNL A   1      42.136  26.560  25.515  1.00  0.00     0.022 A 
BRANCH  44  47
ATOM     47  S   UNL A   1      41.787  24.000  26.400  1.00  0.00     0.127 S 
ATOM     48  O   UNL A   1      42.494  23.882  25.124  1.00  0.00    -0.237 OA
ATOM     49  O   UNL A   1      42.576  23.615  27.569  1.00  0.00    -0.237 OA
ATOM     50  O   UNL A   1      40.419  23.502  26.387  1.00  0.00    -0.744 OA
ENDBRANCH  44  47
ENDBRANCH  26  40
BRANCH  27  51
ATOM     51  C   UNL A   1      39.295  32.544  36.445  1.00  0.00     0.023 A 
ATOM     52  C   UNL A   1      39.766  33.849  36.664  1.00  0.00     0.012 A 
ATOM     53  C   UNL A   1      38.352  31.983  37.331  1.00  0.00     0.148 A 
ATOM     54  C   UNL A   1      39.298  34.592  37.748  1.00  0.00     0.002 A 
ATOM     55  C   UNL A   1      37.856  32.744  38.380  1.00  0.00     0.091 A 
ATOM     56  F   UNL A   1      37.918  30.738  37.088  1.00  0.00    -0.205 F 
ATOM     57  C   UNL A   1      38.334  34.047  38.595  1.00  0.00     0.022 A 
BRANCH  55  58
ATOM     58  S   UNL A   1      36.510  32.176  39.426  1.00  0.00     0.127 S 
ATOM     59  O   UNL A   1      36.945  32.632  40.744  1.00  0.00    -0.237 OA
ATOM     60  O   UNL A   1      35.367  32.900  38.869  1.00  0.00    -0.237 OA
ATOM     61  O   UNL A   1      36.451  30.732  39.244  1.00  0.00    -0.744 OA
ENDBRANCH  55  58
ENDBRANCH  27  51
BRANCH  39  62
ATOM     62  C   UNL A   1      44.189  27.977  34.337  1.00  0.00     0.023 A 
ATOM     63  C   UNL A   1      45.428  28.638  34.421  1.00  0.00     0.012 A 
ATOM     64  C   UNL A   1      43.993  26.762  35.021  1.00  0.00     0.148 A 
ATOM     65  C   UNL A   1      46.461  28.098  35.182  1.00  0.00     0.002 A 
ATOM     66  C   UNL A   1      45.017  26.247  35.804  1.00  0.00     0.091 A 
ATOM     67  F   UNL A   1      42.800  26.158  34.918  1.00  0.00    -0.205 F 
ATOM     68  C   UNL A   1      46.253  26.912  35.884  1.00  0.00     0.022 A 
BRANCH  66  69
ATOM     69  S   UNL A   1      44.824  24.766  36.801  1.00  0.00     0.127 S 
ATOM     70  O   UNL A   1      43.757  25.163  37.720  1.00  0.00    -0.237 OA
ATOM     71  O   UNL A   1      44.430  23.774  35.800  1.00  0.00    -0.237 OA
ATOM     72  O   UNL A   1      46.116  24.526  37.429  1.00  0.00    -0.744 OA
ENDBRANCH  66  69
ENDBRANCH  39  62
ENDBRANCH  13  14
ENDBRANCH   6   8
ENDBRANCH   5   6
ENDBRANCH   4   5
ENDBRANCH   3   4
ENDBRANCH   2   3
ENDBRANCH   1   2
BRANCH   1  73
ATOM     73  C   UNL A   1      33.389  28.578  25.677  1.00  0.00     0.188 C 
BRANCH  73  74
ATOM     74  O   UNL A   1      33.998  28.155  24.473  1.00  0.00    -0.376 OA
BRANCH  74  75
ATOM     75  C   UNL A   1      33.560  26.986  23.807  1.00  0.00     0.202 C 
BRANCH  75  76
ATOM     76  C   UNL A   1      32.217  26.971  23.075  1.00  0.00     0.261 C 
BRANCH  76  77
ATOM     77  O   UNL A   1      31.549  25.701  23.009  1.00  0.00    -0.459 OA
BRANCH  77  78
ATOM     78  C   UNL A   1      30.520  25.525  23.864  1.00  0.00     0.343 C 
ATOM     79  O   UNL A   1      29.389  26.016  23.777  1.00  0.00    -0.246 OA
BRANCH  78  80
ATOM     80  C   UNL A   1      30.909  24.589  24.912  1.00  0.00     0.122 A 
ATOM     81  C   UNL A   1      31.893  23.613  24.673  1.00  0.00     0.031 A 
ATOM     82  C   UNL A   1      30.256  24.597  26.134  1.00  0.00     0.225 A 
ATOM     83  C   UNL A   1      32.208  22.686  25.674  1.00  0.00     0.001 A 
ATOM     84  N   UNL A   1      30.517  23.706  27.103  1.00  0.00    -0.221 NA
ATOM     85  C   UNL A   1      31.487  22.792  26.866  1.00  0.00     0.124 A 
BRANCH  82  86
ATOM     86  O   UNL A   1      29.284  25.492  26.458  1.00  0.00    -0.493 OA
ATOM     87  H   UNL A   1      29.515  26.365  26.710  1.00  0.00     0.295 HD
ENDBRANCH  82  86
BRANCH  83  88
ATOM     88  C   UNL A   1      33.209  21.619  25.517  1.00  0.00    -0.016 A 
ATOM     89  C   UNL A   1      34.577  21.925  25.554  1.00  0.00     0.012 A 
ATOM     90  C   UNL A   1      32.839  20.301  25.201  1.00  0.00     0.025 A 
ATOM     91  C   UNL A   1      35.536  20.957  25.251  1.00  0.00     0.040 A 
ATOM     92  C   UNL A   1      33.794  19.329  24.841  1.00  0.00     0.092 A 
ATOM     93  C   UNL A   1      35.137  19.677  24.884  1.00  0.00     0.135 A 
ATOM     94  F   UNL A   1      36.074  18.777  24.559  1.00  0.00    -0.206 F 
BRANCH  92  95
ATOM     95  C   UNL A   1      33.433  17.950  24.366  1.00  0.00     0.419 C 
ATOM     96  F   UNL A   1      33.936  17.661  23.135  1.00  0.00    -0.166 F 
ATOM     97  F   UNL A   1      33.881  16.972  25.200  1.00  0.00    -0.166 F 
ATOM     98  F   UNL A   1      32.091  17.753  24.265  1.00  0.00    -0.166 F 
ENDBRANCH  92  95
ENDBRANCH  83  88
ENDBRANCH  78  80
ENDBRANCH  77  78
ENDBRANCH  76  77
ENDBRANCH  75  76
ENDBRANCH  74  75
ENDBRANCH  73  74
ENDBRANCH   1  73
TORSDOF 23
ENDMDL
MODEL 2
REMARK VINA RESULT:     -10.7      1.904      7.657
REMARK SMILES O=C(OCCOCCOCCOC(=O)c1cc(-c2ccc(F)c(C(F)(F)F)c2)cnc1O)c1ccc(-c2c3nc(c(-c4cccc(S(=O)(=O)[O-])c4F)c4ccc([nH]4)c(-c4cccc(S(=O)(=O)[O-])c4F)c4nc(c(-c5cccc(S(=O)(=O)[O-])c5F)c5ccc2[nH]5)C=C4)C=C3)cc1
REMARK SMILES IDX 7 1 6 2 5 3 4 4 3 5 2 6 1 7 33 8 34 9 95 10 35 11 94 12
REMARK SMILES IDX 36 13 37 14 38 15 88 16 39 17 93 18 87 19 89 20 40 21 92 22
REMARK SMILES IDX 86 23 85 24 41 26 73 27 53 28 72 29 54 30 57 31 71 32 90 33
REMARK SMILES IDX 55 34 56 35 70 37 91 38 58 39 42 40 43 41 51 42 44 43 46 44
REMARK SMILES IDX 52 45 45 46 47 47 48 48 49 49 50 50 74 51 75 52 83 53 76 54
REMARK SMILES IDX 78 55 84 56 77 57 79 58 80 59 81 60 82 61 59 62 60 63 68 64
REMARK SMILES IDX 61 65 63 66 69 67 62 68 64 69 65 70 66 71 67 72 8 73 9 74
REMARK SMILES IDX 10 75 11 76 12 77 13 78 14 79 15 80 16 81 31 82 17 83 30 84
REMARK SMILES IDX 29 85 32 86 18 88 19 89 28 90 20 91 23 92 21 93 22 94 24 95
REMARK SMILES IDX 25 96 26 97 27 98
REMARK H PARENT 89 25 57 36 32 87
REMARK Flexibility Score: inf
ROOT
ATOM      1  C   UNL A   1      34.810  29.909  27.401  1.00  0.00     0.188 C 
ENDROOT
BRANCH   1   2
ATOM      2  O   UNL A   1      34.333  31.227  27.577  1.00  0.00    -0.376 OA
BRANCH   2   3
ATOM      3  C   UNL A   1      32.949  31.522  27.568  1.00  0.00     0.202 C 
BRANCH   3   4
ATOM      4  C   UNL A   1      32.445  32.934  27.256  1.00  0.00     0.261 C 
BRANCH   4   5
ATOM      5  O   UNL A   1      33.310  34.007  27.627  1.00  0.00    -0.460 OA
BRANCH   5   6
ATOM      6  C   UNL A   1      33.346  34.421  28.922  1.00  0.00     0.338 C 
ATOM      7  O   UNL A   1      32.644  35.342  29.322  1.00  0.00    -0.246 OA
BRANCH   6   8
ATOM      8  C   UNL A   1      34.571  34.013  29.655  1.00  0.00     0.060 A 
ATOM      9  C   UNL A   1      34.388  33.445  30.918  1.00  0.00     0.016 A 
ATOM     10  C   UNL A   1      35.867  34.186  29.162  1.00  0.00     0.016 A 
ATOM     11  C   UNL A   1      35.494  33.102  31.697  1.00  0.00     0.010 A 
ATOM     12  C   UNL A   1      36.974  33.888  29.965  1.00  0.00     0.010 A 
ATOM     13  C   UNL A   1      36.793  33.339  31.239  1.00  0.00    -0.014 A 
BRANCH  13  14
ATOM     14  C   UNL A   1      37.923  32.697  31.945  1.00  0.00     0.031 A 
ATOM     15  C   UNL A   1      38.484  33.193  33.241  1.00  0.00     0.074 A 
ATOM     16  C   UNL A   1      38.438  31.609  31.343  1.00  0.00     0.049 A 
ATOM     17  N   UNL A   1      39.423  32.653  33.974  1.00  0.00    -0.248 NA
ATOM     18  C   UNL A   1      37.924  34.433  33.796  1.00  0.00     0.031 C 
ATOM     19  C   UNL A   1      37.966  31.067  30.064  1.00  0.00     0.029 A 
ATOM     20  N   UNL A   1      39.473  30.790  31.694  1.00  0.00    -0.354 N 
ATOM     21  C   UNL A   1      39.556  33.469  35.092  1.00  0.00     0.074 A 
ATOM     22  C   UNL A   1      38.618  34.556  34.927  1.00  0.00     0.031 C 
ATOM     23  C   UNL A   1      38.737  30.032  29.718  1.00  0.00     0.029 A 
ATOM     24  C   UNL A   1      39.759  29.846  30.740  1.00  0.00     0.049 A 
ATOM     25  H   UNL A   1      39.963  30.868  32.546  1.00  0.00     0.167 HD
ATOM     26  C   UNL A   1      40.374  33.300  36.158  1.00  0.00     0.034 A 
ATOM     27  C   UNL A   1      40.748  28.937  30.677  1.00  0.00     0.034 A 
ATOM     28  C   UNL A   1      41.326  32.225  36.278  1.00  0.00     0.049 A 
ATOM     29  C   UNL A   1      41.684  28.813  31.833  1.00  0.00     0.074 A 
ATOM     30  C   UNL A   1      42.175  31.945  37.335  1.00  0.00     0.029 A 
ATOM     31  N   UNL A   1      41.578  31.274  35.301  1.00  0.00    -0.354 N 
ATOM     32  N   UNL A   1      41.695  29.502  32.947  1.00  0.00    -0.248 NA
ATOM     33  C   UNL A   1      42.715  27.772  31.752  1.00  0.00     0.031 C 
ATOM     34  C   UNL A   1      42.960  30.845  36.985  1.00  0.00     0.029 A 
ATOM     35  C   UNL A   1      42.587  30.425  35.717  1.00  0.00     0.049 A 
ATOM     36  H   UNL A   1      41.108  31.213  34.438  1.00  0.00     0.167 HD
ATOM     37  C   UNL A   1      42.719  28.966  33.713  1.00  0.00     0.074 A 
ATOM     38  C   UNL A   1      43.303  27.889  32.937  1.00  0.00     0.031 C 
ATOM     39  C   UNL A   1      43.136  29.341  34.945  1.00  0.00     0.034 A 
BRANCH  26  40
ATOM     40  C   UNL A   1      40.264  34.241  37.331  1.00  0.00     0.023 A 
ATOM     41  C   UNL A   1      40.686  35.575  37.167  1.00  0.00     0.012 A 
ATOM     42  C   UNL A   1      39.572  33.875  38.504  1.00  0.00     0.148 A 
ATOM     43  C   UNL A   1      40.404  36.534  38.140  1.00  0.00     0.002 A 
ATOM     44  C   UNL A   1      39.281  34.841  39.463  1.00  0.00     0.091 A 
ATOM     45  F   UNL A   1      39.179  32.599  38.638  1.00  0.00    -0.205 F 
ATOM     46  C   UNL A   1      39.692  36.172  39.280  1.00  0.00     0.022 A 
BRANCH  44  47
ATOM     47  S   UNL A   1      38.336  34.491  40.952  1.00  0.00     0.127 S 
ATOM     48  O   UNL A   1      37.240  33.679  40.423  1.00  0.00    -0.237 OA
ATOM     49  O   UNL A   1      39.302  33.753  41.765  1.00  0.00    -0.237 OA
ATOM     50  O   UNL A   1      37.934  35.782  41.491  1.00  0.00    -0.744 OA
ENDBRANCH  44  47
ENDBRANCH  26  40
BRANCH  27  51
ATOM     51  C   UNL A   1      40.821  28.072  29.474  1.00  0.00     0.023 A 
ATOM     52  C   UNL A   1      39.841  27.086  29.275  1.00  0.00     0.012 A 
ATOM     53  C   UNL A   1      41.743  28.359  28.447  1.00  0.00     0.148 A 
ATOM     54  C   UNL A   1      39.773  26.398  28.063  1.00  0.00     0.002 A 
ATOM     55  C   UNL A   1      41.641  27.704  27.228  1.00  0.00     0.091 A 
ATOM     56  F   UNL A   1      42.661  29.312  28.668  1.00  0.00    -0.205 F 
ATOM     57  C   UNL A   1      40.661  26.717  27.036  1.00  0.00     0.022 A 
BRANCH  55  58
ATOM     58  S   UNL A   1      42.645  28.157  25.808  1.00  0.00     0.127 S 
ATOM     59  O   UNL A   1      42.874  26.858  25.180  1.00  0.00    -0.237 OA
ATOM     60  O   UNL A   1      41.746  29.047  25.072  1.00  0.00    -0.237 OA
ATOM     61  O   UNL A   1      43.826  28.814  26.351  1.00  0.00    -0.744 OA
ENDBRANCH  55  58
ENDBRANCH  27  51
BRANCH  39  62
ATOM     62  C   UNL A   1      44.287  28.594  35.554  1.00  0.00     0.023 A 
ATOM     63  C   UNL A   1      45.600  29.009  35.268  1.00  0.00     0.012 A 
ATOM     64  C   UNL A   1      44.061  27.593  36.518  1.00  0.00     0.148 A 
ATOM     65  C   UNL A   1      46.679  28.437  35.938  1.00  0.00     0.002 A 
ATOM     66  C   UNL A   1      45.138  27.051  37.205  1.00  0.00     0.091 A 
ATOM     67  F   UNL A   1      42.797  27.220  36.765  1.00  0.00    -0.205 F 
ATOM     68  C   UNL A   1      46.448  27.470  36.914  1.00  0.00     0.022 A 
BRANCH  66  69
ATOM     69  S   UNL A   1      44.941  25.854  38.529  1.00  0.00     0.127 S 
ATOM     70  O   UNL A   1      46.311  25.734  39.028  1.00  0.00    -0.237 OA
ATOM     71  O   UNL A   1      44.021  26.546  39.431  1.00  0.00    -0.237 OA
ATOM     72  O   UNL A   1      44.407  24.648  37.911  1.00  0.00    -0.744 OA
ENDBRANCH  66  69
ENDBRANCH  39  62
ENDBRANCH  13  14
ENDBRANCH   6   8
ENDBRANCH   5   6
ENDBRANCH   4   5
ENDBRANCH   3   4
ENDBRANCH   2   3
ENDBRANCH   1   2
BRANCH   1  73
ATOM     73  C   UNL A   1      33.929  28.815  26.790  1.00  0.00     0.188 C 
BRANCH  73  74
ATOM     74  O   UNL A   1      34.276  28.148  25.592  1.00  0.00    -0.376 OA
BRANCH  74  75
ATOM     75  C   UNL A   1      33.317  27.396  24.873  1.00  0.00     0.202 C 
BRANCH  75  76
ATOM     76  C   UNL A   1      31.846  27.819  24.875  1.00  0.00     0.261 C 
BRANCH  76  77
ATOM     77  O   UNL A   1      31.096  27.495  23.692  1.00  0.00    -0.459 OA
BRANCH  77  78
ATOM     78  C   UNL A   1      30.509  26.280  23.676  1.00  0.00     0.343 C 
ATOM     79  O   UNL A   1      29.377  25.995  24.081  1.00  0.00    -0.246 OA
BRANCH  78  80
ATOM     80  C   UNL A   1      31.394  25.318  23.028  1.00  0.00     0.122 A 
ATOM     81  C   UNL A   1      31.778  24.139  23.689  1.00  0.00     0.031 A 
ATOM     82  C   UNL A   1      31.933  25.595  21.781  1.00  0.00     0.225 A 
ATOM     83  C   UNL A   1      32.676  23.259  23.072  1.00  0.00     0.001 A 
ATOM     84  N   UNL A   1      32.816  24.785  21.176  1.00  0.00    -0.221 NA
ATOM     85  C   UNL A   1      33.152  23.640  21.815  1.00  0.00     0.124 A 
BRANCH  82  86
ATOM     86  O   UNL A   1      31.633  26.713  21.066  1.00  0.00    -0.493 OA
ATOM     87  H   UNL A   1      31.713  26.707  20.133  1.00  0.00     0.295 HD
ENDBRANCH  82  86
BRANCH  83  88
ATOM     88  C   UNL A   1      33.151  22.010  23.686  1.00  0.00    -0.016 A 
ATOM     89  C   UNL A   1      34.308  22.010  24.479  1.00  0.00     0.012 A 
ATOM     90  C   UNL A   1      32.549  20.771  23.403  1.00  0.00     0.025 A 
ATOM     91  C   UNL A   1      34.861  20.813  24.940  1.00  0.00     0.040 A 
ATOM     92  C   UNL A   1      33.127  19.554  23.815  1.00  0.00     0.092 A 
ATOM     93  C   UNL A   1      34.277  19.601  24.592  1.00  0.00     0.135 A 
ATOM     94  F   UNL A   1      34.848  18.464  25.012  1.00  0.00    -0.206 F 
BRANCH  92  95
ATOM     95  C   UNL A   1      32.591  18.208  23.419  1.00  0.00     0.419 C 
ATOM     96  F   UNL A   1      31.712  18.269  22.382  1.00  0.00    -0.166 F 
ATOM     97  F   UNL A   1      33.571  17.343  23.037  1.00  0.00    -0.166 F 
ATOM     98  F   UNL A   1      31.925  17.579  24.424  1.00  0.00    -0.166 F 
ENDBRANCH  92  95
ENDBRANCH  83  88
ENDBRANCH  78  80
ENDBRANCH  77  78
ENDBRANCH  76  77
ENDBRANCH  75  76
ENDBRANCH  74  75
ENDBRANCH  73  74
ENDBRANCH   1  73
TORSDOF 23
ENDMDL
MODEL 3
REMARK VINA RESULT:     -10.6      4.047      9.117
REMARK SMILES O=C(OCCOCCOCCOC(=O)c1cc(-c2ccc(F)c(C(F)(F)F)c2)cnc1O)c1ccc(-c2c3nc(c(-c4cccc(S(=O)(=O)[O-])c4F)c4ccc([nH]4)c(-c4cccc(S(=O)(=O)[O-])c4F)c4nc(c(-c5cccc(S(=O)(=O)[O-])c5F)c5ccc2[nH]5)C=C4)C=C3)cc1
REMARK SMILES IDX 7 1 6 2 5 3 4 4 3 5 2 6 1 7 33 8 34 9 95 10 35 11 94 12
REMARK SMILES IDX 36 13 37 14 38 15 88 16 39 17 93 18 87 19 89 20 40 21 92 22
REMARK SMILES IDX 86 23 85 24 41 26 73 27 53 28 72 29 54 30 57 31 71 32 90 33
REMARK SMILES IDX 55 34 56 35 70 37 91 38 58 39 42 40 43 41 51 42 44 43 46 44
REMARK SMILES IDX 52 45 45 46 47 47 48 48 49 49 50 50 74 51 75 52 83 53 76 54
REMARK SMILES IDX 78 55 84 56 77 57 79 58 80 59 81 60 82 61 59 62 60 63 68 64
REMARK SMILES IDX 61 65 63 66 69 67 62 68 64 69 65 70 66 71 67 72 8 73 9 74
REMARK SMILES IDX 10 75 11 76 12 77 13 78 14 79 15 80 16 81 31 82 17 83 30 84
REMARK SMILES IDX 29 85 32 86 18 88 19 89 28 90 20 91 23 92 21 93 22 94 24 95
REMARK SMILES IDX 25 96 26 97 27 98
REMARK H PARENT 89 25 57 36 32 87
REMARK Flexibility Score: inf
ROOT
ATOM      1  C   UNL A   1      35.331  30.393  27.529  1.00  0.00     0.188 C 
ENDROOT
BRANCH   1   2
ATOM      2  O   UNL A   1      34.644  31.584  27.208  1.00  0.00    -0.376 OA
BRANCH   2   3
ATOM      3  C   UNL A   1      33.315  31.811  27.637  1.00  0.00     0.202 C 
BRANCH   3   4
ATOM      4  C   UNL A   1      32.634  33.166  27.416  1.00  0.00     0.261 C 
BRANCH   4   5
ATOM      5  O   UNL A   1      33.316  34.305  27.940  1.00  0.00    -0.460 OA
BRANCH   5   6
ATOM      6  C   UNL A   1      33.313  34.529  29.281  1.00  0.00     0.338 C 
ATOM      7  O   UNL A   1      32.550  35.336  29.796  1.00  0.00    -0.246 OA
BRANCH   6   8
ATOM      8  C   UNL A   1      34.555  34.096  29.970  1.00  0.00     0.060 A 
ATOM      9  C   UNL A   1      34.423  33.665  31.292  1.00  0.00     0.016 A 
ATOM     10  C   UNL A   1      35.821  34.119  29.379  1.00  0.00     0.016 A 
ATOM     11  C   UNL A   1      35.555  33.311  32.027  1.00  0.00     0.010 A 
ATOM     12  C   UNL A   1      36.959  33.811  30.133  1.00  0.00     0.010 A 
ATOM     13  C   UNL A   1      36.832  33.400  31.464  1.00  0.00    -0.014 A 
BRANCH  13  14
ATOM     14  C   UNL A   1      37.960  32.740  32.156  1.00  0.00     0.031 A 
ATOM     15  C   UNL A   1      38.546  33.227  33.444  1.00  0.00     0.074 A 
ATOM     16  C   UNL A   1      38.450  31.645  31.547  1.00  0.00     0.049 A 
ATOM     17  N   UNL A   1      39.486  32.672  34.165  1.00  0.00    -0.248 NA
ATOM     18  C   UNL A   1      38.014  34.475  34.007  1.00  0.00     0.031 C 
ATOM     19  C   UNL A   1      37.953  31.110  30.275  1.00  0.00     0.029 A 
ATOM     20  N   UNL A   1      39.476  30.808  31.885  1.00  0.00    -0.354 N 
ATOM     21  C   UNL A   1      39.647  33.485  35.281  1.00  0.00     0.074 A 
ATOM     22  C   UNL A   1      38.724  34.588  35.128  1.00  0.00     0.031 C 
ATOM     23  C   UNL A   1      38.702  30.062  29.918  1.00  0.00     0.029 A 
ATOM     24  C   UNL A   1      39.735  29.860  30.927  1.00  0.00     0.049 A 
ATOM     25  H   UNL A   1      39.978  30.878  32.730  1.00  0.00     0.167 HD
ATOM     26  C   UNL A   1      40.476  33.304  36.336  1.00  0.00     0.034 A 
ATOM     27  C   UNL A   1      40.708  28.936  30.851  1.00  0.00     0.034 A 
ATOM     28  C   UNL A   1      41.412  32.213  36.443  1.00  0.00     0.049 A 
ATOM     29  C   UNL A   1      41.658  28.796  31.994  1.00  0.00     0.074 A 
ATOM     30  C   UNL A   1      42.270  31.919  37.490  1.00  0.00     0.029 A 
ATOM     31  N   UNL A   1      41.636  31.259  35.463  1.00  0.00    -0.354 N 
ATOM     32  N   UNL A   1      41.694  29.485  33.109  1.00  0.00    -0.248 NA
ATOM     33  C   UNL A   1      42.670  27.739  31.900  1.00  0.00     0.031 C 
ATOM     34  C   UNL A   1      43.033  30.807  37.129  1.00  0.00     0.029 A 
ATOM     35  C   UNL A   1      42.637  30.394  35.866  1.00  0.00     0.049 A 
ATOM     36  H   UNL A   1      41.154  31.205  34.607  1.00  0.00     0.167 HD
ATOM     37  C   UNL A   1      42.719  28.933  33.861  1.00  0.00     0.074 A 
ATOM     38  C   UNL A   1      43.276  27.847  33.078  1.00  0.00     0.031 C 
ATOM     39  C   UNL A   1      43.158  29.301  35.088  1.00  0.00     0.034 A 
BRANCH  26  40
ATOM     40  C   UNL A   1      40.396  34.246  37.511  1.00  0.00     0.023 A 
ATOM     41  C   UNL A   1      40.882  35.559  37.355  1.00  0.00     0.012 A 
ATOM     42  C   UNL A   1      39.675  33.910  38.674  1.00  0.00     0.148 A 
ATOM     43  C   UNL A   1      40.635  36.528  38.328  1.00  0.00     0.002 A 
ATOM     44  C   UNL A   1      39.418  34.886  39.633  1.00  0.00     0.091 A 
ATOM     45  F   UNL A   1      39.221  32.654  38.800  1.00  0.00    -0.205 F 
ATOM     46  C   UNL A   1      39.893  36.197  39.458  1.00  0.00     0.022 A 
BRANCH  44  47
ATOM     47  S   UNL A   1      38.440  34.577  41.109  1.00  0.00     0.127 S 
ATOM     48  O   UNL A   1      38.021  35.930  41.477  1.00  0.00    -0.237 OA
ATOM     49  O   UNL A   1      37.368  33.726  40.597  1.00  0.00    -0.237 OA
ATOM     50  O   UNL A   1      39.335  33.936  42.062  1.00  0.00    -0.744 OA
ENDBRANCH  44  47
ENDBRANCH  26  40
BRANCH  27  51
ATOM     51  C   UNL A   1      40.751  28.070  29.647  1.00  0.00     0.023 A 
ATOM     52  C   UNL A   1      39.735  27.121  29.444  1.00  0.00     0.012 A 
ATOM     53  C   UNL A   1      41.687  28.323  28.623  1.00  0.00     0.148 A 
ATOM     54  C   UNL A   1      39.645  26.438  28.232  1.00  0.00     0.002 A 
ATOM     55  C   UNL A   1      41.563  27.673  27.403  1.00  0.00     0.091 A 
ATOM     56  F   UNL A   1      42.639  29.239  28.847  1.00  0.00    -0.205 F 
ATOM     57  C   UNL A   1      40.547  26.725  27.207  1.00  0.00     0.022 A 
BRANCH  55  58
ATOM     58  S   UNL A   1      42.587  28.089  25.986  1.00  0.00     0.127 S 
ATOM     59  O   UNL A   1      42.075  27.172  24.970  1.00  0.00    -0.237 OA
ATOM     60  O   UNL A   1      42.252  29.497  25.772  1.00  0.00    -0.237 OA
ATOM     61  O   UNL A   1      43.962  27.858  26.410  1.00  0.00    -0.744 OA
ENDBRANCH  55  58
ENDBRANCH  27  51
BRANCH  39  62
ATOM     62  C   UNL A   1      44.305  28.536  35.681  1.00  0.00     0.023 A 
ATOM     63  C   UNL A   1      45.621  28.909  35.352  1.00  0.00     0.012 A 
ATOM     64  C   UNL A   1      44.078  27.560  36.671  1.00  0.00     0.148 A 
ATOM     65  C   UNL A   1      46.701  28.322  36.005  1.00  0.00     0.002 A 
ATOM     66  C   UNL A   1      45.159  27.004  37.341  1.00  0.00     0.091 A 
ATOM     67  F   UNL A   1      42.812  27.227  36.959  1.00  0.00    -0.205 F 
ATOM     68  C   UNL A   1      46.472  27.381  37.007  1.00  0.00     0.022 A 
BRANCH  66  69
ATOM     69  S   UNL A   1      44.967  25.839  38.694  1.00  0.00     0.127 S 
ATOM     70  O   UNL A   1      44.060  26.564  39.584  1.00  0.00    -0.237 OA
ATOM     71  O   UNL A   1      44.369  24.686  38.021  1.00  0.00    -0.237 OA
ATOM     72  O   UNL A   1      46.301  25.614  39.231  1.00  0.00    -0.744 OA
ENDBRANCH  66  69
ENDBRANCH  39  62
ENDBRANCH  13  14
ENDBRANCH   6   8
ENDBRANCH   5   6
ENDBRANCH   4   5
ENDBRANCH   3   4
ENDBRANCH   2   3
ENDBRANCH   1   2
BRANCH   1  73
ATOM     73  C   UNL A   1      34.702  29.017  27.289  1.00  0.00     0.188 C 
BRANCH  73  74
ATOM     74  O   UNL A   1      33.672  28.812  26.342  1.00  0.00    -0.376 OA
BRANCH  74  75
ATOM     75  C   UNL A   1      33.764  27.780  25.378  1.00  0.00     0.202 C 
BRANCH  75  76
ATOM     76  C   UNL A   1      33.548  26.321  25.787  1.00  0.00     0.261 C 
BRANCH  76  77
ATOM     77  O   UNL A   1      32.658  25.560  24.955  1.00  0.00    -0.459 OA
BRANCH  77  78
ATOM     78  C   UNL A   1      32.499  26.006  23.691  1.00  0.00     0.343 C 
ATOM     79  O   UNL A   1      33.300  25.896  22.757  1.00  0.00    -0.246 OA
BRANCH  78  80
ATOM     80  C   UNL A   1      31.175  26.600  23.546  1.00  0.00     0.122 A 
ATOM     81  C   UNL A   1      31.030  27.973  23.280  1.00  0.00     0.031 A 
ATOM     82  C   UNL A   1      30.039  25.833  23.749  1.00  0.00     0.225 A 
ATOM     83  C   UNL A   1      29.749  28.534  23.204  1.00  0.00     0.001 A 
ATOM     84  N   UNL A   1      28.799  26.347  23.710  1.00  0.00    -0.221 NA
ATOM     85  C   UNL A   1      28.678  27.663  23.423  1.00  0.00     0.124 A 
BRANCH  82  86
ATOM     86  O   UNL A   1      30.073  24.501  24.023  1.00  0.00    -0.493 OA
ATOM     87  H   UNL A   1      29.917  24.198  24.896  1.00  0.00     0.295 HD
ENDBRANCH  82  86
BRANCH  83  88
ATOM     88  C   UNL A   1      29.493  29.959  22.946  1.00  0.00    -0.016 A 
ATOM     89  C   UNL A   1      29.594  30.892  23.988  1.00  0.00     0.012 A 
ATOM     90  C   UNL A   1      29.023  30.412  21.701  1.00  0.00     0.025 A 
ATOM     91  C   UNL A   1      29.203  32.220  23.801  1.00  0.00     0.040 A 
ATOM     92  C   UNL A   1      28.575  31.735  21.515  1.00  0.00     0.092 A 
ATOM     93  C   UNL A   1      28.685  32.624  22.575  1.00  0.00     0.135 A 
ATOM     94  F   UNL A   1      28.280  33.892  22.431  1.00  0.00    -0.206 F 
BRANCH  92  95
ATOM     95  C   UNL A   1      27.940  32.222  20.243  1.00  0.00     0.419 C 
ATOM     96  F   UNL A   1      27.248  31.250  19.587  1.00  0.00    -0.166 F 
ATOM     97  F   UNL A   1      27.062  33.241  20.450  1.00  0.00    -0.166 F 
ATOM     98  F   UNL A   1      28.841  32.697  19.342  1.00  0.00    -0.166 F 
ENDBRANCH  92  95
ENDBRANCH  83  88
ENDBRANCH  78  80
ENDBRANCH  77  78
ENDBRANCH  76  77
ENDBRANCH  75  76
ENDBRANCH  74  75
ENDBRANCH  73  74
ENDBRANCH   1  73
TORSDOF 23
ENDMDL
