MODEL 1
REMARK VINA RESULT:      -9.3      0.000      0.000
REMARK SMILES COc1ccc(-c2nc3ccc(C)cc3[nH]2)c(C(=O)OCCOCCOCCOC(=O)c2ccc(-c3c4nc(c(-c5cccc(S(=O)(=O)[O-])c5F)c5ccc([nH]5)c(-c5cccc(S(=O)(=O)[O-])c5F)c5nc(c(-c6cccc(S(=O)(=O)[O-])c6F)c6ccc3[nH]6)C=C5)C=C4)cc2)c1OC
REMARK SMILES IDX 25 1 24 2 23 3 22 4 21 5 20 6 18 7 19 8 17 9 3 10 4 11 95 12
REMARK SMILES IDX 5 13 6 14 2 15 1 16 96 17 97 18 7 19 8 20 16 21 9 22 15 23
REMARK SMILES IDX 10 25 14 26 11 27 12 28 13 29 26 30 27 31 28 32 29 33 30 34
REMARK SMILES IDX 31 35 32 36 33 37 94 38 34 39 93 40 35 41 36 42 37 43 87 44
REMARK SMILES IDX 38 45 92 46 86 47 88 48 39 49 91 50 85 51 84 52 40 54 72 55
REMARK SMILES IDX 52 56 71 57 53 58 56 59 70 60 89 61 54 62 55 63 69 65 90 66
REMARK SMILES IDX 57 67 41 68 42 69 50 70 43 71 45 72 51 73 44 74 46 75 47 76
REMARK SMILES IDX 48 77 49 78 73 79 74 80 82 81 75 82 77 83 83 84 76 85 78 86
REMARK SMILES IDX 79 87 80 88 81 89 58 90 59 91 67 92 60 93 62 94 68 95 61 96
REMARK SMILES IDX 63 97 64 98 65 99 66 100
REMARK H PARENT 16 24 88 53 56 64
REMARK Flexibility Score: inf
ROOT
ATOM      1  C   UNL A   1      39.911  23.338  27.044  1.00  0.00     0.188 C 
ENDROOT
BRANCH   1   2
ATOM      2  C   UNL A   1      38.836  24.314  26.545  1.00  0.00     0.188 C 
BRANCH   2   3
ATOM      3  O   UNL A   1      37.522  23.755  26.496  1.00  0.00    -0.376 OA
BRANCH   3   4
ATOM      4  C   UNL A   1      37.090  23.489  25.160  1.00  0.00     0.202 C 
BRANCH   4   5
ATOM      5  C   UNL A   1      35.640  23.009  25.167  1.00  0.00     0.261 C 
BRANCH   5   6
ATOM      6  O   UNL A   1      34.722  24.091  24.929  1.00  0.00    -0.460 OA
BRANCH   6   7
ATOM      7  C   UNL A   1      34.279  24.279  23.667  1.00  0.00     0.342 C 
ATOM      8  O   UNL A   1      34.921  24.141  22.638  1.00  0.00    -0.246 OA
BRANCH   7   9
ATOM      9  C   UNL A   1      32.839  24.640  23.706  1.00  0.00     0.116 A 
ATOM     10  C   UNL A   1      31.081  26.291  23.901  1.00  0.00     0.161 A 
ATOM     11  C   UNL A   1      30.120  25.284  23.769  1.00  0.00     0.051 A 
ATOM     12  C   UNL A   1      32.449  25.983  23.872  1.00  0.00     0.176 A 
ATOM     13  C   UNL A   1      30.510  23.953  23.614  1.00  0.00     0.017 A 
ATOM     14  C   UNL A   1      31.869  23.615  23.608  1.00  0.00     0.036 A 
BRANCH  10  15
ATOM     15  O   UNL A   1      30.611  27.549  24.168  1.00  0.00    -0.493 OA
ATOM     16  C   UNL A   1      29.853  28.086  23.088  1.00  0.00     0.278 C 
ENDBRANCH  10  15
BRANCH  12  17
ATOM     17  O   UNL A   1      33.425  26.946  23.918  1.00  0.00    -0.492 OA
ATOM     18  C   UNL A   1      33.739  27.414  25.232  1.00  0.00     0.278 C 
ENDBRANCH  12  17
BRANCH  14  19
ATOM     19  C   UNL A   1      32.255  22.218  23.772  1.00  0.00     0.139 A 
ATOM     20  N   UNL A   1      32.305  21.379  22.761  1.00  0.00    -0.228 NA
ATOM     21  N   UNL A   1      32.527  21.566  24.951  1.00  0.00    -0.338 N 
ATOM     22  C   UNL A   1      32.393  20.133  23.310  1.00  0.00     0.089 A 
ATOM     23  C   UNL A   1      32.569  20.216  24.684  1.00  0.00     0.066 A 
ATOM     24  H   UNL A   1      32.667  21.989  25.829  1.00  0.00     0.168 HD
ATOM     25  C   UNL A   1      32.321  18.885  22.679  1.00  0.00     0.031 A 
ATOM     26  C   UNL A   1      32.732  19.087  25.488  1.00  0.00     0.031 A 
ATOM     27  C   UNL A   1      32.470  17.740  23.461  1.00  0.00     0.006 A 
ATOM     28  C   UNL A   1      32.699  17.834  24.840  1.00  0.00    -0.049 A 
ATOM     29  C   UNL A   1      32.966  16.569  25.610  1.00  0.00     0.044 C 
ENDBRANCH  14  19
ENDBRANCH   7   9
ENDBRANCH   6   7
ENDBRANCH   5   6
ENDBRANCH   4   5
ENDBRANCH   3   4
ENDBRANCH   2   3
ENDBRANCH   1   2
BRANCH   1  30
ATOM     30  O   UNL A   1      40.560  22.459  26.129  1.00  0.00    -0.376 OA
BRANCH  30  31
ATOM     31  C   UNL A   1      41.944  22.210  26.305  1.00  0.00     0.202 C 
BRANCH  31  32
ATOM     32  C   UNL A   1      42.888  22.855  25.284  1.00  0.00     0.261 C 
BRANCH  32  33
ATOM     33  O   UNL A   1      43.329  24.181  25.619  1.00  0.00    -0.460 OA
BRANCH  33  34
ATOM     34  C   UNL A   1      44.106  24.269  26.728  1.00  0.00     0.338 C 
ATOM     35  O   UNL A   1      45.152  23.675  26.936  1.00  0.00    -0.246 OA
BRANCH  34  36
ATOM     36  C   UNL A   1      43.561  25.267  27.676  1.00  0.00     0.060 A 
ATOM     37  C   UNL A   1      44.213  26.502  27.788  1.00  0.00     0.016 A 
ATOM     38  C   UNL A   1      42.512  24.951  28.541  1.00  0.00     0.016 A 
ATOM     39  C   UNL A   1      43.851  27.404  28.795  1.00  0.00     0.010 A 
ATOM     40  C   UNL A   1      42.158  25.853  29.556  1.00  0.00     0.010 A 
ATOM     41  C   UNL A   1      42.849  27.070  29.715  1.00  0.00    -0.014 A 
BRANCH  41  42
ATOM     42  C   UNL A   1      42.605  27.916  30.917  1.00  0.00     0.031 A 
ATOM     43  C   UNL A   1      41.648  29.072  30.826  1.00  0.00     0.074 A 
ATOM     44  C   UNL A   1      43.240  27.691  32.083  1.00  0.00     0.049 A 
ATOM     45  N   UNL A   1      41.351  29.967  31.732  1.00  0.00    -0.248 NA
ATOM     46  C   UNL A   1      40.923  29.236  29.555  1.00  0.00     0.031 C 
ATOM     47  C   UNL A   1      44.153  26.587  32.333  1.00  0.00     0.029 A 
ATOM     48  N   UNL A   1      43.238  28.393  33.265  1.00  0.00    -0.354 N 
ATOM     49  C   UNL A   1      40.436  30.823  31.135  1.00  0.00     0.074 A 
ATOM     50  C   UNL A   1      40.222  30.337  29.787  1.00  0.00     0.031 C 
ATOM     51  C   UNL A   1      44.668  26.711  33.567  1.00  0.00     0.029 A 
ATOM     52  C   UNL A   1      44.138  27.913  34.189  1.00  0.00     0.049 A 
ATOM     53  H   UNL A   1      42.650  29.165  33.434  1.00  0.00     0.167 HD
ATOM     54  C   UNL A   1      39.821  31.906  31.664  1.00  0.00     0.034 A 
ATOM     55  C   UNL A   1      44.520  28.390  35.390  1.00  0.00     0.034 A 
ATOM     56  C   UNL A   1      40.006  32.375  33.011  1.00  0.00     0.049 A 
ATOM     57  C   UNL A   1      43.864  29.626  35.930  1.00  0.00     0.074 A 
ATOM     58  C   UNL A   1      39.353  33.414  33.654  1.00  0.00     0.029 A 
ATOM     59  N   UNL A   1      40.920  31.860  33.915  1.00  0.00    -0.354 N 
ATOM     60  N   UNL A   1      42.911  30.347  35.396  1.00  0.00    -0.248 NA
ATOM     61  C   UNL A   1      44.307  30.090  37.253  1.00  0.00     0.031 C 
ATOM     62  C   UNL A   1      39.899  33.549  34.935  1.00  0.00     0.029 A 
ATOM     63  C   UNL A   1      40.871  32.577  35.100  1.00  0.00     0.049 A 
ATOM     64  H   UNL A   1      41.517  31.096  33.742  1.00  0.00     0.167 HD
ATOM     65  C   UNL A   1      42.616  31.331  36.330  1.00  0.00     0.074 A 
ATOM     66  C   UNL A   1      43.482  31.106  37.469  1.00  0.00     0.031 C 
ATOM     67  C   UNL A   1      41.710  32.335  36.244  1.00  0.00     0.034 A 
BRANCH  54  68
ATOM     68  C   UNL A   1      38.866  32.663  30.786  1.00  0.00     0.023 A 
ATOM     69  C   UNL A   1      39.331  33.746  30.014  1.00  0.00     0.012 A 
ATOM     70  C   UNL A   1      37.525  32.249  30.666  1.00  0.00     0.148 A 
ATOM     71  C   UNL A   1      38.469  34.419  29.150  1.00  0.00     0.002 A 
ATOM     72  C   UNL A   1      36.683  32.899  29.773  1.00  0.00     0.091 A 
ATOM     73  F   UNL A   1      37.101  31.231  31.428  1.00  0.00    -0.205 F 
ATOM     74  C   UNL A   1      37.151  33.989  29.020  1.00  0.00     0.022 A 
BRANCH  72  75
ATOM     75  S   UNL A   1      34.992  32.372  29.482  1.00  0.00     0.127 S 
ATOM     76  O   UNL A   1      34.421  32.458  30.825  1.00  0.00    -0.237 OA
ATOM     77  O   UNL A   1      34.510  33.390  28.548  1.00  0.00    -0.237 OA
ATOM     78  O   UNL A   1      35.079  31.030  28.925  1.00  0.00    -0.744 OA
ENDBRANCH  72  75
ENDBRANCH  54  68
BRANCH  55  79
ATOM     79  C   UNL A   1      45.557  27.684  36.195  1.00  0.00     0.023 A 
ATOM     80  C   UNL A   1      46.917  27.965  35.958  1.00  0.00     0.012 A 
ATOM     81  C   UNL A   1      45.209  26.723  37.162  1.00  0.00     0.148 A 
ATOM     82  C   UNL A   1      47.914  27.284  36.657  1.00  0.00     0.002 A 
ATOM     83  C   UNL A   1      46.208  26.068  37.877  1.00  0.00     0.091 A 
ATOM     84  F   UNL A   1      43.909  26.469  37.364  1.00  0.00    -0.205 F 
ATOM     85  C   UNL A   1      47.561  26.341  37.618  1.00  0.00     0.022 A 
BRANCH  83  86
ATOM     86  S   UNL A   1      45.861  24.890  39.189  1.00  0.00     0.127 S 
ATOM     87  O   UNL A   1      47.204  24.560  39.660  1.00  0.00    -0.237 OA
ATOM     88  O   UNL A   1      45.066  25.700  40.113  1.00  0.00    -0.237 OA
ATOM     89  O   UNL A   1      45.131  23.799  38.560  1.00  0.00    -0.744 OA
ENDBRANCH  83  86
ENDBRANCH  55  79
BRANCH  67  90
ATOM     90  C   UNL A   1      41.588  33.263  37.421  1.00  0.00     0.023 A 
ATOM     91  C   UNL A   1      40.750  32.915  38.499  1.00  0.00     0.012 A 
ATOM     92  C   UNL A   1      42.344  34.449  37.485  1.00  0.00     0.148 A 
ATOM     93  C   UNL A   1      40.648  33.747  39.613  1.00  0.00     0.002 A 
ATOM     94  C   UNL A   1      42.272  35.250  38.617  1.00  0.00     0.091 A 
ATOM     95  F   UNL A   1      43.116  34.771  36.437  1.00  0.00    -0.205 F 
ATOM     96  C   UNL A   1      41.417  34.908  39.676  1.00  0.00     0.022 A 
BRANCH  94  97
ATOM     97  S   UNL A   1      43.287  36.718  38.824  1.00  0.00     0.127 S 
ATOM     98  O   UNL A   1      43.611  37.055  37.439  1.00  0.00    -0.237 OA
ATOM     99  O   UNL A   1      42.360  37.645  39.476  1.00  0.00    -0.237 OA
ATOM    100  O   UNL A   1      44.417  36.314  39.649  1.00  0.00    -0.744 OA
ENDBRANCH  94  97
ENDBRANCH  67  90
ENDBRANCH  41  42
ENDBRANCH  34  36
ENDBRANCH  33  34
ENDBRANCH  32  33
ENDBRANCH  31  32
ENDBRANCH  30  31
ENDBRANCH   1  30
TORSDOF 23
ENDMDL
MODEL 2
REMARK VINA RESULT:      -8.9      7.699     11.148
REMARK SMILES COc1ccc(-c2nc3ccc(C)cc3[nH]2)c(C(=O)OCCOCCOCCOC(=O)c2ccc(-c3c4nc(c(-c5cccc(S(=O)(=O)[O-])c5F)c5ccc([nH]5)c(-c5cccc(S(=O)(=O)[O-])c5F)c5nc(c(-c6cccc(S(=O)(=O)[O-])c6F)c6ccc3[nH]6)C=C5)C=C4)cc2)c1OC
REMARK SMILES IDX 25 1 24 2 23 3 22 4 21 5 20 6 18 7 19 8 17 9 3 10 4 11 95 12
REMARK SMILES IDX 5 13 6 14 2 15 1 16 96 17 97 18 7 19 8 20 16 21 9 22 15 23
REMARK SMILES IDX 10 25 14 26 11 27 12 28 13 29 26 30 27 31 28 32 29 33 30 34
REMARK SMILES IDX 31 35 32 36 33 37 94 38 34 39 93 40 35 41 36 42 37 43 87 44
REMARK SMILES IDX 38 45 92 46 86 47 88 48 39 49 91 50 85 51 84 52 40 54 72 55
REMARK SMILES IDX 52 56 71 57 53 58 56 59 70 60 89 61 54 62 55 63 69 65 90 66
REMARK SMILES IDX 57 67 41 68 42 69 50 70 43 71 45 72 51 73 44 74 46 75 47 76
REMARK SMILES IDX 48 77 49 78 73 79 74 80 82 81 75 82 77 83 83 84 76 85 78 86
REMARK SMILES IDX 79 87 80 88 81 89 58 90 59 91 67 92 60 93 62 94 68 95 61 96
REMARK SMILES IDX 63 97 64 98 65 99 66 100
REMARK H PARENT 16 24 88 53 56 64
REMARK Flexibility Score: inf
ROOT
ATOM      1  C   UNL A   1      39.951  27.959  29.288  1.00  0.00     0.188 C 
ENDROOT
BRANCH   1   2
ATOM      2  C   UNL A   1      38.761  27.922  30.258  1.00  0.00     0.188 C 
BRANCH   2   3
ATOM      3  O   UNL A   1      37.809  28.967  30.050  1.00  0.00    -0.376 OA
BRANCH   3   4
ATOM      4  C   UNL A   1      38.411  30.167  29.559  1.00  0.00     0.202 C 
BRANCH   4   5
ATOM      5  C   UNL A   1      38.155  31.314  30.533  1.00  0.00     0.261 C 
BRANCH   5   6
ATOM      6  O   UNL A   1      37.057  32.139  30.105  1.00  0.00    -0.460 OA
BRANCH   6   7
ATOM      7  C   UNL A   1      35.852  31.939  30.682  1.00  0.00     0.342 C 
ATOM      8  O   UNL A   1      35.491  30.949  31.298  1.00  0.00    -0.246 OA
BRANCH   7   9
ATOM      9  C   UNL A   1      35.018  33.154  30.499  1.00  0.00     0.116 A 
ATOM     10  C   UNL A   1      34.134  35.251  31.321  1.00  0.00     0.161 A 
ATOM     11  C   UNL A   1      33.442  35.431  30.120  1.00  0.00     0.051 A 
ATOM     12  C   UNL A   1      34.928  34.113  31.526  1.00  0.00     0.176 A 
ATOM     13  C   UNL A   1      33.525  34.473  29.107  1.00  0.00     0.017 A 
ATOM     14  C   UNL A   1      34.290  33.315  29.297  1.00  0.00     0.036 A 
BRANCH  10  15
ATOM     15  O   UNL A   1      33.901  36.178  32.302  1.00  0.00    -0.493 OA
ATOM     16  C   UNL A   1      32.511  36.358  32.559  1.00  0.00     0.278 C 
ENDBRANCH  10  15
BRANCH  12  17
ATOM     17  O   UNL A   1      35.686  33.935  32.656  1.00  0.00    -0.492 OA
ATOM     18  C   UNL A   1      36.938  34.625  32.649  1.00  0.00     0.278 C 
ENDBRANCH  12  17
BRANCH  14  19
ATOM     19  C   UNL A   1      34.114  32.190  28.386  1.00  0.00     0.139 A 
ATOM     20  N   UNL A   1      33.103  32.115  27.548  1.00  0.00    -0.228 NA
ATOM     21  N   UNL A   1      34.879  31.050  28.320  1.00  0.00    -0.338 N 
ATOM     22  C   UNL A   1      33.086  30.829  27.094  1.00  0.00     0.089 A 
ATOM     23  C   UNL A   1      34.208  30.140  27.533  1.00  0.00     0.066 A 
ATOM     24  H   UNL A   1      35.750  30.909  28.757  1.00  0.00     0.168 HD
ATOM     25  C   UNL A   1      32.125  30.186  26.304  1.00  0.00     0.031 A 
ATOM     26  C   UNL A   1      34.461  28.815  27.176  1.00  0.00     0.031 A 
ATOM     27  C   UNL A   1      32.348  28.858  25.941  1.00  0.00     0.006 A 
ATOM     28  C   UNL A   1      33.510  28.186  26.346  1.00  0.00    -0.049 A 
ATOM     29  C   UNL A   1      33.749  26.794  25.828  1.00  0.00     0.044 C 
ENDBRANCH  14  19
ENDBRANCH   7   9
ENDBRANCH   6   7
ENDBRANCH   5   6
ENDBRANCH   4   5
ENDBRANCH   3   4
ENDBRANCH   2   3
ENDBRANCH   1   2
BRANCH   1  30
ATOM     30  O   UNL A   1      39.816  27.434  27.970  1.00  0.00    -0.376 OA
BRANCH  30  31
ATOM     31  C   UNL A   1      39.206  26.165  27.812  1.00  0.00     0.202 C 
BRANCH  31  32
ATOM     32  C   UNL A   1      40.153  24.968  27.664  1.00  0.00     0.261 C 
BRANCH  32  33
ATOM     33  O   UNL A   1      40.853  24.902  26.410  1.00  0.00    -0.460 OA
BRANCH  33  34
ATOM     34  C   UNL A   1      41.899  24.039  26.378  1.00  0.00     0.338 C 
ATOM     35  O   UNL A   1      41.841  22.823  26.281  1.00  0.00    -0.246 OA
BRANCH  34  36
ATOM     36  C   UNL A   1      43.187  24.769  26.398  1.00  0.00     0.060 A 
ATOM     37  C   UNL A   1      43.731  25.122  27.640  1.00  0.00     0.016 A 
ATOM     38  C   UNL A   1      43.785  25.222  25.220  1.00  0.00     0.016 A 
ATOM     39  C   UNL A   1      44.844  25.968  27.709  1.00  0.00     0.010 A 
ATOM     40  C   UNL A   1      44.895  26.077  25.294  1.00  0.00     0.010 A 
ATOM     41  C   UNL A   1      45.410  26.487  26.538  1.00  0.00    -0.014 A 
BRANCH  41  42
ATOM     42  C   UNL A   1      46.448  27.555  26.602  1.00  0.00     0.031 A 
ATOM     43  C   UNL A   1      46.024  28.997  26.640  1.00  0.00     0.074 A 
ATOM     44  C   UNL A   1      47.763  27.266  26.601  1.00  0.00     0.049 A 
ATOM     45  N   UNL A   1      46.767  30.073  26.625  1.00  0.00    -0.248 NA
ATOM     46  C   UNL A   1      44.578  29.262  26.713  1.00  0.00     0.031 C 
ATOM     47  C   UNL A   1      48.320  25.922  26.614  1.00  0.00     0.029 A 
ATOM     48  N   UNL A   1      48.869  28.082  26.557  1.00  0.00    -0.354 N 
ATOM     49  C   UNL A   1      45.885  31.143  26.650  1.00  0.00     0.074 A 
ATOM     50  C   UNL A   1      44.548  30.587  26.685  1.00  0.00     0.031 C 
ATOM     51  C   UNL A   1      49.658  25.997  26.525  1.00  0.00     0.029 A 
ATOM     52  C   UNL A   1      50.053  27.393  26.426  1.00  0.00     0.049 A 
ATOM     53  H   UNL A   1      48.819  29.064  26.613  1.00  0.00     0.167 HD
ATOM     54  C   UNL A   1      46.162  32.469  26.657  1.00  0.00     0.034 A 
ATOM     55  C   UNL A   1      51.315  27.822  26.226  1.00  0.00     0.034 A 
ATOM     56  C   UNL A   1      47.488  33.026  26.655  1.00  0.00     0.049 A 
ATOM     57  C   UNL A   1      51.589  29.296  26.178  1.00  0.00     0.074 A 
ATOM     58  C   UNL A   1      47.858  34.358  26.750  1.00  0.00     0.029 A 
ATOM     59  N   UNL A   1      48.658  32.297  26.528  1.00  0.00    -0.354 N 
ATOM     60  N   UNL A   1      50.751  30.289  26.329  1.00  0.00    -0.248 NA
ATOM     61  C   UNL A   1      52.986  29.706  25.975  1.00  0.00     0.031 C 
ATOM     62  C   UNL A   1      49.251  34.435  26.644  1.00  0.00     0.029 A 
ATOM     63  C   UNL A   1      49.750  33.151  26.512  1.00  0.00     0.049 A 
ATOM     64  H   UNL A   1      48.709  31.316  26.460  1.00  0.00     0.167 HD
ATOM     65  C   UNL A   1      51.521  31.444  26.271  1.00  0.00     0.074 A 
ATOM     66  C   UNL A   1      52.896  31.024  26.086  1.00  0.00     0.031 C 
ATOM     67  C   UNL A   1      51.119  32.734  26.358  1.00  0.00     0.034 A 
BRANCH  54  68
ATOM     68  C   UNL A   1      45.003  33.423  26.684  1.00  0.00     0.023 A 
ATOM     69  C   UNL A   1      44.454  33.894  25.475  1.00  0.00     0.012 A 
ATOM     70  C   UNL A   1      44.408  33.789  27.907  1.00  0.00     0.148 A 
ATOM     71  C   UNL A   1      43.341  34.732  25.483  1.00  0.00     0.002 A 
ATOM     72  C   UNL A   1      43.275  34.592  27.905  1.00  0.00     0.091 A 
ATOM     73  F   UNL A   1      44.963  33.348  29.044  1.00  0.00    -0.205 F 
ATOM     74  C   UNL A   1      42.745  35.071  26.696  1.00  0.00     0.022 A 
BRANCH  72  75
ATOM     75  S   UNL A   1      42.394  35.022  29.410  1.00  0.00     0.127 S 
ATOM     76  O   UNL A   1      41.240  35.747  28.880  1.00  0.00    -0.237 OA
ATOM     77  O   UNL A   1      42.081  33.705  29.968  1.00  0.00    -0.237 OA
ATOM     78  O   UNL A   1      43.319  35.814  30.206  1.00  0.00    -0.744 OA
ENDBRANCH  72  75
ENDBRANCH  54  68
BRANCH  55  79
ATOM     79  C   UNL A   1      52.436  26.850  26.084  1.00  0.00     0.023 A 
ATOM     80  C   UNL A   1      52.545  26.095  24.900  1.00  0.00     0.012 A 
ATOM     81  C   UNL A   1      53.369  26.648  27.119  1.00  0.00     0.148 A 
ATOM     82  C   UNL A   1      53.551  25.140  24.757  1.00  0.00     0.002 A 
ATOM     83  C   UNL A   1      54.389  25.715  26.958  1.00  0.00     0.091 A 
ATOM     84  F   UNL A   1      53.241  27.375  28.238  1.00  0.00    -0.205 F 
ATOM     85  C   UNL A   1      54.475  24.953  25.782  1.00  0.00     0.022 A 
BRANCH  83  86
ATOM     86  S   UNL A   1      55.675  25.449  28.186  1.00  0.00     0.127 S 
ATOM     87  O   UNL A   1      54.920  25.516  29.434  1.00  0.00    -0.237 OA
ATOM     88  O   UNL A   1      56.156  24.114  27.827  1.00  0.00    -0.237 OA
ATOM     89  O   UNL A   1      56.645  26.516  27.981  1.00  0.00    -0.744 OA
ENDBRANCH  83  86
ENDBRANCH  55  79
BRANCH  67  90
ATOM     90  C   UNL A   1      52.178  33.798  26.275  1.00  0.00     0.023 A 
ATOM     91  C   UNL A   1      52.813  34.245  27.451  1.00  0.00     0.012 A 
ATOM     92  C   UNL A   1      52.585  34.314  25.030  1.00  0.00     0.148 A 
ATOM     93  C   UNL A   1      53.819  35.208  27.391  1.00  0.00     0.002 A 
ATOM     94  C   UNL A   1      53.618  35.240  24.973  1.00  0.00     0.091 A 
ATOM     95  F   UNL A   1      51.951  33.891  23.926  1.00  0.00    -0.205 F 
ATOM     96  C   UNL A   1      54.229  35.696  26.151  1.00  0.00     0.022 A 
BRANCH  94  97
ATOM     97  S   UNL A   1      54.271  35.861  23.419  1.00  0.00     0.127 S 
ATOM     98  O   UNL A   1      53.697  37.206  23.370  1.00  0.00    -0.237 OA
ATOM     99  O   UNL A   1      55.715  35.823  23.652  1.00  0.00    -0.237 OA
ATOM    100  O   UNL A   1      53.800  34.946  22.388  1.00  0.00    -0.744 OA
ENDBRANCH  94  97
ENDBRANCH  67  90
ENDBRANCH  41  42
ENDBRANCH  34  36
ENDBRANCH  33  34
ENDBRANCH  32  33
ENDBRANCH  31  32
ENDBRANCH  30  31
ENDBRANCH   1  30
TORSDOF 23
ENDMDL
MODEL 3
REMARK VINA RESULT:      -8.7      3.580      5.541
REMARK SMILES COc1ccc(-c2nc3ccc(C)cc3[nH]2)c(C(=O)OCCOCCOCCOC(=O)c2ccc(-c3c4nc(c(-c5cccc(S(=O)(=O)[O-])c5F)c5ccc([nH]5)c(-c5cccc(S(=O)(=O)[O-])c5F)c5nc(c(-c6cccc(S(=O)(=O)[O-])c6F)c6ccc3[nH]6)C=C5)C=C4)cc2)c1OC
REMARK SMILES IDX 25 1 24 2 23 3 22 4 21 5 20 6 18 7 19 8 17 9 3 10 4 11 95 12
REMARK SMILES IDX 5 13 6 14 2 15 1 16 96 17 97 18 7 19 8 20 16 21 9 22 15 23
REMARK SMILES IDX 10 25 14 26 11 27 12 28 13 29 26 30 27 31 28 32 29 33 30 34
REMARK SMILES IDX 31 35 32 36 33 37 94 38 34 39 93 40 35 41 36 42 37 43 87 44
REMARK SMILES IDX 38 45 92 46 86 47 88 48 39 49 91 50 85 51 84 52 40 54 72 55
REMARK SMILES IDX 52 56 71 57 53 58 56 59 70 60 89 61 54 62 55 63 69 65 90 66
REMARK SMILES IDX 57 67 41 68 42 69 50 70 43 71 45 72 51 73 44 74 46 75 47 76
REMARK SMILES IDX 48 77 49 78 73 79 74 80 82 81 75 82 77 83 83 84 76 85 78 86
REMARK SMILES IDX 79 87 80 88 81 89 58 90 59 91 67 92 60 93 62 94 68 95 61 96
REMARK SMILES IDX 63 97 64 98 65 99 66 100
REMARK H PARENT 16 24 88 53 56 64
REMARK Flexibility Score: inf
ROOT
ATOM      1  C   UNL A   1      39.991  23.387  27.368  1.00  0.00     0.188 C 
ENDROOT
BRANCH   1   2
ATOM      2  C   UNL A   1      39.064  24.252  26.501  1.00  0.00     0.188 C 
BRANCH   2   3
ATOM      3  O   UNL A   1      37.700  23.828  26.508  1.00  0.00    -0.376 OA
BRANCH   3   4
ATOM      4  C   UNL A   1      37.293  23.274  25.254  1.00  0.00     0.202 C 
BRANCH   4   5
ATOM      5  C   UNL A   1      35.774  23.123  25.221  1.00  0.00     0.261 C 
BRANCH   5   6
ATOM      6  O   UNL A   1      35.131  24.322  24.756  1.00  0.00    -0.460 OA
BRANCH   6   7
ATOM      7  C   UNL A   1      34.408  24.254  23.618  1.00  0.00     0.342 C 
ATOM      8  O   UNL A   1      34.798  23.873  22.525  1.00  0.00    -0.246 OA
BRANCH   7   9
ATOM      9  C   UNL A   1      33.012  24.671  23.902  1.00  0.00     0.116 A 
ATOM     10  C   UNL A   1      31.381  26.388  24.401  1.00  0.00     0.161 A 
ATOM     11  C   UNL A   1      30.372  25.423  24.428  1.00  0.00     0.051 A 
ATOM     12  C   UNL A   1      32.711  26.026  24.139  1.00  0.00     0.176 A 
ATOM     13  C   UNL A   1      30.674  24.078  24.202  1.00  0.00     0.017 A 
ATOM     14  C   UNL A   1      31.998  23.687  23.964  1.00  0.00     0.036 A 
BRANCH  10  15
ATOM     15  O   UNL A   1      31.016  27.661  24.751  1.00  0.00    -0.493 OA
ATOM     16  C   UNL A   1      30.282  28.317  23.722  1.00  0.00     0.278 C 
ENDBRANCH  10  15
BRANCH  12  17
ATOM     17  O   UNL A   1      33.720  26.950  24.025  1.00  0.00    -0.492 OA
ATOM     18  C   UNL A   1      33.787  27.605  22.757  1.00  0.00     0.278 C 
ENDBRANCH  12  17
BRANCH  14  19
ATOM     19  C   UNL A   1      32.347  22.274  24.053  1.00  0.00     0.139 A 
ATOM     20  N   UNL A   1      32.360  21.485  23.000  1.00  0.00    -0.228 NA
ATOM     21  N   UNL A   1      32.618  21.557  25.194  1.00  0.00    -0.338 N 
ATOM     22  C   UNL A   1      32.423  20.212  23.485  1.00  0.00     0.089 A 
ATOM     23  C   UNL A   1      32.619  20.221  24.859  1.00  0.00     0.066 A 
ATOM     24  H   UNL A   1      32.781  21.932  26.089  1.00  0.00     0.168 HD
ATOM     25  C   UNL A   1      32.308  19.000  22.795  1.00  0.00     0.031 A 
ATOM     26  C   UNL A   1      32.762  19.049  25.604  1.00  0.00     0.031 A 
ATOM     27  C   UNL A   1      32.436  17.813  23.516  1.00  0.00     0.006 A 
ATOM     28  C   UNL A   1      32.686  17.832  24.895  1.00  0.00    -0.049 A 
ATOM     29  C   UNL A   1      32.930  16.523  25.596  1.00  0.00     0.044 C 
ENDBRANCH  14  19
ENDBRANCH   7   9
ENDBRANCH   6   7
ENDBRANCH   5   6
ENDBRANCH   4   5
ENDBRANCH   3   4
ENDBRANCH   2   3
ENDBRANCH   1   2
BRANCH   1  30
ATOM     30  O   UNL A   1      40.267  22.039  26.996  1.00  0.00    -0.376 OA
BRANCH  30  31
ATOM     31  C   UNL A   1      41.610  21.678  26.728  1.00  0.00     0.202 C 
BRANCH  31  32
ATOM     32  C   UNL A   1      42.399  22.620  25.812  1.00  0.00     0.261 C 
BRANCH  32  33
ATOM     33  O   UNL A   1      43.209  23.593  26.496  1.00  0.00    -0.460 OA
BRANCH  33  34
ATOM     34  C   UNL A   1      44.155  23.080  27.320  1.00  0.00     0.338 C 
ATOM     35  O   UNL A   1      45.021  22.271  27.025  1.00  0.00    -0.246 OA
BRANCH  34  36
ATOM     36  C   UNL A   1      44.070  23.691  28.666  1.00  0.00     0.060 A 
ATOM     37  C   UNL A   1      44.785  24.872  28.905  1.00  0.00     0.016 A 
ATOM     38  C   UNL A   1      43.413  23.048  29.716  1.00  0.00     0.016 A 
ATOM     39  C   UNL A   1      44.885  25.386  30.203  1.00  0.00     0.010 A 
ATOM     40  C   UNL A   1      43.524  23.560  31.017  1.00  0.00     0.010 A 
ATOM     41  C   UNL A   1      44.291  24.712  31.278  1.00  0.00    -0.014 A 
BRANCH  41  42
ATOM     42  C   UNL A   1      44.572  25.121  32.683  1.00  0.00     0.031 A 
ATOM     43  C   UNL A   1      44.233  26.517  33.128  1.00  0.00     0.074 A 
ATOM     44  C   UNL A   1      45.147  24.282  33.564  1.00  0.00     0.049 A 
ATOM     45  N   UNL A   1      44.461  27.089  34.282  1.00  0.00    -0.248 NA
ATOM     46  C   UNL A   1      43.540  27.375  32.155  1.00  0.00     0.031 C 
ATOM     47  C   UNL A   1      45.486  22.894  33.291  1.00  0.00     0.029 A 
ATOM     48  N   UNL A   1      45.576  24.479  34.856  1.00  0.00    -0.354 N 
ATOM     49  C   UNL A   1      43.975  28.384  34.165  1.00  0.00     0.074 A 
ATOM     50  C   UNL A   1      43.436  28.513  32.827  1.00  0.00     0.031 C 
ATOM     51  C   UNL A   1      46.119  22.376  34.357  1.00  0.00     0.029 A 
ATOM     52  C   UNL A   1      46.250  23.399  35.381  1.00  0.00     0.049 A 
ATOM     53  H   UNL A   1      45.417  25.312  35.356  1.00  0.00     0.167 HD
ATOM     54  C   UNL A   1      43.967  29.372  35.092  1.00  0.00     0.034 A 
ATOM     55  C   UNL A   1      46.919  23.246  36.540  1.00  0.00     0.034 A 
ATOM     56  C   UNL A   1      44.473  29.240  36.432  1.00  0.00     0.049 A 
ATOM     57  C   UNL A   1      46.945  24.376  37.526  1.00  0.00     0.074 A 
ATOM     58  C   UNL A   1      44.423  30.165  37.461  1.00  0.00     0.029 A 
ATOM     59  N   UNL A   1      45.140  28.131  36.925  1.00  0.00    -0.354 N 
ATOM     60  N   UNL A   1      46.371  25.549  37.442  1.00  0.00    -0.248 NA
ATOM     61  C   UNL A   1      47.676  24.147  38.781  1.00  0.00     0.031 C 
ATOM     62  C   UNL A   1      45.093  29.629  38.566  1.00  0.00     0.029 A 
ATOM     63  C   UNL A   1      45.535  28.360  38.234  1.00  0.00     0.049 A 
ATOM     64  H   UNL A   1      45.310  27.302  36.421  1.00  0.00     0.167 HD
ATOM     65  C   UNL A   1      46.642  26.188  38.645  1.00  0.00     0.074 A 
ATOM     66  C   UNL A   1      47.421  25.265  39.446  1.00  0.00     0.031 C 
ATOM     67  C   UNL A   1      46.282  27.431  39.043  1.00  0.00     0.034 A 
BRANCH  54  68
ATOM     68  C   UNL A   1      43.375  30.694  34.695  1.00  0.00     0.023 A 
ATOM     69  C   UNL A   1      44.193  31.683  34.115  1.00  0.00     0.012 A 
ATOM     70  C   UNL A   1      41.991  30.923  34.825  1.00  0.00     0.148 A 
ATOM     71  C   UNL A   1      43.645  32.891  33.688  1.00  0.00     0.002 A 
ATOM     72  C   UNL A   1      41.447  32.114  34.360  1.00  0.00     0.091 A 
ATOM     73  F   UNL A   1      41.238  29.976  35.402  1.00  0.00    -0.205 F 
ATOM     74  C   UNL A   1      42.273  33.101  33.799  1.00  0.00     0.022 A 
BRANCH  72  75
ATOM     75  S   UNL A   1      39.683  32.445  34.392  1.00  0.00     0.127 S 
ATOM     76  O   UNL A   1      39.412  32.468  35.829  1.00  0.00    -0.237 OA
ATOM     77  O   UNL A   1      39.604  33.752  33.736  1.00  0.00    -0.237 OA
ATOM     78  O   UNL A   1      39.055  31.358  33.655  1.00  0.00    -0.744 OA
ENDBRANCH  72  75
ENDBRANCH  54  68
BRANCH  55  79
ATOM     79  C   UNL A   1      47.601  21.960  36.861  1.00  0.00     0.023 A 
ATOM     80  C   UNL A   1      46.948  21.026  37.689  1.00  0.00     0.012 A 
ATOM     81  C   UNL A   1      48.893  21.673  36.381  1.00  0.00     0.148 A 
ATOM     82  C   UNL A   1      47.580  19.837  38.052  1.00  0.00     0.002 A 
ATOM     83  C   UNL A   1      49.505  20.472  36.722  1.00  0.00     0.091 A 
ATOM     84  F   UNL A   1      49.494  22.580  35.600  1.00  0.00    -0.205 F 
ATOM     85  C   UNL A   1      48.854  19.557  37.566  1.00  0.00     0.022 A 
BRANCH  83  86
ATOM     86  S   UNL A   1      51.115  19.978  36.090  1.00  0.00     0.127 S 
ATOM     87  O   UNL A   1      51.240  18.620  36.613  1.00  0.00    -0.237 OA
ATOM     88  O   UNL A   1      50.905  20.065  34.644  1.00  0.00    -0.237 OA
ATOM     89  O   UNL A   1      52.063  20.946  36.623  1.00  0.00    -0.744 OA
ENDBRANCH  83  86
ENDBRANCH  55  79
BRANCH  67  90
ATOM     90  C   UNL A   1      46.704  27.871  40.417  1.00  0.00     0.023 A 
ATOM     91  C   UNL A   1      45.862  27.621  41.519  1.00  0.00     0.012 A 
ATOM     92  C   UNL A   1      47.957  28.478  40.626  1.00  0.00     0.148 A 
ATOM     93  C   UNL A   1      46.251  27.993  42.805  1.00  0.00     0.002 A 
ATOM     94  C   UNL A   1      48.358  28.804  41.915  1.00  0.00     0.091 A 
ATOM     95  F   UNL A   1      48.732  28.726  39.559  1.00  0.00    -0.205 F 
ATOM     96  C   UNL A   1      47.503  28.574  43.004  1.00  0.00     0.022 A 
BRANCH  94  97
ATOM     97  S   UNL A   1      49.983  29.477  42.278  1.00  0.00     0.127 S 
ATOM     98  O   UNL A   1      49.943  29.585  43.736  1.00  0.00    -0.237 OA
ATOM     99  O   UNL A   1      50.872  28.431  41.768  1.00  0.00    -0.237 OA
ATOM    100  O   UNL A   1      50.066  30.742  41.561  1.00  0.00    -0.744 OA
ENDBRANCH  94  97
ENDBRANCH  67  90
ENDBRANCH  41  42
ENDBRANCH  34  36
ENDBRANCH  33  34
ENDBRANCH  32  33
ENDBRANCH  31  32
ENDBRANCH  30  31
ENDBRANCH   1  30
TORSDOF 23
ENDMDL
