MODEL 1
REMARK VINA RESULT:     -12.8      0.000      0.000
REMARK SMILES Cc1ccccc1[C@@H]1[NH2+][C@@H](C(=O)OCCOCCOCCOC(=O)c2ccc(-c3c4nc(c(-c5cccc(S(=O)(=O)[O-])c5F)c5ccc([nH]5)c(-c5cccc(S(=O)(=O)[O-])c5F)c5nc(c(-c6cccc(S(=O)(=O)[O-])c6F)c6ccc3[nH]6)C=C5)C=C4)cc2)CC2=c3ccccc3=N[C@H]21
REMARK SMILES IDX 18 1 17 2 16 3 15 4 14 5 13 6 11 7 12 8 10 9 8 10 9 11 97 12
REMARK SMILES IDX 89 15 96 16 88 17 90 18 95 19 91 20 94 21 92 22 93 23 7 24
REMARK SMILES IDX 1 25 2 26 3 27 4 28 6 29 5 30 19 31 20 32 21 33 22 34 23 35
REMARK SMILES IDX 24 36 25 37 26 38 87 39 27 40 86 41 28 42 29 43 30 44 80 45
REMARK SMILES IDX 31 46 85 47 79 48 81 49 32 50 84 51 78 52 77 53 33 55 65 56
REMARK SMILES IDX 45 57 64 58 46 59 49 60 63 61 82 62 47 63 48 64 62 66 83 67
REMARK SMILES IDX 50 68 34 69 35 70 43 71 36 72 38 73 44 74 37 75 39 76 40 77
REMARK SMILES IDX 41 78 42 79 66 80 67 81 75 82 68 83 70 84 76 85 69 86 71 87
REMARK SMILES IDX 72 88 73 89 74 90 51 91 52 92 60 93 53 94 55 95 61 96 54 97
REMARK SMILES IDX 56 98 57 99 58 100 59 101
REMARK H PARENT 9 13 9 14 81 54 49 65
REMARK Flexibility Score: inf
ROOT
ATOM      1  C   UNL A   1      32.454  29.708  24.848  1.00  0.00     0.188 C 
ENDROOT
BRANCH   1   2
ATOM      2  C   UNL A   1      31.901  28.352  24.375  1.00  0.00     0.188 C 
BRANCH   2   3
ATOM      3  O   UNL A   1      30.626  27.798  24.776  1.00  0.00    -0.376 OA
BRANCH   3   4
ATOM      4  C   UNL A   1      30.407  26.716  25.720  1.00  0.00     0.202 C 
BRANCH   4   5
ATOM      5  C   UNL A   1      31.653  25.869  26.509  1.00  0.00     0.261 C 
BRANCH   5   6
ATOM      6  O   UNL A   1      31.505  24.492  27.369  1.00  0.00    -0.459 OA
BRANCH   6   7
ATOM      7  C   UNL A   1      31.138  23.155  27.063  1.00  0.00     0.365 C 
ATOM      8  O   UNL A   1      30.088  22.556  27.300  1.00  0.00    -0.245 OA
BRANCH   7   9
ATOM      9  C   UNL A   1      32.089  22.279  26.269  1.00  0.00     0.298 C 
ATOM     10  C   UNL A   1      34.351  23.101  25.197  1.00  0.00     0.243 C 
ATOM     11  N   UNL A   1      33.498  22.858  26.399  1.00  0.00    -0.326 N 
ATOM     12  C   UNL A   1      33.752  22.649  23.829  1.00  0.00     0.196 C 
ATOM     13  H   UNL A   1      33.397  23.758  26.870  1.00  0.00     0.347 HD
ATOM     14  H   UNL A   1      34.000  22.111  26.880  1.00  0.00     0.347 HD
ATOM     15  C   UNL A   1      32.292  22.976  23.870  1.00  0.00    -0.024 C 
ATOM     16  N   UNL A   1      34.280  23.441  22.670  1.00  0.00    -0.270 NA
ATOM     17  C   UNL A   1      31.487  22.226  24.866  1.00  0.00     0.111 C 
ATOM     18  C   UNL A   1      32.013  24.016  23.097  1.00  0.00     0.002 A 
ATOM     19  C   UNL A   1      33.265  24.183  22.339  1.00  0.00     0.066 A 
ATOM     20  C   UNL A   1      30.907  24.898  22.924  1.00  0.00     0.010 A 
ATOM     21  C   UNL A   1      33.222  25.157  21.224  1.00  0.00     0.028 A 
ATOM     22  C   UNL A   1      30.981  25.838  21.967  1.00  0.00     0.001 A 
ATOM     23  C   UNL A   1      32.123  25.915  21.069  1.00  0.00     0.002 A 
BRANCH  10  24
ATOM     24  C   UNL A   1      35.776  22.554  25.397  1.00  0.00     0.015 A 
ATOM     25  C   UNL A   1      35.141  20.110  24.916  1.00  0.00     0.045 C 
ATOM     26  C   UNL A   1      36.127  21.199  25.215  1.00  0.00    -0.042 A 
ATOM     27  C   UNL A   1      37.480  20.811  25.292  1.00  0.00     0.004 A 
ATOM     28  C   UNL A   1      38.482  21.726  25.601  1.00  0.00     0.000 A 
ATOM     29  C   UNL A   1      36.808  23.457  25.749  1.00  0.00     0.010 A 
ATOM     30  C   UNL A   1      38.142  23.048  25.853  1.00  0.00     0.001 A 
ENDBRANCH  10  24
ENDBRANCH   7   9
ENDBRANCH   6   7
ENDBRANCH   5   6
ENDBRANCH   4   5
ENDBRANCH   3   4
ENDBRANCH   2   3
ENDBRANCH   1   2
BRANCH   1  31
ATOM     31  O   UNL A   1      32.185  29.929  26.218  1.00  0.00    -0.376 OA
BRANCH  31  32
ATOM     32  C   UNL A   1      33.303  30.093  27.077  1.00  0.00     0.202 C 
BRANCH  32  33
ATOM     33  C   UNL A   1      33.517  31.528  27.620  1.00  0.00     0.261 C 
BRANCH  33  34
ATOM     34  O   UNL A   1      34.878  31.993  27.423  1.00  0.00    -0.460 OA
BRANCH  34  35
ATOM     35  C   UNL A   1      35.688  32.094  28.552  1.00  0.00     0.338 C 
ATOM     36  O   UNL A   1      35.819  33.104  29.178  1.00  0.00    -0.246 OA
BRANCH  35  37
ATOM     37  C   UNL A   1      36.477  30.805  28.725  1.00  0.00     0.060 A 
ATOM     38  C   UNL A   1      36.639  29.978  29.849  1.00  0.00     0.016 A 
ATOM     39  C   UNL A   1      37.338  30.537  27.722  1.00  0.00     0.016 A 
ATOM     40  C   UNL A   1      37.715  28.958  29.934  1.00  0.00     0.010 A 
ATOM     41  C   UNL A   1      38.448  29.745  27.995  1.00  0.00     0.010 A 
ATOM     42  C   UNL A   1      38.715  28.809  28.971  1.00  0.00    -0.014 A 
BRANCH  42  43
ATOM     43  C   UNL A   1      40.105  28.025  28.905  1.00  0.00     0.031 A 
ATOM     44  C   UNL A   1      40.601  26.439  28.681  1.00  0.00     0.074 A 
ATOM     45  C   UNL A   1      41.143  28.889  28.838  1.00  0.00     0.049 A 
ATOM     46  N   UNL A   1      41.858  26.063  28.860  1.00  0.00    -0.248 NA
ATOM     47  C   UNL A   1      39.883  25.182  28.267  1.00  0.00     0.031 C 
ATOM     48  C   UNL A   1      42.500  28.663  28.355  1.00  0.00     0.029 A 
ATOM     49  N   UNL A   1      41.192  30.176  29.377  1.00  0.00    -0.354 N 
ATOM     50  C   UNL A   1      42.043  24.757  28.381  1.00  0.00     0.074 A 
ATOM     51  C   UNL A   1      40.765  24.197  28.263  1.00  0.00     0.031 C 
ATOM     52  C   UNL A   1      43.303  29.601  28.873  1.00  0.00     0.029 A 
ATOM     53  C   UNL A   1      42.508  30.365  29.811  1.00  0.00     0.049 A 
ATOM     54  H   UNL A   1      40.451  30.820  29.437  1.00  0.00     0.167 HD
ATOM     55  C   UNL A   1      43.234  24.258  27.949  1.00  0.00     0.034 A 
ATOM     56  C   UNL A   1      42.769  30.560  31.134  1.00  0.00     0.034 A 
ATOM     57  C   UNL A   1      44.306  25.099  28.434  1.00  0.00     0.049 A 
ATOM     58  C   UNL A   1      43.770  29.589  31.716  1.00  0.00     0.074 A 
ATOM     59  C   UNL A   1      45.180  25.998  27.862  1.00  0.00     0.029 A 
ATOM     60  N   UNL A   1      44.432  25.225  29.805  1.00  0.00    -0.354 N 
ATOM     61  N   UNL A   1      44.353  28.626  31.052  1.00  0.00    -0.248 NA
ATOM     62  C   UNL A   1      44.207  29.626  33.106  1.00  0.00     0.031 C 
ATOM     63  C   UNL A   1      45.772  26.743  28.924  1.00  0.00     0.029 A 
ATOM     64  C   UNL A   1      45.292  26.252  30.129  1.00  0.00     0.049 A 
ATOM     65  H   UNL A   1      43.968  24.658  30.463  1.00  0.00     0.167 HD
ATOM     66  C   UNL A   1      45.045  27.812  31.916  1.00  0.00     0.074 A 
ATOM     67  C   UNL A   1      45.022  28.559  33.162  1.00  0.00     0.031 C 
ATOM     68  C   UNL A   1      45.488  26.566  31.542  1.00  0.00     0.034 A 
BRANCH  55  69
ATOM     69  C   UNL A   1      43.462  23.047  27.012  1.00  0.00     0.023 A 
ATOM     70  C   UNL A   1      44.251  23.281  25.862  1.00  0.00     0.012 A 
ATOM     71  C   UNL A   1      42.885  21.742  27.083  1.00  0.00     0.148 A 
ATOM     72  C   UNL A   1      44.438  22.323  24.851  1.00  0.00     0.002 A 
ATOM     73  C   UNL A   1      43.133  20.758  26.109  1.00  0.00     0.091 A 
ATOM     74  F   UNL A   1      41.998  21.442  28.035  1.00  0.00    -0.205 F 
ATOM     75  C   UNL A   1      43.891  21.055  24.978  1.00  0.00     0.022 A 
BRANCH  73  76
ATOM     76  S   UNL A   1      42.484  19.070  26.218  1.00  0.00     0.127 S 
ATOM     77  O   UNL A   1      41.109  19.237  25.746  1.00  0.00    -0.237 OA
ATOM     78  O   UNL A   1      43.354  18.334  25.300  1.00  0.00    -0.237 OA
ATOM     79  O   UNL A   1      42.607  18.670  27.616  1.00  0.00    -0.744 OA
ENDBRANCH  73  76
ENDBRANCH  55  69
BRANCH  56  80
ATOM     80  C   UNL A   1      41.654  31.285  31.832  1.00  0.00     0.023 A 
ATOM     81  C   UNL A   1      41.353  32.579  31.325  1.00  0.00     0.012 A 
ATOM     82  C   UNL A   1      40.689  30.646  32.635  1.00  0.00     0.148 A 
ATOM     83  C   UNL A   1      40.097  33.160  31.499  1.00  0.00     0.002 A 
ATOM     84  C   UNL A   1      39.441  31.252  32.836  1.00  0.00     0.091 A 
ATOM     85  F   UNL A   1      40.967  29.435  33.135  1.00  0.00    -0.205 F 
ATOM     86  C   UNL A   1      39.133  32.486  32.233  1.00  0.00     0.022 A 
BRANCH  84  87
ATOM     87  S   UNL A   1      38.095  30.419  33.710  1.00  0.00     0.127 S 
ATOM     88  O   UNL A   1      38.281  29.035  33.284  1.00  0.00    -0.237 OA
ATOM     89  O   UNL A   1      38.424  30.672  35.113  1.00  0.00    -0.237 OA
ATOM     90  O   UNL A   1      36.882  31.080  33.249  1.00  0.00    -0.744 OA
ENDBRANCH  84  87
ENDBRANCH  56  80
BRANCH  68  91
ATOM     91  C   UNL A   1      46.030  25.461  32.461  1.00  0.00     0.023 A 
ATOM     92  C   UNL A   1      47.380  25.378  32.847  1.00  0.00     0.012 A 
ATOM     93  C   UNL A   1      45.155  24.527  33.090  1.00  0.00     0.148 A 
ATOM     94  C   UNL A   1      47.845  24.432  33.770  1.00  0.00     0.002 A 
ATOM     95  C   UNL A   1      45.601  23.667  34.096  1.00  0.00     0.091 A 
ATOM     96  F   UNL A   1      43.874  24.435  32.707  1.00  0.00    -0.205 F 
ATOM     97  C   UNL A   1      46.952  23.597  34.421  1.00  0.00     0.022 A 
BRANCH  95  98
ATOM     98  S   UNL A   1      44.424  22.761  35.115  1.00  0.00     0.127 S 
ATOM     99  O   UNL A   1      44.888  23.064  36.466  1.00  0.00    -0.237 OA
ATOM    100  O   UNL A   1      43.146  23.380  34.757  1.00  0.00    -0.237 OA
ATOM    101  O   UNL A   1      44.555  21.377  34.676  1.00  0.00    -0.744 OA
ENDBRANCH  95  98
ENDBRANCH  68  91
ENDBRANCH  42  43
ENDBRANCH  35  37
ENDBRANCH  34  35
ENDBRANCH  33  34
ENDBRANCH  32  33
ENDBRANCH  31  32
ENDBRANCH   1  31
TORSDOF 21
ENDMDL
MODEL 2
REMARK VINA RESULT:     -12.7      1.854      2.787
REMARK SMILES Cc1ccccc1[C@@H]1[NH2+][C@@H](C(=O)OCCOCCOCCOC(=O)c2ccc(-c3c4nc(c(-c5cccc(S(=O)(=O)[O-])c5F)c5ccc([nH]5)c(-c5cccc(S(=O)(=O)[O-])c5F)c5nc(c(-c6cccc(S(=O)(=O)[O-])c6F)c6ccc3[nH]6)C=C5)C=C4)cc2)CC2=c3ccccc3=N[C@H]21
REMARK SMILES IDX 18 1 17 2 16 3 15 4 14 5 13 6 11 7 12 8 10 9 8 10 9 11 97 12
REMARK SMILES IDX 89 15 96 16 88 17 90 18 95 19 91 20 94 21 92 22 93 23 7 24
REMARK SMILES IDX 1 25 2 26 3 27 4 28 6 29 5 30 19 31 20 32 21 33 22 34 23 35
REMARK SMILES IDX 24 36 25 37 26 38 87 39 27 40 86 41 28 42 29 43 30 44 80 45
REMARK SMILES IDX 31 46 85 47 79 48 81 49 32 50 84 51 78 52 77 53 33 55 65 56
REMARK SMILES IDX 45 57 64 58 46 59 49 60 63 61 82 62 47 63 48 64 62 66 83 67
REMARK SMILES IDX 50 68 34 69 35 70 43 71 36 72 38 73 44 74 37 75 39 76 40 77
REMARK SMILES IDX 41 78 42 79 66 80 67 81 75 82 68 83 70 84 76 85 69 86 71 87
REMARK SMILES IDX 72 88 73 89 74 90 51 91 52 92 60 93 53 94 55 95 61 96 54 97
REMARK SMILES IDX 56 98 57 99 58 100 59 101
REMARK H PARENT 9 13 9 14 81 54 49 65
REMARK Flexibility Score: inf
ROOT
ATOM      1  C   UNL A   1      32.460  28.079  26.824  1.00  0.00     0.188 C 
ENDROOT
BRANCH   1   2
ATOM      2  C   UNL A   1      31.532  28.058  25.597  1.00  0.00     0.188 C 
BRANCH   2   3
ATOM      3  O   UNL A   1      31.902  27.546  24.294  1.00  0.00    -0.376 OA
BRANCH   3   4
ATOM      4  C   UNL A   1      33.217  27.600  23.681  1.00  0.00     0.202 C 
BRANCH   4   5
ATOM      5  C   UNL A   1      33.608  26.881  22.190  1.00  0.00     0.261 C 
BRANCH   5   6
ATOM      6  O   UNL A   1      33.147  25.408  21.666  1.00  0.00    -0.459 OA
BRANCH   6   7
ATOM      7  C   UNL A   1      33.411  24.074  22.072  1.00  0.00     0.365 C 
ATOM      8  O   UNL A   1      33.425  23.039  21.403  1.00  0.00    -0.245 OA
BRANCH   7   9
ATOM      9  C   UNL A   1      33.809  23.791  23.509  1.00  0.00     0.298 C 
ATOM     10  C   UNL A   1      35.690  22.100  24.244  1.00  0.00     0.243 C 
ATOM     11  N   UNL A   1      35.269  23.339  23.523  1.00  0.00    -0.326 N 
ATOM     12  C   UNL A   1      34.573  21.360  25.043  1.00  0.00     0.196 C 
ATOM     13  H   UNL A   1      35.541  23.213  22.548  1.00  0.00     0.347 HD
ATOM     14  H   UNL A   1      35.723  24.075  24.064  1.00  0.00     0.347 HD
ATOM     15  C   UNL A   1      33.330  21.435  24.214  1.00  0.00    -0.024 C 
ATOM     16  N   UNL A   1      34.836  19.890  25.189  1.00  0.00    -0.270 NA
ATOM     17  C   UNL A   1      32.767  22.794  24.010  1.00  0.00     0.111 C 
ATOM     18  C   UNL A   1      33.044  20.260  23.671  1.00  0.00     0.002 A 
ATOM     19  C   UNL A   1      33.964  19.358  24.385  1.00  0.00     0.066 A 
ATOM     20  C   UNL A   1      32.175  19.788  22.644  1.00  0.00     0.010 A 
ATOM     21  C   UNL A   1      33.763  17.909  24.150  1.00  0.00     0.028 A 
ATOM     22  C   UNL A   1      32.127  18.468  22.403  1.00  0.00     0.001 A 
ATOM     23  C   UNL A   1      32.878  17.522  23.215  1.00  0.00     0.002 A 
BRANCH  10  24
ATOM     24  C   UNL A   1      36.935  22.350  25.115  1.00  0.00     0.015 A 
ATOM     25  C   UNL A   1      37.921  20.002  24.765  1.00  0.00     0.045 C 
ATOM     26  C   UNL A   1      37.964  21.402  25.299  1.00  0.00    -0.042 A 
ATOM     27  C   UNL A   1      39.128  21.763  26.007  1.00  0.00     0.004 A 
ATOM     28  C   UNL A   1      39.268  23.023  26.582  1.00  0.00     0.000 A 
ATOM     29  C   UNL A   1      37.083  23.611  25.743  1.00  0.00     0.010 A 
ATOM     30  C   UNL A   1      38.233  23.941  26.469  1.00  0.00     0.001 A 
ENDBRANCH  10  24
ENDBRANCH   7   9
ENDBRANCH   6   7
ENDBRANCH   5   6
ENDBRANCH   4   5
ENDBRANCH   3   4
ENDBRANCH   2   3
ENDBRANCH   1   2
BRANCH   1  31
ATOM     31  O   UNL A   1      33.274  29.235  26.839  1.00  0.00    -0.376 OA
BRANCH  31  32
ATOM     32  C   UNL A   1      32.653  30.457  27.207  1.00  0.00     0.202 C 
BRANCH  32  33
ATOM     33  C   UNL A   1      33.616  31.654  27.409  1.00  0.00     0.261 C 
BRANCH  33  34
ATOM     34  O   UNL A   1      34.781  31.294  28.197  1.00  0.00    -0.460 OA
BRANCH  34  35
ATOM     35  C   UNL A   1      35.835  32.205  28.233  1.00  0.00     0.338 C 
ATOM     36  O   UNL A   1      35.815  33.253  27.659  1.00  0.00    -0.246 OA
BRANCH  35  37
ATOM     37  C   UNL A   1      37.023  31.576  28.943  1.00  0.00     0.060 A 
ATOM     38  C   UNL A   1      38.197  32.158  29.448  1.00  0.00     0.016 A 
ATOM     39  C   UNL A   1      37.069  30.230  28.873  1.00  0.00     0.016 A 
ATOM     40  C   UNL A   1      39.396  31.353  29.796  1.00  0.00     0.010 A 
ATOM     41  C   UNL A   1      38.305  29.601  28.984  1.00  0.00     0.010 A 
ATOM     42  C   UNL A   1      39.503  29.983  29.551  1.00  0.00    -0.014 A 
BRANCH  42  43
ATOM     43  C   UNL A   1      40.704  28.929  29.559  1.00  0.00     0.031 A 
ATOM     44  C   UNL A   1      40.923  27.328  29.115  1.00  0.00     0.074 A 
ATOM     45  C   UNL A   1      41.879  29.541  29.828  1.00  0.00     0.049 A 
ATOM     46  N   UNL A   1      42.025  26.659  29.418  1.00  0.00    -0.248 NA
ATOM     47  C   UNL A   1      40.075  26.342  28.355  1.00  0.00     0.031 C 
ATOM     48  C   UNL A   1      43.237  29.097  29.535  1.00  0.00     0.029 A 
ATOM     49  N   UNL A   1      42.065  30.685  30.606  1.00  0.00    -0.354 N 
ATOM     50  C   UNL A   1      42.049  25.435  28.731  1.00  0.00     0.074 A 
ATOM     51  C   UNL A   1      40.737  25.198  28.303  1.00  0.00     0.031 C 
ATOM     52  C   UNL A   1      44.085  29.740  30.347  1.00  0.00     0.029 A 
ATOM     53  C   UNL A   1      43.280  30.507  31.275  1.00  0.00     0.049 A 
ATOM     54  H   UNL A   1      41.463  31.461  30.670  1.00  0.00     0.167 HD
ATOM     55  C   UNL A   1      43.185  24.756  28.409  1.00  0.00     0.034 A 
ATOM     56  C   UNL A   1      43.307  30.431  32.635  1.00  0.00     0.034 A 
ATOM     57  C   UNL A   1      44.280  25.252  29.213  1.00  0.00     0.049 A 
ATOM     58  C   UNL A   1      43.969  29.183  33.171  1.00  0.00     0.074 A 
ATOM     59  C   UNL A   1      45.404  26.012  28.974  1.00  0.00     0.029 A 
ATOM     60  N   UNL A   1      44.153  25.133  30.585  1.00  0.00    -0.354 N 
ATOM     61  N   UNL A   1      44.478  28.230  32.437  1.00  0.00    -0.248 NA
ATOM     62  C   UNL A   1      44.121  28.905  34.594  1.00  0.00     0.031 C 
ATOM     63  C   UNL A   1      45.905  26.432  30.241  1.00  0.00     0.029 A 
ATOM     64  C   UNL A   1      45.112  25.879  31.235  1.00  0.00     0.049 A 
ATOM     65  H   UNL A   1      43.469  24.588  31.037  1.00  0.00     0.167 HD
ATOM     66  C   UNL A   1      44.818  27.158  33.227  1.00  0.00     0.074 A 
ATOM     67  C   UNL A   1      44.691  27.688  34.573  1.00  0.00     0.031 C 
ATOM     68  C   UNL A   1      45.080  25.918  32.695  1.00  0.00     0.034 A 
BRANCH  55  69
ATOM     69  C   UNL A   1      43.359  23.686  27.304  1.00  0.00     0.023 A 
ATOM     70  C   UNL A   1      43.891  24.134  26.072  1.00  0.00     0.012 A 
ATOM     71  C   UNL A   1      42.945  22.319  27.312  1.00  0.00     0.148 A 
ATOM     72  C   UNL A   1      43.985  23.315  24.933  1.00  0.00     0.002 A 
ATOM     73  C   UNL A   1      43.109  21.478  26.196  1.00  0.00     0.091 A 
ATOM     74  F   UNL A   1      42.287  21.815  28.359  1.00  0.00    -0.205 F 
ATOM     75  C   UNL A   1      43.607  21.982  24.996  1.00  0.00     0.022 A 
BRANCH  73  76
ATOM     76  S   UNL A   1      42.671  19.720  26.207  1.00  0.00     0.127 S 
ATOM     77  O   UNL A   1      42.308  19.501  27.608  1.00  0.00    -0.237 OA
ATOM     78  O   UNL A   1      41.545  19.667  25.275  1.00  0.00    -0.237 OA
ATOM     79  O   UNL A   1      43.857  18.997  25.763  1.00  0.00    -0.744 OA
ENDBRANCH  73  76
ENDBRANCH  55  69
BRANCH  56  80
ATOM     80  C   UNL A   1      42.235  31.269  33.272  1.00  0.00     0.023 A 
ATOM     81  C   UNL A   1      42.389  32.675  33.126  1.00  0.00     0.012 A 
ATOM     82  C   UNL A   1      40.964  30.773  33.627  1.00  0.00     0.148 A 
ATOM     83  C   UNL A   1      41.299  33.542  33.202  1.00  0.00     0.002 A 
ATOM     84  C   UNL A   1      39.880  31.656  33.737  1.00  0.00     0.091 A 
ATOM     85  F   UNL A   1      40.809  29.452  33.786  1.00  0.00    -0.205 F 
ATOM     86  C   UNL A   1      40.041  33.031  33.482  1.00  0.00     0.022 A 
BRANCH  84  87
ATOM     87  S   UNL A   1      38.191  31.076  34.021  1.00  0.00     0.127 S 
ATOM     88  O   UNL A   1      37.966  30.240  32.846  1.00  0.00    -0.237 OA
ATOM     89  O   UNL A   1      38.317  30.337  35.277  1.00  0.00    -0.237 OA
ATOM     90  O   UNL A   1      37.389  32.288  34.115  1.00  0.00    -0.744 OA
ENDBRANCH  84  87
ENDBRANCH  56  80
BRANCH  68  91
ATOM     91  C   UNL A   1      45.210  24.592  33.458  1.00  0.00     0.023 A 
ATOM     92  C   UNL A   1      44.239  23.577  33.401  1.00  0.00     0.012 A 
ATOM     93  C   UNL A   1      46.403  24.259  34.166  1.00  0.00     0.148 A 
ATOM     94  C   UNL A   1      44.415  22.328  34.013  1.00  0.00     0.002 A 
ATOM     95  C   UNL A   1      46.622  22.976  34.671  1.00  0.00     0.091 A 
ATOM     96  F   UNL A   1      47.341  25.191  34.387  1.00  0.00    -0.205 F 
ATOM     97  C   UNL A   1      45.619  22.014  34.621  1.00  0.00     0.022 A 
BRANCH  95  98
ATOM     98  S   UNL A   1      48.259  22.482  35.236  1.00  0.00     0.127 S 
ATOM     99  O   UNL A   1      49.097  22.812  34.086  1.00  0.00    -0.237 OA
ATOM    100  O   UNL A   1      48.468  23.338  36.406  1.00  0.00    -0.237 OA
ATOM    101  O   UNL A   1      48.120  21.067  35.556  1.00  0.00    -0.744 OA
ENDBRANCH  95  98
ENDBRANCH  68  91
ENDBRANCH  42  43
ENDBRANCH  35  37
ENDBRANCH  34  35
ENDBRANCH  33  34
ENDBRANCH  32  33
ENDBRANCH  31  32
ENDBRANCH   1  31
TORSDOF 21
ENDMDL
MODEL 3
REMARK VINA RESULT:     -12.2      1.842      2.293
REMARK SMILES Cc1ccccc1[C@@H]1[NH2+][C@@H](C(=O)OCCOCCOCCOC(=O)c2ccc(-c3c4nc(c(-c5cccc(S(=O)(=O)[O-])c5F)c5ccc([nH]5)c(-c5cccc(S(=O)(=O)[O-])c5F)c5nc(c(-c6cccc(S(=O)(=O)[O-])c6F)c6ccc3[nH]6)C=C5)C=C4)cc2)CC2=c3ccccc3=N[C@H]21
REMARK SMILES IDX 18 1 17 2 16 3 15 4 14 5 13 6 11 7 12 8 10 9 8 10 9 11 97 12
REMARK SMILES IDX 89 15 96 16 88 17 90 18 95 19 91 20 94 21 92 22 93 23 7 24
REMARK SMILES IDX 1 25 2 26 3 27 4 28 6 29 5 30 19 31 20 32 21 33 22 34 23 35
REMARK SMILES IDX 24 36 25 37 26 38 87 39 27 40 86 41 28 42 29 43 30 44 80 45
REMARK SMILES IDX 31 46 85 47 79 48 81 49 32 50 84 51 78 52 77 53 33 55 65 56
REMARK SMILES IDX 45 57 64 58 46 59 49 60 63 61 82 62 47 63 48 64 62 66 83 67
REMARK SMILES IDX 50 68 34 69 35 70 43 71 36 72 38 73 44 74 37 75 39 76 40 77
REMARK SMILES IDX 41 78 42 79 66 80 67 81 75 82 68 83 70 84 76 85 69 86 71 87
REMARK SMILES IDX 72 88 73 89 74 90 51 91 52 92 60 93 53 94 55 95 61 96 54 97
REMARK SMILES IDX 56 98 57 99 58 100 59 101
REMARK H PARENT 9 13 9 14 81 54 49 65
REMARK Flexibility Score: inf
ROOT
ATOM      1  C   UNL A   1      32.432  29.712  25.033  1.00  0.00     0.188 C 
ENDROOT
BRANCH   1   2
ATOM      2  C   UNL A   1      31.892  28.377  24.489  1.00  0.00     0.188 C 
BRANCH   2   3
ATOM      3  O   UNL A   1      30.667  27.745  24.928  1.00  0.00    -0.376 OA
BRANCH   3   4
ATOM      4  C   UNL A   1      30.547  26.636  25.858  1.00  0.00     0.202 C 
BRANCH   4   5
ATOM      5  C   UNL A   1      31.820  26.060  26.829  1.00  0.00     0.261 C 
BRANCH   5   6
ATOM      6  O   UNL A   1      32.020  24.536  27.373  1.00  0.00    -0.459 OA
BRANCH   6   7
ATOM      7  C   UNL A   1      31.398  23.288  27.104  1.00  0.00     0.365 C 
ATOM      8  O   UNL A   1      30.283  22.881  27.432  1.00  0.00    -0.245 OA
BRANCH   7   9
ATOM      9  C   UNL A   1      32.110  22.267  26.237  1.00  0.00     0.298 C 
ATOM     10  C   UNL A   1      34.350  22.708  24.924  1.00  0.00     0.243 C 
ATOM     11  N   UNL A   1      33.599  22.612  26.211  1.00  0.00    -0.326 N 
ATOM     12  C   UNL A   1      33.548  22.351  23.634  1.00  0.00     0.196 C 
ATOM     13  H   UNL A   1      33.693  23.519  26.670  1.00  0.00     0.347 HD
ATOM     14  H   UNL A   1      34.023  21.797  26.654  1.00  0.00     0.347 HD
ATOM     15  C   UNL A   1      32.172  22.908  23.816  1.00  0.00    -0.024 C 
ATOM     16  N   UNL A   1      34.073  23.042  22.410  1.00  0.00    -0.270 NA
ATOM     17  C   UNL A   1      31.364  22.303  24.904  1.00  0.00     0.111 C 
ATOM     18  C   UNL A   1      31.983  23.976  23.052  1.00  0.00     0.002 A 
ATOM     19  C   UNL A   1      33.159  23.935  22.167  1.00  0.00     0.066 A 
ATOM     20  C   UNL A   1      31.019  25.024  22.974  1.00  0.00     0.010 A 
ATOM     21  C   UNL A   1      33.157  24.898  21.041  1.00  0.00     0.028 A 
ATOM     22  C   UNL A   1      31.142  25.934  21.994  1.00  0.00     0.001 A 
ATOM     23  C   UNL A   1      32.183  25.822  20.982  1.00  0.00     0.002 A 
BRANCH  10  24
ATOM     24  C   UNL A   1      35.683  21.940  24.989  1.00  0.00     0.015 A 
ATOM     25  C   UNL A   1      37.109  24.018  25.496  1.00  0.00     0.045 C 
ATOM     26  C   UNL A   1      36.920  22.543  25.302  1.00  0.00    -0.042 A 
ATOM     27  C   UNL A   1      38.067  21.741  25.467  1.00  0.00     0.004 A 
ATOM     28  C   UNL A   1      38.024  20.363  25.275  1.00  0.00     0.000 A 
ATOM     29  C   UNL A   1      35.674  20.543  24.760  1.00  0.00     0.010 A 
ATOM     30  C   UNL A   1      36.829  19.766  24.898  1.00  0.00     0.001 A 
ENDBRANCH  10  24
ENDBRANCH   7   9
ENDBRANCH   6   7
ENDBRANCH   5   6
ENDBRANCH   4   5
ENDBRANCH   3   4
ENDBRANCH   2   3
ENDBRANCH   1   2
BRANCH   1  31
ATOM     31  O   UNL A   1      32.199  29.839  26.422  1.00  0.00    -0.376 OA
BRANCH  31  32
ATOM     32  C   UNL A   1      33.334  30.037  27.251  1.00  0.00     0.202 C 
BRANCH  32  33
ATOM     33  C   UNL A   1      33.580  31.500  27.698  1.00  0.00     0.261 C 
BRANCH  33  34
ATOM     34  O   UNL A   1      34.818  32.037  27.162  1.00  0.00    -0.460 OA
BRANCH  34  35
ATOM     35  C   UNL A   1      35.859  32.261  28.061  1.00  0.00     0.338 C 
ATOM     36  O   UNL A   1      36.246  33.352  28.358  1.00  0.00    -0.246 OA
BRANCH  35  37
ATOM     37  C   UNL A   1      36.502  30.933  28.430  1.00  0.00     0.060 A 
ATOM     38  C   UNL A   1      36.592  30.277  29.669  1.00  0.00     0.016 A 
ATOM     39  C   UNL A   1      37.307  30.417  27.480  1.00  0.00     0.016 A 
ATOM     40  C   UNL A   1      37.549  29.166  29.910  1.00  0.00     0.010 A 
ATOM     41  C   UNL A   1      38.327  29.557  27.870  1.00  0.00     0.010 A 
ATOM     42  C   UNL A   1      38.506  28.758  28.980  1.00  0.00    -0.014 A 
BRANCH  42  43
ATOM     43  C   UNL A   1      39.799  27.820  29.035  1.00  0.00     0.031 A 
ATOM     44  C   UNL A   1      40.140  26.200  28.775  1.00  0.00     0.074 A 
ATOM     45  C   UNL A   1      40.926  28.559  29.146  1.00  0.00     0.049 A 
ATOM     46  N   UNL A   1      41.316  25.671  29.081  1.00  0.00    -0.248 NA
ATOM     47  C   UNL A   1      39.346  25.056  28.201  1.00  0.00     0.031 C 
ATOM     48  C   UNL A   1      42.300  28.198  28.817  1.00  0.00     0.029 A 
ATOM     49  N   UNL A   1      41.048  29.805  29.764  1.00  0.00    -0.354 N 
ATOM     50  C   UNL A   1      41.414  24.376  28.549  1.00  0.00     0.074 A 
ATOM     51  C   UNL A   1      40.108  23.976  28.243  1.00  0.00     0.031 C 
ATOM     52  C   UNL A   1      43.129  29.010  29.484  1.00  0.00     0.029 A 
ATOM     53  C   UNL A   1      42.311  29.817  30.365  1.00  0.00     0.049 A 
ATOM     54  H   UNL A   1      40.381  30.528  29.774  1.00  0.00     0.167 HD
ATOM     55  C   UNL A   1      42.588  23.761  28.234  1.00  0.00     0.034 A 
ATOM     56  C   UNL A   1      42.422  29.918  31.719  1.00  0.00     0.034 A 
ATOM     57  C   UNL A   1      43.676  24.447  28.895  1.00  0.00     0.049 A 
ATOM     58  C   UNL A   1      43.228  28.810  32.357  1.00  0.00     0.074 A 
ATOM     59  C   UNL A   1      44.709  25.264  28.489  1.00  0.00     0.029 A 
ATOM     60  N   UNL A   1      43.640  24.493  30.277  1.00  0.00    -0.354 N 
ATOM     61  N   UNL A   1      43.780  27.818  31.710  1.00  0.00    -0.248 NA
ATOM     62  C   UNL A   1      43.486  28.730  33.789  1.00  0.00     0.031 C 
ATOM     63  C   UNL A   1      45.241  25.883  29.658  1.00  0.00     0.029 A 
ATOM     64  C   UNL A   1      44.561  25.395  30.764  1.00  0.00     0.049 A 
ATOM     65  H   UNL A   1      43.037  23.954  30.838  1.00  0.00     0.167 HD
ATOM     66  C   UNL A   1      44.263  26.889  32.600  1.00  0.00     0.074 A 
ATOM     67  C   UNL A   1      44.165  27.573  33.878  1.00  0.00     0.031 C 
ATOM     68  C   UNL A   1      44.610  25.618  32.206  1.00  0.00     0.034 A 
BRANCH  55  69
ATOM     69  C   UNL A   1      42.797  22.578  27.259  1.00  0.00     0.023 A 
ATOM     70  C   UNL A   1      42.006  21.427  27.486  1.00  0.00     0.012 A 
ATOM     71  C   UNL A   1      43.769  22.437  26.221  1.00  0.00     0.148 A 
ATOM     72  C   UNL A   1      42.173  20.228  26.772  1.00  0.00     0.002 A 
ATOM     73  C   UNL A   1      43.885  21.262  25.456  1.00  0.00     0.091 A 
ATOM     74  F   UNL A   1      44.679  23.391  26.009  1.00  0.00    -0.205 F 
ATOM     75  C   UNL A   1      43.103  20.147  25.747  1.00  0.00     0.022 A 
BRANCH  73  76
ATOM     76  S   UNL A   1      45.051  21.088  24.080  1.00  0.00     0.127 S 
ATOM     77  O   UNL A   1      44.665  22.196  23.205  1.00  0.00    -0.237 OA
ATOM     78  O   UNL A   1      46.347  21.260  24.737  1.00  0.00    -0.237 OA
ATOM     79  O   UNL A   1      44.831  19.760  23.519  1.00  0.00    -0.744 OA
ENDBRANCH  73  76
ENDBRANCH  55  69
BRANCH  56  80
ATOM     80  C   UNL A   1      41.315  30.736  32.321  1.00  0.00     0.023 A 
ATOM     81  C   UNL A   1      40.190  29.998  32.782  1.00  0.00     0.012 A 
ATOM     82  C   UNL A   1      41.484  32.053  32.793  1.00  0.00     0.148 A 
ATOM     83  C   UNL A   1      39.341  30.498  33.768  1.00  0.00     0.002 A 
ATOM     84  C   UNL A   1      40.604  32.562  33.759  1.00  0.00     0.091 A 
ATOM     85  F   UNL A   1      42.529  32.766  32.352  1.00  0.00    -0.205 F 
ATOM     86  C   UNL A   1      39.563  31.770  34.275  1.00  0.00     0.022 A 
BRANCH  84  87
ATOM     87  S   UNL A   1      40.857  34.176  34.534  1.00  0.00     0.127 S 
ATOM     88  O   UNL A   1      39.658  34.295  35.359  1.00  0.00    -0.237 OA
ATOM     89  O   UNL A   1      42.095  33.975  35.288  1.00  0.00    -0.237 OA
ATOM     90  O   UNL A   1      40.973  35.112  33.425  1.00  0.00    -0.744 OA
ENDBRANCH  84  87
ENDBRANCH  56  80
BRANCH  68  91
ATOM     91  C   UNL A   1      44.906  24.415  33.115  1.00  0.00     0.023 A 
ATOM     92  C   UNL A   1      44.086  23.274  33.168  1.00  0.00     0.012 A 
ATOM     93  C   UNL A   1      46.118  24.334  33.862  1.00  0.00     0.148 A 
ATOM     94  C   UNL A   1      44.420  22.138  33.918  1.00  0.00     0.002 A 
ATOM     95  C   UNL A   1      46.503  23.158  34.510  1.00  0.00     0.091 A 
ATOM     96  F   UNL A   1      46.914  25.406  33.982  1.00  0.00    -0.205 F 
ATOM     97  C   UNL A   1      45.644  22.065  34.563  1.00  0.00     0.022 A 
BRANCH  95  98
ATOM     98  S   UNL A   1      48.180  22.963  35.135  1.00  0.00     0.127 S 
ATOM     99  O   UNL A   1      48.177  21.580  35.605  1.00  0.00    -0.237 OA
ATOM    100  O   UNL A   1      48.998  23.197  33.943  1.00  0.00    -0.237 OA
ATOM    101  O   UNL A   1      48.310  23.997  36.154  1.00  0.00    -0.744 OA
ENDBRANCH  95  98
ENDBRANCH  68  91
ENDBRANCH  42  43
ENDBRANCH  35  37
ENDBRANCH  34  35
ENDBRANCH  33  34
ENDBRANCH  32  33
ENDBRANCH  31  32
ENDBRANCH   1  31
TORSDOF 21
ENDMDL
