MODEL 1
REMARK VINA RESULT:     -10.7      0.000      0.000
REMARK SMILES O=C(OCCOCCOCCOC(=O)c1ccc(-c2c3nc(c(-c4cccc(S(=O)(=O)[O-])c4F)c4ccc([nH]4)c(-c4cccc(S(=O)(=O)[O-])c4F)c4nc(c(-c5cccc(S(=O)(=O)[O-])c5F)c5ccc2[nH]5)C=C4)C=C3)cc1)C1=Cc2cc(C(F)(F)F)ccc2O[C@@H]1C(F)(F)F
REMARK SMILES IDX 8 1 7 2 6 3 5 4 4 5 3 6 2 7 1 8 78 9 79 10 91 11 80 12 90 13
REMARK SMILES IDX 81 14 89 15 82 16 88 17 87 18 92 19 93 20 94 21 95 22 83 23
REMARK SMILES IDX 84 24 85 25 86 26 9 27 10 28 11 29 12 30 13 31 14 32 15 33
REMARK SMILES IDX 16 34 77 35 17 36 76 37 18 38 19 39 20 40 70 41 21 42 75 43
REMARK SMILES IDX 69 44 71 45 22 46 74 47 68 48 67 49 23 51 55 52 35 53 54 54
REMARK SMILES IDX 36 55 39 56 53 57 72 58 37 59 38 60 52 62 73 63 40 64 24 65
REMARK SMILES IDX 25 66 33 67 26 68 28 69 34 70 27 71 29 72 30 73 31 74 32 75
REMARK SMILES IDX 56 76 57 77 65 78 58 79 60 80 66 81 59 82 61 83 62 84 63 85
REMARK SMILES IDX 64 86 41 87 42 88 50 89 43 90 45 91 51 92 44 93 46 94 47 95
REMARK SMILES IDX 48 96 49 97
REMARK H PARENT 71 50 39 61
REMARK Flexibility Score: inf
ROOT
ATOM      1  C   UNL A   1      41.056  19.590  26.171  1.00  0.00     0.188 C 
ENDROOT
BRANCH   1   2
ATOM      2  C   UNL A   1      41.481  20.661  27.192  1.00  0.00     0.188 C 
BRANCH   2   3
ATOM      3  O   UNL A   1      41.574  22.108  26.935  1.00  0.00    -0.376 OA
BRANCH   3   4
ATOM      4  C   UNL A   1      40.419  23.159  26.285  1.00  0.00     0.202 C 
BRANCH   4   5
ATOM      5  C   UNL A   1      38.269  22.871  26.262  1.00  0.00     0.261 C 
BRANCH   5   6
ATOM      6  O   UNL A   1      37.224  23.860  25.765  1.00  0.00    -0.460 OA
BRANCH   6   7
ATOM      7  C   UNL A   1      36.643  23.448  24.630  1.00  0.00     0.338 C 
ATOM      8  O   UNL A   1      37.088  23.481  23.511  1.00  0.00    -0.246 OA
BRANCH   7   9
ATOM      9  C   UNL A   1      35.281  23.419  25.133  1.00  0.00     0.087 C 
ATOM     10  C   UNL A   1      34.716  24.742  25.413  1.00  0.00     0.027 C 
ATOM     11  C   UNL A   1      34.659  22.234  23.754  1.00  0.00     0.316 C 
ATOM     12  C   UNL A   1      33.537  25.583  24.343  1.00  0.00     0.018 A 
ATOM     13  O   UNL A   1      33.495  23.164  22.500  1.00  0.00    -0.475 OA
ATOM     14  C   UNL A   1      33.143  26.853  24.652  1.00  0.00     0.025 A 
ATOM     15  C   UNL A   1      32.959  24.875  22.871  1.00  0.00     0.128 A 
ATOM     16  C   UNL A   1      32.254  27.462  23.734  1.00  0.00     0.056 A 
ATOM     17  C   UNL A   1      32.082  25.502  22.035  1.00  0.00     0.048 A 
ATOM     18  C   UNL A   1      31.747  26.805  22.508  1.00  0.00     0.017 A 
BRANCH  11  19
ATOM     19  C   UNL A   1      34.392  20.983  24.805  1.00  0.00     0.430 C 
ATOM     20  F   UNL A   1      34.028  21.237  26.061  1.00  0.00    -0.167 F 
ATOM     21  F   UNL A   1      33.354  20.258  24.291  1.00  0.00    -0.167 F 
ATOM     22  F   UNL A   1      35.425  20.099  24.869  1.00  0.00    -0.167 F 
ENDBRANCH  11  19
BRANCH  16  23
ATOM     23  C   UNL A   1      31.838  28.889  24.081  1.00  0.00     0.416 C 
ATOM     24  F   UNL A   1      31.101  28.950  25.225  1.00  0.00    -0.166 F 
ATOM     25  F   UNL A   1      32.916  29.697  24.296  1.00  0.00    -0.166 F 
ATOM     26  F   UNL A   1      31.097  29.503  23.121  1.00  0.00    -0.166 F 
ENDBRANCH  16  23
ENDBRANCH   7   9
ENDBRANCH   6   7
ENDBRANCH   5   6
ENDBRANCH   4   5
ENDBRANCH   3   4
ENDBRANCH   2   3
ENDBRANCH   1   2
BRANCH   1  27
ATOM     27  O   UNL A   1      42.031  18.821  25.514  1.00  0.00    -0.376 OA
BRANCH  27  28
ATOM     28  C   UNL A   1      43.167  18.477  26.291  1.00  0.00     0.202 C 
BRANCH  28  29
ATOM     29  C   UNL A   1      44.483  18.160  25.563  1.00  0.00     0.261 C 
BRANCH  29  30
ATOM     30  O   UNL A   1      45.314  19.319  25.337  1.00  0.00    -0.460 OA
BRANCH  30  31
ATOM     31  C   UNL A   1      44.880  20.220  24.421  1.00  0.00     0.338 C 
ATOM     32  O   UNL A   1      44.502  19.985  23.285  1.00  0.00    -0.246 OA
BRANCH  31  33
ATOM     33  C   UNL A   1      44.750  21.555  25.048  1.00  0.00     0.060 A 
ATOM     34  C   UNL A   1      44.353  22.638  24.247  1.00  0.00     0.016 A 
ATOM     35  C   UNL A   1      45.056  21.748  26.395  1.00  0.00     0.016 A 
ATOM     36  C   UNL A   1      44.271  23.920  24.789  1.00  0.00     0.010 A 
ATOM     37  C   UNL A   1      45.027  23.042  26.926  1.00  0.00     0.010 A 
ATOM     38  C   UNL A   1      44.675  24.134  26.111  1.00  0.00    -0.014 A 
BRANCH  38  39
ATOM     39  C   UNL A   1      45.061  25.511  26.504  1.00  0.00     0.031 A 
ATOM     40  C   UNL A   1      43.972  26.384  27.068  1.00  0.00     0.074 A 
ATOM     41  C   UNL A   1      46.322  25.966  26.409  1.00  0.00     0.049 A 
ATOM     42  N   UNL A   1      44.038  27.601  27.541  1.00  0.00    -0.248 NA
ATOM     43  C   UNL A   1      42.619  25.799  27.104  1.00  0.00     0.031 C 
ATOM     44  C   UNL A   1      47.464  25.209  25.905  1.00  0.00     0.029 A 
ATOM     45  N   UNL A   1      46.844  27.195  26.730  1.00  0.00    -0.354 N 
ATOM     46  C   UNL A   1      42.739  27.932  27.903  1.00  0.00     0.074 A 
ATOM     47  C   UNL A   1      41.902  26.799  27.586  1.00  0.00     0.031 C 
ATOM     48  C   UNL A   1      48.555  25.998  25.934  1.00  0.00     0.029 A 
ATOM     49  C   UNL A   1      48.181  27.319  26.440  1.00  0.00     0.049 A 
ATOM     50  H   UNL A   1      46.310  27.920  27.129  1.00  0.00     0.167 HD
ATOM     51  C   UNL A   1      42.278  29.078  28.454  1.00  0.00     0.034 A 
ATOM     52  C   UNL A   1      49.000  28.384  26.563  1.00  0.00     0.034 A 
ATOM     53  C   UNL A   1      43.110  30.210  28.748  1.00  0.00     0.049 A 
ATOM     54  C   UNL A   1      48.454  29.668  27.139  1.00  0.00     0.074 A 
ATOM     55  C   UNL A   1      42.753  31.409  29.338  1.00  0.00     0.029 A 
ATOM     56  N   UNL A   1      44.458  30.298  28.438  1.00  0.00    -0.354 N 
ATOM     57  N   UNL A   1      47.245  29.935  27.573  1.00  0.00    -0.248 NA
ATOM     58  C   UNL A   1      49.398  30.787  27.279  1.00  0.00     0.031 C 
ATOM     59  C   UNL A   1      43.872  32.246  29.324  1.00  0.00     0.029 A 
ATOM     60  C   UNL A   1      44.944  31.539  28.804  1.00  0.00     0.049 A 
ATOM     61  H   UNL A   1      44.990  29.583  28.021  1.00  0.00     0.167 HD
ATOM     62  C   UNL A   1      47.299  31.226  28.090  1.00  0.00     0.074 A 
ATOM     63  C   UNL A   1      48.662  31.685  27.918  1.00  0.00     0.031 C 
ATOM     64  C   UNL A   1      46.314  31.963  28.663  1.00  0.00     0.034 A 
BRANCH  51  65
ATOM     65  C   UNL A   1      40.802  29.168  28.734  1.00  0.00     0.023 A 
ATOM     66  C   UNL A   1      39.890  29.433  27.690  1.00  0.00     0.012 A 
ATOM     67  C   UNL A   1      40.317  28.978  30.042  1.00  0.00     0.148 A 
ATOM     68  C   UNL A   1      38.526  29.553  27.954  1.00  0.00     0.002 A 
ATOM     69  C   UNL A   1      38.952  29.042  30.286  1.00  0.00     0.091 A 
ATOM     70  F   UNL A   1      41.201  28.756  31.025  1.00  0.00    -0.205 F 
ATOM     71  C   UNL A   1      38.057  29.347  29.248  1.00  0.00     0.022 A 
BRANCH  69  72
ATOM     72  S   UNL A   1      38.245  28.708  31.902  1.00  0.00     0.127 S 
ATOM     73  O   UNL A   1      38.425  27.260  32.008  1.00  0.00    -0.237 OA
ATOM     74  O   UNL A   1      39.110  29.496  32.780  1.00  0.00    -0.237 OA
ATOM     75  O   UNL A   1      36.863  29.160  31.841  1.00  0.00    -0.744 OA
ENDBRANCH  69  72
ENDBRANCH  51  65
BRANCH  52  76
ATOM     76  C   UNL A   1      50.437  28.281  26.173  1.00  0.00     0.023 A 
ATOM     77  C   UNL A   1      51.433  28.246  27.170  1.00  0.00     0.012 A 
ATOM     78  C   UNL A   1      50.821  28.238  24.819  1.00  0.00     0.148 A 
ATOM     79  C   UNL A   1      52.784  28.209  26.826  1.00  0.00     0.002 A 
ATOM     80  C   UNL A   1      52.167  28.146  24.484  1.00  0.00     0.091 A 
ATOM     81  F   UNL A   1      49.861  28.287  23.886  1.00  0.00    -0.205 F 
ATOM     82  C   UNL A   1      53.152  28.152  25.484  1.00  0.00     0.022 A 
BRANCH  80  83
ATOM     83  S   UNL A   1      52.732  27.967  22.788  1.00  0.00     0.127 S 
ATOM     84  O   UNL A   1      52.038  26.752  22.368  1.00  0.00    -0.237 OA
ATOM     85  O   UNL A   1      52.240  29.201  22.177  1.00  0.00    -0.237 OA
ATOM     86  O   UNL A   1      54.184  27.864  22.861  1.00  0.00    -0.744 OA
ENDBRANCH  80  83
ENDBRANCH  52  76
BRANCH  64  87
ATOM     87  C   UNL A   1      46.683  33.313  29.231  1.00  0.00     0.023 A 
ATOM     88  C   UNL A   1      47.075  33.449  30.576  1.00  0.00     0.012 A 
ATOM     89  C   UNL A   1      46.690  34.445  28.391  1.00  0.00     0.148 A 
ATOM     90  C   UNL A   1      47.417  34.700  31.089  1.00  0.00     0.002 A 
ATOM     91  C   UNL A   1      47.092  35.676  28.892  1.00  0.00     0.091 A 
ATOM     92  F   UNL A   1      46.301  34.300  27.116  1.00  0.00    -0.205 F 
ATOM     93  C   UNL A   1      47.437  35.810  30.246  1.00  0.00     0.022 A 
BRANCH  91  94
ATOM     94  S   UNL A   1      47.252  37.131  27.854  1.00  0.00     0.127 S 
ATOM     95  O   UNL A   1      48.185  36.665  26.829  1.00  0.00    -0.237 OA
ATOM     96  O   UNL A   1      45.879  37.328  27.385  1.00  0.00    -0.237 OA
ATOM     97  O   UNL A   1      47.753  38.192  28.718  1.00  0.00    -0.744 OA
ENDBRANCH  91  94
ENDBRANCH  64  87
ENDBRANCH  38  39
ENDBRANCH  31  33
ENDBRANCH  30  31
ENDBRANCH  29  30
ENDBRANCH  28  29
ENDBRANCH  27  28
ENDBRANCH   1  27
TORSDOF 22
ENDMDL
MODEL 2
REMARK VINA RESULT:     -10.0      2.226      2.678
REMARK SMILES O=C(OCCOCCOCCOC(=O)c1ccc(-c2c3nc(c(-c4cccc(S(=O)(=O)[O-])c4F)c4ccc([nH]4)c(-c4cccc(S(=O)(=O)[O-])c4F)c4nc(c(-c5cccc(S(=O)(=O)[O-])c5F)c5ccc2[nH]5)C=C4)C=C3)cc1)C1=Cc2cc(C(F)(F)F)ccc2O[C@@H]1C(F)(F)F
REMARK SMILES IDX 8 1 7 2 6 3 5 4 4 5 3 6 2 7 1 8 78 9 79 10 91 11 80 12 90 13
REMARK SMILES IDX 81 14 89 15 82 16 88 17 87 18 92 19 93 20 94 21 95 22 83 23
REMARK SMILES IDX 84 24 85 25 86 26 9 27 10 28 11 29 12 30 13 31 14 32 15 33
REMARK SMILES IDX 16 34 77 35 17 36 76 37 18 38 19 39 20 40 70 41 21 42 75 43
REMARK SMILES IDX 69 44 71 45 22 46 74 47 68 48 67 49 23 51 55 52 35 53 54 54
REMARK SMILES IDX 36 55 39 56 53 57 72 58 37 59 38 60 52 62 73 63 40 64 24 65
REMARK SMILES IDX 25 66 33 67 26 68 28 69 34 70 27 71 29 72 30 73 31 74 32 75
REMARK SMILES IDX 56 76 57 77 65 78 58 79 60 80 66 81 59 82 61 83 62 84 63 85
REMARK SMILES IDX 64 86 41 87 42 88 50 89 43 90 45 91 51 92 44 93 46 94 47 95
REMARK SMILES IDX 48 96 49 97
REMARK H PARENT 71 50 39 61
REMARK Flexibility Score: inf
ROOT
ATOM      1  C   UNL A   1      41.127  19.559  26.119  1.00  0.00     0.188 C 
ENDROOT
BRANCH   1   2
ATOM      2  C   UNL A   1      41.466  20.420  27.350  1.00  0.00     0.188 C 
BRANCH   2   3
ATOM      3  O   UNL A   1      41.566  21.889  27.372  1.00  0.00    -0.376 OA
BRANCH   3   4
ATOM      4  C   UNL A   1      40.471  23.048  26.808  1.00  0.00     0.202 C 
BRANCH   4   5
ATOM      5  C   UNL A   1      38.452  22.688  26.100  1.00  0.00     0.261 C 
BRANCH   5   6
ATOM      6  O   UNL A   1      37.445  23.739  25.651  1.00  0.00    -0.460 OA
BRANCH   6   7
ATOM      7  C   UNL A   1      36.717  23.322  24.607  1.00  0.00     0.338 C 
ATOM      8  O   UNL A   1      37.033  23.286  23.445  1.00  0.00    -0.246 OA
BRANCH   7   9
ATOM      9  C   UNL A   1      35.421  23.394  25.259  1.00  0.00     0.087 C 
ATOM     10  C   UNL A   1      34.907  24.757  25.422  1.00  0.00     0.027 C 
ATOM     11  C   UNL A   1      34.632  22.056  24.127  1.00  0.00     0.316 C 
ATOM     12  C   UNL A   1      33.622  25.482  24.390  1.00  0.00     0.018 A 
ATOM     13  O   UNL A   1      33.342  22.844  22.900  1.00  0.00    -0.475 OA
ATOM     14  C   UNL A   1      33.281  26.791  24.569  1.00  0.00     0.025 A 
ATOM     15  C   UNL A   1      32.872  24.603  23.099  1.00  0.00     0.128 A 
ATOM     16  C   UNL A   1      32.299  27.298  23.684  1.00  0.00     0.056 A 
ATOM     17  C   UNL A   1      31.911  25.138  22.291  1.00  0.00     0.048 A 
ATOM     18  C   UNL A   1      31.647  26.500  22.620  1.00  0.00     0.017 A 
BRANCH  11  19
ATOM     19  C   UNL A   1      34.473  20.961  25.359  1.00  0.00     0.430 C 
ATOM     20  F   UNL A   1      33.864  19.796  25.137  1.00  0.00    -0.167 F 
ATOM     21  F   UNL A   1      35.738  20.615  25.739  1.00  0.00    -0.167 F 
ATOM     22  F   UNL A   1      33.912  21.486  26.482  1.00  0.00    -0.167 F 
ENDBRANCH  11  19
BRANCH  16  23
ATOM     23  C   UNL A   1      31.941  28.768  23.883  1.00  0.00     0.416 C 
ATOM     24  F   UNL A   1      31.395  29.324  22.766  1.00  0.00    -0.166 F 
ATOM     25  F   UNL A   1      31.012  28.938  24.868  1.00  0.00    -0.166 F 
ATOM     26  F   UNL A   1      32.993  29.558  24.223  1.00  0.00    -0.166 F 
ENDBRANCH  16  23
ENDBRANCH   7   9
ENDBRANCH   6   7
ENDBRANCH   5   6
ENDBRANCH   4   5
ENDBRANCH   3   4
ENDBRANCH   2   3
ENDBRANCH   1   2
BRANCH   1  27
ATOM     27  O   UNL A   1      42.159  19.045  25.316  1.00  0.00    -0.376 OA
BRANCH  27  28
ATOM     28  C   UNL A   1      43.412  18.875  25.961  1.00  0.00     0.202 C 
BRANCH  28  29
ATOM     29  C   UNL A   1      44.686  18.900  25.102  1.00  0.00     0.261 C 
BRANCH  29  30
ATOM     30  O   UNL A   1      45.391  20.159  25.146  1.00  0.00    -0.460 OA
BRANCH  30  31
ATOM     31  C   UNL A   1      44.887  21.174  24.401  1.00  0.00     0.338 C 
ATOM     32  O   UNL A   1      44.522  21.117  23.238  1.00  0.00    -0.246 OA
BRANCH  31  33
ATOM     33  C   UNL A   1      44.661  22.362  25.254  1.00  0.00     0.060 A 
ATOM     34  C   UNL A   1      44.281  23.567  24.641  1.00  0.00     0.016 A 
ATOM     35  C   UNL A   1      44.863  22.305  26.633  1.00  0.00     0.016 A 
ATOM     36  C   UNL A   1      44.110  24.721  25.405  1.00  0.00     0.010 A 
ATOM     37  C   UNL A   1      44.745  23.474  27.392  1.00  0.00     0.010 A 
ATOM     38  C   UNL A   1      44.411  24.692  26.771  1.00  0.00    -0.014 A 
BRANCH  38  39
ATOM     39  C   UNL A   1      44.714  25.978  27.443  1.00  0.00     0.031 A 
ATOM     40  C   UNL A   1      43.571  26.661  28.146  1.00  0.00     0.074 A 
ATOM     41  C   UNL A   1      45.948  26.509  27.471  1.00  0.00     0.049 A 
ATOM     42  N   UNL A   1      43.563  27.758  28.856  1.00  0.00    -0.248 NA
ATOM     43  C   UNL A   1      42.252  26.010  28.033  1.00  0.00     0.031 C 
ATOM     44  C   UNL A   1      47.137  25.931  26.851  1.00  0.00     0.029 A 
ATOM     45  N   UNL A   1      46.397  27.673  28.045  1.00  0.00    -0.354 N 
ATOM     46  C   UNL A   1      42.243  27.939  29.248  1.00  0.00     0.074 A 
ATOM     47  C   UNL A   1      41.474  26.853  28.690  1.00  0.00     0.031 C 
ATOM     48  C   UNL A   1      48.182  26.754  27.063  1.00  0.00     0.029 A 
ATOM     49  C   UNL A   1      47.728  27.923  27.817  1.00  0.00     0.049 A 
ATOM     50  H   UNL A   1      45.818  28.272  28.570  1.00  0.00     0.167 HD
ATOM     51  C   UNL A   1      41.712  28.924  30.009  1.00  0.00     0.034 A 
ATOM     52  C   UNL A   1      48.485  28.982  28.171  1.00  0.00     0.034 A 
ATOM     53  C   UNL A   1      42.475  30.015  30.544  1.00  0.00     0.049 A 
ATOM     54  C   UNL A   1      47.860  30.093  28.982  1.00  0.00     0.074 A 
ATOM     55  C   UNL A   1      42.045  31.049  31.355  1.00  0.00     0.029 A 
ATOM     56  N   UNL A   1      43.820  30.235  30.290  1.00  0.00    -0.354 N 
ATOM     57  N   UNL A   1      46.633  30.202  29.433  1.00  0.00    -0.248 NA
ATOM     58  C   UNL A   1      48.738  31.208  29.366  1.00  0.00     0.031 C 
ATOM     59  C   UNL A   1      43.115  31.929  31.536  1.00  0.00     0.029 A 
ATOM     60  C   UNL A   1      44.232  31.400  30.910  1.00  0.00     0.049 A 
ATOM     61  H   UNL A   1      44.396  29.648  29.748  1.00  0.00     0.167 HD
ATOM     62  C   UNL A   1      46.609  31.362  30.202  1.00  0.00     0.074 A 
ATOM     63  C   UNL A   1      47.945  31.918  30.157  1.00  0.00     0.031 C 
ATOM     64  C   UNL A   1      45.577  31.915  30.888  1.00  0.00     0.034 A 
BRANCH  51  65
ATOM     65  C   UNL A   1      40.230  28.878  30.266  1.00  0.00     0.023 A 
ATOM     66  C   UNL A   1      39.725  28.275  31.437  1.00  0.00     0.012 A 
ATOM     67  C   UNL A   1      39.334  29.448  29.341  1.00  0.00     0.148 A 
ATOM     68  C   UNL A   1      38.350  28.199  31.659  1.00  0.00     0.002 A 
ATOM     69  C   UNL A   1      37.969  29.419  29.598  1.00  0.00     0.091 A 
ATOM     70  F   UNL A   1      39.831  29.990  28.221  1.00  0.00    -0.205 F 
ATOM     71  C   UNL A   1      37.474  28.780  30.746  1.00  0.00     0.022 A 
BRANCH  69  72
ATOM     72  S   UNL A   1      36.771  30.213  28.525  1.00  0.00     0.127 S 
ATOM     73  O   UNL A   1      36.767  31.580  29.047  1.00  0.00    -0.237 OA
ATOM     74  O   UNL A   1      37.394  30.065  27.210  1.00  0.00    -0.237 OA
ATOM     75  O   UNL A   1      35.525  29.479  28.695  1.00  0.00    -0.744 OA
ENDBRANCH  69  72
ENDBRANCH  51  65
BRANCH  52  76
ATOM     76  C   UNL A   1      49.929  29.037  27.802  1.00  0.00     0.023 A 
ATOM     77  C   UNL A   1      50.326  29.694  26.620  1.00  0.00     0.012 A 
ATOM     78  C   UNL A   1      50.909  28.424  28.607  1.00  0.00     0.148 A 
ATOM     79  C   UNL A   1      51.665  29.706  26.227  1.00  0.00     0.002 A 
ATOM     80  C   UNL A   1      52.248  28.486  28.238  1.00  0.00     0.091 A 
ATOM     81  F   UNL A   1      50.510  27.792  29.719  1.00  0.00    -0.205 F 
ATOM     82  C   UNL A   1      52.626  29.110  27.038  1.00  0.00     0.022 A 
BRANCH  80  83
ATOM     83  S   UNL A   1      53.567  27.836  29.267  1.00  0.00     0.127 S 
ATOM     84  O   UNL A   1      54.753  28.172  28.484  1.00  0.00    -0.237 OA
ATOM     85  O   UNL A   1      53.398  28.613  30.496  1.00  0.00    -0.237 OA
ATOM     86  O   UNL A   1      53.296  26.412  29.410  1.00  0.00    -0.744 OA
ENDBRANCH  80  83
ENDBRANCH  52  76
BRANCH  64  87
ATOM     87  C   UNL A   1      45.862  33.139  31.725  1.00  0.00     0.023 A 
ATOM     88  C   UNL A   1      46.368  33.018  33.034  1.00  0.00     0.012 A 
ATOM     89  C   UNL A   1      45.675  34.422  31.172  1.00  0.00     0.148 A 
ATOM     90  C   UNL A   1      46.632  34.156  33.797  1.00  0.00     0.002 A 
ATOM     91  C   UNL A   1      46.000  35.549  31.915  1.00  0.00     0.091 A 
ATOM     92  F   UNL A   1      45.181  34.519  29.930  1.00  0.00    -0.205 F 
ATOM     93  C   UNL A   1      46.459  35.419  33.235  1.00  0.00     0.022 A 
BRANCH  91  94
ATOM     94  S   UNL A   1      45.911  37.208  31.233  1.00  0.00     0.127 S 
ATOM     95  O   UNL A   1      46.376  38.017  32.358  1.00  0.00    -0.237 OA
ATOM     96  O   UNL A   1      46.845  37.130  30.109  1.00  0.00    -0.237 OA
ATOM     97  O   UNL A   1      44.521  37.413  30.849  1.00  0.00    -0.744 OA
ENDBRANCH  91  94
ENDBRANCH  64  87
ENDBRANCH  38  39
ENDBRANCH  31  33
ENDBRANCH  30  31
ENDBRANCH  29  30
ENDBRANCH  28  29
ENDBRANCH  27  28
ENDBRANCH   1  27
TORSDOF 22
ENDMDL
MODEL 3
REMARK VINA RESULT:     -10.0      3.339      9.762
REMARK SMILES O=C(OCCOCCOCCOC(=O)c1ccc(-c2c3nc(c(-c4cccc(S(=O)(=O)[O-])c4F)c4ccc([nH]4)c(-c4cccc(S(=O)(=O)[O-])c4F)c4nc(c(-c5cccc(S(=O)(=O)[O-])c5F)c5ccc2[nH]5)C=C4)C=C3)cc1)C1=Cc2cc(C(F)(F)F)ccc2O[C@@H]1C(F)(F)F
REMARK SMILES IDX 8 1 7 2 6 3 5 4 4 5 3 6 2 7 1 8 78 9 79 10 91 11 80 12 90 13
REMARK SMILES IDX 81 14 89 15 82 16 88 17 87 18 92 19 93 20 94 21 95 22 83 23
REMARK SMILES IDX 84 24 85 25 86 26 9 27 10 28 11 29 12 30 13 31 14 32 15 33
REMARK SMILES IDX 16 34 77 35 17 36 76 37 18 38 19 39 20 40 70 41 21 42 75 43
REMARK SMILES IDX 69 44 71 45 22 46 74 47 68 48 67 49 23 51 55 52 35 53 54 54
REMARK SMILES IDX 36 55 39 56 53 57 72 58 37 59 38 60 52 62 73 63 40 64 24 65
REMARK SMILES IDX 25 66 33 67 26 68 28 69 34 70 27 71 29 72 30 73 31 74 32 75
REMARK SMILES IDX 56 76 57 77 65 78 58 79 60 80 66 81 59 82 61 83 62 84 63 85
REMARK SMILES IDX 64 86 41 87 42 88 50 89 43 90 45 91 51 92 44 93 46 94 47 95
REMARK SMILES IDX 48 96 49 97
REMARK H PARENT 71 50 39 61
REMARK Flexibility Score: inf
ROOT
ATOM      1  C   UNL A   1      34.281  33.236  29.140  1.00  0.00     0.188 C 
ENDROOT
BRANCH   1   2
ATOM      2  C   UNL A   1      33.394  34.058  28.187  1.00  0.00     0.188 C 
BRANCH   2   3
ATOM      3  O   UNL A   1      32.037  33.695  27.744  1.00  0.00    -0.376 OA
BRANCH   3   4
ATOM      4  C   UNL A   1      31.530  32.388  26.799  1.00  0.00     0.202 C 
BRANCH   4   5
ATOM      5  C   UNL A   1      32.553  30.491  26.554  1.00  0.00     0.261 C 
BRANCH   5   6
ATOM      6  O   UNL A   1      32.429  29.536  25.374  1.00  0.00    -0.460 OA
BRANCH   6   7
ATOM      7  C   UNL A   1      32.085  28.301  25.763  1.00  0.00     0.338 C 
ATOM      8  O   UNL A   1      32.088  27.843  26.877  1.00  0.00    -0.246 OA
BRANCH   7   9
ATOM      9  C   UNL A   1      32.178  27.675  24.455  1.00  0.00     0.087 C 
ATOM     10  C   UNL A   1      33.433  26.954  24.224  1.00  0.00     0.027 C 
ATOM     11  C   UNL A   1      30.449  26.847  24.585  1.00  0.00     0.316 C 
ATOM     12  C   UNL A   1      33.596  25.163  24.295  1.00  0.00     0.018 A 
ATOM     13  O   UNL A   1      30.608  24.919  24.809  1.00  0.00    -0.475 OA
ATOM     14  C   UNL A   1      34.831  24.598  24.152  1.00  0.00     0.025 A 
ATOM     15  C   UNL A   1      32.251  24.128  24.642  1.00  0.00     0.128 A 
ATOM     16  C   UNL A   1      34.880  23.188  24.271  1.00  0.00     0.056 A 
ATOM     17  C   UNL A   1      32.355  22.769  24.721  1.00  0.00     0.048 A 
ATOM     18  C   UNL A   1      33.698  22.334  24.524  1.00  0.00     0.017 A 
BRANCH  11  19
ATOM     19  C   UNL A   1      29.797  27.778  23.381  1.00  0.00     0.430 C 
ATOM     20  F   UNL A   1      30.298  27.715  22.148  1.00  0.00    -0.167 F 
ATOM     21  F   UNL A   1      28.499  27.381  23.241  1.00  0.00    -0.167 F 
ATOM     22  F   UNL A   1      29.716  29.098  23.702  1.00  0.00    -0.167 F 
ENDBRANCH  11  19
BRANCH  16  23
ATOM     23  C   UNL A   1      36.269  22.573  24.129  1.00  0.00     0.416 C 
ATOM     24  F   UNL A   1      37.132  23.014  25.087  1.00  0.00    -0.166 F 
ATOM     25  F   UNL A   1      36.241  21.214  24.259  1.00  0.00    -0.166 F 
ATOM     26  F   UNL A   1      36.871  22.820  22.936  1.00  0.00    -0.166 F 
ENDBRANCH  16  23
ENDBRANCH   7   9
ENDBRANCH   6   7
ENDBRANCH   5   6
ENDBRANCH   4   5
ENDBRANCH   3   4
ENDBRANCH   2   3
ENDBRANCH   1   2
BRANCH   1  27
ATOM     27  O   UNL A   1      35.449  33.803  29.676  1.00  0.00    -0.376 OA
BRANCH  27  28
ATOM     28  C   UNL A   1      35.392  34.139  31.054  1.00  0.00     0.202 C 
BRANCH  28  29
ATOM     29  C   UNL A   1      34.924  33.066  32.050  1.00  0.00     0.261 C 
BRANCH  29  30
ATOM     30  O   UNL A   1      36.005  32.422  32.759  1.00  0.00    -0.460 OA
BRANCH  30  31
ATOM     31  C   UNL A   1      36.442  31.234  32.271  1.00  0.00     0.338 C 
ATOM     32  O   UNL A   1      35.771  30.237  32.067  1.00  0.00    -0.246 OA
BRANCH  31  33
ATOM     33  C   UNL A   1      37.851  31.356  31.836  1.00  0.00     0.060 A 
ATOM     34  C   UNL A   1      38.127  31.415  30.461  1.00  0.00     0.016 A 
ATOM     35  C   UNL A   1      38.891  31.366  32.765  1.00  0.00     0.016 A 
ATOM     36  C   UNL A   1      39.445  31.476  30.009  1.00  0.00     0.010 A 
ATOM     37  C   UNL A   1      40.215  31.371  32.312  1.00  0.00     0.010 A 
ATOM     38  C   UNL A   1      40.492  31.383  30.933  1.00  0.00    -0.014 A 
BRANCH  38  39
ATOM     39  C   UNL A   1      41.818  30.946  30.436  1.00  0.00     0.031 A 
ATOM     40  C   UNL A   1      42.856  32.020  30.240  1.00  0.00     0.074 A 
ATOM     41  C   UNL A   1      42.117  29.656  30.204  1.00  0.00     0.049 A 
ATOM     42  N   UNL A   1      44.106  31.916  29.873  1.00  0.00    -0.248 NA
ATOM     43  C   UNL A   1      42.419  33.405  30.497  1.00  0.00     0.031 C 
ATOM     44  C   UNL A   1      41.208  28.528  30.381  1.00  0.00     0.029 A 
ATOM     45  N   UNL A   1      43.282  29.087  29.753  1.00  0.00    -0.354 N 
ATOM     46  C   UNL A   1      44.591  33.217  29.830  1.00  0.00     0.074 A 
ATOM     47  C   UNL A   1      43.505  34.094  30.194  1.00  0.00     0.031 C 
ATOM     48  C   UNL A   1      41.847  27.396  30.025  1.00  0.00     0.029 A 
ATOM     49  C   UNL A   1      43.200  27.727  29.579  1.00  0.00     0.049 A 
ATOM     50  H   UNL A   1      44.101  29.605  29.572  1.00  0.00     0.167 HD
ATOM     51  C   UNL A   1      45.835  33.647  29.518  1.00  0.00     0.034 A 
ATOM     52  C   UNL A   1      44.114  26.857  29.102  1.00  0.00     0.034 A 
ATOM     53  C   UNL A   1      46.907  32.773  29.135  1.00  0.00     0.049 A 
ATOM     54  C   UNL A   1      45.482  27.366  28.715  1.00  0.00     0.074 A 
ATOM     55  C   UNL A   1      48.216  33.101  28.831  1.00  0.00     0.029 A 
ATOM     56  N   UNL A   1      46.784  31.403  28.967  1.00  0.00    -0.354 N 
ATOM     57  N   UNL A   1      45.962  28.586  28.777  1.00  0.00    -0.248 NA
ATOM     58  C   UNL A   1      46.449  26.370  28.231  1.00  0.00     0.031 C 
ATOM     59  C   UNL A   1      48.866  31.935  28.414  1.00  0.00     0.029 A 
ATOM     60  C   UNL A   1      47.987  30.871  28.541  1.00  0.00     0.049 A 
ATOM     61  H   UNL A   1      45.962  30.885  29.128  1.00  0.00     0.167 HD
ATOM     62  C   UNL A   1      47.297  28.493  28.398  1.00  0.00     0.074 A 
ATOM     63  C   UNL A   1      47.552  27.096  28.113  1.00  0.00     0.031 C 
ATOM     64  C   UNL A   1      48.232  29.472  28.302  1.00  0.00     0.034 A 
BRANCH  51  65
ATOM     65  C   UNL A   1      46.080  35.132  29.540  1.00  0.00     0.023 A 
ATOM     66  C   UNL A   1      46.573  35.759  30.704  1.00  0.00     0.012 A 
ATOM     67  C   UNL A   1      45.827  35.908  28.392  1.00  0.00     0.148 A 
ATOM     68  C   UNL A   1      46.766  37.140  30.737  1.00  0.00     0.002 A 
ATOM     69  C   UNL A   1      46.077  37.273  28.416  1.00  0.00     0.091 A 
ATOM     70  F   UNL A   1      45.332  35.299  27.306  1.00  0.00    -0.205 F 
ATOM     71  C   UNL A   1      46.528  37.894  29.592  1.00  0.00     0.022 A 
BRANCH  69  72
ATOM     72  S   UNL A   1      45.882  38.313  26.967  1.00  0.00     0.127 S 
ATOM     73  O   UNL A   1      46.704  37.607  25.984  1.00  0.00    -0.237 OA
ATOM     74  O   UNL A   1      44.441  38.234  26.726  1.00  0.00    -0.237 OA
ATOM     75  O   UNL A   1      46.364  39.634  27.347  1.00  0.00    -0.744 OA
ENDBRANCH  69  72
ENDBRANCH  51  65
BRANCH  52  76
ATOM     76  C   UNL A   1      43.792  25.404  28.996  1.00  0.00     0.023 A 
ATOM     77  C   UNL A   1      44.165  24.525  30.033  1.00  0.00     0.012 A 
ATOM     78  C   UNL A   1      43.134  24.886  27.864  1.00  0.00     0.148 A 
ATOM     79  C   UNL A   1      43.925  23.155  29.928  1.00  0.00     0.002 A 
ATOM     80  C   UNL A   1      42.849  23.527  27.789  1.00  0.00     0.091 A 
ATOM     81  F   UNL A   1      42.800  25.734  26.882  1.00  0.00    -0.205 F 
ATOM     82  C   UNL A   1      43.261  22.657  28.810  1.00  0.00     0.022 A 
BRANCH  80  83
ATOM     83  S   UNL A   1      41.910  22.808  26.438  1.00  0.00     0.127 S 
ATOM     84  O   UNL A   1      42.730  23.160  25.281  1.00  0.00    -0.237 OA
ATOM     85  O   UNL A   1      41.918  21.388  26.790  1.00  0.00    -0.237 OA
ATOM     86  O   UNL A   1      40.596  23.436  26.487  1.00  0.00    -0.744 OA
ENDBRANCH  80  83
ENDBRANCH  52  76
BRANCH  64  87
ATOM     87  C   UNL A   1      49.645  29.066  27.958  1.00  0.00     0.023 A 
ATOM     88  C   UNL A   1      50.093  29.066  26.622  1.00  0.00     0.012 A 
ATOM     89  C   UNL A   1      50.549  28.738  28.989  1.00  0.00     0.148 A 
ATOM     90  C   UNL A   1      51.402  28.694  26.316  1.00  0.00     0.002 A 
ATOM     91  C   UNL A   1      51.867  28.430  28.683  1.00  0.00     0.091 A 
ATOM     92  F   UNL A   1      50.102  28.731  30.254  1.00  0.00    -0.205 F 
ATOM     93  C   UNL A   1      52.291  28.387  27.345  1.00  0.00     0.022 A 
BRANCH  91  94
ATOM     94  S   UNL A   1      53.103  28.129  29.949  1.00  0.00     0.127 S 
ATOM     95  O   UNL A   1      54.306  27.913  29.146  1.00  0.00    -0.237 OA
ATOM     96  O   UNL A   1      53.088  29.385  30.700  1.00  0.00    -0.237 OA
ATOM     97  O   UNL A   1      52.639  26.970  30.701  1.00  0.00    -0.744 OA
ENDBRANCH  91  94
ENDBRANCH  64  87
ENDBRANCH  38  39
ENDBRANCH  31  33
ENDBRANCH  30  31
ENDBRANCH  29  30
ENDBRANCH  28  29
ENDBRANCH  27  28
ENDBRANCH   1  27
TORSDOF 22
ENDMDL
