MODEL 1
REMARK VINA RESULT:     -10.8      0.000      0.000
REMARK SMILES Cn1ccc(-c2n[nH]c(=O)n2-c2ccc(C(=O)OCCOCCOCCOC(=O)c3ccc(-c4c5nc(c(-c6cccc(S(=O)(=O)[O-])c6F)c6ccc([nH]6)c(-c6cccc(S(=O)(=O)[O-])c6F)c6nc(c(-c7cccc(S(=O)(=O)[O-])c7F)c7ccc4[nH]7)C=C6)C=C5)cc3)cc2)n1
REMARK SMILES IDX 23 1 22 2 21 3 20 4 19 5 18 6 16 7 17 8 15 9 12 10 13 11
REMARK SMILES IDX 94 12 14 13 93 14 11 15 6 16 7 17 8 18 9 19 10 21 5 22 1 23
REMARK SMILES IDX 2 24 3 25 95 26 4 27 24 28 25 29 26 30 27 31 28 32 29 33
REMARK SMILES IDX 30 34 31 35 92 36 32 37 91 38 33 39 34 40 35 41 85 42 36 43
REMARK SMILES IDX 90 44 84 45 86 46 37 47 89 48 83 49 82 50 38 52 70 53 50 54
REMARK SMILES IDX 69 55 51 56 54 57 68 58 87 59 52 60 53 61 67 63 88 64 55 65
REMARK SMILES IDX 39 66 40 67 48 68 41 69 43 70 49 71 42 72 44 73 45 74 46 75
REMARK SMILES IDX 47 76 71 77 72 78 80 79 73 80 75 81 81 82 74 83 76 84 77 85
REMARK SMILES IDX 78 86 79 87 56 88 57 89 65 90 58 91 60 92 66 93 59 94 61 95
REMARK SMILES IDX 62 96 63 97 64 98
REMARK H PARENT 8 20 86 51 54 62
REMARK Flexibility Score: inf
ROOT
ATOM      1  C   UNL A   1      43.637  19.338  25.545  1.00  0.00     0.188 C 
ENDROOT
BRANCH   1   2
ATOM      2  C   UNL A   1      42.206  19.178  26.112  1.00  0.00     0.188 C 
BRANCH   2   3
ATOM      3  O   UNL A   1      41.525  20.281  26.699  1.00  0.00    -0.376 OA
BRANCH   3   4
ATOM      4  C   UNL A   1      40.156  20.512  26.401  1.00  0.00     0.202 C 
BRANCH   4   5
ATOM      5  C   UNL A   1      39.563  21.928  26.534  1.00  0.00     0.261 C 
BRANCH   5   6
ATOM      6  O   UNL A   1      38.338  22.154  25.818  1.00  0.00    -0.460 OA
BRANCH   6   7
ATOM      7  C   UNL A   1      37.741  23.352  26.014  1.00  0.00     0.338 C 
ATOM      8  O   UNL A   1      38.255  24.372  26.440  1.00  0.00    -0.246 OA
BRANCH   7   9
ATOM      9  C   UNL A   1      36.356  23.312  25.493  1.00  0.00     0.060 A 
ATOM     10  C   UNL A   1      33.756  23.431  24.451  1.00  0.00     0.052 A 
ATOM     11  C   UNL A   1      34.847  23.715  23.628  1.00  0.00     0.028 A 
ATOM     12  C   UNL A   1      33.988  22.971  25.762  1.00  0.00     0.028 A 
ATOM     13  C   UNL A   1      36.141  23.692  24.160  1.00  0.00     0.018 A 
ATOM     14  C   UNL A   1      35.283  22.899  26.282  1.00  0.00     0.018 A 
BRANCH  10  15
ATOM     15  N   UNL A   1      32.446  23.682  24.008  1.00  0.00    -0.242 N 
ATOM     16  C   UNL A   1      31.661  24.764  24.281  1.00  0.00     0.189 A 
ATOM     17  N   UNL A   1      30.445  24.705  23.808  1.00  0.00    -0.150 NA
ATOM     18  N   UNL A   1      30.442  23.528  23.104  1.00  0.00    -0.226 N 
ATOM     19  C   UNL A   1      31.688  22.899  23.173  1.00  0.00     0.348 A 
ATOM     20  H   UNL A   1      29.665  23.174  22.614  1.00  0.00     0.195 HD
ATOM     21  O   UNL A   1      31.973  21.855  22.605  1.00  0.00    -0.246 OA
BRANCH  16  22
ATOM     22  C   UNL A   1      32.170  25.957  24.938  1.00  0.00     0.130 A 
ATOM     23  C   UNL A   1      33.160  29.304  24.703  1.00  0.00     0.173 C 
ATOM     24  N   UNL A   1      32.847  27.963  25.134  1.00  0.00    -0.275 N 
ATOM     25  C   UNL A   1      32.991  27.432  26.380  1.00  0.00     0.109 A 
ATOM     26  N   UNL A   1      32.344  27.097  24.245  1.00  0.00    -0.170 NA
ATOM     27  C   UNL A   1      32.529  26.138  26.297  1.00  0.00     0.054 A 
ENDBRANCH  16  22
ENDBRANCH  10  15
ENDBRANCH   7   9
ENDBRANCH   6   7
ENDBRANCH   5   6
ENDBRANCH   4   5
ENDBRANCH   3   4
ENDBRANCH   2   3
ENDBRANCH   1   2
BRANCH   1  28
ATOM     28  O   UNL A   1      43.807  20.431  24.657  1.00  0.00    -0.376 OA
BRANCH  28  29
ATOM     29  C   UNL A   1      44.698  21.474  25.025  1.00  0.00     0.202 C 
BRANCH  29  30
ATOM     30  C   UNL A   1      44.388  22.332  26.251  1.00  0.00     0.261 C 
BRANCH  30  31
ATOM     31  O   UNL A   1      43.061  22.815  26.322  1.00  0.00    -0.460 OA
BRANCH  31  32
ATOM     32  C   UNL A   1      42.842  24.001  25.724  1.00  0.00     0.338 C 
ATOM     33  O   UNL A   1      43.202  24.344  24.612  1.00  0.00    -0.246 OA
BRANCH  32  34
ATOM     34  C   UNL A   1      42.130  24.852  26.678  1.00  0.00     0.060 A 
ATOM     35  C   UNL A   1      41.343  25.888  26.165  1.00  0.00     0.016 A 
ATOM     36  C   UNL A   1      42.506  24.788  28.027  1.00  0.00     0.016 A 
ATOM     37  C   UNL A   1      41.121  26.988  26.961  1.00  0.00     0.010 A 
ATOM     38  C   UNL A   1      42.318  25.898  28.804  1.00  0.00     0.010 A 
ATOM     39  C   UNL A   1      41.708  27.012  28.227  1.00  0.00    -0.014 A 
BRANCH  39  40
ATOM     40  C   UNL A   1      41.772  28.270  28.936  1.00  0.00     0.031 A 
ATOM     41  C   UNL A   1      42.788  29.214  28.431  1.00  0.00     0.074 A 
ATOM     42  C   UNL A   1      40.814  28.566  29.838  1.00  0.00     0.049 A 
ATOM     43  N   UNL A   1      43.751  29.774  29.086  1.00  0.00    -0.248 NA
ATOM     44  C   UNL A   1      42.812  29.473  26.982  1.00  0.00     0.031 C 
ATOM     45  C   UNL A   1      39.599  27.781  30.111  1.00  0.00     0.029 A 
ATOM     46  N   UNL A   1      40.616  29.707  30.555  1.00  0.00    -0.354 N 
ATOM     47  C   UNL A   1      44.343  30.643  28.172  1.00  0.00     0.074 A 
ATOM     48  C   UNL A   1      43.885  30.252  26.870  1.00  0.00     0.031 C 
ATOM     49  C   UNL A   1      38.688  28.578  30.706  1.00  0.00     0.029 A 
ATOM     50  C   UNL A   1      39.290  29.877  30.944  1.00  0.00     0.049 A 
ATOM     51  H   UNL A   1      41.334  30.343  30.775  1.00  0.00     0.167 HD
ATOM     52  C   UNL A   1      44.906  31.809  28.577  1.00  0.00     0.034 A 
ATOM     53  C   UNL A   1      38.701  31.037  31.319  1.00  0.00     0.034 A 
ATOM     54  C   UNL A   1      45.223  31.792  29.982  1.00  0.00     0.049 A 
ATOM     55  C   UNL A   1      39.774  32.002  31.649  1.00  0.00     0.074 A 
ATOM     56  C   UNL A   1      45.986  30.991  30.806  1.00  0.00     0.029 A 
ATOM     57  N   UNL A   1      44.419  32.539  30.806  1.00  0.00    -0.354 N 
ATOM     58  N   UNL A   1      40.567  31.895  32.679  1.00  0.00    -0.248 NA
ATOM     59  C   UNL A   1      40.218  32.921  30.613  1.00  0.00     0.031 C 
ATOM     60  C   UNL A   1      45.322  31.005  32.066  1.00  0.00     0.029 A 
ATOM     61  C   UNL A   1      44.198  31.827  31.952  1.00  0.00     0.049 A 
ATOM     62  H   UNL A   1      44.064  33.436  30.608  1.00  0.00     0.167 HD
ATOM     63  C   UNL A   1      41.788  32.383  32.231  1.00  0.00     0.074 A 
ATOM     64  C   UNL A   1      41.473  33.131  31.019  1.00  0.00     0.031 C 
ATOM     65  C   UNL A   1      42.965  31.881  32.711  1.00  0.00     0.034 A 
BRANCH  52  66
ATOM     66  C   UNL A   1      44.799  33.108  27.804  1.00  0.00     0.023 A 
ATOM     67  C   UNL A   1      45.948  33.528  27.100  1.00  0.00     0.012 A 
ATOM     68  C   UNL A   1      43.763  34.062  27.961  1.00  0.00     0.148 A 
ATOM     69  C   UNL A   1      46.092  34.843  26.646  1.00  0.00     0.002 A 
ATOM     70  C   UNL A   1      43.875  35.341  27.429  1.00  0.00     0.091 A 
ATOM     71  F   UNL A   1      42.714  33.806  28.745  1.00  0.00    -0.205 F 
ATOM     72  C   UNL A   1      45.051  35.749  26.804  1.00  0.00     0.022 A 
BRANCH  70  73
ATOM     73  S   UNL A   1      42.524  36.519  27.564  1.00  0.00     0.127 S 
ATOM     74  O   UNL A   1      43.079  37.680  26.878  1.00  0.00    -0.237 OA
ATOM     75  O   UNL A   1      41.447  35.833  26.851  1.00  0.00    -0.237 OA
ATOM     76  O   UNL A   1      42.287  36.664  28.996  1.00  0.00    -0.744 OA
ENDBRANCH  70  73
ENDBRANCH  52  66
BRANCH  53  77
ATOM     77  C   UNL A   1      37.282  31.449  31.190  1.00  0.00     0.023 A 
ATOM     78  C   UNL A   1      36.532  31.716  32.351  1.00  0.00     0.012 A 
ATOM     79  C   UNL A   1      36.720  31.797  29.941  1.00  0.00     0.148 A 
ATOM     80  C   UNL A   1      35.274  32.324  32.273  1.00  0.00     0.002 A 
ATOM     81  C   UNL A   1      35.456  32.377  29.866  1.00  0.00     0.091 A 
ATOM     82  F   UNL A   1      37.455  31.650  28.831  1.00  0.00    -0.205 F 
ATOM     83  C   UNL A   1      34.735  32.653  31.032  1.00  0.00     0.022 A 
BRANCH  81  84
ATOM     84  S   UNL A   1      34.697  32.801  28.292  1.00  0.00     0.127 S 
ATOM     85  O   UNL A   1      34.180  31.509  27.840  1.00  0.00    -0.237 OA
ATOM     86  O   UNL A   1      33.673  33.760  28.696  1.00  0.00    -0.237 OA
ATOM     87  O   UNL A   1      35.776  33.328  27.466  1.00  0.00    -0.744 OA
ENDBRANCH  81  84
ENDBRANCH  53  77
BRANCH  65  88
ATOM     88  C   UNL A   1      42.927  31.048  33.969  1.00  0.00     0.023 A 
ATOM     89  C   UNL A   1      43.061  31.627  35.248  1.00  0.00     0.012 A 
ATOM     90  C   UNL A   1      42.565  29.693  33.872  1.00  0.00     0.148 A 
ATOM     91  C   UNL A   1      42.865  30.866  36.402  1.00  0.00     0.002 A 
ATOM     92  C   UNL A   1      42.323  28.952  35.023  1.00  0.00     0.091 A 
ATOM     93  F   UNL A   1      42.434  29.155  32.649  1.00  0.00    -0.205 F 
ATOM     94  C   UNL A   1      42.482  29.532  36.290  1.00  0.00     0.022 A 
BRANCH  92  95
ATOM     95  S   UNL A   1      41.690  27.273  34.938  1.00  0.00     0.127 S 
ATOM     96  O   UNL A   1      42.832  26.541  34.396  1.00  0.00    -0.237 OA
ATOM     97  O   UNL A   1      41.382  26.976  36.338  1.00  0.00    -0.237 OA
ATOM     98  O   UNL A   1      40.514  27.339  34.077  1.00  0.00    -0.744 OA
ENDBRANCH  92  95
ENDBRANCH  65  88
ENDBRANCH  39  40
ENDBRANCH  32  34
ENDBRANCH  31  32
ENDBRANCH  30  31
ENDBRANCH  29  30
ENDBRANCH  28  29
ENDBRANCH   1  28
TORSDOF 22
ENDMDL
MODEL 2
REMARK VINA RESULT:     -10.7      2.458      3.265
REMARK SMILES Cn1ccc(-c2n[nH]c(=O)n2-c2ccc(C(=O)OCCOCCOCCOC(=O)c3ccc(-c4c5nc(c(-c6cccc(S(=O)(=O)[O-])c6F)c6ccc([nH]6)c(-c6cccc(S(=O)(=O)[O-])c6F)c6nc(c(-c7cccc(S(=O)(=O)[O-])c7F)c7ccc4[nH]7)C=C6)C=C5)cc3)cc2)n1
REMARK SMILES IDX 23 1 22 2 21 3 20 4 19 5 18 6 16 7 17 8 15 9 12 10 13 11
REMARK SMILES IDX 94 12 14 13 93 14 11 15 6 16 7 17 8 18 9 19 10 21 5 22 1 23
REMARK SMILES IDX 2 24 3 25 95 26 4 27 24 28 25 29 26 30 27 31 28 32 29 33
REMARK SMILES IDX 30 34 31 35 92 36 32 37 91 38 33 39 34 40 35 41 85 42 36 43
REMARK SMILES IDX 90 44 84 45 86 46 37 47 89 48 83 49 82 50 38 52 70 53 50 54
REMARK SMILES IDX 69 55 51 56 54 57 68 58 87 59 52 60 53 61 67 63 88 64 55 65
REMARK SMILES IDX 39 66 40 67 48 68 41 69 43 70 49 71 42 72 44 73 45 74 46 75
REMARK SMILES IDX 47 76 71 77 72 78 80 79 73 80 75 81 81 82 74 83 76 84 77 85
REMARK SMILES IDX 78 86 79 87 56 88 57 89 65 90 58 91 60 92 66 93 59 94 61 95
REMARK SMILES IDX 62 96 63 97 64 98
REMARK H PARENT 8 20 86 51 54 62
REMARK Flexibility Score: inf
ROOT
ATOM      1  C   UNL A   1      40.599  19.253  25.947  1.00  0.00     0.188 C 
ENDROOT
BRANCH   1   2
ATOM      2  C   UNL A   1      40.828  20.666  26.536  1.00  0.00     0.188 C 
BRANCH   2   3
ATOM      3  O   UNL A   1      39.731  21.467  26.959  1.00  0.00    -0.376 OA
BRANCH   3   4
ATOM      4  C   UNL A   1      38.701  21.806  26.043  1.00  0.00     0.202 C 
BRANCH   4   5
ATOM      5  C   UNL A   1      38.671  23.202  25.392  1.00  0.00     0.261 C 
BRANCH   5   6
ATOM      6  O   UNL A   1      37.385  23.843  25.365  1.00  0.00    -0.460 OA
BRANCH   6   7
ATOM      7  C   UNL A   1      36.587  23.543  24.315  1.00  0.00     0.338 C 
ATOM      8  O   UNL A   1      36.905  22.971  23.287  1.00  0.00    -0.246 OA
BRANCH   7   9
ATOM      9  C   UNL A   1      35.184  23.885  24.640  1.00  0.00     0.060 A 
ATOM     10  C   UNL A   1      32.550  24.434  25.428  1.00  0.00     0.052 A 
ATOM     11  C   UNL A   1      33.616  24.850  26.228  1.00  0.00     0.028 A 
ATOM     12  C   UNL A   1      32.821  23.850  24.176  1.00  0.00     0.028 A 
ATOM     13  C   UNL A   1      34.927  24.542  25.852  1.00  0.00     0.018 A 
ATOM     14  C   UNL A   1      34.133  23.585  23.773  1.00  0.00     0.018 A 
BRANCH  10  15
ATOM     15  N   UNL A   1      31.230  24.517  25.902  1.00  0.00    -0.242 N 
ATOM     16  C   UNL A   1      30.437  25.625  25.986  1.00  0.00     0.189 A 
ATOM     17  N   UNL A   1      29.272  25.436  26.547  1.00  0.00    -0.150 NA
ATOM     18  N   UNL A   1      29.258  24.086  26.789  1.00  0.00    -0.226 N 
ATOM     19  C   UNL A   1      30.443  23.486  26.354  1.00  0.00     0.348 A 
ATOM     20  H   UNL A   1      28.513  23.604  27.214  1.00  0.00     0.195 HD
ATOM     21  O   UNL A   1      30.680  22.288  26.413  1.00  0.00    -0.246 OA
BRANCH  16  22
ATOM     22  C   UNL A   1      30.798  26.896  25.382  1.00  0.00     0.130 A 
ATOM     23  C   UNL A   1      32.237  30.066  25.727  1.00  0.00     0.173 C 
ATOM     24  N   UNL A   1      31.582  28.868  25.257  1.00  0.00    -0.275 N 
ATOM     25  C   UNL A   1      31.071  28.627  24.018  1.00  0.00     0.109 A 
ATOM     26  N   UNL A   1      31.439  27.837  26.099  1.00  0.00    -0.170 NA
ATOM     27  C   UNL A   1      30.583  27.340  24.053  1.00  0.00     0.054 A 
ENDBRANCH  16  22
ENDBRANCH  10  15
ENDBRANCH   7   9
ENDBRANCH   6   7
ENDBRANCH   5   6
ENDBRANCH   4   5
ENDBRANCH   3   4
ENDBRANCH   2   3
ENDBRANCH   1   2
BRANCH   1  28
ATOM     28  O   UNL A   1      41.783  18.510  25.706  1.00  0.00    -0.376 OA
BRANCH  28  29
ATOM     29  C   UNL A   1      43.029  19.072  26.095  1.00  0.00     0.202 C 
BRANCH  29  30
ATOM     30  C   UNL A   1      44.035  19.489  25.023  1.00  0.00     0.261 C 
BRANCH  30  31
ATOM     31  O   UNL A   1      44.739  20.684  25.298  1.00  0.00    -0.460 OA
BRANCH  31  32
ATOM     32  C   UNL A   1      44.307  21.777  24.639  1.00  0.00     0.338 C 
ATOM     33  O   UNL A   1      44.486  22.049  23.465  1.00  0.00    -0.246 OA
BRANCH  32  34
ATOM     34  C   UNL A   1      43.619  22.632  25.607  1.00  0.00     0.060 A 
ATOM     35  C   UNL A   1      42.848  23.687  25.109  1.00  0.00     0.016 A 
ATOM     36  C   UNL A   1      44.005  22.549  26.952  1.00  0.00     0.016 A 
ATOM     37  C   UNL A   1      42.653  24.784  25.918  1.00  0.00     0.010 A 
ATOM     38  C   UNL A   1      43.844  23.655  27.741  1.00  0.00     0.010 A 
ATOM     39  C   UNL A   1      43.251  24.786  27.179  1.00  0.00    -0.014 A 
BRANCH  39  40
ATOM     40  C   UNL A   1      43.345  26.036  27.899  1.00  0.00     0.031 A 
ATOM     41  C   UNL A   1      44.573  26.811  27.636  1.00  0.00     0.074 A 
ATOM     42  C   UNL A   1      42.269  26.486  28.576  1.00  0.00     0.049 A 
ATOM     43  N   UNL A   1      45.444  27.238  28.489  1.00  0.00    -0.248 NA
ATOM     44  C   UNL A   1      44.946  27.033  26.229  1.00  0.00     0.031 C 
ATOM     45  C   UNL A   1      40.923  25.893  28.572  1.00  0.00     0.029 A 
ATOM     46  N   UNL A   1      42.091  27.659  29.246  1.00  0.00    -0.354 N 
ATOM     47  C   UNL A   1      46.340  27.992  27.734  1.00  0.00     0.074 A 
ATOM     48  C   UNL A   1      46.121  27.644  26.359  1.00  0.00     0.031 C 
ATOM     49  C   UNL A   1      40.031  26.826  28.965  1.00  0.00     0.029 A 
ATOM     50  C   UNL A   1      40.752  28.028  29.341  1.00  0.00     0.049 A 
ATOM     51  H   UNL A   1      42.830  28.188  29.623  1.00  0.00     0.167 HD
ATOM     52  C   UNL A   1      46.967  29.072  28.264  1.00  0.00     0.034 A 
ATOM     53  C   UNL A   1      40.273  29.269  29.593  1.00  0.00     0.034 A 
ATOM     54  C   UNL A   1      46.968  29.039  29.704  1.00  0.00     0.049 A 
ATOM     55  C   UNL A   1      41.380  30.074  30.158  1.00  0.00     0.074 A 
ATOM     56  C   UNL A   1      47.410  28.152  30.665  1.00  0.00     0.029 A 
ATOM     57  N   UNL A   1      46.125  29.912  30.344  1.00  0.00    -0.354 N 
ATOM     58  N   UNL A   1      41.908  29.875  31.333  1.00  0.00    -0.248 NA
ATOM     59  C   UNL A   1      42.165  30.897  29.252  1.00  0.00     0.031 C 
ATOM     60  C   UNL A   1      46.500  28.289  31.751  1.00  0.00     0.029 A 
ATOM     61  C   UNL A   1      45.560  29.263  31.406  1.00  0.00     0.049 A 
ATOM     62  H   UNL A   1      45.956  30.847  30.083  1.00  0.00     0.167 HD
ATOM     63  C   UNL A   1      43.254  30.170  31.164  1.00  0.00     0.074 A 
ATOM     64  C   UNL A   1      43.321  30.930  29.922  1.00  0.00     0.031 C 
ATOM     65  C   UNL A   1      44.214  29.513  31.882  1.00  0.00     0.034 A 
BRANCH  52  66
ATOM     66  C   UNL A   1      47.220  30.356  27.500  1.00  0.00     0.023 A 
ATOM     67  C   UNL A   1      48.532  30.876  27.544  1.00  0.00     0.012 A 
ATOM     68  C   UNL A   1      46.210  31.215  27.001  1.00  0.00     0.148 A 
ATOM     69  C   UNL A   1      48.811  32.198  27.184  1.00  0.00     0.002 A 
ATOM     70  C   UNL A   1      46.509  32.499  26.560  1.00  0.00     0.091 A 
ATOM     71  F   UNL A   1      44.923  30.868  27.072  1.00  0.00    -0.205 F 
ATOM     72  C   UNL A   1      47.800  33.009  26.684  1.00  0.00     0.022 A 
BRANCH  70  73
ATOM     73  S   UNL A   1      45.236  33.553  25.854  1.00  0.00     0.127 S 
ATOM     74  O   UNL A   1      44.528  33.997  27.050  1.00  0.00    -0.237 OA
ATOM     75  O   UNL A   1      46.029  34.583  25.183  1.00  0.00    -0.237 OA
ATOM     76  O   UNL A   1      44.491  32.692  24.942  1.00  0.00    -0.744 OA
ENDBRANCH  70  73
ENDBRANCH  52  66
BRANCH  53  77
ATOM     77  C   UNL A   1      38.991  29.880  29.166  1.00  0.00     0.023 A 
ATOM     78  C   UNL A   1      38.421  29.500  27.936  1.00  0.00     0.012 A 
ATOM     79  C   UNL A   1      38.210  30.663  30.047  1.00  0.00     0.148 A 
ATOM     80  C   UNL A   1      37.113  29.871  27.602  1.00  0.00     0.002 A 
ATOM     81  C   UNL A   1      36.919  31.052  29.699  1.00  0.00     0.091 A 
ATOM     82  F   UNL A   1      38.690  30.948  31.264  1.00  0.00    -0.205 F 
ATOM     83  C   UNL A   1      36.363  30.647  28.481  1.00  0.00     0.022 A 
BRANCH  81  84
ATOM     84  S   UNL A   1      35.911  32.075  30.781  1.00  0.00     0.127 S 
ATOM     85  O   UNL A   1      34.700  32.269  29.982  1.00  0.00    -0.237 OA
ATOM     86  O   UNL A   1      35.742  31.211  31.946  1.00  0.00    -0.237 OA
ATOM     87  O   UNL A   1      36.680  33.295  30.996  1.00  0.00    -0.744 OA
ENDBRANCH  81  84
ENDBRANCH  53  77
BRANCH  65  88
ATOM     88  C   UNL A   1      43.785  28.721  33.093  1.00  0.00     0.023 A 
ATOM     89  C   UNL A   1      43.248  27.422  32.980  1.00  0.00     0.012 A 
ATOM     90  C   UNL A   1      44.100  29.216  34.371  1.00  0.00     0.148 A 
ATOM     91  C   UNL A   1      43.005  26.646  34.115  1.00  0.00     0.002 A 
ATOM     92  C   UNL A   1      43.903  28.422  35.495  1.00  0.00     0.091 A 
ATOM     93  F   UNL A   1      44.617  30.451  34.465  1.00  0.00    -0.205 F 
ATOM     94  C   UNL A   1      43.346  27.140  35.372  1.00  0.00     0.022 A 
BRANCH  92  95
ATOM     95  S   UNL A   1      44.455  28.948  37.121  1.00  0.00     0.127 S 
ATOM     96  O   UNL A   1      44.257  27.740  37.918  1.00  0.00    -0.237 OA
ATOM     97  O   UNL A   1      45.855  29.302  36.884  1.00  0.00    -0.237 OA
ATOM     98  O   UNL A   1      43.611  30.084  37.474  1.00  0.00    -0.744 OA
ENDBRANCH  92  95
ENDBRANCH  65  88
ENDBRANCH  39  40
ENDBRANCH  32  34
ENDBRANCH  31  32
ENDBRANCH  30  31
ENDBRANCH  29  30
ENDBRANCH  28  29
ENDBRANCH   1  28
TORSDOF 22
ENDMDL
MODEL 3
REMARK VINA RESULT:     -10.5      4.831     11.992
REMARK SMILES Cn1ccc(-c2n[nH]c(=O)n2-c2ccc(C(=O)OCCOCCOCCOC(=O)c3ccc(-c4c5nc(c(-c6cccc(S(=O)(=O)[O-])c6F)c6ccc([nH]6)c(-c6cccc(S(=O)(=O)[O-])c6F)c6nc(c(-c7cccc(S(=O)(=O)[O-])c7F)c7ccc4[nH]7)C=C6)C=C5)cc3)cc2)n1
REMARK SMILES IDX 23 1 22 2 21 3 20 4 19 5 18 6 16 7 17 8 15 9 12 10 13 11
REMARK SMILES IDX 94 12 14 13 93 14 11 15 6 16 7 17 8 18 9 19 10 21 5 22 1 23
REMARK SMILES IDX 2 24 3 25 95 26 4 27 24 28 25 29 26 30 27 31 28 32 29 33
REMARK SMILES IDX 30 34 31 35 92 36 32 37 91 38 33 39 34 40 35 41 85 42 36 43
REMARK SMILES IDX 90 44 84 45 86 46 37 47 89 48 83 49 82 50 38 52 70 53 50 54
REMARK SMILES IDX 69 55 51 56 54 57 68 58 87 59 52 60 53 61 67 63 88 64 55 65
REMARK SMILES IDX 39 66 40 67 48 68 41 69 43 70 49 71 42 72 44 73 45 74 46 75
REMARK SMILES IDX 47 76 71 77 72 78 80 79 73 80 75 81 81 82 74 83 76 84 77 85
REMARK SMILES IDX 78 86 79 87 56 88 57 89 65 90 58 91 60 92 66 93 59 94 61 95
REMARK SMILES IDX 62 96 63 97 64 98
REMARK H PARENT 8 20 86 51 54 62
REMARK Flexibility Score: inf
ROOT
ATOM      1  C   UNL A   1      33.305  35.703  29.786  1.00  0.00     0.188 C 
ENDROOT
BRANCH   1   2
ATOM      2  C   UNL A   1      33.041  35.758  31.310  1.00  0.00     0.188 C 
BRANCH   2   3
ATOM      3  O   UNL A   1      33.271  34.620  32.133  1.00  0.00    -0.376 OA
BRANCH   3   4
ATOM      4  C   UNL A   1      34.588  34.119  32.304  1.00  0.00     0.202 C 
BRANCH   4   5
ATOM      5  C   UNL A   1      34.815  32.632  32.634  1.00  0.00     0.261 C 
BRANCH   5   6
ATOM      6  O   UNL A   1      36.163  32.273  32.977  1.00  0.00    -0.460 OA
BRANCH   6   7
ATOM      7  C   UNL A   1      36.701  32.911  34.041  1.00  0.00     0.338 C 
ATOM      8  O   UNL A   1      36.167  33.138  35.113  1.00  0.00    -0.246 OA
BRANCH   7   9
ATOM      9  C   UNL A   1      38.132  33.190  33.786  1.00  0.00     0.060 A 
ATOM     10  C   UNL A   1      40.796  33.739  33.106  1.00  0.00     0.052 A 
ATOM     11  C   UNL A   1      39.798  34.665  32.801  1.00  0.00     0.028 A 
ATOM     12  C   UNL A   1      40.465  32.596  33.859  1.00  0.00     0.028 A 
ATOM     13  C   UNL A   1      38.465  34.372  33.107  1.00  0.00     0.018 A 
ATOM     14  C   UNL A   1      39.140  32.324  34.211  1.00  0.00     0.018 A 
BRANCH  10  15
ATOM     15  N   UNL A   1      42.096  33.900  32.596  1.00  0.00    -0.242 N 
ATOM     16  C   UNL A   1      43.145  34.561  33.167  1.00  0.00     0.189 A 
ATOM     17  N   UNL A   1      44.225  34.631  32.435  1.00  0.00    -0.150 NA
ATOM     18  N   UNL A   1      43.896  33.900  31.323  1.00  0.00    -0.226 N 
ATOM     19  C   UNL A   1      42.596  33.395  31.421  1.00  0.00     0.348 A 
ATOM     20  H   UNL A   1      44.495  33.750  30.557  1.00  0.00     0.195 HD
ATOM     21  O   UNL A   1      42.062  32.678  30.588  1.00  0.00    -0.246 OA
BRANCH  16  22
ATOM     22  C   UNL A   1      43.118  35.040  34.538  1.00  0.00     0.130 A 
ATOM     23  C   UNL A   1      43.962  34.539  37.896  1.00  0.00     0.173 C 
ATOM     24  N   UNL A   1      43.463  35.036  36.636  1.00  0.00    -0.275 N 
ATOM     25  C   UNL A   1      42.754  36.177  36.411  1.00  0.00     0.109 A 
ATOM     26  N   UNL A   1      43.706  34.335  35.522  1.00  0.00    -0.170 NA
ATOM     27  C   UNL A   1      42.541  36.228  35.052  1.00  0.00     0.054 A 
ENDBRANCH  16  22
ENDBRANCH  10  15
ENDBRANCH   7   9
ENDBRANCH   6   7
ENDBRANCH   5   6
ENDBRANCH   4   5
ENDBRANCH   3   4
ENDBRANCH   2   3
ENDBRANCH   1   2
BRANCH   1  28
ATOM     28  O   UNL A   1      32.718  34.597  29.120  1.00  0.00    -0.376 OA
BRANCH  28  29
ATOM     29  C   UNL A   1      33.571  33.664  28.471  1.00  0.00     0.202 C 
BRANCH  29  30
ATOM     30  C   UNL A   1      35.078  33.913  28.445  1.00  0.00     0.261 C 
BRANCH  30  31
ATOM     31  O   UNL A   1      35.841  33.043  29.257  1.00  0.00    -0.460 OA
BRANCH  31  32
ATOM     32  C   UNL A   1      36.209  31.883  28.680  1.00  0.00     0.338 C 
ATOM     33  O   UNL A   1      35.841  31.445  27.604  1.00  0.00    -0.246 OA
BRANCH  32  34
ATOM     34  C   UNL A   1      37.106  31.192  29.608  1.00  0.00     0.060 A 
ATOM     35  C   UNL A   1      38.059  31.960  30.283  1.00  0.00     0.016 A 
ATOM     36  C   UNL A   1      37.171  29.793  29.543  1.00  0.00     0.016 A 
ATOM     37  C   UNL A   1      39.212  31.337  30.704  1.00  0.00     0.010 A 
ATOM     38  C   UNL A   1      38.333  29.182  29.927  1.00  0.00     0.010 A 
ATOM     39  C   UNL A   1      39.368  29.979  30.417  1.00  0.00    -0.014 A 
BRANCH  39  40
ATOM     40  C   UNL A   1      40.683  29.392  30.543  1.00  0.00     0.031 A 
ATOM     41  C   UNL A   1      41.191  29.306  31.927  1.00  0.00     0.074 A 
ATOM     42  C   UNL A   1      41.248  28.809  29.468  1.00  0.00     0.049 A 
ATOM     43  N   UNL A   1      42.294  29.783  32.402  1.00  0.00    -0.248 NA
ATOM     44  C   UNL A   1      40.300  28.721  32.941  1.00  0.00     0.031 C 
ATOM     45  C   UNL A   1      40.612  28.584  28.160  1.00  0.00     0.029 A 
ATOM     46  N   UNL A   1      42.421  28.123  29.365  1.00  0.00    -0.354 N 
ATOM     47  C   UNL A   1      42.335  29.337  33.720  1.00  0.00     0.074 A 
ATOM     48  C   UNL A   1      41.009  28.900  34.053  1.00  0.00     0.031 C 
ATOM     49  C   UNL A   1      41.276  27.606  27.511  1.00  0.00     0.029 A 
ATOM     50  C   UNL A   1      42.428  27.220  28.306  1.00  0.00     0.049 A 
ATOM     51  H   UNL A   1      43.182  28.254  29.975  1.00  0.00     0.167 HD
ATOM     52  C   UNL A   1      43.515  29.061  34.331  1.00  0.00     0.034 A 
ATOM     53  C   UNL A   1      43.249  26.153  28.159  1.00  0.00     0.034 A 
ATOM     54  C   UNL A   1      44.623  29.705  33.672  1.00  0.00     0.049 A 
ATOM     55  C   UNL A   1      44.397  26.339  29.075  1.00  0.00     0.074 A 
ATOM     56  C   UNL A   1      44.949  31.006  33.346  1.00  0.00     0.029 A 
ATOM     57  N   UNL A   1      45.455  28.902  32.935  1.00  0.00    -0.354 N 
ATOM     58  N   UNL A   1      45.313  27.256  28.930  1.00  0.00    -0.248 NA
ATOM     59  C   UNL A   1      44.337  25.721  30.390  1.00  0.00     0.031 C 
ATOM     60  C   UNL A   1      45.686  30.916  32.131  1.00  0.00     0.029 A 
ATOM     61  C   UNL A   1      45.787  29.566  31.787  1.00  0.00     0.049 A 
ATOM     62  H   UNL A   1      45.763  28.001  33.188  1.00  0.00     0.167 HD
ATOM     63  C   UNL A   1      45.639  27.632  30.227  1.00  0.00     0.074 A 
ATOM     64  C   UNL A   1      45.126  26.558  31.070  1.00  0.00     0.031 C 
ATOM     65  C   UNL A   1      46.020  28.913  30.514  1.00  0.00     0.034 A 
BRANCH  52  66
ATOM     66  C   UNL A   1      43.723  27.891  35.271  1.00  0.00     0.023 A 
ATOM     67  C   UNL A   1      44.289  28.180  36.532  1.00  0.00     0.012 A 
ATOM     68  C   UNL A   1      43.671  26.527  34.892  1.00  0.00     0.148 A 
ATOM     69  C   UNL A   1      44.841  27.177  37.336  1.00  0.00     0.002 A 
ATOM     70  C   UNL A   1      44.140  25.527  35.735  1.00  0.00     0.091 A 
ATOM     71  F   UNL A   1      43.302  26.176  33.659  1.00  0.00    -0.205 F 
ATOM     72  C   UNL A   1      44.760  25.848  36.941  1.00  0.00     0.022 A 
BRANCH  70  73
ATOM     73  S   UNL A   1      43.997  23.794  35.280  1.00  0.00     0.127 S 
ATOM     74  O   UNL A   1      44.778  23.750  34.049  1.00  0.00    -0.237 OA
ATOM     75  O   UNL A   1      44.610  23.125  36.428  1.00  0.00    -0.237 OA
ATOM     76  O   UNL A   1      42.565  23.551  35.149  1.00  0.00    -0.744 OA
ENDBRANCH  70  73
ENDBRANCH  52  66
BRANCH  53  77
ATOM     77  C   UNL A   1      43.000  24.872  27.456  1.00  0.00     0.023 A 
ATOM     78  C   UNL A   1      41.696  24.344  27.424  1.00  0.00     0.012 A 
ATOM     79  C   UNL A   1      43.980  24.275  26.629  1.00  0.00     0.148 A 
ATOM     80  C   UNL A   1      41.373  23.270  26.586  1.00  0.00     0.002 A 
ATOM     81  C   UNL A   1      43.660  23.190  25.818  1.00  0.00     0.091 A 
ATOM     82  F   UNL A   1      45.200  24.824  26.563  1.00  0.00    -0.205 F 
ATOM     83  C   UNL A   1      42.353  22.692  25.785  1.00  0.00     0.022 A 
BRANCH  81  84
ATOM     84  S   UNL A   1      44.889  22.386  24.779  1.00  0.00     0.127 S 
ATOM     85  O   UNL A   1      45.944  22.064  25.742  1.00  0.00    -0.237 OA
ATOM     86  O   UNL A   1      44.153  21.231  24.273  1.00  0.00    -0.237 OA
ATOM     87  O   UNL A   1      45.276  23.382  23.788  1.00  0.00    -0.744 OA
ENDBRANCH  81  84
ENDBRANCH  53  77
BRANCH  65  88
ATOM     88  C   UNL A   1      46.412  29.815  29.371  1.00  0.00     0.023 A 
ATOM     89  C   UNL A   1      47.719  29.818  28.841  1.00  0.00     0.012 A 
ATOM     90  C   UNL A   1      45.406  30.533  28.699  1.00  0.00     0.148 A 
ATOM     91  C   UNL A   1      48.022  30.541  27.685  1.00  0.00     0.002 A 
ATOM     92  C   UNL A   1      45.700  31.211  27.522  1.00  0.00     0.091 A 
ATOM     93  F   UNL A   1      44.165  30.517  29.209  1.00  0.00    -0.205 F 
ATOM     94  C   UNL A   1      47.009  31.226  27.017  1.00  0.00     0.022 A 
BRANCH  92  95
ATOM     95  S   UNL A   1      44.411  31.989  26.543  1.00  0.00     0.127 S 
ATOM     96  O   UNL A   1      44.015  33.110  27.393  1.00  0.00    -0.237 OA
ATOM     97  O   UNL A   1      45.122  32.370  25.322  1.00  0.00    -0.237 OA
ATOM     98  O   UNL A   1      43.397  30.961  26.339  1.00  0.00    -0.744 OA
ENDBRANCH  92  95
ENDBRANCH  65  88
ENDBRANCH  39  40
ENDBRANCH  32  34
ENDBRANCH  31  32
ENDBRANCH  30  31
ENDBRANCH  29  30
ENDBRANCH  28  29
ENDBRANCH   1  28
TORSDOF 22
ENDMDL
