MODEL 1
REMARK VINA RESULT:      -9.2      0.000      0.000
REMARK SMILES O=C(CCC(=O)OCCOCCOCCOC(=O)c1ccc(-c2c3nc(c(-c4cccc(S(=O)(=O)[O-])c4F)c4ccc([nH]4)c(-c4cccc(S(=O)(=O)[O-])c4F)c4nc(c(-c5cccc(S(=O)(=O)[O-])c5F)c5ccc2[nH]5)C=C4)C=C3)cc1)Nc1ccc(C(=O)N2CCOCC2)cc1
REMARK SMILES IDX 11 1 10 2 9 3 8 4 7 5 5 6 6 7 4 8 3 9 2 10 1 11 82 12 83 14
REMARK SMILES IDX 84 15 96 16 85 17 95 18 86 19 87 20 88 21 89 22 90 23 94 24
REMARK SMILES IDX 91 25 93 26 92 27 12 28 13 29 14 30 15 31 16 32 17 33 18 34
REMARK SMILES IDX 19 35 20 36 81 37 21 38 80 39 22 40 23 41 24 42 74 43 25 44
REMARK SMILES IDX 79 45 73 46 75 47 26 48 78 49 72 50 71 51 27 53 59 54 39 55
REMARK SMILES IDX 58 56 40 57 43 58 57 59 76 60 41 61 42 62 56 64 77 65 44 66
REMARK SMILES IDX 28 67 29 68 37 69 30 70 32 71 38 72 31 73 33 74 34 75 35 76
REMARK SMILES IDX 36 77 60 78 61 79 69 80 62 81 64 82 70 83 63 84 65 85 66 86
REMARK SMILES IDX 67 87 68 88 45 89 46 90 54 91 47 92 49 93 55 94 48 95 50 96
REMARK SMILES IDX 51 97 52 98 53 99
REMARK H PARENT 82 13 75 52 43 63
REMARK Flexibility Score: inf
ROOT
ATOM      1  C   UNL A   1      33.238  29.305  26.866  1.00  0.00     0.188 C 
ENDROOT
BRANCH   1   2
ATOM      2  O   UNL A   1      34.146  28.826  25.878  1.00  0.00    -0.376 OA
BRANCH   2   3
ATOM      3  C   UNL A   1      33.572  28.283  24.691  1.00  0.00     0.202 C 
BRANCH   3   4
ATOM      4  C   UNL A   1      32.410  29.099  24.105  1.00  0.00     0.261 C 
BRANCH   4   5
ATOM      5  O   UNL A   1      31.898  28.540  22.869  1.00  0.00    -0.463 OA
BRANCH   5   6
ATOM      6  C   UNL A   1      30.606  28.839  22.566  1.00  0.00     0.306 C 
ATOM      7  O   UNL A   1      30.259  29.436  21.553  1.00  0.00    -0.252 OA
BRANCH   6   8
ATOM      8  C   UNL A   1      29.586  28.294  23.552  1.00  0.00     0.132 C 
BRANCH   8   9
ATOM      9  C   UNL A   1      29.184  26.825  23.554  1.00  0.00     0.112 C 
BRANCH   9  10
ATOM     10  C   UNL A   1      30.133  25.887  24.266  1.00  0.00     0.224 C 
ATOM     11  O   UNL A   1      30.468  26.086  25.430  1.00  0.00    -0.275 OA
ATOM     12  N   UNL A   1      30.537  24.835  23.475  1.00  0.00    -0.326 N 
ATOM     13  H   UNL A   1      30.268  24.865  22.529  1.00  0.00     0.169 HD
BRANCH  12  14
ATOM     14  C   UNL A   1      31.290  23.730  23.878  1.00  0.00     0.041 A 
ATOM     15  C   UNL A   1      32.365  23.341  23.073  1.00  0.00     0.027 A 
ATOM     16  C   UNL A   1      30.992  23.012  25.028  1.00  0.00     0.027 A 
ATOM     17  C   UNL A   1      33.178  22.271  23.453  1.00  0.00     0.016 A 
ATOM     18  C   UNL A   1      31.794  21.936  25.398  1.00  0.00     0.016 A 
ATOM     19  C   UNL A   1      32.897  21.558  24.623  1.00  0.00     0.040 A 
BRANCH  19  20
ATOM     20  C   UNL A   1      33.898  20.571  25.121  1.00  0.00     0.254 C 
ATOM     21  O   UNL A   1      33.656  19.370  25.017  1.00  0.00    -0.269 OA
ATOM     22  N   UNL A   1      35.146  21.039  25.487  1.00  0.00    -0.334 N 
ATOM     23  C   UNL A   1      35.416  22.070  26.490  1.00  0.00     0.148 C 
ATOM     24  C   UNL A   1      36.326  20.370  24.964  1.00  0.00     0.148 C 
ATOM     25  C   UNL A   1      36.513  23.038  26.011  1.00  0.00     0.181 C 
ATOM     26  C   UNL A   1      37.281  21.440  24.430  1.00  0.00     0.181 C 
ATOM     27  O   UNL A   1      37.658  22.342  25.487  1.00  0.00    -0.378 OA
ENDBRANCH  19  20
ENDBRANCH  12  14
ENDBRANCH   9  10
ENDBRANCH   8   9
ENDBRANCH   6   8
ENDBRANCH   5   6
ENDBRANCH   4   5
ENDBRANCH   3   4
ENDBRANCH   2   3
ENDBRANCH   1   2
BRANCH   1  28
ATOM     28  C   UNL A   1      33.536  30.714  27.373  1.00  0.00     0.188 C 
BRANCH  28  29
ATOM     29  O   UNL A   1      34.872  30.967  27.793  1.00  0.00    -0.376 OA
BRANCH  29  30
ATOM     30  C   UNL A   1      35.029  31.354  29.166  1.00  0.00     0.202 C 
BRANCH  30  31
ATOM     31  C   UNL A   1      35.955  32.552  29.496  1.00  0.00     0.261 C 
BRANCH  31  32
ATOM     32  O   UNL A   1      37.116  32.292  30.315  1.00  0.00    -0.460 OA
BRANCH  32  33
ATOM     33  C   UNL A   1      37.585  33.280  31.120  1.00  0.00     0.338 C 
ATOM     34  O   UNL A   1      37.188  33.542  32.235  1.00  0.00    -0.246 OA
BRANCH  33  35
ATOM     35  C   UNL A   1      38.870  33.782  30.539  1.00  0.00     0.060 A 
ATOM     36  C   UNL A   1      38.836  34.372  29.263  1.00  0.00     0.016 A 
ATOM     37  C   UNL A   1      40.068  33.774  31.258  1.00  0.00     0.016 A 
ATOM     38  C   UNL A   1      39.992  34.922  28.697  1.00  0.00     0.010 A 
ATOM     39  C   UNL A   1      41.231  34.304  30.681  1.00  0.00     0.010 A 
ATOM     40  C   UNL A   1      41.209  34.852  29.384  1.00  0.00    -0.014 A 
BRANCH  40  41
ATOM     41  C   UNL A   1      42.495  35.118  28.682  1.00  0.00     0.031 A 
ATOM     42  C   UNL A   1      43.453  33.963  28.532  1.00  0.00     0.074 A 
ATOM     43  C   UNL A   1      42.841  36.337  28.226  1.00  0.00     0.049 A 
ATOM     44  N   UNL A   1      44.685  33.955  28.095  1.00  0.00    -0.248 NA
ATOM     45  C   UNL A   1      42.951  32.638  28.939  1.00  0.00     0.031 C 
ATOM     46  C   UNL A   1      42.006  37.535  28.276  1.00  0.00     0.029 A 
ATOM     47  N   UNL A   1      44.019  36.774  27.662  1.00  0.00    -0.354 N 
ATOM     48  C   UNL A   1      45.123  32.643  28.230  1.00  0.00     0.074 A 
ATOM     49  C   UNL A   1      44.023  31.878  28.772  1.00  0.00     0.031 C 
ATOM     50  C   UNL A   1      42.715  38.580  27.807  1.00  0.00     0.029 A 
ATOM     51  C   UNL A   1      44.065  38.136  27.461  1.00  0.00     0.049 A 
ATOM     52  H   UNL A   1      44.759  36.170  27.426  1.00  0.00     0.167 HD
ATOM     53  C   UNL A   1      46.333  32.119  27.934  1.00  0.00     0.034 A 
ATOM     54  C   UNL A   1      45.089  38.934  27.087  1.00  0.00     0.034 A 
ATOM     55  C   UNL A   1      47.420  32.866  27.367  1.00  0.00     0.049 A 
ATOM     56  C   UNL A   1      46.440  38.323  26.790  1.00  0.00     0.074 A 
ATOM     57  C   UNL A   1      48.664  32.402  26.974  1.00  0.00     0.029 A 
ATOM     58  N   UNL A   1      47.404  34.229  27.128  1.00  0.00    -0.354 N 
ATOM     59  N   UNL A   1      46.804  37.063  26.817  1.00  0.00    -0.248 NA
ATOM     60  C   UNL A   1      47.519  39.242  26.388  1.00  0.00     0.031 C 
ATOM     61  C   UNL A   1      49.418  33.494  26.542  1.00  0.00     0.029 A 
ATOM     62  C   UNL A   1      48.623  34.627  26.611  1.00  0.00     0.049 A 
ATOM     63  H   UNL A   1      46.640  34.825  27.300  1.00  0.00     0.167 HD
ATOM     64  C   UNL A   1      48.128  37.037  26.383  1.00  0.00     0.074 A 
ATOM     65  C   UNL A   1      48.503  38.403  26.093  1.00  0.00     0.031 C 
ATOM     66  C   UNL A   1      48.961  35.977  26.247  1.00  0.00     0.034 A 
BRANCH  53  67
ATOM     67  C   UNL A   1      46.566  30.662  28.217  1.00  0.00     0.023 A 
ATOM     68  C   UNL A   1      47.158  30.262  29.430  1.00  0.00     0.012 A 
ATOM     69  C   UNL A   1      46.096  29.685  27.316  1.00  0.00     0.148 A 
ATOM     70  C   UNL A   1      47.292  28.909  29.738  1.00  0.00     0.002 A 
ATOM     71  C   UNL A   1      46.189  28.342  27.652  1.00  0.00     0.091 A 
ATOM     72  F   UNL A   1      45.558  30.092  26.158  1.00  0.00    -0.205 F 
ATOM     73  C   UNL A   1      46.796  27.951  28.857  1.00  0.00     0.022 A 
BRANCH  71  74
ATOM     74  S   UNL A   1      45.501  27.037  26.627  1.00  0.00     0.127 S 
ATOM     75  O   UNL A   1      44.176  26.864  27.221  1.00  0.00    -0.237 OA
ATOM     76  O   UNL A   1      45.499  27.659  25.303  1.00  0.00    -0.237 OA
ATOM     77  O   UNL A   1      46.395  25.897  26.767  1.00  0.00    -0.744 OA
ENDBRANCH  71  74
ENDBRANCH  53  67
BRANCH  54  78
ATOM     78  C   UNL A   1      44.908  40.414  26.977  1.00  0.00     0.023 A 
ATOM     79  C   UNL A   1      44.446  40.974  25.769  1.00  0.00     0.012 A 
ATOM     80  C   UNL A   1      45.249  41.272  28.040  1.00  0.00     0.148 A 
ATOM     81  C   UNL A   1      44.380  42.360  25.603  1.00  0.00     0.002 A 
ATOM     82  C   UNL A   1      45.122  42.648  27.890  1.00  0.00     0.091 A 
ATOM     83  F   UNL A   1      45.709  40.727  29.175  1.00  0.00    -0.205 F 
ATOM     84  C   UNL A   1      44.710  43.195  26.665  1.00  0.00     0.022 A 
BRANCH  82  85
ATOM     85  S   UNL A   1      45.413  43.794  29.242  1.00  0.00     0.127 S 
ATOM     86  O   UNL A   1      44.408  43.371  30.214  1.00  0.00    -0.237 OA
ATOM     87  O   UNL A   1      46.794  43.485  29.609  1.00  0.00    -0.237 OA
ATOM     88  O   UNL A   1      45.226  45.123  28.674  1.00  0.00    -0.744 OA
ENDBRANCH  82  85
ENDBRANCH  54  78
BRANCH  66  89
ATOM     89  C   UNL A   1      50.336  36.210  25.677  1.00  0.00     0.023 A 
ATOM     90  C   UNL A   1      50.557  36.134  24.289  1.00  0.00     0.012 A 
ATOM     91  C   UNL A   1      51.386  36.625  26.523  1.00  0.00     0.148 A 
ATOM     92  C   UNL A   1      51.808  36.441  23.754  1.00  0.00     0.002 A 
ATOM     93  C   UNL A   1      52.612  36.982  25.978  1.00  0.00     0.091 A 
ATOM     94  F   UNL A   1      51.158  36.679  27.843  1.00  0.00    -0.205 F 
ATOM     95  C   UNL A   1      52.830  36.878  24.595  1.00  0.00     0.022 A 
BRANCH  93  96
ATOM     96  S   UNL A   1      53.949  37.657  26.970  1.00  0.00     0.127 S 
ATOM     97  O   UNL A   1      54.418  36.470  27.685  1.00  0.00    -0.237 OA
ATOM     98  O   UNL A   1      54.869  38.156  25.948  1.00  0.00    -0.237 OA
ATOM     99  O   UNL A   1      53.353  38.688  27.806  1.00  0.00    -0.744 OA
ENDBRANCH  93  96
ENDBRANCH  66  89
ENDBRANCH  40  41
ENDBRANCH  33  35
ENDBRANCH  32  33
ENDBRANCH  31  32
ENDBRANCH  30  31
ENDBRANCH  29  30
ENDBRANCH  28  29
ENDBRANCH   1  28
TORSDOF 24
ENDMDL
MODEL 2
REMARK VINA RESULT:      -8.8      7.462     16.405
REMARK SMILES O=C(CCC(=O)OCCOCCOCCOC(=O)c1ccc(-c2c3nc(c(-c4cccc(S(=O)(=O)[O-])c4F)c4ccc([nH]4)c(-c4cccc(S(=O)(=O)[O-])c4F)c4nc(c(-c5cccc(S(=O)(=O)[O-])c5F)c5ccc2[nH]5)C=C4)C=C3)cc1)Nc1ccc(C(=O)N2CCOCC2)cc1
REMARK SMILES IDX 11 1 10 2 9 3 8 4 7 5 5 6 6 7 4 8 3 9 2 10 1 11 82 12 83 14
REMARK SMILES IDX 84 15 96 16 85 17 95 18 86 19 87 20 88 21 89 22 90 23 94 24
REMARK SMILES IDX 91 25 93 26 92 27 12 28 13 29 14 30 15 31 16 32 17 33 18 34
REMARK SMILES IDX 19 35 20 36 81 37 21 38 80 39 22 40 23 41 24 42 74 43 25 44
REMARK SMILES IDX 79 45 73 46 75 47 26 48 78 49 72 50 71 51 27 53 59 54 39 55
REMARK SMILES IDX 58 56 40 57 43 58 57 59 76 60 41 61 42 62 56 64 77 65 44 66
REMARK SMILES IDX 28 67 29 68 37 69 30 70 32 71 38 72 31 73 33 74 34 75 35 76
REMARK SMILES IDX 36 77 60 78 61 79 69 80 62 81 64 82 70 83 63 84 65 85 66 86
REMARK SMILES IDX 67 87 68 88 45 89 46 90 54 91 47 92 49 93 55 94 48 95 50 96
REMARK SMILES IDX 51 97 52 98 53 99
REMARK H PARENT 82 13 75 52 43 63
REMARK Flexibility Score: inf
ROOT
ATOM      1  C   UNL A   1      43.220  42.997  21.562  1.00  0.00     0.188 C 
ENDROOT
BRANCH   1   2
ATOM      2  O   UNL A   1      42.335  43.224  20.469  1.00  0.00    -0.376 OA
BRANCH   2   3
ATOM      3  C   UNL A   1      42.855  43.967  19.369  1.00  0.00     0.202 C 
BRANCH   3   4
ATOM      4  C   UNL A   1      41.829  44.305  18.277  1.00  0.00     0.261 C 
BRANCH   4   5
ATOM      5  O   UNL A   1      41.573  45.729  18.167  1.00  0.00    -0.463 OA
BRANCH   5   6
ATOM      6  C   UNL A   1      41.776  46.281  16.941  1.00  0.00     0.306 C 
ATOM      7  O   UNL A   1      41.719  45.656  15.888  1.00  0.00    -0.252 OA
BRANCH   6   8
ATOM      8  C   UNL A   1      42.000  47.784  16.956  1.00  0.00     0.132 C 
BRANCH   8   9
ATOM      9  C   UNL A   1      43.401  48.382  16.983  1.00  0.00     0.112 C 
BRANCH   9  10
ATOM     10  C   UNL A   1      44.448  47.568  17.709  1.00  0.00     0.224 C 
ATOM     11  O   UNL A   1      45.123  46.730  17.117  1.00  0.00    -0.275 OA
ATOM     12  N   UNL A   1      44.539  47.885  19.046  1.00  0.00    -0.326 N 
ATOM     13  H   UNL A   1      43.861  48.503  19.400  1.00  0.00     0.169 HD
BRANCH  12  14
ATOM     14  C   UNL A   1      45.496  47.419  19.950  1.00  0.00     0.041 A 
ATOM     15  C   UNL A   1      46.718  48.094  20.016  1.00  0.00     0.027 A 
ATOM     16  C   UNL A   1      45.273  46.312  20.758  1.00  0.00     0.027 A 
ATOM     17  C   UNL A   1      47.693  47.699  20.935  1.00  0.00     0.016 A 
ATOM     18  C   UNL A   1      46.251  45.909  21.662  1.00  0.00     0.016 A 
ATOM     19  C   UNL A   1      47.464  46.598  21.767  1.00  0.00     0.040 A 
BRANCH  19  20
ATOM     20  C   UNL A   1      48.418  46.332  22.884  1.00  0.00     0.254 C 
ATOM     21  O   UNL A   1      49.222  47.205  23.204  1.00  0.00    -0.269 OA
ATOM     22  N   UNL A   1      48.221  45.198  23.649  1.00  0.00    -0.334 N 
ATOM     23  C   UNL A   1      48.162  43.823  23.149  1.00  0.00     0.148 C 
ATOM     24  C   UNL A   1      48.220  45.322  25.098  1.00  0.00     0.148 C 
ATOM     25  C   UNL A   1      47.036  43.030  23.835  1.00  0.00     0.181 C 
ATOM     26  C   UNL A   1      46.996  44.578  25.636  1.00  0.00     0.181 C 
ATOM     27  O   UNL A   1      47.056  43.188  25.266  1.00  0.00    -0.378 OA
ENDBRANCH  19  20
ENDBRANCH  12  14
ENDBRANCH   9  10
ENDBRANCH   8   9
ENDBRANCH   6   8
ENDBRANCH   5   6
ENDBRANCH   4   5
ENDBRANCH   3   4
ENDBRANCH   2   3
ENDBRANCH   1   2
BRANCH   1  28
ATOM     28  C   UNL A   1      42.729  43.545  22.900  1.00  0.00     0.188 C 
BRANCH  28  29
ATOM     29  O   UNL A   1      41.544  42.961  23.429  1.00  0.00    -0.376 OA
BRANCH  29  30
ATOM     30  C   UNL A   1      41.721  41.718  24.125  1.00  0.00     0.202 C 
BRANCH  30  31
ATOM     31  C   UNL A   1      42.743  41.661  25.288  1.00  0.00     0.261 C 
BRANCH  31  32
ATOM     32  O   UNL A   1      42.882  40.407  25.993  1.00  0.00    -0.460 OA
BRANCH  32  33
ATOM     33  C   UNL A   1      42.056  40.148  27.039  1.00  0.00     0.338 C 
ATOM     34  O   UNL A   1      41.042  40.753  27.314  1.00  0.00    -0.246 OA
BRANCH  33  35
ATOM     35  C   UNL A   1      42.425  38.811  27.602  1.00  0.00     0.060 A 
ATOM     36  C   UNL A   1      42.297  37.683  26.773  1.00  0.00     0.016 A 
ATOM     37  C   UNL A   1      42.981  38.666  28.876  1.00  0.00     0.016 A 
ATOM     38  C   UNL A   1      42.693  36.417  27.221  1.00  0.00     0.010 A 
ATOM     39  C   UNL A   1      43.356  37.394  29.333  1.00  0.00     0.010 A 
ATOM     40  C   UNL A   1      43.184  36.256  28.521  1.00  0.00    -0.014 A 
BRANCH  40  41
ATOM     41  C   UNL A   1      43.294  34.902  29.131  1.00  0.00     0.031 A 
ATOM     42  C   UNL A   1      42.017  34.246  29.593  1.00  0.00     0.074 A 
ATOM     43  C   UNL A   1      44.471  34.277  29.317  1.00  0.00     0.049 A 
ATOM     44  N   UNL A   1      41.847  33.146  30.279  1.00  0.00    -0.248 NA
ATOM     45  C   UNL A   1      40.761  34.933  29.239  1.00  0.00     0.031 C 
ATOM     46  C   UNL A   1      45.778  34.776  28.895  1.00  0.00     0.029 A 
ATOM     47  N   UNL A   1      44.758  33.090  29.955  1.00  0.00    -0.354 N 
ATOM     48  C   UNL A   1      40.477  33.041  30.488  1.00  0.00     0.074 A 
ATOM     49  C   UNL A   1      39.857  34.177  29.844  1.00  0.00     0.031 C 
ATOM     50  C   UNL A   1      46.730  33.926  29.326  1.00  0.00     0.029 A 
ATOM     51  C   UNL A   1      46.106  32.844  30.088  1.00  0.00     0.049 A 
ATOM     52  H   UNL A   1      44.063  32.476  30.286  1.00  0.00     0.167 HD
ATOM     53  C   UNL A   1      39.794  32.088  31.160  1.00  0.00     0.034 A 
ATOM     54  C   UNL A   1      46.759  31.886  30.781  1.00  0.00     0.034 A 
ATOM     55  C   UNL A   1      40.400  30.941  31.775  1.00  0.00     0.049 A 
ATOM     56  C   UNL A   1      45.968  30.849  31.547  1.00  0.00     0.074 A 
ATOM     57  C   UNL A   1      39.776  29.889  32.423  1.00  0.00     0.029 A 
ATOM     58  N   UNL A   1      41.761  30.703  31.837  1.00  0.00    -0.354 N 
ATOM     59  N   UNL A   1      44.668  30.702  31.641  1.00  0.00    -0.248 NA
ATOM     60  C   UNL A   1      46.734  29.830  32.285  1.00  0.00     0.031 C 
ATOM     61  C   UNL A   1      40.764  29.037  32.919  1.00  0.00     0.029 A 
ATOM     62  C   UNL A   1      41.999  29.530  32.529  1.00  0.00     0.049 A 
ATOM     63  H   UNL A   1      42.455  31.281  31.447  1.00  0.00     0.167 HD
ATOM     64  C   UNL A   1      44.466  29.549  32.397  1.00  0.00     0.074 A 
ATOM     65  C   UNL A   1      45.774  29.031  32.730  1.00  0.00     0.031 C 
ATOM     66  C   UNL A   1      43.302  28.977  32.787  1.00  0.00     0.034 A 
BRANCH  53  67
ATOM     67  C   UNL A   1      38.302  32.232  31.277  1.00  0.00     0.023 A 
ATOM     68  C   UNL A   1      37.453  31.567  30.372  1.00  0.00     0.012 A 
ATOM     69  C   UNL A   1      37.746  32.946  32.357  1.00  0.00     0.148 A 
ATOM     70  C   UNL A   1      36.070  31.622  30.531  1.00  0.00     0.002 A 
ATOM     71  C   UNL A   1      36.370  32.956  32.537  1.00  0.00     0.091 A 
ATOM     72  F   UNL A   1      38.575  33.589  33.192  1.00  0.00    -0.205 F 
ATOM     73  C   UNL A   1      35.530  32.303  31.620  1.00  0.00     0.022 A 
BRANCH  71  74
ATOM     74  S   UNL A   1      35.584  33.728  33.955  1.00  0.00     0.127 S 
ATOM     75  O   UNL A   1      35.895  35.139  33.732  1.00  0.00    -0.237 OA
ATOM     76  O   UNL A   1      34.179  33.374  33.755  1.00  0.00    -0.237 OA
ATOM     77  O   UNL A   1      36.202  33.138  35.134  1.00  0.00    -0.744 OA
ENDBRANCH  71  74
ENDBRANCH  53  67
BRANCH  54  78
ATOM     78  C   UNL A   1      48.253  31.846  30.813  1.00  0.00     0.023 A 
ATOM     79  C   UNL A   1      48.955  31.124  29.826  1.00  0.00     0.012 A 
ATOM     80  C   UNL A   1      48.978  32.466  31.849  1.00  0.00     0.148 A 
ATOM     81  C   UNL A   1      50.342  30.974  29.901  1.00  0.00     0.002 A 
ATOM     82  C   UNL A   1      50.365  32.365  31.884  1.00  0.00     0.091 A 
ATOM     83  F   UNL A   1      48.297  33.129  32.794  1.00  0.00    -0.205 F 
ATOM     84  C   UNL A   1      51.046  31.600  30.924  1.00  0.00     0.022 A 
BRANCH  82  85
ATOM     85  S   UNL A   1      51.362  33.236  33.096  1.00  0.00     0.127 S 
ATOM     86  O   UNL A   1      51.097  34.631  32.757  1.00  0.00    -0.237 OA
ATOM     87  O   UNL A   1      50.770  32.784  34.355  1.00  0.00    -0.237 OA
ATOM     88  O   UNL A   1      52.728  32.779  32.879  1.00  0.00    -0.744 OA
ENDBRANCH  82  85
ENDBRANCH  54  78
BRANCH  66  89
ATOM     89  C   UNL A   1      43.357  27.673  33.541  1.00  0.00     0.023 A 
ATOM     90  C   UNL A   1      43.683  26.476  32.876  1.00  0.00     0.012 A 
ATOM     91  C   UNL A   1      43.198  27.666  34.943  1.00  0.00     0.148 A 
ATOM     92  C   UNL A   1      43.825  25.287  33.591  1.00  0.00     0.002 A 
ATOM     93  C   UNL A   1      43.395  26.489  35.653  1.00  0.00     0.091 A 
ATOM     94  F   UNL A   1      42.876  28.815  35.554  1.00  0.00    -0.205 F 
ATOM     95  C   UNL A   1      43.695  25.296  34.979  1.00  0.00     0.022 A 
BRANCH  93  96
ATOM     96  S   UNL A   1      43.354  26.428  37.448  1.00  0.00     0.127 S 
ATOM     97  O   UNL A   1      44.204  27.564  37.804  1.00  0.00    -0.237 OA
ATOM     98  O   UNL A   1      41.932  26.619  37.731  1.00  0.00    -0.237 OA
ATOM     99  O   UNL A   1      43.878  25.122  37.821  1.00  0.00    -0.744 OA
ENDBRANCH  93  96
ENDBRANCH  66  89
ENDBRANCH  40  41
ENDBRANCH  33  35
ENDBRANCH  32  33
ENDBRANCH  31  32
ENDBRANCH  30  31
ENDBRANCH  29  30
ENDBRANCH  28  29
ENDBRANCH   1  28
TORSDOF 24
ENDMDL
MODEL 3
REMARK VINA RESULT:      -8.6      5.983     11.345
REMARK SMILES O=C(CCC(=O)OCCOCCOCCOC(=O)c1ccc(-c2c3nc(c(-c4cccc(S(=O)(=O)[O-])c4F)c4ccc([nH]4)c(-c4cccc(S(=O)(=O)[O-])c4F)c4nc(c(-c5cccc(S(=O)(=O)[O-])c5F)c5ccc2[nH]5)C=C4)C=C3)cc1)Nc1ccc(C(=O)N2CCOCC2)cc1
REMARK SMILES IDX 11 1 10 2 9 3 8 4 7 5 5 6 6 7 4 8 3 9 2 10 1 11 82 12 83 14
REMARK SMILES IDX 84 15 96 16 85 17 95 18 86 19 87 20 88 21 89 22 90 23 94 24
REMARK SMILES IDX 91 25 93 26 92 27 12 28 13 29 14 30 15 31 16 32 17 33 18 34
REMARK SMILES IDX 19 35 20 36 81 37 21 38 80 39 22 40 23 41 24 42 74 43 25 44
REMARK SMILES IDX 79 45 73 46 75 47 26 48 78 49 72 50 71 51 27 53 59 54 39 55
REMARK SMILES IDX 58 56 40 57 43 58 57 59 76 60 41 61 42 62 56 64 77 65 44 66
REMARK SMILES IDX 28 67 29 68 37 69 30 70 32 71 38 72 31 73 33 74 34 75 35 76
REMARK SMILES IDX 36 77 60 78 61 79 69 80 62 81 64 82 70 83 63 84 65 85 66 86
REMARK SMILES IDX 67 87 68 88 45 89 46 90 54 91 47 92 49 93 55 94 48 95 50 96
REMARK SMILES IDX 51 97 52 98 53 99
REMARK H PARENT 82 13 75 52 43 63
REMARK Flexibility Score: inf
ROOT
ATOM      1  C   UNL A   1      39.957  22.063  26.942  1.00  0.00     0.188 C 
ENDROOT
BRANCH   1   2
ATOM      2  O   UNL A   1      40.594  21.070  26.144  1.00  0.00    -0.376 OA
BRANCH   2   3
ATOM      3  C   UNL A   1      41.233  20.002  26.840  1.00  0.00     0.202 C 
BRANCH   3   4
ATOM      4  C   UNL A   1      42.226  19.188  25.998  1.00  0.00     0.261 C 
BRANCH   4   5
ATOM      5  O   UNL A   1      43.523  19.827  25.884  1.00  0.00    -0.463 OA
BRANCH   5   6
ATOM      6  C   UNL A   1      44.302  19.422  24.845  1.00  0.00     0.306 C 
ATOM      7  O   UNL A   1      44.233  18.313  24.327  1.00  0.00    -0.252 OA
BRANCH   6   8
ATOM      8  C   UNL A   1      45.229  20.495  24.297  1.00  0.00     0.132 C 
BRANCH   8   9
ATOM      9  C   UNL A   1      44.857  21.971  24.343  1.00  0.00     0.112 C 
BRANCH   9  10
ATOM     10  C   UNL A   1      45.662  22.821  25.300  1.00  0.00     0.224 C 
ATOM     11  O   UNL A   1      46.046  22.373  26.377  1.00  0.00    -0.275 OA
ATOM     12  N   UNL A   1      45.898  24.089  24.819  1.00  0.00    -0.326 N 
ATOM     13  H   UNL A   1      45.438  24.337  23.985  1.00  0.00     0.169 HD
BRANCH  12  14
ATOM     14  C   UNL A   1      46.723  25.058  25.392  1.00  0.00     0.041 A 
ATOM     15  C   UNL A   1      47.871  25.440  24.692  1.00  0.00     0.027 A 
ATOM     16  C   UNL A   1      46.444  25.631  26.626  1.00  0.00     0.027 A 
ATOM     17  C   UNL A   1      48.707  26.437  25.198  1.00  0.00     0.016 A 
ATOM     18  C   UNL A   1      47.286  26.614  27.137  1.00  0.00     0.016 A 
ATOM     19  C   UNL A   1      48.418  27.034  26.430  1.00  0.00     0.040 A 
BRANCH  19  20
ATOM     20  C   UNL A   1      49.193  28.240  26.843  1.00  0.00     0.254 C 
ATOM     21  O   UNL A   1      49.216  29.219  26.100  1.00  0.00    -0.269 OA
ATOM     22  N   UNL A   1      49.677  28.290  28.137  1.00  0.00    -0.334 N 
ATOM     23  C   UNL A   1      50.561  27.303  28.761  1.00  0.00     0.148 C 
ATOM     24  C   UNL A   1      49.437  29.484  28.931  1.00  0.00     0.148 C 
ATOM     25  C   UNL A   1      50.128  27.005  30.207  1.00  0.00     0.181 C 
ATOM     26  C   UNL A   1      48.915  29.045  30.301  1.00  0.00     0.181 C 
ATOM     27  O   UNL A   1      49.884  28.209  30.958  1.00  0.00    -0.378 OA
ENDBRANCH  19  20
ENDBRANCH  12  14
ENDBRANCH   9  10
ENDBRANCH   8   9
ENDBRANCH   6   8
ENDBRANCH   5   6
ENDBRANCH   4   5
ENDBRANCH   3   4
ENDBRANCH   2   3
ENDBRANCH   1   2
BRANCH   1  28
ATOM     28  C   UNL A   1      40.619  23.438  26.892  1.00  0.00     0.188 C 
BRANCH  28  29
ATOM     29  O   UNL A   1      42.010  23.462  26.598  1.00  0.00    -0.376 OA
BRANCH  29  30
ATOM     30  C   UNL A   1      42.537  24.733  26.188  1.00  0.00     0.202 C 
BRANCH  30  31
ATOM     31  C   UNL A   1      42.963  25.745  27.281  1.00  0.00     0.261 C 
BRANCH  31  32
ATOM     32  O   UNL A   1      42.705  27.145  27.031  1.00  0.00    -0.460 OA
BRANCH  32  33
ATOM     33  C   UNL A   1      43.615  27.863  26.323  1.00  0.00     0.338 C 
ATOM     34  O   UNL A   1      43.928  27.678  25.167  1.00  0.00    -0.246 OA
BRANCH  33  35
ATOM     35  C   UNL A   1      43.931  29.104  27.099  1.00  0.00     0.060 A 
ATOM     36  C   UNL A   1      44.743  28.985  28.240  1.00  0.00     0.016 A 
ATOM     37  C   UNL A   1      43.533  30.373  26.671  1.00  0.00     0.016 A 
ATOM     38  C   UNL A   1      45.130  30.118  28.965  1.00  0.00     0.010 A 
ATOM     39  C   UNL A   1      43.901  31.506  27.410  1.00  0.00     0.010 A 
ATOM     40  C   UNL A   1      44.675  31.384  28.581  1.00  0.00    -0.014 A 
BRANCH  40  41
ATOM     41  C   UNL A   1      44.787  32.546  29.505  1.00  0.00     0.031 A 
ATOM     42  C   UNL A   1      43.747  32.670  30.590  1.00  0.00     0.074 A 
ATOM     43  C   UNL A   1      45.739  33.490  29.381  1.00  0.00     0.049 A 
ATOM     44  N   UNL A   1      43.531  33.650  31.428  1.00  0.00    -0.248 NA
ATOM     45  C   UNL A   1      42.819  31.535  30.742  1.00  0.00     0.031 C 
ATOM     46  C   UNL A   1      46.823  33.484  28.401  1.00  0.00     0.029 A 
ATOM     47  N   UNL A   1      45.918  34.669  30.070  1.00  0.00    -0.354 N 
ATOM     48  C   UNL A   1      42.412  33.276  32.163  1.00  0.00     0.074 A 
ATOM     49  C   UNL A   1      42.002  31.975  31.687  1.00  0.00     0.031 C 
ATOM     50  C   UNL A   1      47.526  34.627  28.522  1.00  0.00     0.029 A 
ATOM     51  C   UNL A   1      46.919  35.463  29.558  1.00  0.00     0.049 A 
ATOM     52  H   UNL A   1      45.380  34.920  30.856  1.00  0.00     0.167 HD
ATOM     53  C   UNL A   1      41.778  33.956  33.144  1.00  0.00     0.034 A 
ATOM     54  C   UNL A   1      47.274  36.732  29.859  1.00  0.00     0.034 A 
ATOM     55  C   UNL A   1      42.198  35.235  33.643  1.00  0.00     0.049 A 
ATOM     56  C   UNL A   1      46.526  37.478  30.941  1.00  0.00     0.074 A 
ATOM     57  C   UNL A   1      41.651  35.969  34.681  1.00  0.00     0.029 A 
ATOM     58  N   UNL A   1      43.248  35.977  33.134  1.00  0.00    -0.354 N 
ATOM     59  N   UNL A   1      45.541  37.066  31.702  1.00  0.00    -0.248 NA
ATOM     60  C   UNL A   1      46.956  38.859  31.224  1.00  0.00     0.031 C 
ATOM     61  C   UNL A   1      42.342  37.179  34.769  1.00  0.00     0.029 A 
ATOM     62  C   UNL A   1      43.355  37.171  33.824  1.00  0.00     0.049 A 
ATOM     63  H   UNL A   1      43.832  35.698  32.392  1.00  0.00     0.167 HD
ATOM     64  C   UNL A   1      45.275  38.112  32.584  1.00  0.00     0.074 A 
ATOM     65  C   UNL A   1      46.205  39.174  32.271  1.00  0.00     0.031 C 
ATOM     66  C   UNL A   1      44.337  38.188  33.559  1.00  0.00     0.034 A 
BRANCH  53  67
ATOM     67  C   UNL A   1      40.550  33.342  33.755  1.00  0.00     0.023 A 
ATOM     68  C   UNL A   1      40.663  32.513  34.888  1.00  0.00     0.012 A 
ATOM     69  C   UNL A   1      39.274  33.678  33.262  1.00  0.00     0.148 A 
ATOM     70  C   UNL A   1      39.521  32.015  35.514  1.00  0.00     0.002 A 
ATOM     71  C   UNL A   1      38.141  33.218  33.920  1.00  0.00     0.091 A 
ATOM     72  F   UNL A   1      39.195  34.450  32.169  1.00  0.00    -0.205 F 
ATOM     73  C   UNL A   1      38.263  32.379  35.040  1.00  0.00     0.022 A 
BRANCH  71  74
ATOM     74  S   UNL A   1      36.479  33.702  33.441  1.00  0.00     0.127 S 
ATOM     75  O   UNL A   1      35.678  33.084  34.497  1.00  0.00    -0.237 OA
ATOM     76  O   UNL A   1      36.556  35.160  33.507  1.00  0.00    -0.237 OA
ATOM     77  O   UNL A   1      36.267  33.159  32.107  1.00  0.00    -0.744 OA
ENDBRANCH  71  74
ENDBRANCH  53  67
BRANCH  54  78
ATOM     78  C   UNL A   1      48.384  37.413  29.124  1.00  0.00     0.023 A 
ATOM     79  C   UNL A   1      48.113  38.088  27.917  1.00  0.00     0.012 A 
ATOM     80  C   UNL A   1      49.713  37.343  29.583  1.00  0.00     0.148 A 
ATOM     81  C   UNL A   1      49.149  38.631  27.154  1.00  0.00     0.002 A 
ATOM     82  C   UNL A   1      50.733  37.940  28.849  1.00  0.00     0.091 A 
ATOM     83  F   UNL A   1      49.960  36.678  30.720  1.00  0.00    -0.205 F 
ATOM     84  C   UNL A   1      50.457  38.563  27.623  1.00  0.00     0.022 A 
BRANCH  82  85
ATOM     85  S   UNL A   1      52.429  38.003  29.436  1.00  0.00     0.127 S 
ATOM     86  O   UNL A   1      52.806  36.592  29.419  1.00  0.00    -0.237 OA
ATOM     87  O   UNL A   1      53.073  38.826  28.412  1.00  0.00    -0.237 OA
ATOM     88  O   UNL A   1      52.364  38.627  30.752  1.00  0.00    -0.744 OA
ENDBRANCH  82  85
ENDBRANCH  54  78
BRANCH  66  89
ATOM     89  C   UNL A   1      44.308  39.413  34.436  1.00  0.00     0.023 A 
ATOM     90  C   UNL A   1      45.093  39.476  35.603  1.00  0.00     0.012 A 
ATOM     91  C   UNL A   1      43.583  40.553  34.027  1.00  0.00     0.148 A 
ATOM     92  C   UNL A   1      45.137  40.646  36.363  1.00  0.00     0.002 A 
ATOM     93  C   UNL A   1      43.675  41.729  34.759  1.00  0.00     0.091 A 
ATOM     94  F   UNL A   1      42.832  40.467  32.919  1.00  0.00    -0.205 F 
ATOM     95  C   UNL A   1      44.441  41.774  35.934  1.00  0.00     0.022 A 
BRANCH  93  96
ATOM     96  S   UNL A   1      42.902  43.260  34.225  1.00  0.00     0.127 S 
ATOM     97  O   UNL A   1      41.791  43.378  35.169  1.00  0.00    -0.237 OA
ATOM     98  O   UNL A   1      43.975  44.233  34.423  1.00  0.00    -0.237 OA
ATOM     99  O   UNL A   1      42.515  43.056  32.836  1.00  0.00    -0.744 OA
ENDBRANCH  93  96
ENDBRANCH  66  89
ENDBRANCH  40  41
ENDBRANCH  33  35
ENDBRANCH  32  33
ENDBRANCH  31  32
ENDBRANCH  30  31
ENDBRANCH  29  30
ENDBRANCH  28  29
ENDBRANCH   1  28
TORSDOF 24
ENDMDL
