MODEL 1
REMARK VINA RESULT:     -12.2      0.000      0.000
REMARK SMILES Cc1cccc(C(=O)OCCOCCOCCOC(=O)c2ccc(-c3c4nc(c(-c5cccc(S(=O)(=O)[O-])c5F)c5ccc([nH]5)c(-c5cccc(S(=O)(=O)[O-])c5F)c5nc(c(-c6cccc(S(=O)(=O)[O-])c6F)c6ccc3[nH]6)C=C5)C=C4)cc2)c1OC[C@@H]1C[C@H]2CC[C@@H]1C2
REMARK SMILES IDX 13 1 12 2 11 3 10 4 9 5 7 6 8 7 6 8 1 9 2 10 3 11 84 12 4 13
REMARK SMILES IDX 5 14 85 15 86 16 87 17 88 18 92 19 89 20 91 21 93 22 90 23
REMARK SMILES IDX 14 24 15 25 16 26 17 27 18 28 19 29 20 30 21 31 22 32 83 33
REMARK SMILES IDX 23 34 82 35 24 36 25 37 26 38 76 39 27 40 81 41 75 42 77 43
REMARK SMILES IDX 28 44 80 45 74 46 73 47 29 49 61 50 41 51 60 52 42 53 45 54
REMARK SMILES IDX 59 55 78 56 43 57 44 58 58 60 79 61 46 62 30 63 31 64 39 65
REMARK SMILES IDX 32 66 34 67 40 68 33 69 35 70 36 71 37 72 38 73 62 74 63 75
REMARK SMILES IDX 71 76 64 77 66 78 72 79 65 80 67 81 68 82 69 83 70 84 47 85
REMARK SMILES IDX 48 86 56 87 49 88 51 89 57 90 50 91 52 92 53 93 54 94 55 95
REMARK H PARENT 77 48 45 59
REMARK Flexibility Score: inf
ROOT
ATOM      1  C   UNL A   1      32.287  29.182  23.676  1.00  0.00     0.188 C 
ENDROOT
BRANCH   1   2
ATOM      2  O   UNL A   1      32.156  27.994  22.864  1.00  0.00    -0.376 OA
BRANCH   2   3
ATOM      3  C   UNL A   1      33.227  27.087  22.571  1.00  0.00     0.202 C 
BRANCH   3   4
ATOM      4  C   UNL A   1      33.587  25.675  23.403  1.00  0.00     0.261 C 
BRANCH   4   5
ATOM      5  O   UNL A   1      33.309  24.035  22.997  1.00  0.00    -0.460 OA
BRANCH   5   6
ATOM      6  C   UNL A   1      32.328  23.005  23.120  1.00  0.00     0.342 C 
ATOM      7  O   UNL A   1      31.105  23.086  23.080  1.00  0.00    -0.246 OA
BRANCH   6   8
ATOM      8  C   UNL A   1      32.561  21.551  23.245  1.00  0.00     0.102 A 
ATOM      9  C   UNL A   1      33.131  18.866  25.864  1.00  0.00     0.048 C 
ATOM     10  C   UNL A   1      32.760  19.546  24.581  1.00  0.00    -0.008 A 
ATOM     11  C   UNL A   1      32.421  18.736  23.481  1.00  0.00     0.007 A 
ATOM     12  C   UNL A   1      32.708  20.956  24.485  1.00  0.00     0.136 A 
ATOM     13  C   UNL A   1      32.043  19.319  22.287  1.00  0.00     0.001 A 
ATOM     14  C   UNL A   1      32.104  20.708  22.183  1.00  0.00     0.019 A 
BRANCH  12  15
ATOM     15  O   UNL A   1      32.703  21.651  25.662  1.00  0.00    -0.492 OA
BRANCH  15  16
ATOM     16  C   UNL A   1      33.831  22.520  25.919  1.00  0.00     0.233 C 
BRANCH  16  17
ATOM     17  C   UNL A   1      35.264  21.929  25.973  1.00  0.00     0.030 C 
ATOM     18  C   UNL A   1      36.275  23.020  26.411  1.00  0.00     0.011 C 
ATOM     19  C   UNL A   1      35.874  21.449  24.641  1.00  0.00    -0.004 C 
ATOM     20  C   UNL A   1      37.301  23.036  25.267  1.00  0.00    -0.010 C 
ATOM     21  C   UNL A   1      37.173  20.663  24.951  1.00  0.00     0.004 C 
ATOM     22  C   UNL A   1      36.431  22.738  24.048  1.00  0.00     0.007 C 
ATOM     23  C   UNL A   1      38.158  21.765  25.371  1.00  0.00     0.004 C 
ENDBRANCH  16  17
ENDBRANCH  15  16
ENDBRANCH  12  15
ENDBRANCH   6   8
ENDBRANCH   5   6
ENDBRANCH   4   5
ENDBRANCH   3   4
ENDBRANCH   2   3
ENDBRANCH   1   2
BRANCH   1  24
ATOM     24  C   UNL A   1      33.136  29.204  24.945  1.00  0.00     0.188 C 
BRANCH  24  25
ATOM     25  O   UNL A   1      32.640  30.207  25.806  1.00  0.00    -0.376 OA
BRANCH  25  26
ATOM     26  C   UNL A   1      33.194  30.269  27.101  1.00  0.00     0.202 C 
BRANCH  26  27
ATOM     27  C   UNL A   1      33.703  31.680  27.429  1.00  0.00     0.261 C 
BRANCH  27  28
ATOM     28  O   UNL A   1      34.420  31.688  28.689  1.00  0.00    -0.460 OA
BRANCH  28  29
ATOM     29  C   UNL A   1      35.808  31.712  28.634  1.00  0.00     0.338 C 
ATOM     30  O   UNL A   1      36.444  32.676  28.308  1.00  0.00    -0.246 OA
BRANCH  29  31
ATOM     31  C   UNL A   1      36.348  30.293  28.761  1.00  0.00     0.060 A 
ATOM     32  C   UNL A   1      36.905  29.701  29.906  1.00  0.00     0.016 A 
ATOM     33  C   UNL A   1      36.718  29.715  27.602  1.00  0.00     0.016 A 
ATOM     34  C   UNL A   1      37.953  28.660  29.826  1.00  0.00     0.010 A 
ATOM     35  C   UNL A   1      37.948  29.054  27.654  1.00  0.00     0.010 A 
ATOM     36  C   UNL A   1      38.612  28.318  28.635  1.00  0.00    -0.014 A 
BRANCH  36  37
ATOM     37  C   UNL A   1      40.033  27.521  28.415  1.00  0.00     0.031 A 
ATOM     38  C   UNL A   1      40.509  25.947  28.118  1.00  0.00     0.074 A 
ATOM     39  C   UNL A   1      41.138  28.278  28.581  1.00  0.00     0.049 A 
ATOM     40  N   UNL A   1      41.396  25.251  28.829  1.00  0.00    -0.248 NA
ATOM     41  C   UNL A   1      40.034  25.036  27.033  1.00  0.00     0.031 C 
ATOM     42  C   UNL A   1      42.525  27.914  28.301  1.00  0.00     0.029 A 
ATOM     43  N   UNL A   1      41.228  29.527  29.192  1.00  0.00    -0.354 N 
ATOM     44  C   UNL A   1      41.471  23.942  28.281  1.00  0.00     0.074 A 
ATOM     45  C   UNL A   1      40.390  23.831  27.421  1.00  0.00     0.031 C 
ATOM     46  C   UNL A   1      43.323  28.744  28.988  1.00  0.00     0.029 A 
ATOM     47  C   UNL A   1      42.473  29.571  29.824  1.00  0.00     0.049 A 
ATOM     48  H   UNL A   1      40.548  30.238  29.181  1.00  0.00     0.167 HD
ATOM     49  C   UNL A   1      42.509  23.056  28.237  1.00  0.00     0.034 A 
ATOM     50  C   UNL A   1      42.551  29.717  31.176  1.00  0.00     0.034 A 
ATOM     51  C   UNL A   1      43.657  23.688  28.832  1.00  0.00     0.049 A 
ATOM     52  C   UNL A   1      43.314  28.596  31.855  1.00  0.00     0.074 A 
ATOM     53  C   UNL A   1      44.660  24.479  28.301  1.00  0.00     0.029 A 
ATOM     54  N   UNL A   1      43.640  23.909  30.192  1.00  0.00    -0.354 N 
ATOM     55  N   UNL A   1      43.732  27.508  31.262  1.00  0.00    -0.248 NA
ATOM     56  C   UNL A   1      43.686  28.628  33.265  1.00  0.00     0.031 C 
ATOM     57  C   UNL A   1      45.155  25.295  29.357  1.00  0.00     0.029 A 
ATOM     58  C   UNL A   1      44.503  24.936  30.525  1.00  0.00     0.049 A 
ATOM     59  H   UNL A   1      43.091  23.406  30.836  1.00  0.00     0.167 HD
ATOM     60  C   UNL A   1      44.274  26.652  32.191  1.00  0.00     0.074 A 
ATOM     61  C   UNL A   1      44.308  27.445  33.408  1.00  0.00     0.031 C 
ATOM     62  C   UNL A   1      44.584  25.346  31.917  1.00  0.00     0.034 A 
BRANCH  49  63
ATOM     63  C   UNL A   1      42.547  21.810  27.278  1.00  0.00     0.023 A 
ATOM     64  C   UNL A   1      41.590  20.796  27.467  1.00  0.00     0.012 A 
ATOM     65  C   UNL A   1      43.488  21.525  26.237  1.00  0.00     0.148 A 
ATOM     66  C   UNL A   1      41.652  19.559  26.786  1.00  0.00     0.002 A 
ATOM     67  C   UNL A   1      43.644  20.251  25.668  1.00  0.00     0.091 A 
ATOM     68  F   UNL A   1      44.141  22.520  25.634  1.00  0.00    -0.205 F 
ATOM     69  C   UNL A   1      42.711  19.260  25.937  1.00  0.00     0.022 A 
BRANCH  67  70
ATOM     70  S   UNL A   1      45.076  19.803  24.649  1.00  0.00     0.127 S 
ATOM     71  O   UNL A   1      45.522  18.554  25.271  1.00  0.00    -0.237 OA
ATOM     72  O   UNL A   1      44.490  19.638  23.320  1.00  0.00    -0.237 OA
ATOM     73  O   UNL A   1      46.030  20.898  24.783  1.00  0.00    -0.744 OA
ENDBRANCH  67  70
ENDBRANCH  49  63
BRANCH  50  74
ATOM     74  C   UNL A   1      41.479  30.603  31.750  1.00  0.00     0.023 A 
ATOM     75  C   UNL A   1      41.294  31.851  31.095  1.00  0.00     0.012 A 
ATOM     76  C   UNL A   1      40.480  30.179  32.650  1.00  0.00     0.148 A 
ATOM     77  C   UNL A   1      40.115  32.588  31.223  1.00  0.00     0.002 A 
ATOM     78  C   UNL A   1      39.305  30.938  32.794  1.00  0.00     0.091 A 
ATOM     79  F   UNL A   1      40.646  29.016  33.293  1.00  0.00    -0.205 F 
ATOM     80  C   UNL A   1      39.111  32.119  32.055  1.00  0.00     0.022 A 
BRANCH  78  81
ATOM     81  S   UNL A   1      37.906  30.402  33.803  1.00  0.00     0.127 S 
ATOM     82  O   UNL A   1      37.628  29.085  33.233  1.00  0.00    -0.237 OA
ATOM     83  O   UNL A   1      38.477  30.367  35.150  1.00  0.00    -0.237 OA
ATOM     84  O   UNL A   1      36.877  31.412  33.611  1.00  0.00    -0.744 OA
ENDBRANCH  78  81
ENDBRANCH  50  74
BRANCH  62  85
ATOM     85  C   UNL A   1      44.912  24.277  32.950  1.00  0.00     0.023 A 
ATOM     86  C   UNL A   1      44.075  23.170  33.172  1.00  0.00     0.012 A 
ATOM     87  C   UNL A   1      46.185  24.245  33.583  1.00  0.00     0.148 A 
ATOM     88  C   UNL A   1      44.447  22.116  34.015  1.00  0.00     0.002 A 
ATOM     89  C   UNL A   1      46.603  23.133  34.311  1.00  0.00     0.091 A 
ATOM     90  F   UNL A   1      47.015  25.296  33.485  1.00  0.00    -0.205 F 
ATOM     91  C   UNL A   1      45.723  22.081  34.562  1.00  0.00     0.022 A 
BRANCH  89  92
ATOM     92  S   UNL A   1      48.338  22.951  34.757  1.00  0.00     0.127 S 
ATOM     93  O   UNL A   1      48.399  23.609  36.059  1.00  0.00    -0.237 OA
ATOM     94  O   UNL A   1      48.512  21.497  34.803  1.00  0.00    -0.237 OA
ATOM     95  O   UNL A   1      49.054  23.599  33.665  1.00  0.00    -0.744 OA
ENDBRANCH  89  92
ENDBRANCH  62  85
ENDBRANCH  36  37
ENDBRANCH  29  31
ENDBRANCH  28  29
ENDBRANCH  27  28
ENDBRANCH  26  27
ENDBRANCH  25  26
ENDBRANCH  24  25
ENDBRANCH   1  24
TORSDOF 23
ENDMDL
MODEL 2
REMARK VINA RESULT:     -11.4      1.633      2.761
REMARK SMILES Cc1cccc(C(=O)OCCOCCOCCOC(=O)c2ccc(-c3c4nc(c(-c5cccc(S(=O)(=O)[O-])c5F)c5ccc([nH]5)c(-c5cccc(S(=O)(=O)[O-])c5F)c5nc(c(-c6cccc(S(=O)(=O)[O-])c6F)c6ccc3[nH]6)C=C5)C=C4)cc2)c1OC[C@@H]1C[C@H]2CC[C@@H]1C2
REMARK SMILES IDX 13 1 12 2 11 3 10 4 9 5 7 6 8 7 6 8 1 9 2 10 3 11 84 12 4 13
REMARK SMILES IDX 5 14 85 15 86 16 87 17 88 18 92 19 89 20 91 21 93 22 90 23
REMARK SMILES IDX 14 24 15 25 16 26 17 27 18 28 19 29 20 30 21 31 22 32 83 33
REMARK SMILES IDX 23 34 82 35 24 36 25 37 26 38 76 39 27 40 81 41 75 42 77 43
REMARK SMILES IDX 28 44 80 45 74 46 73 47 29 49 61 50 41 51 60 52 42 53 45 54
REMARK SMILES IDX 59 55 78 56 43 57 44 58 58 60 79 61 46 62 30 63 31 64 39 65
REMARK SMILES IDX 32 66 34 67 40 68 33 69 35 70 36 71 37 72 38 73 62 74 63 75
REMARK SMILES IDX 71 76 64 77 66 78 72 79 65 80 67 81 68 82 69 83 70 84 47 85
REMARK SMILES IDX 48 86 56 87 49 88 51 89 57 90 50 91 52 92 53 93 54 94 55 95
REMARK H PARENT 77 48 45 59
REMARK Flexibility Score: inf
ROOT
ATOM      1  C   UNL A   1      30.273  29.817  23.831  1.00  0.00     0.188 C 
ENDROOT
BRANCH   1   2
ATOM      2  O   UNL A   1      29.080  29.043  23.574  1.00  0.00    -0.376 OA
BRANCH   2   3
ATOM      3  C   UNL A   1      29.074  27.689  23.103  1.00  0.00     0.202 C 
BRANCH   3   4
ATOM      4  C   UNL A   1      29.159  26.308  24.052  1.00  0.00     0.261 C 
BRANCH   4   5
ATOM      5  O   UNL A   1      29.756  26.076  25.641  1.00  0.00    -0.460 OA
BRANCH   5   6
ATOM      6  C   UNL A   1      30.978  25.930  26.364  1.00  0.00     0.342 C 
ATOM      7  O   UNL A   1      31.466  26.659  27.221  1.00  0.00    -0.246 OA
BRANCH   6   8
ATOM      8  C   UNL A   1      31.925  24.798  26.310  1.00  0.00     0.102 A 
ATOM      9  C   UNL A   1      35.573  24.029  25.605  1.00  0.00     0.048 C 
ATOM     10  C   UNL A   1      34.172  23.923  26.126  1.00  0.00    -0.008 A 
ATOM     11  C   UNL A   1      33.801  22.734  26.782  1.00  0.00     0.007 A 
ATOM     12  C   UNL A   1      33.259  24.997  26.004  1.00  0.00     0.136 A 
ATOM     13  C   UNL A   1      32.529  22.604  27.305  1.00  0.00     0.001 A 
ATOM     14  C   UNL A   1      31.614  23.631  27.078  1.00  0.00     0.019 A 
BRANCH  12  15
ATOM     15  O   UNL A   1      33.787  26.216  25.682  1.00  0.00    -0.492 OA
BRANCH  15  16
ATOM     16  C   UNL A   1      33.421  26.774  24.398  1.00  0.00     0.233 C 
BRANCH  16  17
ATOM     17  C   UNL A   1      33.646  25.947  23.106  1.00  0.00     0.030 C 
ATOM     18  C   UNL A   1      33.287  26.797  21.859  1.00  0.00     0.011 C 
ATOM     19  C   UNL A   1      32.759  24.703  22.906  1.00  0.00    -0.004 C 
ATOM     20  C   UNL A   1      32.231  25.945  21.137  1.00  0.00    -0.010 C 
ATOM     21  C   UNL A   1      33.318  23.887  21.713  1.00  0.00     0.004 C 
ATOM     22  C   UNL A   1      31.490  25.295  22.302  1.00  0.00     0.007 C 
ATOM     23  C   UNL A   1      32.940  24.743  20.495  1.00  0.00     0.004 C 
ENDBRANCH  16  17
ENDBRANCH  15  16
ENDBRANCH  12  15
ENDBRANCH   6   8
ENDBRANCH   5   6
ENDBRANCH   4   5
ENDBRANCH   3   4
ENDBRANCH   2   3
ENDBRANCH   1   2
BRANCH   1  24
ATOM     24  C   UNL A   1      31.326  29.368  24.842  1.00  0.00     0.188 C 
BRANCH  24  25
ATOM     25  O   UNL A   1      31.622  30.449  25.699  1.00  0.00    -0.376 OA
BRANCH  25  26
ATOM     26  C   UNL A   1      32.545  30.208  26.737  1.00  0.00     0.202 C 
BRANCH  26  27
ATOM     27  C   UNL A   1      33.428  31.435  27.002  1.00  0.00     0.261 C 
BRANCH  27  28
ATOM     28  O   UNL A   1      34.077  31.331  28.295  1.00  0.00    -0.460 OA
BRANCH  28  29
ATOM     29  C   UNL A   1      35.446  31.568  28.344  1.00  0.00     0.338 C 
ATOM     30  O   UNL A   1      35.971  32.533  27.861  1.00  0.00    -0.246 OA
BRANCH  29  31
ATOM     31  C   UNL A   1      36.163  30.314  28.827  1.00  0.00     0.060 A 
ATOM     32  C   UNL A   1      37.015  30.203  29.938  1.00  0.00     0.016 A 
ATOM     33  C   UNL A   1      36.346  29.362  27.891  1.00  0.00     0.016 A 
ATOM     34  C   UNL A   1      38.138  29.241  29.980  1.00  0.00     0.010 A 
ATOM     35  C   UNL A   1      37.629  28.808  27.876  1.00  0.00     0.010 A 
ATOM     36  C   UNL A   1      38.566  28.507  28.863  1.00  0.00    -0.014 A 
BRANCH  36  37
ATOM     37  C   UNL A   1      39.993  27.732  28.603  1.00  0.00     0.031 A 
ATOM     38  C   UNL A   1      40.484  26.167  28.282  1.00  0.00     0.074 A 
ATOM     39  C   UNL A   1      41.091  28.504  28.749  1.00  0.00     0.049 A 
ATOM     40  N   UNL A   1      41.397  25.479  28.966  1.00  0.00    -0.248 NA
ATOM     41  C   UNL A   1      39.996  25.259  27.200  1.00  0.00     0.031 C 
ATOM     42  C   UNL A   1      42.476  28.162  28.434  1.00  0.00     0.029 A 
ATOM     43  N   UNL A   1      41.178  29.749  29.369  1.00  0.00    -0.354 N 
ATOM     44  C   UNL A   1      41.478  24.175  28.406  1.00  0.00     0.074 A 
ATOM     45  C   UNL A   1      40.378  24.056  27.569  1.00  0.00     0.031 C 
ATOM     46  C   UNL A   1      43.278  28.998  29.109  1.00  0.00     0.029 A 
ATOM     47  C   UNL A   1      42.436  29.806  29.972  1.00  0.00     0.049 A 
ATOM     48  H   UNL A   1      40.488  30.450  29.380  1.00  0.00     0.167 HD
ATOM     49  C   UNL A   1      42.527  23.305  28.330  1.00  0.00     0.034 A 
ATOM     50  C   UNL A   1      42.545  29.941  31.323  1.00  0.00     0.034 A 
ATOM     51  C   UNL A   1      43.680  23.948  28.903  1.00  0.00     0.049 A 
ATOM     52  C   UNL A   1      43.338  28.826  31.975  1.00  0.00     0.074 A 
ATOM     53  C   UNL A   1      44.659  24.758  28.355  1.00  0.00     0.029 A 
ATOM     54  N   UNL A   1      43.692  24.158  30.265  1.00  0.00    -0.354 N 
ATOM     55  N   UNL A   1      43.758  27.749  31.363  1.00  0.00    -0.248 NA
ATOM     56  C   UNL A   1      43.743  28.852  33.376  1.00  0.00     0.031 C 
ATOM     57  C   UNL A   1      45.167  25.572  29.406  1.00  0.00     0.029 A 
ATOM     58  C   UNL A   1      44.548  25.195  30.586  1.00  0.00     0.049 A 
ATOM     59  H   UNL A   1      43.165  23.642  30.917  1.00  0.00     0.167 HD
ATOM     60  C   UNL A   1      44.333  26.894  32.271  1.00  0.00     0.074 A 
ATOM     61  C   UNL A   1      44.385  27.676  33.493  1.00  0.00     0.031 C 
ATOM     62  C   UNL A   1      44.656  25.594  31.979  1.00  0.00     0.034 A 
BRANCH  49  63
ATOM     63  C   UNL A   1      42.561  22.067  27.360  1.00  0.00     0.023 A 
ATOM     64  C   UNL A   1      41.677  21.001  27.611  1.00  0.00     0.012 A 
ATOM     65  C   UNL A   1      43.434  21.839  26.248  1.00  0.00     0.148 A 
ATOM     66  C   UNL A   1      41.754  19.773  26.917  1.00  0.00     0.002 A 
ATOM     67  C   UNL A   1      43.616  20.579  25.657  1.00  0.00     0.091 A 
ATOM     68  F   UNL A   1      43.985  22.871  25.606  1.00  0.00    -0.205 F 
ATOM     69  C   UNL A   1      42.761  19.536  25.988  1.00  0.00     0.022 A 
BRANCH  67  70
ATOM     70  S   UNL A   1      44.988  20.214  24.530  1.00  0.00     0.127 S 
ATOM     71  O   UNL A   1      44.721  21.120  23.410  1.00  0.00    -0.237 OA
ATOM     72  O   UNL A   1      46.163  20.570  25.324  1.00  0.00    -0.237 OA
ATOM     73  O   UNL A   1      44.868  18.802  24.184  1.00  0.00    -0.744 OA
ENDBRANCH  67  70
ENDBRANCH  49  63
BRANCH  50  74
ATOM     74  C   UNL A   1      41.473  30.807  31.930  1.00  0.00     0.023 A 
ATOM     75  C   UNL A   1      41.340  32.107  31.368  1.00  0.00     0.012 A 
ATOM     76  C   UNL A   1      40.435  30.341  32.761  1.00  0.00     0.148 A 
ATOM     77  C   UNL A   1      40.174  32.860  31.515  1.00  0.00     0.002 A 
ATOM     78  C   UNL A   1      39.274  31.115  32.925  1.00  0.00     0.091 A 
ATOM     79  F   UNL A   1      40.552  29.128  33.316  1.00  0.00    -0.205 F 
ATOM     80  C   UNL A   1      39.132  32.354  32.275  1.00  0.00     0.022 A 
BRANCH  78  81
ATOM     81  S   UNL A   1      37.829  30.539  33.844  1.00  0.00     0.127 S 
ATOM     82  O   UNL A   1      36.798  31.457  33.364  1.00  0.00    -0.237 OA
ATOM     83  O   UNL A   1      37.677  29.162  33.371  1.00  0.00    -0.237 OA
ATOM     84  O   UNL A   1      38.186  30.657  35.249  1.00  0.00    -0.744 OA
ENDBRANCH  78  81
ENDBRANCH  50  74
BRANCH  62  85
ATOM     85  C   UNL A   1      45.022  24.521  32.995  1.00  0.00     0.023 A 
ATOM     86  C   UNL A   1      44.197  23.411  33.242  1.00  0.00     0.012 A 
ATOM     87  C   UNL A   1      46.318  24.491  33.583  1.00  0.00     0.148 A 
ATOM     88  C   UNL A   1      44.602  22.355  34.067  1.00  0.00     0.002 A 
ATOM     89  C   UNL A   1      46.764  23.377  34.290  1.00  0.00     0.091 A 
ATOM     90  F   UNL A   1      47.140  25.545  33.460  1.00  0.00    -0.205 F 
ATOM     91  C   UNL A   1      45.896  22.321  34.568  1.00  0.00     0.022 A 
BRANCH  89  92
ATOM     92  S   UNL A   1      48.514  23.198  34.674  1.00  0.00     0.127 S 
ATOM     93  O   UNL A   1      49.141  24.106  33.718  1.00  0.00    -0.237 OA
ATOM     94  O   UNL A   1      48.589  23.639  36.069  1.00  0.00    -0.237 OA
ATOM     95  O   UNL A   1      48.774  21.775  34.489  1.00  0.00    -0.744 OA
ENDBRANCH  89  92
ENDBRANCH  62  85
ENDBRANCH  36  37
ENDBRANCH  29  31
ENDBRANCH  28  29
ENDBRANCH  27  28
ENDBRANCH  26  27
ENDBRANCH  25  26
ENDBRANCH  24  25
ENDBRANCH   1  24
TORSDOF 23
ENDMDL
MODEL 3
REMARK VINA RESULT:     -11.3      2.333      3.525
REMARK SMILES Cc1cccc(C(=O)OCCOCCOCCOC(=O)c2ccc(-c3c4nc(c(-c5cccc(S(=O)(=O)[O-])c5F)c5ccc([nH]5)c(-c5cccc(S(=O)(=O)[O-])c5F)c5nc(c(-c6cccc(S(=O)(=O)[O-])c6F)c6ccc3[nH]6)C=C5)C=C4)cc2)c1OC[C@@H]1C[C@H]2CC[C@@H]1C2
REMARK SMILES IDX 13 1 12 2 11 3 10 4 9 5 7 6 8 7 6 8 1 9 2 10 3 11 84 12 4 13
REMARK SMILES IDX 5 14 85 15 86 16 87 17 88 18 92 19 89 20 91 21 93 22 90 23
REMARK SMILES IDX 14 24 15 25 16 26 17 27 18 28 19 29 20 30 21 31 22 32 83 33
REMARK SMILES IDX 23 34 82 35 24 36 25 37 26 38 76 39 27 40 81 41 75 42 77 43
REMARK SMILES IDX 28 44 80 45 74 46 73 47 29 49 61 50 41 51 60 52 42 53 45 54
REMARK SMILES IDX 59 55 78 56 43 57 44 58 58 60 79 61 46 62 30 63 31 64 39 65
REMARK SMILES IDX 32 66 34 67 40 68 33 69 35 70 36 71 37 72 38 73 62 74 63 75
REMARK SMILES IDX 71 76 64 77 66 78 72 79 65 80 67 81 68 82 69 83 70 84 47 85
REMARK SMILES IDX 48 86 56 87 49 88 51 89 57 90 50 91 52 92 53 93 54 94 55 95
REMARK H PARENT 77 48 45 59
REMARK Flexibility Score: inf
ROOT
ATOM      1  C   UNL A   1      30.357  28.677  23.608  1.00  0.00     0.188 C 
ENDROOT
BRANCH   1   2
ATOM      2  O   UNL A   1      29.649  27.575  24.217  1.00  0.00    -0.376 OA
BRANCH   2   3
ATOM      3  C   UNL A   1      29.690  26.221  23.745  1.00  0.00     0.202 C 
BRANCH   3   4
ATOM      4  C   UNL A   1      30.954  25.137  23.950  1.00  0.00     0.261 C 
BRANCH   4   5
ATOM      5  O   UNL A   1      32.183  24.633  22.868  1.00  0.00    -0.460 OA
BRANCH   5   6
ATOM      6  C   UNL A   1      33.298  23.746  22.780  1.00  0.00     0.342 C 
ATOM      7  O   UNL A   1      33.759  23.170  21.801  1.00  0.00    -0.246 OA
BRANCH   6   8
ATOM      8  C   UNL A   1      34.234  23.369  23.860  1.00  0.00     0.102 A 
ATOM      9  C   UNL A   1      34.292  21.726  27.279  1.00  0.00     0.048 C 
ATOM     10  C   UNL A   1      34.724  22.231  25.936  1.00  0.00    -0.008 A 
ATOM     11  C   UNL A   1      36.092  22.155  25.613  1.00  0.00     0.007 A 
ATOM     12  C   UNL A   1      33.787  22.729  25.001  1.00  0.00     0.136 A 
ATOM     13  C   UNL A   1      36.532  22.580  24.375  1.00  0.00     0.001 A 
ATOM     14  C   UNL A   1      35.607  23.167  23.512  1.00  0.00     0.019 A 
BRANCH  12  15
ATOM     15  O   UNL A   1      32.471  22.448  25.244  1.00  0.00    -0.492 OA
BRANCH  15  16
ATOM     16  C   UNL A   1      31.995  21.138  24.854  1.00  0.00     0.233 C 
BRANCH  16  17
ATOM     17  C   UNL A   1      32.970  20.125  24.202  1.00  0.00     0.030 C 
ATOM     18  C   UNL A   1      32.282  19.414  23.008  1.00  0.00     0.011 C 
ATOM     19  C   UNL A   1      33.419  18.929  25.066  1.00  0.00    -0.004 C 
ATOM     20  C   UNL A   1      32.403  17.923  23.362  1.00  0.00    -0.010 C 
ATOM     21  C   UNL A   1      34.576  18.203  24.335  1.00  0.00     0.004 C 
ATOM     22  C   UNL A   1      32.273  17.940  24.882  1.00  0.00     0.007 C 
ATOM     23  C   UNL A   1      33.867  17.500  23.167  1.00  0.00     0.004 C 
ENDBRANCH  16  17
ENDBRANCH  15  16
ENDBRANCH  12  15
ENDBRANCH   6   8
ENDBRANCH   5   6
ENDBRANCH   4   5
ENDBRANCH   3   4
ENDBRANCH   2   3
ENDBRANCH   1   2
BRANCH   1  24
ATOM     24  C   UNL A   1      31.873  28.826  23.720  1.00  0.00     0.188 C 
BRANCH  24  25
ATOM     25  O   UNL A   1      32.237  28.747  25.081  1.00  0.00    -0.376 OA
BRANCH  25  26
ATOM     26  C   UNL A   1      33.298  29.571  25.507  1.00  0.00     0.202 C 
BRANCH  26  27
ATOM     27  C   UNL A   1      32.840  30.571  26.578  1.00  0.00     0.261 C 
BRANCH  27  28
ATOM     28  O   UNL A   1      33.525  30.331  27.833  1.00  0.00    -0.460 OA
BRANCH  28  29
ATOM     29  C   UNL A   1      34.742  30.972  28.030  1.00  0.00     0.338 C 
ATOM     30  O   UNL A   1      34.939  32.123  27.753  1.00  0.00    -0.246 OA
BRANCH  29  31
ATOM     31  C   UNL A   1      35.813  29.941  28.360  1.00  0.00     0.060 A 
ATOM     32  C   UNL A   1      36.449  29.751  29.598  1.00  0.00     0.016 A 
ATOM     33  C   UNL A   1      36.508  29.477  27.303  1.00  0.00     0.016 A 
ATOM     34  C   UNL A   1      37.840  29.259  29.704  1.00  0.00     0.010 A 
ATOM     35  C   UNL A   1      37.890  29.417  27.503  1.00  0.00     0.010 A 
ATOM     36  C   UNL A   1      38.699  29.129  28.601  1.00  0.00    -0.014 A 
BRANCH  36  37
ATOM     37  C   UNL A   1      40.338  29.005  28.559  1.00  0.00     0.031 A 
ATOM     38  C   UNL A   1      41.457  27.847  28.113  1.00  0.00     0.074 A 
ATOM     39  C   UNL A   1      41.000  30.062  29.078  1.00  0.00     0.049 A 
ATOM     40  N   UNL A   1      42.454  27.391  28.870  1.00  0.00    -0.248 NA
ATOM     41  C   UNL A   1      41.543  27.110  26.815  1.00  0.00     0.031 C 
ATOM     42  C   UNL A   1      42.435  30.326  29.042  1.00  0.00     0.029 A 
ATOM     43  N   UNL A   1      40.486  31.068  29.893  1.00  0.00    -0.354 N 
ATOM     44  C   UNL A   1      43.133  26.378  28.141  1.00  0.00     0.074 A 
ATOM     45  C   UNL A   1      42.314  26.074  27.065  1.00  0.00     0.031 C 
ATOM     46  C   UNL A   1      42.724  31.208  30.010  1.00  0.00     0.029 A 
ATOM     47  C   UNL A   1      41.509  31.428  30.773  1.00  0.00     0.049 A 
ATOM     48  H   UNL A   1      39.579  31.450  29.857  1.00  0.00     0.167 HD
ATOM     49  C   UNL A   1      44.442  25.988  28.171  1.00  0.00     0.034 A 
ATOM     50  C   UNL A   1      41.348  31.267  32.115  1.00  0.00     0.034 A 
ATOM     51  C   UNL A   1      45.139  26.846  29.093  1.00  0.00     0.049 A 
ATOM     52  C   UNL A   1      42.413  30.392  32.745  1.00  0.00     0.074 A 
ATOM     53  C   UNL A   1      45.783  28.059  28.925  1.00  0.00     0.029 A 
ATOM     54  N   UNL A   1      44.860  26.715  30.436  1.00  0.00    -0.354 N 
ATOM     55  N   UNL A   1      43.316  29.716  32.083  1.00  0.00    -0.248 NA
ATOM     56  C   UNL A   1      42.556  30.226  34.188  1.00  0.00     0.031 C 
ATOM     57  C   UNL A   1      45.757  28.726  30.182  1.00  0.00     0.029 A 
ATOM     58  C   UNL A   1      45.170  27.881  31.109  1.00  0.00     0.049 A 
ATOM     59  H   UNL A   1      44.491  25.904  30.856  1.00  0.00     0.167 HD
ATOM     60  C   UNL A   1      44.041  28.935  32.949  1.00  0.00     0.074 A 
ATOM     61  C   UNL A   1      43.589  29.369  34.260  1.00  0.00     0.031 C 
ATOM     62  C   UNL A   1      44.896  27.949  32.535  1.00  0.00     0.034 A 
BRANCH  49  63
ATOM     63  C   UNL A   1      45.114  25.115  27.049  1.00  0.00     0.023 A 
ATOM     64  C   UNL A   1      46.067  25.726  26.213  1.00  0.00     0.012 A 
ATOM     65  C   UNL A   1      44.844  23.750  26.710  1.00  0.00     0.148 A 
ATOM     66  C   UNL A   1      46.589  25.087  25.066  1.00  0.00     0.002 A 
ATOM     67  C   UNL A   1      45.241  23.165  25.498  1.00  0.00     0.091 A 
ATOM     68  F   UNL A   1      44.348  22.917  27.628  1.00  0.00    -0.205 F 
ATOM     69  C   UNL A   1      46.130  23.835  24.671  1.00  0.00     0.022 A 
BRANCH  67  70
ATOM     70  S   UNL A   1      44.571  21.587  24.907  1.00  0.00     0.127 S 
ATOM     71  O   UNL A   1      44.606  21.758  23.452  1.00  0.00    -0.237 OA
ATOM     72  O   UNL A   1      45.532  20.613  25.422  1.00  0.00    -0.237 OA
ATOM     73  O   UNL A   1      43.222  21.486  25.453  1.00  0.00    -0.744 OA
ENDBRANCH  67  70
ENDBRANCH  49  63
BRANCH  50  74
ATOM     74  C   UNL A   1      39.941  31.519  32.589  1.00  0.00     0.023 A 
ATOM     75  C   UNL A   1      39.196  30.362  32.948  1.00  0.00     0.012 A 
ATOM     76  C   UNL A   1      39.435  32.774  32.981  1.00  0.00     0.148 A 
ATOM     77  C   UNL A   1      38.070  30.433  33.771  1.00  0.00     0.002 A 
ATOM     78  C   UNL A   1      38.287  32.840  33.788  1.00  0.00     0.091 A 
ATOM     79  F   UNL A   1      40.112  33.876  32.633  1.00  0.00    -0.205 F 
ATOM     80  C   UNL A   1      37.629  31.671  34.209  1.00  0.00     0.022 A 
BRANCH  78  81
ATOM     81  S   UNL A   1      37.650  34.389  34.467  1.00  0.00     0.127 S 
ATOM     82  O   UNL A   1      36.916  34.925  33.323  1.00  0.00    -0.237 OA
ATOM     83  O   UNL A   1      36.800  33.930  35.567  1.00  0.00    -0.237 OA
ATOM     84  O   UNL A   1      38.821  35.143  34.886  1.00  0.00    -0.744 OA
ENDBRANCH  78  81
ENDBRANCH  50  74
BRANCH  62  85
ATOM     85  C   UNL A   1      45.503  26.870  33.422  1.00  0.00     0.023 A 
ATOM     86  C   UNL A   1      46.814  26.961  33.920  1.00  0.00     0.012 A 
ATOM     87  C   UNL A   1      44.694  25.828  33.955  1.00  0.00     0.148 A 
ATOM     88  C   UNL A   1      47.319  26.044  34.849  1.00  0.00     0.002 A 
ATOM     89  C   UNL A   1      45.159  25.003  34.977  1.00  0.00     0.091 A 
ATOM     90  F   UNL A   1      43.456  25.624  33.478  1.00  0.00    -0.205 F 
ATOM     91  C   UNL A   1      46.484  25.082  35.401  1.00  0.00     0.022 A 
BRANCH  89  92
ATOM     92  S   UNL A   1      44.003  23.974  35.896  1.00  0.00     0.127 S 
ATOM     93  O   UNL A   1      43.738  22.884  34.961  1.00  0.00    -0.237 OA
ATOM     94  O   UNL A   1      44.779  23.586  37.076  1.00  0.00    -0.237 OA
ATOM     95  O   UNL A   1      42.888  24.868  36.189  1.00  0.00    -0.744 OA
ENDBRANCH  89  92
ENDBRANCH  62  85
ENDBRANCH  36  37
ENDBRANCH  29  31
ENDBRANCH  28  29
ENDBRANCH  27  28
ENDBRANCH  26  27
ENDBRANCH  25  26
ENDBRANCH  24  25
ENDBRANCH   1  24
TORSDOF 23
ENDMDL
