MODEL 1
REMARK VINA RESULT:     -10.7      0.000      0.000
REMARK SMILES O=C(OCCOCCOCCOC(=O)[C@H]1CC=CC[C@H]1C(=O)Nc1ccc(S(=O)(=O)N2CCCC2)cc1)c1ccc(-c2c3nc(c(-c4cccc(S(=O)(=O)[O-])c4F)c4ccc([nH]4)c(-c4cccc(S(=O)(=O)[O-])c4F)c4nc(c(-c5cccc(S(=O)(=O)[O-])c5F)c5ccc2[nH]5)C=C4)C=C3)cc1
REMARK SMILES IDX 8 1 7 2 6 3 5 4 4 5 3 6 2 7 1 8 38 9 39 10 100 11 40 12
REMARK SMILES IDX 99 13 41 14 42 15 43 16 93 17 44 18 98 19 92 20 94 21 45 22
REMARK SMILES IDX 97 23 91 24 90 25 46 27 78 28 58 29 77 30 59 31 62 32 76 33
REMARK SMILES IDX 95 34 60 35 61 36 75 38 96 39 63 40 47 41 48 42 56 43 49 44
REMARK SMILES IDX 51 45 57 46 50 47 52 48 53 49 54 50 55 51 79 52 80 53 88 54
REMARK SMILES IDX 81 55 83 56 89 57 82 58 84 59 85 60 86 61 87 62 64 63 65 64
REMARK SMILES IDX 73 65 66 66 68 67 74 68 67 69 69 70 70 71 71 72 72 73 9 74
REMARK SMILES IDX 10 75 11 76 12 77 13 78 14 79 15 80 16 81 20 82 17 83 19 84
REMARK SMILES IDX 18 85 21 86 22 87 23 88 24 90 25 91 37 92 26 93 36 94 27 95
REMARK SMILES IDX 28 96 29 97 30 98 31 99 32 100 35 101 33 102 34 103
REMARK H PARENT 94 26 62 37 23 89
REMARK Flexibility Score: inf
ROOT
ATOM      1  C   UNL A   1      27.987  30.868  23.383  1.00  0.00     0.188 C 
ENDROOT
BRANCH   1   2
ATOM      2  C   UNL A   1      29.268  31.703  23.408  1.00  0.00     0.188 C 
BRANCH   2   3
ATOM      3  O   UNL A   1      29.535  32.155  24.734  1.00  0.00    -0.376 OA
BRANCH   3   4
ATOM      4  C   UNL A   1      30.656  31.562  25.373  1.00  0.00     0.202 C 
BRANCH   4   5
ATOM      5  C   UNL A   1      31.251  32.402  26.507  1.00  0.00     0.261 C 
BRANCH   5   6
ATOM      6  O   UNL A   1      32.524  31.909  26.960  1.00  0.00    -0.460 OA
BRANCH   6   7
ATOM      7  C   UNL A   1      33.509  32.586  27.607  1.00  0.00     0.338 C 
ATOM      8  O   UNL A   1      33.314  33.768  27.892  1.00  0.00    -0.246 OA
BRANCH   7   9
ATOM      9  C   UNL A   1      34.774  31.946  28.079  1.00  0.00     0.060 A 
ATOM     10  C   UNL A   1      34.931  30.584  28.331  1.00  0.00     0.016 A 
ATOM     11  C   UNL A   1      35.900  32.775  28.222  1.00  0.00     0.016 A 
ATOM     12  C   UNL A   1      36.119  30.077  28.846  1.00  0.00     0.010 A 
ATOM     13  C   UNL A   1      37.120  32.263  28.683  1.00  0.00     0.010 A 
ATOM     14  C   UNL A   1      37.215  30.915  29.049  1.00  0.00    -0.014 A 
BRANCH  14  15
ATOM     15  C   UNL A   1      38.388  30.376  29.770  1.00  0.00     0.031 A 
ATOM     16  C   UNL A   1      38.577  30.754  31.207  1.00  0.00     0.074 A 
ATOM     17  C   UNL A   1      39.189  29.466  29.185  1.00  0.00     0.049 A 
ATOM     18  N   UNL A   1      39.502  30.370  32.043  1.00  0.00    -0.248 NA
ATOM     19  C   UNL A   1      37.581  31.673  31.786  1.00  0.00     0.031 C 
ATOM     20  C   UNL A   1      39.035  28.992  27.814  1.00  0.00     0.029 A 
ATOM     21  N   UNL A   1      40.267  28.766  29.662  1.00  0.00    -0.354 N 
ATOM     22  C   UNL A   1      39.229  31.036  33.230  1.00  0.00     0.074 A 
ATOM     23  C   UNL A   1      38.045  31.834  33.016  1.00  0.00     0.031 C 
ATOM     24  C   UNL A   1      39.968  28.059  27.564  1.00  0.00     0.029 A 
ATOM     25  C   UNL A   1      40.817  27.907  28.737  1.00  0.00     0.049 A 
ATOM     26  H   UNL A   1      40.614  28.867  30.577  1.00  0.00     0.167 HD
ATOM     27  C   UNL A   1      39.915  30.988  34.394  1.00  0.00     0.034 A 
ATOM     28  C   UNL A   1      41.897  27.103  28.825  1.00  0.00     0.034 A 
ATOM     29  C   UNL A   1      41.094  30.193  34.587  1.00  0.00     0.049 A 
ATOM     30  C   UNL A   1      42.659  27.096  30.123  1.00  0.00     0.074 A 
ATOM     31  C   UNL A   1      41.911  30.117  35.698  1.00  0.00     0.029 A 
ATOM     32  N   UNL A   1      41.629  29.340  33.632  1.00  0.00    -0.354 N 
ATOM     33  N   UNL A   1      42.374  27.714  31.245  1.00  0.00    -0.248 NA
ATOM     34  C   UNL A   1      43.880  26.281  30.176  1.00  0.00     0.031 C 
ATOM     35  C   UNL A   1      42.954  29.230  35.407  1.00  0.00     0.029 A 
ATOM     36  C   UNL A   1      42.769  28.734  34.125  1.00  0.00     0.049 A 
ATOM     37  H   UNL A   1      41.252  29.189  32.735  1.00  0.00     0.167 HD
ATOM     38  C   UNL A   1      43.374  27.359  32.139  1.00  0.00     0.074 A 
ATOM     39  C   UNL A   1      44.244  26.431  31.442  1.00  0.00     0.031 C 
ATOM     40  C   UNL A   1      43.581  27.782  33.411  1.00  0.00     0.034 A 
BRANCH  27  41
ATOM     41  C   UNL A   1      39.415  31.855  35.513  1.00  0.00     0.023 A 
ATOM     42  C   UNL A   1      38.428  31.370  36.396  1.00  0.00     0.012 A 
ATOM     43  C   UNL A   1      39.906  33.165  35.672  1.00  0.00     0.148 A 
ATOM     44  C   UNL A   1      37.916  32.189  37.401  1.00  0.00     0.002 A 
ATOM     45  C   UNL A   1      39.416  33.962  36.698  1.00  0.00     0.091 A 
ATOM     46  F   UNL A   1      40.823  33.612  34.802  1.00  0.00    -0.205 F 
ATOM     47  C   UNL A   1      38.413  33.481  37.556  1.00  0.00     0.022 A 
BRANCH  45  48
ATOM     48  S   UNL A   1      40.020  35.624  37.008  1.00  0.00     0.127 S 
ATOM     49  O   UNL A   1      39.310  35.972  38.237  1.00  0.00    -0.237 OA
ATOM     50  O   UNL A   1      41.456  35.398  37.174  1.00  0.00    -0.237 OA
ATOM     51  O   UNL A   1      39.655  36.411  35.838  1.00  0.00    -0.744 OA
ENDBRANCH  45  48
ENDBRANCH  27  41
BRANCH  28  52
ATOM     52  C   UNL A   1      42.314  26.243  27.676  1.00  0.00     0.023 A 
ATOM     53  C   UNL A   1      43.043  26.805  26.608  1.00  0.00     0.012 A 
ATOM     54  C   UNL A   1      42.000  24.870  27.631  1.00  0.00     0.148 A 
ATOM     55  C   UNL A   1      43.419  26.029  25.508  1.00  0.00     0.002 A 
ATOM     56  C   UNL A   1      42.439  24.087  26.567  1.00  0.00     0.091 A 
ATOM     57  F   UNL A   1      41.280  24.346  28.632  1.00  0.00    -0.205 F 
ATOM     58  C   UNL A   1      43.130  24.667  25.494  1.00  0.00     0.022 A 
BRANCH  56  59
ATOM     59  S   UNL A   1      42.255  22.300  26.568  1.00  0.00     0.127 S 
ATOM     60  O   UNL A   1      41.025  22.124  25.802  1.00  0.00    -0.237 OA
ATOM     61  O   UNL A   1      43.476  21.866  25.889  1.00  0.00    -0.237 OA
ATOM     62  O   UNL A   1      42.197  21.928  27.975  1.00  0.00    -0.744 OA
ENDBRANCH  56  59
ENDBRANCH  28  52
BRANCH  40  63
ATOM     63  C   UNL A   1      44.785  27.234  34.123  1.00  0.00     0.023 A 
ATOM     64  C   UNL A   1      46.006  27.933  34.070  1.00  0.00     0.012 A 
ATOM     65  C   UNL A   1      44.684  26.065  34.900  1.00  0.00     0.148 A 
ATOM     66  C   UNL A   1      47.121  27.458  34.756  1.00  0.00     0.002 A 
ATOM     67  C   UNL A   1      45.786  25.625  35.621  1.00  0.00     0.091 A 
ATOM     68  F   UNL A   1      43.517  25.404  34.913  1.00  0.00    -0.205 F 
ATOM     69  C   UNL A   1      47.007  26.313  35.541  1.00  0.00     0.022 A 
BRANCH  67  70
ATOM     70  S   UNL A   1      45.695  24.220  36.734  1.00  0.00     0.127 S 
ATOM     71  O   UNL A   1      45.095  23.200  35.875  1.00  0.00    -0.237 OA
ATOM     72  O   UNL A   1      47.102  23.992  37.063  1.00  0.00    -0.237 OA
ATOM     73  O   UNL A   1      44.876  24.654  37.857  1.00  0.00    -0.744 OA
ENDBRANCH  67  70
ENDBRANCH  40  63
ENDBRANCH  14  15
ENDBRANCH   7   9
ENDBRANCH   6   7
ENDBRANCH   5   6
ENDBRANCH   4   5
ENDBRANCH   3   4
ENDBRANCH   2   3
ENDBRANCH   1   2
BRANCH   1  74
ATOM     74  O   UNL A   1      28.031  29.708  22.556  1.00  0.00    -0.376 OA
BRANCH  74  75
ATOM     75  C   UNL A   1      27.265  28.575  22.955  1.00  0.00     0.202 C 
BRANCH  75  76
ATOM     76  C   UNL A   1      27.909  27.511  23.856  1.00  0.00     0.261 C 
BRANCH  76  77
ATOM     77  O   UNL A   1      29.110  26.948  23.312  1.00  0.00    -0.463 OA
BRANCH  77  78
ATOM     78  C   UNL A   1      30.022  26.476  24.185  1.00  0.00     0.310 C 
ATOM     79  O   UNL A   1      30.332  25.291  24.277  1.00  0.00    -0.252 OA
BRANCH  78  80
ATOM     80  C   UNL A   1      30.783  27.556  24.941  1.00  0.00     0.116 C 
ATOM     81  C   UNL A   1      31.307  26.879  26.224  1.00  0.00     0.043 C 
ATOM     82  C   UNL A   1      31.740  28.539  24.212  1.00  0.00     0.097 C 
ATOM     83  C   UNL A   1      32.564  27.408  26.813  1.00  0.00    -0.030 C 
ATOM     84  C   UNL A   1      33.046  28.964  24.921  1.00  0.00     0.041 C 
ATOM     85  C   UNL A   1      33.334  28.335  26.240  1.00  0.00    -0.030 C 
BRANCH  82  86
ATOM     86  C   UNL A   1      31.947  28.458  22.693  1.00  0.00     0.228 C 
ATOM     87  O   UNL A   1      31.455  29.357  21.991  1.00  0.00    -0.274 OA
ATOM     88  N   UNL A   1      32.639  27.505  22.003  1.00  0.00    -0.326 N 
ATOM     89  H   UNL A   1      32.829  27.769  21.073  1.00  0.00     0.169 HD
BRANCH  88  90
ATOM     90  C   UNL A   1      33.140  26.232  22.325  1.00  0.00     0.041 A 
ATOM     91  C   UNL A   1      32.609  25.129  21.643  1.00  0.00     0.027 A 
ATOM     92  C   UNL A   1      33.992  25.985  23.386  1.00  0.00     0.027 A 
ATOM     93  C   UNL A   1      32.807  23.826  22.132  1.00  0.00     0.024 A 
ATOM     94  C   UNL A   1      34.183  24.702  23.892  1.00  0.00     0.024 A 
ATOM     95  C   UNL A   1      33.562  23.620  23.295  1.00  0.00     0.082 A 
BRANCH  95  96
ATOM     96  S   UNL A   1      33.650  21.987  24.001  1.00  0.00     0.243 S 
ATOM     97  O   UNL A   1      32.901  21.129  23.103  1.00  0.00    -0.207 OA
ATOM     98  O   UNL A   1      35.053  21.750  24.271  1.00  0.00    -0.207 OA
BRANCH  96  99
ATOM     99  N   UNL A   1      32.832  22.014  25.456  1.00  0.00    -0.198 NA
ATOM    100  C   UNL A   1      31.385  21.855  25.579  1.00  0.00     0.102 C 
ATOM    101  C   UNL A   1      33.372  22.587  26.695  1.00  0.00     0.102 C 
ATOM    102  C   UNL A   1      30.959  22.982  26.502  1.00  0.00     0.018 C 
ATOM    103  C   UNL A   1      32.190  23.313  27.342  1.00  0.00     0.018 C 
ENDBRANCH  96  99
ENDBRANCH  95  96
ENDBRANCH  88  90
ENDBRANCH  82  86
ENDBRANCH  78  80
ENDBRANCH  77  78
ENDBRANCH  76  77
ENDBRANCH  75  76
ENDBRANCH  74  75
ENDBRANCH   1  74
TORSDOF 24
ENDMDL
MODEL 2
REMARK VINA RESULT:     -10.4      2.820      8.169
REMARK SMILES O=C(OCCOCCOCCOC(=O)[C@H]1CC=CC[C@H]1C(=O)Nc1ccc(S(=O)(=O)N2CCCC2)cc1)c1ccc(-c2c3nc(c(-c4cccc(S(=O)(=O)[O-])c4F)c4ccc([nH]4)c(-c4cccc(S(=O)(=O)[O-])c4F)c4nc(c(-c5cccc(S(=O)(=O)[O-])c5F)c5ccc2[nH]5)C=C4)C=C3)cc1
REMARK SMILES IDX 8 1 7 2 6 3 5 4 4 5 3 6 2 7 1 8 38 9 39 10 100 11 40 12
REMARK SMILES IDX 99 13 41 14 42 15 43 16 93 17 44 18 98 19 92 20 94 21 45 22
REMARK SMILES IDX 97 23 91 24 90 25 46 27 78 28 58 29 77 30 59 31 62 32 76 33
REMARK SMILES IDX 95 34 60 35 61 36 75 38 96 39 63 40 47 41 48 42 56 43 49 44
REMARK SMILES IDX 51 45 57 46 50 47 52 48 53 49 54 50 55 51 79 52 80 53 88 54
REMARK SMILES IDX 81 55 83 56 89 57 82 58 84 59 85 60 86 61 87 62 64 63 65 64
REMARK SMILES IDX 73 65 66 66 68 67 74 68 67 69 69 70 70 71 71 72 72 73 9 74
REMARK SMILES IDX 10 75 11 76 12 77 13 78 14 79 15 80 16 81 20 82 17 83 19 84
REMARK SMILES IDX 18 85 21 86 22 87 23 88 24 90 25 91 37 92 26 93 36 94 27 95
REMARK SMILES IDX 28 96 29 97 30 98 31 99 32 100 35 101 33 102 34 103
REMARK H PARENT 94 26 62 37 23 89
REMARK Flexibility Score: inf
ROOT
ATOM      1  C   UNL A   1      34.947  31.860  27.751  1.00  0.00     0.188 C 
ENDROOT
BRANCH   1   2
ATOM      2  C   UNL A   1      35.149  32.854  28.896  1.00  0.00     0.188 C 
BRANCH   2   3
ATOM      3  O   UNL A   1      34.694  34.149  28.509  1.00  0.00    -0.376 OA
BRANCH   3   4
ATOM      4  C   UNL A   1      33.290  34.350  28.566  1.00  0.00     0.202 C 
BRANCH   4   5
ATOM      5  C   UNL A   1      32.870  35.677  29.205  1.00  0.00     0.261 C 
BRANCH   5   6
ATOM      6  O   UNL A   1      32.318  35.514  30.523  1.00  0.00    -0.460 OA
BRANCH   6   7
ATOM      7  C   UNL A   1      32.967  35.538  31.718  1.00  0.00     0.338 C 
ATOM      8  O   UNL A   1      32.506  36.242  32.617  1.00  0.00    -0.246 OA
BRANCH   7   9
ATOM      9  C   UNL A   1      34.152  34.683  32.028  1.00  0.00     0.060 A 
ATOM     10  C   UNL A   1      34.085  33.367  32.482  1.00  0.00     0.016 A 
ATOM     11  C   UNL A   1      35.423  35.233  31.789  1.00  0.00     0.016 A 
ATOM     12  C   UNL A   1      35.234  32.663  32.827  1.00  0.00     0.010 A 
ATOM     13  C   UNL A   1      36.588  34.510  32.076  1.00  0.00     0.010 A 
ATOM     14  C   UNL A   1      36.493  33.237  32.650  1.00  0.00    -0.014 A 
BRANCH  14  15
ATOM     15  C   UNL A   1      37.670  32.532  33.202  1.00  0.00     0.031 A 
ATOM     16  C   UNL A   1      38.304  31.453  32.379  1.00  0.00     0.074 A 
ATOM     17  C   UNL A   1      38.233  32.941  34.353  1.00  0.00     0.049 A 
ATOM     18  N   UNL A   1      39.363  30.736  32.639  1.00  0.00    -0.248 NA
ATOM     19  C   UNL A   1      37.675  31.154  31.080  1.00  0.00     0.031 C 
ATOM     20  C   UNL A   1      37.720  34.027  35.182  1.00  0.00     0.029 A 
ATOM     21  N   UNL A   1      39.356  32.518  35.016  1.00  0.00    -0.354 N 
ATOM     22  C   UNL A   1      39.498  29.868  31.563  1.00  0.00     0.074 A 
ATOM     23  C   UNL A   1      38.427  30.158  30.638  1.00  0.00     0.031 C 
ATOM     24  C   UNL A   1      38.539  34.204  36.231  1.00  0.00     0.029 A 
ATOM     25  C   UNL A   1      39.603  33.213  36.178  1.00  0.00     0.049 A 
ATOM     26  H   UNL A   1      39.931  31.788  34.693  1.00  0.00     0.167 HD
ATOM     27  C   UNL A   1      40.432  28.910  31.372  1.00  0.00     0.034 A 
ATOM     28  C   UNL A   1      40.571  33.052  37.104  1.00  0.00     0.034 A 
ATOM     29  C   UNL A   1      41.485  28.632  32.305  1.00  0.00     0.049 A 
ATOM     30  C   UNL A   1      41.577  31.955  36.879  1.00  0.00     0.074 A 
ATOM     31  C   UNL A   1      42.447  27.642  32.253  1.00  0.00     0.029 A 
ATOM     32  N   UNL A   1      41.705  29.348  33.474  1.00  0.00    -0.354 N 
ATOM     33  N   UNL A   1      41.706  31.159  35.844  1.00  0.00    -0.248 NA
ATOM     34  C   UNL A   1      42.574  31.737  37.936  1.00  0.00     0.031 C 
ATOM     35  C   UNL A   1      43.238  27.747  33.401  1.00  0.00     0.029 A 
ATOM     36  C   UNL A   1      42.786  28.820  34.155  1.00  0.00     0.049 A 
ATOM     37  H   UNL A   1      41.170  30.117  33.774  1.00  0.00     0.167 HD
ATOM     38  C   UNL A   1      42.799  30.350  36.120  1.00  0.00     0.074 A 
ATOM     39  C   UNL A   1      43.327  30.788  37.397  1.00  0.00     0.031 C 
ATOM     40  C   UNL A   1      43.305  29.315  35.404  1.00  0.00     0.034 A 
BRANCH  27  41
ATOM     41  C   UNL A   1      40.309  28.082  30.125  1.00  0.00     0.023 A 
ATOM     42  C   UNL A   1      39.381  27.023  30.068  1.00  0.00     0.012 A 
ATOM     43  C   UNL A   1      41.138  28.339  29.016  1.00  0.00     0.148 A 
ATOM     44  C   UNL A   1      39.302  26.212  28.937  1.00  0.00     0.002 A 
ATOM     45  C   UNL A   1      41.029  27.549  27.880  1.00  0.00     0.091 A 
ATOM     46  F   UNL A   1      42.033  29.333  29.106  1.00  0.00    -0.205 F 
ATOM     47  C   UNL A   1      40.121  26.478  27.842  1.00  0.00     0.022 A 
BRANCH  45  48
ATOM     48  S   UNL A   1      42.008  27.835  26.402  1.00  0.00     0.127 S 
ATOM     49  O   UNL A   1      41.486  26.811  25.499  1.00  0.00    -0.237 OA
ATOM     50  O   UNL A   1      41.634  29.206  26.052  1.00  0.00    -0.237 OA
ATOM     51  O   UNL A   1      43.398  27.661  26.798  1.00  0.00    -0.744 OA
ENDBRANCH  45  48
ENDBRANCH  27  41
BRANCH  28  52
ATOM     52  C   UNL A   1      40.646  33.939  38.305  1.00  0.00     0.023 A 
ATOM     53  C   UNL A   1      41.465  35.086  38.278  1.00  0.00     0.012 A 
ATOM     54  C   UNL A   1      39.912  33.660  39.475  1.00  0.00     0.148 A 
ATOM     55  C   UNL A   1      41.576  35.916  39.397  1.00  0.00     0.002 A 
ATOM     56  C   UNL A   1      39.972  34.528  40.561  1.00  0.00     0.091 A 
ATOM     57  F   UNL A   1      39.160  32.552  39.508  1.00  0.00    -0.205 F 
ATOM     58  C   UNL A   1      40.819  35.645  40.534  1.00  0.00     0.022 A 
BRANCH  56  59
ATOM     59  S   UNL A   1      38.894  34.337  41.986  1.00  0.00     0.127 S 
ATOM     60  O   UNL A   1      39.283  35.475  42.812  1.00  0.00    -0.237 OA
ATOM     61  O   UNL A   1      37.566  34.435  41.380  1.00  0.00    -0.237 OA
ATOM     62  O   UNL A   1      39.205  33.017  42.518  1.00  0.00    -0.744 OA
ENDBRANCH  56  59
ENDBRANCH  28  52
BRANCH  40  63
ATOM     63  C   UNL A   1      44.493  28.603  35.986  1.00  0.00     0.023 A 
ATOM     64  C   UNL A   1      45.794  29.009  35.627  1.00  0.00     0.012 A 
ATOM     65  C   UNL A   1      44.318  27.582  36.938  1.00  0.00     0.148 A 
ATOM     66  C   UNL A   1      46.906  28.384  36.187  1.00  0.00     0.002 A 
ATOM     67  C   UNL A   1      45.432  26.999  37.528  1.00  0.00     0.091 A 
ATOM     68  F   UNL A   1      43.070  27.198  37.243  1.00  0.00    -0.205 F 
ATOM     69  C   UNL A   1      46.725  27.389  37.145  1.00  0.00     0.022 A 
BRANCH  67  70
ATOM     70  S   UNL A   1      45.286  25.785  38.841  1.00  0.00     0.127 S 
ATOM     71  O   UNL A   1      44.698  24.649  38.132  1.00  0.00    -0.237 OA
ATOM     72  O   UNL A   1      46.678  25.597  39.248  1.00  0.00    -0.237 OA
ATOM     73  O   UNL A   1      44.438  26.397  39.856  1.00  0.00    -0.744 OA
ENDBRANCH  67  70
ENDBRANCH  40  63
ENDBRANCH  14  15
ENDBRANCH   7   9
ENDBRANCH   6   7
ENDBRANCH   5   6
ENDBRANCH   4   5
ENDBRANCH   3   4
ENDBRANCH   2   3
ENDBRANCH   1   2
BRANCH   1  74
ATOM     74  O   UNL A   1      34.621  30.530  28.149  1.00  0.00    -0.376 OA
BRANCH  74  75
ATOM     75  C   UNL A   1      34.241  29.605  27.133  1.00  0.00     0.202 C 
BRANCH  75  76
ATOM     76  C   UNL A   1      32.768  29.189  27.010  1.00  0.00     0.261 C 
BRANCH  76  77
ATOM     77  O   UNL A   1      32.485  28.422  25.832  1.00  0.00    -0.463 OA
BRANCH  77  78
ATOM     78  C   UNL A   1      31.763  29.020  24.864  1.00  0.00     0.310 C 
ATOM     79  O   UNL A   1      31.050  30.002  25.050  1.00  0.00    -0.252 OA
BRANCH  78  80
ATOM     80  C   UNL A   1      32.036  28.492  23.463  1.00  0.00     0.116 C 
ATOM     81  C   UNL A   1      33.514  28.051  23.462  1.00  0.00     0.043 C 
ATOM     82  C   UNL A   1      31.019  27.579  22.724  1.00  0.00     0.097 C 
ATOM     83  C   UNL A   1      33.898  26.947  22.544  1.00  0.00    -0.030 C 
ATOM     84  C   UNL A   1      31.559  26.430  21.843  1.00  0.00     0.041 C 
ATOM     85  C   UNL A   1      33.035  26.231  21.823  1.00  0.00    -0.030 C 
BRANCH  82  86
ATOM     86  C   UNL A   1      29.691  27.181  23.385  1.00  0.00     0.228 C 
ATOM     87  O   UNL A   1      28.720  27.942  23.242  1.00  0.00    -0.274 OA
ATOM     88  N   UNL A   1      29.436  26.055  24.112  1.00  0.00    -0.326 N 
ATOM     89  H   UNL A   1      28.473  25.898  24.248  1.00  0.00     0.169 HD
BRANCH  88  90
ATOM     90  C   UNL A   1      30.241  25.070  24.709  1.00  0.00     0.041 A 
ATOM     91  C   UNL A   1      30.869  25.386  25.921  1.00  0.00     0.027 A 
ATOM     92  C   UNL A   1      30.588  23.881  24.094  1.00  0.00     0.027 A 
ATOM     93  C   UNL A   1      31.933  24.601  26.399  1.00  0.00     0.024 A 
ATOM     94  C   UNL A   1      31.651  23.103  24.545  1.00  0.00     0.024 A 
ATOM     95  C   UNL A   1      32.355  23.477  25.676  1.00  0.00     0.082 A 
BRANCH  95  96
ATOM     96  S   UNL A   1      33.816  22.602  26.198  1.00  0.00     0.243 S 
ATOM     97  O   UNL A   1      34.007  22.951  27.592  1.00  0.00    -0.207 OA
ATOM     98  O   UNL A   1      33.619  21.227  25.787  1.00  0.00    -0.207 OA
BRANCH  96  99
ATOM     99  N   UNL A   1      35.114  23.222  25.350  1.00  0.00    -0.198 NA
ATOM    100  C   UNL A   1      35.047  23.643  23.952  1.00  0.00     0.102 C 
ATOM    101  C   UNL A   1      36.517  23.047  25.745  1.00  0.00     0.102 C 
ATOM    102  C   UNL A   1      36.260  22.999  23.306  1.00  0.00     0.018 C 
ATOM    103  C   UNL A   1      37.267  22.796  24.434  1.00  0.00     0.018 C 
ENDBRANCH  96  99
ENDBRANCH  95  96
ENDBRANCH  88  90
ENDBRANCH  82  86
ENDBRANCH  78  80
ENDBRANCH  77  78
ENDBRANCH  76  77
ENDBRANCH  75  76
ENDBRANCH  74  75
ENDBRANCH   1  74
TORSDOF 24
ENDMDL
MODEL 3
REMARK VINA RESULT:     -10.3      2.197      2.557
REMARK SMILES O=C(OCCOCCOCCOC(=O)[C@H]1CC=CC[C@H]1C(=O)Nc1ccc(S(=O)(=O)N2CCCC2)cc1)c1ccc(-c2c3nc(c(-c4cccc(S(=O)(=O)[O-])c4F)c4ccc([nH]4)c(-c4cccc(S(=O)(=O)[O-])c4F)c4nc(c(-c5cccc(S(=O)(=O)[O-])c5F)c5ccc2[nH]5)C=C4)C=C3)cc1
REMARK SMILES IDX 8 1 7 2 6 3 5 4 4 5 3 6 2 7 1 8 38 9 39 10 100 11 40 12
REMARK SMILES IDX 99 13 41 14 42 15 43 16 93 17 44 18 98 19 92 20 94 21 45 22
REMARK SMILES IDX 97 23 91 24 90 25 46 27 78 28 58 29 77 30 59 31 62 32 76 33
REMARK SMILES IDX 95 34 60 35 61 36 75 38 96 39 63 40 47 41 48 42 56 43 49 44
REMARK SMILES IDX 51 45 57 46 50 47 52 48 53 49 54 50 55 51 79 52 80 53 88 54
REMARK SMILES IDX 81 55 83 56 89 57 82 58 84 59 85 60 86 61 87 62 64 63 65 64
REMARK SMILES IDX 73 65 66 66 68 67 74 68 67 69 69 70 70 71 71 72 72 73 9 74
REMARK SMILES IDX 10 75 11 76 12 77 13 78 14 79 15 80 16 81 20 82 17 83 19 84
REMARK SMILES IDX 18 85 21 86 22 87 23 88 24 90 25 91 37 92 26 93 36 94 27 95
REMARK SMILES IDX 28 96 29 97 30 98 31 99 32 100 35 101 33 102 34 103
REMARK H PARENT 94 26 62 37 23 89
REMARK Flexibility Score: inf
ROOT
ATOM      1  C   UNL A   1      30.056  29.669  22.301  1.00  0.00     0.188 C 
ENDROOT
BRANCH   1   2
ATOM      2  C   UNL A   1      31.189  29.687  23.329  1.00  0.00     0.188 C 
BRANCH   2   3
ATOM      3  O   UNL A   1      30.657  29.825  24.645  1.00  0.00    -0.376 OA
BRANCH   3   4
ATOM      4  C   UNL A   1      31.507  29.401  25.700  1.00  0.00     0.202 C 
BRANCH   4   5
ATOM      5  C   UNL A   1      32.743  30.282  25.906  1.00  0.00     0.261 C 
BRANCH   5   6
ATOM      6  O   UNL A   1      32.631  31.143  27.053  1.00  0.00    -0.460 OA
BRANCH   6   7
ATOM      7  C   UNL A   1      33.589  31.926  27.616  1.00  0.00     0.338 C 
ATOM      8  O   UNL A   1      33.313  33.100  27.861  1.00  0.00    -0.246 OA
BRANCH   7   9
ATOM      9  C   UNL A   1      34.926  31.413  28.042  1.00  0.00     0.060 A 
ATOM     10  C   UNL A   1      35.228  30.070  28.266  1.00  0.00     0.016 A 
ATOM     11  C   UNL A   1      35.966  32.350  28.169  1.00  0.00     0.016 A 
ATOM     12  C   UNL A   1      36.475  29.680  28.741  1.00  0.00     0.010 A 
ATOM     13  C   UNL A   1      37.243  31.958  28.589  1.00  0.00     0.010 A 
ATOM     14  C   UNL A   1      37.485  30.623  28.929  1.00  0.00    -0.014 A 
BRANCH  14  15
ATOM     15  C   UNL A   1      38.727  30.196  29.609  1.00  0.00     0.031 A 
ATOM     16  C   UNL A   1      38.974  30.673  31.007  1.00  0.00     0.074 A 
ATOM     17  C   UNL A   1      39.547  29.298  29.033  1.00  0.00     0.049 A 
ATOM     18  N   UNL A   1      39.966  30.394  31.808  1.00  0.00    -0.248 NA
ATOM     19  C   UNL A   1      37.960  31.569  31.590  1.00  0.00     0.031 C 
ATOM     20  C   UNL A   1      39.345  28.731  27.703  1.00  0.00     0.029 A 
ATOM     21  N   UNL A   1      40.690  28.690  29.485  1.00  0.00    -0.354 N 
ATOM     22  C   UNL A   1      39.721  31.117  32.968  1.00  0.00     0.074 A 
ATOM     23  C   UNL A   1      38.481  31.832  32.778  1.00  0.00     0.031 C 
ATOM     24  C   UNL A   1      40.316  27.838  27.454  1.00  0.00     0.029 A 
ATOM     25  C   UNL A   1      41.237  27.807  28.581  1.00  0.00     0.049 A 
ATOM     26  H   UNL A   1      41.081  28.867  30.369  1.00  0.00     0.167 HD
ATOM     27  C   UNL A   1      40.473  31.180  34.090  1.00  0.00     0.034 A 
ATOM     28  C   UNL A   1      42.366  27.072  28.651  1.00  0.00     0.034 A 
ATOM     29  C   UNL A   1      41.706  30.466  34.259  1.00  0.00     0.049 A 
ATOM     30  C   UNL A   1      43.199  27.189  29.899  1.00  0.00     0.074 A 
ATOM     31  C   UNL A   1      42.588  30.505  35.321  1.00  0.00     0.029 A 
ATOM     32  N   UNL A   1      42.237  29.586  33.325  1.00  0.00    -0.354 N 
ATOM     33  N   UNL A   1      42.941  27.858  30.999  1.00  0.00    -0.248 NA
ATOM     34  C   UNL A   1      44.467  26.448  29.927  1.00  0.00     0.031 C 
ATOM     35  C   UNL A   1      43.663  29.662  35.021  1.00  0.00     0.029 A 
ATOM     36  C   UNL A   1      43.437  29.077  33.784  1.00  0.00     0.049 A 
ATOM     37  H   UNL A   1      41.819  29.359  32.463  1.00  0.00     0.167 HD
ATOM     38  C   UNL A   1      44.010  27.616  31.850  1.00  0.00     0.074 A 
ATOM     39  C   UNL A   1      44.892  26.697  31.158  1.00  0.00     0.031 C 
ATOM     40  C   UNL A   1      44.262  28.130  33.080  1.00  0.00     0.034 A 
BRANCH  27  41
ATOM     41  C   UNL A   1      39.986  32.086  35.184  1.00  0.00     0.023 A 
ATOM     42  C   UNL A   1      39.146  31.582  36.197  1.00  0.00     0.012 A 
ATOM     43  C   UNL A   1      40.341  33.448  35.189  1.00  0.00     0.148 A 
ATOM     44  C   UNL A   1      38.642  32.429  37.183  1.00  0.00     0.002 A 
ATOM     45  C   UNL A   1      39.863  34.278  36.195  1.00  0.00     0.091 A 
ATOM     46  F   UNL A   1      41.116  33.909  34.198  1.00  0.00    -0.205 F 
ATOM     47  C   UNL A   1      39.004  33.774  37.186  1.00  0.00     0.022 A 
BRANCH  45  48
ATOM     48  S   UNL A   1      40.303  36.015  36.311  1.00  0.00     0.127 S 
ATOM     49  O   UNL A   1      39.449  36.463  37.409  1.00  0.00    -0.237 OA
ATOM     50  O   UNL A   1      41.729  35.943  36.636  1.00  0.00    -0.237 OA
ATOM     51  O   UNL A   1      39.998  36.597  35.012  1.00  0.00    -0.744 OA
ENDBRANCH  45  48
ENDBRANCH  27  41
BRANCH  28  52
ATOM     52  C   UNL A   1      42.768  26.166  27.532  1.00  0.00     0.023 A 
ATOM     53  C   UNL A   1      43.687  26.617  26.563  1.00  0.00     0.012 A 
ATOM     54  C   UNL A   1      42.254  24.860  27.420  1.00  0.00     0.148 A 
ATOM     55  C   UNL A   1      44.057  25.800  25.490  1.00  0.00     0.002 A 
ATOM     56  C   UNL A   1      42.680  24.026  26.390  1.00  0.00     0.091 A 
ATOM     57  F   UNL A   1      41.357  24.447  28.326  1.00  0.00    -0.205 F 
ATOM     58  C   UNL A   1      43.564  24.500  25.411  1.00  0.00     0.022 A 
BRANCH  56  59
ATOM     59  S   UNL A   1      42.223  22.290  26.326  1.00  0.00     0.127 S 
ATOM     60  O   UNL A   1      40.781  22.366  26.114  1.00  0.00    -0.237 OA
ATOM     61  O   UNL A   1      42.995  21.812  25.179  1.00  0.00    -0.237 OA
ATOM     62  O   UNL A   1      42.660  21.739  27.603  1.00  0.00    -0.744 OA
ENDBRANCH  56  59
ENDBRANCH  28  52
BRANCH  40  63
ATOM     63  C   UNL A   1      45.535  27.695  33.750  1.00  0.00     0.023 A 
ATOM     64  C   UNL A   1      45.532  26.558  34.582  1.00  0.00     0.012 A 
ATOM     65  C   UNL A   1      46.742  28.372  33.499  1.00  0.00     0.148 A 
ATOM     66  C   UNL A   1      46.711  26.119  35.180  1.00  0.00     0.002 A 
ATOM     67  C   UNL A   1      47.921  27.899  34.059  1.00  0.00     0.091 A 
ATOM     68  F   UNL A   1      46.713  29.466  32.724  1.00  0.00    -0.205 F 
ATOM     69  C   UNL A   1      47.906  26.781  34.908  1.00  0.00     0.022 A 
BRANCH  67  70
ATOM     70  S   UNL A   1      49.515  28.631  33.679  1.00  0.00     0.127 S 
ATOM     71  O   UNL A   1      49.366  29.973  34.239  1.00  0.00    -0.237 OA
ATOM     72  O   UNL A   1      50.439  27.763  34.409  1.00  0.00    -0.237 OA
ATOM     73  O   UNL A   1      49.647  28.568  32.229  1.00  0.00    -0.744 OA
ENDBRANCH  67  70
ENDBRANCH  40  63
ENDBRANCH  14  15
ENDBRANCH   7   9
ENDBRANCH   6   7
ENDBRANCH   5   6
ENDBRANCH   4   5
ENDBRANCH   3   4
ENDBRANCH   2   3
ENDBRANCH   1   2
BRANCH   1  74
ATOM     74  O   UNL A   1      29.456  28.395  22.078  1.00  0.00    -0.376 OA
BRANCH  74  75
ATOM     75  C   UNL A   1      28.407  27.991  22.954  1.00  0.00     0.202 C 
BRANCH  75  76
ATOM     76  C   UNL A   1      28.685  26.913  24.012  1.00  0.00     0.261 C 
BRANCH  76  77
ATOM     77  O   UNL A   1      29.128  25.666  23.460  1.00  0.00    -0.463 OA
BRANCH  77  78
ATOM     78  C   UNL A   1      30.199  25.082  24.033  1.00  0.00     0.310 C 
ATOM     79  O   UNL A   1      30.337  23.867  24.145  1.00  0.00    -0.252 OA
BRANCH  78  80
ATOM     80  C   UNL A   1      31.326  26.044  24.380  1.00  0.00     0.116 C 
ATOM     81  C   UNL A   1      31.831  25.613  25.772  1.00  0.00     0.043 C 
ATOM     82  C   UNL A   1      32.395  26.457  23.331  1.00  0.00     0.097 C 
ATOM     83  C   UNL A   1      33.257  25.877  26.096  1.00  0.00    -0.030 C 
ATOM     84  C   UNL A   1      33.857  26.644  23.797  1.00  0.00     0.041 C 
ATOM     85  C   UNL A   1      34.155  26.338  25.224  1.00  0.00    -0.030 C 
BRANCH  82  86
ATOM     86  C   UNL A   1      32.346  25.911  21.897  1.00  0.00     0.228 C 
ATOM     87  O   UNL A   1      31.899  26.654  21.008  1.00  0.00    -0.274 OA
ATOM     88  N   UNL A   1      32.762  24.686  21.466  1.00  0.00    -0.326 N 
ATOM     89  H   UNL A   1      32.844  24.633  20.485  1.00  0.00     0.169 HD
BRANCH  88  90
ATOM     90  C   UNL A   1      33.101  23.483  22.109  1.00  0.00     0.041 A 
ATOM     91  C   UNL A   1      32.211  22.406  21.992  1.00  0.00     0.027 A 
ATOM     92  C   UNL A   1      34.162  23.350  22.986  1.00  0.00     0.027 A 
ATOM     93  C   UNL A   1      32.305  21.306  22.862  1.00  0.00     0.024 A 
ATOM     94  C   UNL A   1      34.258  22.275  23.865  1.00  0.00     0.024 A 
ATOM     95  C   UNL A   1      33.311  21.267  23.837  1.00  0.00     0.082 A 
BRANCH  95  96
ATOM     96  S   UNL A   1      33.306  19.957  25.044  1.00  0.00     0.243 S 
ATOM     97  O   UNL A   1      34.280  20.341  26.046  1.00  0.00    -0.207 OA
ATOM     98  O   UNL A   1      31.916  19.746  25.390  1.00  0.00    -0.207 OA
BRANCH  96  99
ATOM     99  N   UNL A   1      33.878  18.575  24.302  1.00  0.00    -0.198 NA
ATOM    100  C   UNL A   1      33.034  17.639  23.563  1.00  0.00     0.102 C 
ATOM    101  C   UNL A   1      35.157  17.934  24.628  1.00  0.00     0.102 C 
ATOM    102  C   UNL A   1      33.434  16.273  24.092  1.00  0.00     0.018 C 
ATOM    103  C   UNL A   1      34.864  16.431  24.599  1.00  0.00     0.018 C 
ENDBRANCH  96  99
ENDBRANCH  95  96
ENDBRANCH  88  90
ENDBRANCH  82  86
ENDBRANCH  78  80
ENDBRANCH  77  78
ENDBRANCH  76  77
ENDBRANCH  75  76
ENDBRANCH  74  75
ENDBRANCH   1  74
TORSDOF 24
ENDMDL
