MODEL 1
REMARK VINA RESULT:     -10.7      0.000      0.000
REMARK SMILES CC[C@H]1SC[C@H](C(=O)OCCOCCOCCOC(=O)c2ccc(-c3c4nc(c(-c5cccc(S(=O)(=O)[O-])c5F)c5ccc([nH]5)c(-c5cccc(S(=O)(=O)[O-])c5F)c5nc(c(-c6cccc(S(=O)(=O)[O-])c6F)c6ccc3[nH]6)C=C5)C=C4)cc2)N1C(=O)c1ccc(F)c(F)c1F
REMARK SMILES IDX 14 1 13 2 12 3 11 4 10 5 9 6 7 7 8 8 6 9 3 10 4 11 84 12
REMARK SMILES IDX 5 13 2 14 1 15 85 16 86 17 87 18 88 19 94 20 89 21 92 22
REMARK SMILES IDX 95 23 90 24 93 25 91 26 15 27 16 28 17 29 18 30 19 31 20 32
REMARK SMILES IDX 21 33 22 34 83 35 23 36 82 37 24 38 25 39 26 40 76 41 27 42
REMARK SMILES IDX 81 43 75 44 77 45 28 46 80 47 74 48 73 49 29 51 61 52 41 53
REMARK SMILES IDX 60 54 42 55 45 56 59 57 78 58 43 59 44 60 58 62 79 63 46 64
REMARK SMILES IDX 30 65 31 66 39 67 32 68 34 69 40 70 33 71 35 72 36 73 37 74
REMARK SMILES IDX 38 75 62 76 63 77 71 78 64 79 66 80 72 81 65 82 67 83 68 84
REMARK SMILES IDX 69 85 70 86 47 87 48 88 56 89 49 90 51 91 57 92 50 93 52 94
REMARK SMILES IDX 53 95 54 96 55 97
REMARK H PARENT 77 50 45 61
REMARK Flexibility Score: inf
ROOT
ATOM      1  C   UNL A   1      32.963  28.808  25.660  1.00  0.00     0.188 C 
ENDROOT
BRANCH   1   2
ATOM      2  C   UNL A   1      31.661  28.214  25.124  1.00  0.00     0.188 C 
BRANCH   2   3
ATOM      3  O   UNL A   1      31.606  27.950  23.730  1.00  0.00    -0.376 OA
BRANCH   3   4
ATOM      4  C   UNL A   1      31.011  26.731  23.298  1.00  0.00     0.202 C 
BRANCH   4   5
ATOM      5  C   UNL A   1      31.434  25.431  24.000  1.00  0.00     0.261 C 
BRANCH   5   6
ATOM      6  O   UNL A   1      32.820  25.056  23.840  1.00  0.00    -0.462 OA
BRANCH   6   7
ATOM      7  C   UNL A   1      33.448  24.697  24.992  1.00  0.00     0.329 C 
ATOM      8  O   UNL A   1      33.180  25.202  26.078  1.00  0.00    -0.250 OA
BRANCH   7   9
ATOM      9  C   UNL A   1      34.543  23.622  24.826  1.00  0.00     0.206 C 
ATOM     10  C   UNL A   1      35.534  21.756  26.072  1.00  0.00     0.144 C 
ATOM     11  S   UNL A   1      36.829  23.017  26.149  1.00  0.00    -0.134 SA
ATOM     12  N   UNL A   1      34.322  22.487  25.736  1.00  0.00    -0.312 N 
ATOM     13  C   UNL A   1      35.984  24.127  24.983  1.00  0.00     0.109 C 
BRANCH  10  14
ATOM     14  C   UNL A   1      35.864  20.693  25.003  1.00  0.00     0.033 C 
ATOM     15  C   UNL A   1      37.363  20.529  24.780  1.00  0.00     0.007 C 
ENDBRANCH  10  14
BRANCH  12  16
ATOM     16  C   UNL A   1      33.085  21.866  25.769  1.00  0.00     0.258 C 
ATOM     17  O   UNL A   1      32.214  22.147  26.584  1.00  0.00    -0.269 OA
BRANCH  16  18
ATOM     18  C   UNL A   1      32.789  20.801  24.785  1.00  0.00     0.079 A 
ATOM     19  C   UNL A   1      32.474  21.194  23.474  1.00  0.00     0.020 A 
ATOM     20  C   UNL A   1      32.744  19.448  25.125  1.00  0.00     0.174 A 
ATOM     21  C   UNL A   1      32.190  20.235  22.503  1.00  0.00     0.043 A 
ATOM     22  C   UNL A   1      32.484  18.493  24.150  1.00  0.00     0.195 A 
ATOM     23  F   UNL A   1      32.947  19.037  26.386  1.00  0.00    -0.203 F 
ATOM     24  C   UNL A   1      32.216  18.887  22.846  1.00  0.00     0.161 A 
ATOM     25  F   UNL A   1      32.498  17.191  24.470  1.00  0.00    -0.200 F 
ATOM     26  F   UNL A   1      31.975  17.967  21.904  1.00  0.00    -0.204 F 
ENDBRANCH  16  18
ENDBRANCH  12  16
ENDBRANCH   7   9
ENDBRANCH   6   7
ENDBRANCH   5   6
ENDBRANCH   4   5
ENDBRANCH   3   4
ENDBRANCH   2   3
ENDBRANCH   1   2
BRANCH   1  27
ATOM     27  O   UNL A   1      32.930  30.191  25.964  1.00  0.00    -0.376 OA
BRANCH  27  28
ATOM     28  C   UNL A   1      31.679  30.744  26.378  1.00  0.00     0.202 C 
BRANCH  28  29
ATOM     29  C   UNL A   1      31.653  32.231  26.795  1.00  0.00     0.261 C 
BRANCH  29  30
ATOM     30  O   UNL A   1      32.896  32.964  26.695  1.00  0.00    -0.460 OA
BRANCH  30  31
ATOM     31  C   UNL A   1      33.377  33.585  27.798  1.00  0.00     0.338 C 
ATOM     32  O   UNL A   1      32.798  34.442  28.448  1.00  0.00    -0.246 OA
BRANCH  31  33
ATOM     33  C   UNL A   1      34.589  32.853  28.272  1.00  0.00     0.060 A 
ATOM     34  C   UNL A   1      34.448  31.502  28.629  1.00  0.00     0.016 A 
ATOM     35  C   UNL A   1      35.862  33.433  28.276  1.00  0.00     0.016 A 
ATOM     36  C   UNL A   1      35.559  30.747  29.027  1.00  0.00     0.010 A 
ATOM     37  C   UNL A   1      36.970  32.681  28.690  1.00  0.00     0.010 A 
ATOM     38  C   UNL A   1      36.822  31.344  29.103  1.00  0.00    -0.014 A 
BRANCH  38  39
ATOM     39  C   UNL A   1      37.939  30.659  29.814  1.00  0.00     0.031 A 
ATOM     40  C   UNL A   1      38.221  31.065  31.238  1.00  0.00     0.074 A 
ATOM     41  C   UNL A   1      38.702  29.713  29.233  1.00  0.00     0.049 A 
ATOM     42  N   UNL A   1      39.185  30.688  32.038  1.00  0.00    -0.248 NA
ATOM     43  C   UNL A   1      37.287  32.034  31.837  1.00  0.00     0.031 C 
ATOM     44  C   UNL A   1      38.533  29.199  27.876  1.00  0.00     0.029 A 
ATOM     45  N   UNL A   1      39.801  29.039  29.713  1.00  0.00    -0.354 N 
ATOM     46  C   UNL A   1      38.999  31.402  33.216  1.00  0.00     0.074 A 
ATOM     47  C   UNL A   1      37.833  32.237  33.027  1.00  0.00     0.031 C 
ATOM     48  C   UNL A   1      39.516  28.317  27.619  1.00  0.00     0.029 A 
ATOM     49  C   UNL A   1      40.404  28.229  28.778  1.00  0.00     0.049 A 
ATOM     50  H   UNL A   1      40.126  29.129  30.639  1.00  0.00     0.167 HD
ATOM     51  C   UNL A   1      39.724  31.366  34.359  1.00  0.00     0.034 A 
ATOM     52  C   UNL A   1      41.556  27.525  28.839  1.00  0.00     0.034 A 
ATOM     53  C   UNL A   1      40.876  30.532  34.561  1.00  0.00     0.049 A 
ATOM     54  C   UNL A   1      42.375  27.535  30.107  1.00  0.00     0.074 A 
ATOM     55  C   UNL A   1      41.649  30.400  35.702  1.00  0.00     0.029 A 
ATOM     56  N   UNL A   1      41.433  29.703  33.602  1.00  0.00    -0.354 N 
ATOM     57  N   UNL A   1      42.133  28.140  31.246  1.00  0.00    -0.248 NA
ATOM     58  C   UNL A   1      43.616  26.742  30.110  1.00  0.00     0.031 C 
ATOM     59  C   UNL A   1      42.700  29.522  35.419  1.00  0.00     0.029 A 
ATOM     60  C   UNL A   1      42.551  29.068  34.118  1.00  0.00     0.049 A 
ATOM     61  H   UNL A   1      41.087  29.583  32.689  1.00  0.00     0.167 HD
ATOM     62  C   UNL A   1      43.161  27.764  32.108  1.00  0.00     0.074 A 
ATOM     63  C   UNL A   1      44.024  26.871  31.365  1.00  0.00     0.031 C 
ATOM     64  C   UNL A   1      43.373  28.132  33.395  1.00  0.00     0.034 A 
BRANCH  51  65
ATOM     65  C   UNL A   1      39.289  32.261  35.490  1.00  0.00     0.023 A 
ATOM     66  C   UNL A   1      38.416  31.769  36.482  1.00  0.00     0.012 A 
ATOM     67  C   UNL A   1      39.785  33.575  35.595  1.00  0.00     0.148 A 
ATOM     68  C   UNL A   1      38.018  32.583  37.542  1.00  0.00     0.002 A 
ATOM     69  C   UNL A   1      39.423  34.362  36.680  1.00  0.00     0.091 A 
ATOM     70  F   UNL A   1      40.596  34.031  34.629  1.00  0.00    -0.205 F 
ATOM     71  C   UNL A   1      38.529  33.874  37.647  1.00  0.00     0.022 A 
BRANCH  69  72
ATOM     72  S   UNL A   1      40.091  36.007  36.949  1.00  0.00     0.127 S 
ATOM     73  O   UNL A   1      39.730  36.679  35.701  1.00  0.00    -0.237 OA
ATOM     74  O   UNL A   1      39.340  36.454  38.122  1.00  0.00    -0.237 OA
ATOM     75  O   UNL A   1      41.519  35.831  37.172  1.00  0.00    -0.744 OA
ENDBRANCH  69  72
ENDBRANCH  51  65
BRANCH  52  76
ATOM     76  C   UNL A   1      42.016  26.733  27.659  1.00  0.00     0.023 A 
ATOM     77  C   UNL A   1      42.700  27.375  26.608  1.00  0.00     0.012 A 
ATOM     78  C   UNL A   1      41.760  25.350  27.566  1.00  0.00     0.148 A 
ATOM     79  C   UNL A   1      43.092  26.663  25.473  1.00  0.00     0.002 A 
ATOM     80  C   UNL A   1      42.203  24.637  26.457  1.00  0.00     0.091 A 
ATOM     81  F   UNL A   1      41.088  24.761  28.564  1.00  0.00    -0.205 F 
ATOM     82  C   UNL A   1      42.853  25.294  25.401  1.00  0.00     0.022 A 
BRANCH  80  83
ATOM     83  S   UNL A   1      42.038  22.853  26.327  1.00  0.00     0.127 S 
ATOM     84  O   UNL A   1      42.784  22.398  27.498  1.00  0.00    -0.237 OA
ATOM     85  O   UNL A   1      40.587  22.681  26.416  1.00  0.00    -0.237 OA
ATOM     86  O   UNL A   1      42.611  22.495  25.037  1.00  0.00    -0.744 OA
ENDBRANCH  80  83
ENDBRANCH  52  76
BRANCH  64  87
ATOM     87  C   UNL A   1      44.545  27.528  34.129  1.00  0.00     0.023 A 
ATOM     88  C   UNL A   1      45.812  28.139  34.076  1.00  0.00     0.012 A 
ATOM     89  C   UNL A   1      44.359  26.396  34.950  1.00  0.00     0.148 A 
ATOM     90  C   UNL A   1      46.883  27.617  34.803  1.00  0.00     0.002 A 
ATOM     91  C   UNL A   1      45.418  25.913  35.713  1.00  0.00     0.091 A 
ATOM     92  F   UNL A   1      43.150  25.818  34.979  1.00  0.00    -0.205 F 
ATOM     93  C   UNL A   1      46.682  26.515  35.630  1.00  0.00     0.022 A 
BRANCH  91  94
ATOM     94  S   UNL A   1      45.227  24.562  36.882  1.00  0.00     0.127 S 
ATOM     95  O   UNL A   1      44.854  23.456  36.001  1.00  0.00    -0.237 OA
ATOM     96  O   UNL A   1      46.570  24.458  37.454  1.00  0.00    -0.237 OA
ATOM     97  O   UNL A   1      44.197  24.981  37.823  1.00  0.00    -0.744 OA
ENDBRANCH  91  94
ENDBRANCH  64  87
ENDBRANCH  38  39
ENDBRANCH  31  33
ENDBRANCH  30  31
ENDBRANCH  29  30
ENDBRANCH  28  29
ENDBRANCH  27  28
ENDBRANCH   1  27
TORSDOF 23
ENDMDL
MODEL 2
REMARK VINA RESULT:     -10.3      1.654      2.129
REMARK SMILES CC[C@H]1SC[C@H](C(=O)OCCOCCOCCOC(=O)c2ccc(-c3c4nc(c(-c5cccc(S(=O)(=O)[O-])c5F)c5ccc([nH]5)c(-c5cccc(S(=O)(=O)[O-])c5F)c5nc(c(-c6cccc(S(=O)(=O)[O-])c6F)c6ccc3[nH]6)C=C5)C=C4)cc2)N1C(=O)c1ccc(F)c(F)c1F
REMARK SMILES IDX 14 1 13 2 12 3 11 4 10 5 9 6 7 7 8 8 6 9 3 10 4 11 84 12
REMARK SMILES IDX 5 13 2 14 1 15 85 16 86 17 87 18 88 19 94 20 89 21 92 22
REMARK SMILES IDX 95 23 90 24 93 25 91 26 15 27 16 28 17 29 18 30 19 31 20 32
REMARK SMILES IDX 21 33 22 34 83 35 23 36 82 37 24 38 25 39 26 40 76 41 27 42
REMARK SMILES IDX 81 43 75 44 77 45 28 46 80 47 74 48 73 49 29 51 61 52 41 53
REMARK SMILES IDX 60 54 42 55 45 56 59 57 78 58 43 59 44 60 58 62 79 63 46 64
REMARK SMILES IDX 30 65 31 66 39 67 32 68 34 69 40 70 33 71 35 72 36 73 37 74
REMARK SMILES IDX 38 75 62 76 63 77 71 78 64 79 66 80 72 81 65 82 67 83 68 84
REMARK SMILES IDX 69 85 70 86 47 87 48 88 56 89 49 90 51 91 57 92 50 93 52 94
REMARK SMILES IDX 53 95 54 96 55 97
REMARK H PARENT 77 50 45 61
REMARK Flexibility Score: inf
ROOT
ATOM      1  C   UNL A   1      33.300  26.899  25.563  1.00  0.00     0.188 C 
ENDROOT
BRANCH   1   2
ATOM      2  C   UNL A   1      32.273  26.291  26.517  1.00  0.00     0.188 C 
BRANCH   2   3
ATOM      3  O   UNL A   1      31.854  24.962  26.242  1.00  0.00    -0.376 OA
BRANCH   3   4
ATOM      4  C   UNL A   1      30.593  24.770  25.610  1.00  0.00     0.202 C 
BRANCH   4   5
ATOM      5  C   UNL A   1      30.566  24.613  24.081  1.00  0.00     0.261 C 
BRANCH   5   6
ATOM      6  O   UNL A   1      31.855  24.470  23.444  1.00  0.00    -0.462 OA
BRANCH   6   7
ATOM      7  C   UNL A   1      32.154  23.206  23.043  1.00  0.00     0.329 C 
ATOM      8  O   UNL A   1      31.398  22.536  22.346  1.00  0.00    -0.250 OA
BRANCH   7   9
ATOM      9  C   UNL A   1      33.508  22.667  23.552  1.00  0.00     0.206 C 
ATOM     10  C   UNL A   1      34.611  22.079  25.661  1.00  0.00     0.144 C 
ATOM     11  S   UNL A   1      35.435  23.622  25.199  1.00  0.00    -0.134 SA
ATOM     12  N   UNL A   1      33.378  22.070  24.889  1.00  0.00    -0.312 N 
ATOM     13  C   UNL A   1      34.657  23.685  23.557  1.00  0.00     0.109 C 
BRANCH  10  14
ATOM     14  C   UNL A   1      35.495  20.860  25.324  1.00  0.00     0.033 C 
ATOM     15  C   UNL A   1      36.966  21.226  25.166  1.00  0.00     0.007 C 
ENDBRANCH  10  14
BRANCH  12  16
ATOM     16  C   UNL A   1      32.400  21.118  25.124  1.00  0.00     0.258 C 
ATOM     17  O   UNL A   1      31.330  21.373  25.666  1.00  0.00    -0.269 OA
BRANCH  16  18
ATOM     18  C   UNL A   1      32.647  19.718  24.715  1.00  0.00     0.079 A 
ATOM     19  C   UNL A   1      32.538  19.409  23.350  1.00  0.00     0.020 A 
ATOM     20  C   UNL A   1      32.912  18.698  25.631  1.00  0.00     0.174 A 
ATOM     21  C   UNL A   1      32.764  18.107  22.905  1.00  0.00     0.043 A 
ATOM     22  C   UNL A   1      33.160  17.407  25.182  1.00  0.00     0.195 A 
ATOM     23  F   UNL A   1      32.932  18.933  26.951  1.00  0.00    -0.203 F 
ATOM     24  C   UNL A   1      33.092  17.117  23.826  1.00  0.00     0.161 A 
ATOM     25  F   UNL A   1      33.469  16.442  26.061  1.00  0.00    -0.200 F 
ATOM     26  F   UNL A   1      33.341  15.876  23.392  1.00  0.00    -0.204 F 
ENDBRANCH  16  18
ENDBRANCH  12  16
ENDBRANCH   7   9
ENDBRANCH   6   7
ENDBRANCH   5   6
ENDBRANCH   4   5
ENDBRANCH   3   4
ENDBRANCH   2   3
ENDBRANCH   1   2
BRANCH   1  27
ATOM     27  O   UNL A   1      32.973  28.174  25.038  1.00  0.00    -0.376 OA
BRANCH  27  28
ATOM     28  C   UNL A   1      32.297  29.088  25.903  1.00  0.00     0.202 C 
BRANCH  28  29
ATOM     29  C   UNL A   1      32.896  30.503  26.065  1.00  0.00     0.261 C 
BRANCH  29  30
ATOM     30  O   UNL A   1      32.830  31.097  27.382  1.00  0.00    -0.460 OA
BRANCH  30  31
ATOM     31  C   UNL A   1      33.691  32.096  27.690  1.00  0.00     0.338 C 
ATOM     32  O   UNL A   1      33.405  33.276  27.816  1.00  0.00    -0.246 OA
BRANCH  31  33
ATOM     33  C   UNL A   1      34.980  31.495  28.145  1.00  0.00     0.060 A 
ATOM     34  C   UNL A   1      35.007  30.118  28.423  1.00  0.00     0.016 A 
ATOM     35  C   UNL A   1      36.170  32.228  28.205  1.00  0.00     0.016 A 
ATOM     36  C   UNL A   1      36.199  29.487  28.798  1.00  0.00     0.010 A 
ATOM     37  C   UNL A   1      37.359  31.599  28.598  1.00  0.00     0.010 A 
ATOM     38  C   UNL A   1      37.376  30.232  28.932  1.00  0.00    -0.014 A 
BRANCH  38  39
ATOM     39  C   UNL A   1      38.562  29.652  29.624  1.00  0.00     0.031 A 
ATOM     40  C   UNL A   1      38.917  30.193  30.986  1.00  0.00     0.074 A 
ATOM     41  C   UNL A   1      39.324  28.685  29.078  1.00  0.00     0.049 A 
ATOM     42  N   UNL A   1      39.943  29.922  31.750  1.00  0.00    -0.248 NA
ATOM     43  C   UNL A   1      37.984  31.179  31.559  1.00  0.00     0.031 C 
ATOM     44  C   UNL A   1      39.092  28.046  27.785  1.00  0.00     0.029 A 
ATOM     45  N   UNL A   1      40.478  28.095  29.541  1.00  0.00    -0.354 N 
ATOM     46  C   UNL A   1      39.803  30.732  32.872  1.00  0.00     0.074 A 
ATOM     47  C   UNL A   1      38.595  31.506  32.687  1.00  0.00     0.031 C 
ATOM     48  C   UNL A   1      40.091  27.179  27.542  1.00  0.00     0.029 A 
ATOM     49  C   UNL A   1      41.053  27.225  28.643  1.00  0.00     0.049 A 
ATOM     50  H   UNL A   1      40.856  28.278  30.432  1.00  0.00     0.167 HD
ATOM     51  C   UNL A   1      40.600  30.823  33.962  1.00  0.00     0.034 A 
ATOM     52  C   UNL A   1      42.234  26.570  28.688  1.00  0.00     0.034 A 
ATOM     53  C   UNL A   1      41.794  30.050  34.160  1.00  0.00     0.049 A 
ATOM     54  C   UNL A   1      43.130  26.721  29.894  1.00  0.00     0.074 A 
ATOM     55  C   UNL A   1      42.642  30.047  35.254  1.00  0.00     0.029 A 
ATOM     56  N   UNL A   1      42.323  29.158  33.242  1.00  0.00    -0.354 N 
ATOM     57  N   UNL A   1      42.935  27.417  30.989  1.00  0.00    -0.248 NA
ATOM     58  C   UNL A   1      44.399  25.975  29.883  1.00  0.00     0.031 C 
ATOM     59  C   UNL A   1      43.708  29.185  34.979  1.00  0.00     0.029 A 
ATOM     60  C   UNL A   1      43.495  28.611  33.736  1.00  0.00     0.049 A 
ATOM     61  H   UNL A   1      41.926  28.946  32.367  1.00  0.00     0.167 HD
ATOM     62  C   UNL A   1      44.030  27.155  31.810  1.00  0.00     0.074 A 
ATOM     63  C   UNL A   1      44.879  26.230  31.092  1.00  0.00     0.031 C 
ATOM     64  C   UNL A   1      44.308  27.644  33.044  1.00  0.00     0.034 A 
BRANCH  51  65
ATOM     65  C   UNL A   1      40.201  31.800  35.038  1.00  0.00     0.023 A 
ATOM     66  C   UNL A   1      40.716  33.113  35.023  1.00  0.00     0.012 A 
ATOM     67  C   UNL A   1      39.277  31.430  36.034  1.00  0.00     0.148 A 
ATOM     68  C   UNL A   1      40.343  34.030  36.005  1.00  0.00     0.002 A 
ATOM     69  C   UNL A   1      38.872  32.365  36.978  1.00  0.00     0.091 A 
ATOM     70  F   UNL A   1      38.816  30.171  36.042  1.00  0.00    -0.205 F 
ATOM     71  C   UNL A   1      39.414  33.661  36.974  1.00  0.00     0.022 A 
BRANCH  69  72
ATOM     72  S   UNL A   1      37.620  32.012  38.216  1.00  0.00     0.127 S 
ATOM     73  O   UNL A   1      37.263  30.632  37.888  1.00  0.00    -0.237 OA
ATOM     74  O   UNL A   1      38.370  32.168  39.462  1.00  0.00    -0.237 OA
ATOM     75  O   UNL A   1      36.564  32.994  38.013  1.00  0.00    -0.744 OA
ENDBRANCH  69  72
ENDBRANCH  51  65
BRANCH  52  76
ATOM     76  C   UNL A   1      42.650  25.692  27.554  1.00  0.00     0.023 A 
ATOM     77  C   UNL A   1      43.496  26.201  26.548  1.00  0.00     0.012 A 
ATOM     78  C   UNL A   1      42.195  24.361  27.457  1.00  0.00     0.148 A 
ATOM     79  C   UNL A   1      43.853  25.413  25.452  1.00  0.00     0.002 A 
ATOM     80  C   UNL A   1      42.602  23.565  26.392  1.00  0.00     0.091 A 
ATOM     81  F   UNL A   1      41.373  23.902  28.410  1.00  0.00    -0.205 F 
ATOM     82  C   UNL A   1      43.415  24.094  25.379  1.00  0.00     0.022 A 
BRANCH  80  83
ATOM     83  S   UNL A   1      42.177  21.824  26.270  1.00  0.00     0.127 S 
ATOM     84  O   UNL A   1      40.745  21.884  25.988  1.00  0.00    -0.237 OA
ATOM     85  O   UNL A   1      43.009  21.392  25.146  1.00  0.00    -0.237 OA
ATOM     86  O   UNL A   1      42.542  21.238  27.552  1.00  0.00    -0.744 OA
ENDBRANCH  80  83
ENDBRANCH  52  76
BRANCH  64  87
ATOM     87  C   UNL A   1      45.546  27.148  33.748  1.00  0.00     0.023 A 
ATOM     88  C   UNL A   1      46.770  27.828  33.603  1.00  0.00     0.012 A 
ATOM     89  C   UNL A   1      45.468  26.051  34.633  1.00  0.00     0.148 A 
ATOM     90  C   UNL A   1      47.903  27.409  34.301  1.00  0.00     0.002 A 
ATOM     91  C   UNL A   1      46.588  25.673  35.366  1.00  0.00     0.091 A 
ATOM     92  F   UNL A   1      44.298  25.407  34.750  1.00  0.00    -0.205 F 
ATOM     93  C   UNL A   1      47.808  26.342  35.191  1.00  0.00     0.022 A 
BRANCH  91  94
ATOM     94  S   UNL A   1      46.534  24.376  36.608  1.00  0.00     0.127 S 
ATOM     95  O   UNL A   1      45.549  24.906  37.551  1.00  0.00    -0.237 OA
ATOM     96  O   UNL A   1      46.074  23.224  35.832  1.00  0.00    -0.237 OA
ATOM     97  O   UNL A   1      47.889  24.255  37.128  1.00  0.00    -0.744 OA
ENDBRANCH  91  94
ENDBRANCH  64  87
ENDBRANCH  38  39
ENDBRANCH  31  33
ENDBRANCH  30  31
ENDBRANCH  29  30
ENDBRANCH  28  29
ENDBRANCH  27  28
ENDBRANCH   1  27
TORSDOF 23
ENDMDL
MODEL 3
REMARK VINA RESULT:      -9.3      1.764      2.189
REMARK SMILES CC[C@H]1SC[C@H](C(=O)OCCOCCOCCOC(=O)c2ccc(-c3c4nc(c(-c5cccc(S(=O)(=O)[O-])c5F)c5ccc([nH]5)c(-c5cccc(S(=O)(=O)[O-])c5F)c5nc(c(-c6cccc(S(=O)(=O)[O-])c6F)c6ccc3[nH]6)C=C5)C=C4)cc2)N1C(=O)c1ccc(F)c(F)c1F
REMARK SMILES IDX 14 1 13 2 12 3 11 4 10 5 9 6 7 7 8 8 6 9 3 10 4 11 84 12
REMARK SMILES IDX 5 13 2 14 1 15 85 16 86 17 87 18 88 19 94 20 89 21 92 22
REMARK SMILES IDX 95 23 90 24 93 25 91 26 15 27 16 28 17 29 18 30 19 31 20 32
REMARK SMILES IDX 21 33 22 34 83 35 23 36 82 37 24 38 25 39 26 40 76 41 27 42
REMARK SMILES IDX 81 43 75 44 77 45 28 46 80 47 74 48 73 49 29 51 61 52 41 53
REMARK SMILES IDX 60 54 42 55 45 56 59 57 78 58 43 59 44 60 58 62 79 63 46 64
REMARK SMILES IDX 30 65 31 66 39 67 32 68 34 69 40 70 33 71 35 72 36 73 37 74
REMARK SMILES IDX 38 75 62 76 63 77 71 78 64 79 66 80 72 81 65 82 67 83 68 84
REMARK SMILES IDX 69 85 70 86 47 87 48 88 56 89 49 90 51 91 57 92 50 93 52 94
REMARK SMILES IDX 53 95 54 96 55 97
REMARK H PARENT 77 50 45 61
REMARK Flexibility Score: inf
ROOT
ATOM      1  C   UNL A   1      32.785  27.386  25.659  1.00  0.00     0.188 C 
ENDROOT
BRANCH   1   2
ATOM      2  C   UNL A   1      31.819  26.807  26.691  1.00  0.00     0.188 C 
BRANCH   2   3
ATOM      3  O   UNL A   1      31.358  25.483  26.464  1.00  0.00    -0.376 OA
BRANCH   3   4
ATOM      4  C   UNL A   1      30.202  25.301  25.653  1.00  0.00     0.202 C 
BRANCH   4   5
ATOM      5  C   UNL A   1      30.405  24.935  24.175  1.00  0.00     0.261 C 
BRANCH   5   6
ATOM      6  O   UNL A   1      31.779  24.848  23.734  1.00  0.00    -0.462 OA
BRANCH   6   7
ATOM      7  C   UNL A   1      32.137  23.640  23.221  1.00  0.00     0.329 C 
ATOM      8  O   UNL A   1      31.474  23.062  22.365  1.00  0.00    -0.250 OA
BRANCH   7   9
ATOM      9  C   UNL A   1      33.428  23.039  23.815  1.00  0.00     0.206 C 
ATOM     10  C   UNL A   1      34.315  22.280  25.971  1.00  0.00     0.144 C 
ATOM     11  S   UNL A   1      35.201  23.835  25.703  1.00  0.00    -0.134 SA
ATOM     12  N   UNL A   1      33.162  22.351  25.087  1.00  0.00    -0.312 N 
ATOM     13  C   UNL A   1      34.584  24.031  24.004  1.00  0.00     0.109 C 
BRANCH  10  14
ATOM     14  C   UNL A   1      35.211  21.070  25.631  1.00  0.00     0.033 C 
ATOM     15  C   UNL A   1      36.616  21.479  25.206  1.00  0.00     0.007 C 
ENDBRANCH  10  14
BRANCH  12  16
ATOM     16  C   UNL A   1      32.153  21.405  25.158  1.00  0.00     0.258 C 
ATOM     17  O   UNL A   1      31.031  21.650  25.585  1.00  0.00    -0.269 OA
BRANCH  16  18
ATOM     18  C   UNL A   1      32.432  20.023  24.709  1.00  0.00     0.079 A 
ATOM     19  C   UNL A   1      32.925  19.115  25.659  1.00  0.00     0.020 A 
ATOM     20  C   UNL A   1      32.291  19.617  23.380  1.00  0.00     0.174 A 
ATOM     21  C   UNL A   1      33.203  17.799  25.295  1.00  0.00     0.043 A 
ATOM     22  C   UNL A   1      32.545  18.298  23.025  1.00  0.00     0.195 A 
ATOM     23  F   UNL A   1      31.912  20.477  22.423  1.00  0.00    -0.203 F 
ATOM     24  C   UNL A   1      32.991  17.395  23.980  1.00  0.00     0.161 A 
ATOM     25  F   UNL A   1      32.354  17.899  21.759  1.00  0.00    -0.200 F 
ATOM     26  F   UNL A   1      33.228  16.121  23.640  1.00  0.00    -0.204 F 
ENDBRANCH  16  18
ENDBRANCH  12  16
ENDBRANCH   7   9
ENDBRANCH   6   7
ENDBRANCH   5   6
ENDBRANCH   4   5
ENDBRANCH   3   4
ENDBRANCH   2   3
ENDBRANCH   1   2
BRANCH   1  27
ATOM     27  O   UNL A   1      32.390  28.608  25.063  1.00  0.00    -0.376 OA
BRANCH  27  28
ATOM     28  C   UNL A   1      31.544  29.470  25.826  1.00  0.00     0.202 C 
BRANCH  28  29
ATOM     29  C   UNL A   1      32.046  30.904  26.110  1.00  0.00     0.261 C 
BRANCH  29  30
ATOM     30  O   UNL A   1      32.629  31.150  27.410  1.00  0.00    -0.460 OA
BRANCH  30  31
ATOM     31  C   UNL A   1      33.525  32.156  27.542  1.00  0.00     0.338 C 
ATOM     32  O   UNL A   1      33.275  33.351  27.497  1.00  0.00    -0.246 OA
BRANCH  31  33
ATOM     33  C   UNL A   1      34.812  31.591  28.047  1.00  0.00     0.060 A 
ATOM     34  C   UNL A   1      34.904  30.199  28.209  1.00  0.00     0.016 A 
ATOM     35  C   UNL A   1      35.945  32.381  28.264  1.00  0.00     0.016 A 
ATOM     36  C   UNL A   1      36.102  29.604  28.625  1.00  0.00     0.010 A 
ATOM     37  C   UNL A   1      37.139  31.787  28.696  1.00  0.00     0.010 A 
ATOM     38  C   UNL A   1      37.217  30.398  28.915  1.00  0.00    -0.014 A 
BRANCH  38  39
ATOM     39  C   UNL A   1      38.380  29.826  29.648  1.00  0.00     0.031 A 
ATOM     40  C   UNL A   1      38.553  30.202  31.099  1.00  0.00     0.074 A 
ATOM     41  C   UNL A   1      39.279  29.009  29.067  1.00  0.00     0.049 A 
ATOM     42  N   UNL A   1      39.523  29.913  31.926  1.00  0.00    -0.248 NA
ATOM     43  C   UNL A   1      37.481  31.021  31.692  1.00  0.00     0.031 C 
ATOM     44  C   UNL A   1      39.231  28.537  27.685  1.00  0.00     0.029 A 
ATOM     45  N   UNL A   1      40.434  28.455  29.570  1.00  0.00    -0.354 N 
ATOM     46  C   UNL A   1      39.202  30.547  33.121  1.00  0.00     0.074 A 
ATOM     47  C   UNL A   1      37.949  31.239  32.911  1.00  0.00     0.031 C 
ATOM     48  C   UNL A   1      40.326  27.795  27.440  1.00  0.00     0.029 A 
ATOM     49  C   UNL A   1      41.171  27.767  28.634  1.00  0.00     0.049 A 
ATOM     50  H   UNL A   1      40.708  28.544  30.513  1.00  0.00     0.167 HD
ATOM     51  C   UNL A   1      39.880  30.551  34.293  1.00  0.00     0.034 A 
ATOM     52  C   UNL A   1      42.399  27.209  28.719  1.00  0.00     0.034 A 
ATOM     53  C   UNL A   1      41.118  29.857  34.515  1.00  0.00     0.049 A 
ATOM     54  C   UNL A   1      43.158  27.265  30.023  1.00  0.00     0.074 A 
ATOM     55  C   UNL A   1      41.855  29.772  35.684  1.00  0.00     0.029 A 
ATOM     56  N   UNL A   1      41.813  29.146  33.552  1.00  0.00    -0.354 N 
ATOM     57  N   UNL A   1      42.797  27.785  31.172  1.00  0.00    -0.248 NA
ATOM     58  C   UNL A   1      44.488  26.633  30.051  1.00  0.00     0.031 C 
ATOM     59  C   UNL A   1      43.018  29.045  35.415  1.00  0.00     0.029 A 
ATOM     60  C   UNL A   1      42.979  28.633  34.093  1.00  0.00     0.049 A 
ATOM     61  H   UNL A   1      41.521  29.024  32.620  1.00  0.00     0.167 HD
ATOM     62  C   UNL A   1      43.828  27.502  32.064  1.00  0.00     0.074 A 
ATOM     63  C   UNL A   1      44.825  26.757  31.328  1.00  0.00     0.031 C 
ATOM     64  C   UNL A   1      43.941  27.838  33.373  1.00  0.00     0.034 A 
BRANCH  51  65
ATOM     65  C   UNL A   1      39.291  31.335  35.437  1.00  0.00     0.023 A 
ATOM     66  C   UNL A   1      38.267  30.770  36.225  1.00  0.00     0.012 A 
ATOM     67  C   UNL A   1      39.787  32.614  35.759  1.00  0.00     0.148 A 
ATOM     68  C   UNL A   1      37.724  31.480  37.295  1.00  0.00     0.002 A 
ATOM     69  C   UNL A   1      39.275  33.293  36.857  1.00  0.00     0.091 A 
ATOM     70  F   UNL A   1      40.745  33.141  34.984  1.00  0.00    -0.205 F 
ATOM     71  C   UNL A   1      38.235  32.735  37.618  1.00  0.00     0.022 A 
BRANCH  69  72
ATOM     72  S   UNL A   1      39.922  34.877  37.403  1.00  0.00     0.127 S 
ATOM     73  O   UNL A   1      39.635  35.726  36.248  1.00  0.00    -0.237 OA
ATOM     74  O   UNL A   1      39.101  35.152  38.582  1.00  0.00    -0.237 OA
ATOM     75  O   UNL A   1      41.335  34.661  37.683  1.00  0.00    -0.744 OA
ENDBRANCH  69  72
ENDBRANCH  51  65
BRANCH  52  76
ATOM     76  C   UNL A   1      43.001  26.532  27.532  1.00  0.00     0.023 A 
ATOM     77  C   UNL A   1      43.796  27.271  26.633  1.00  0.00     0.012 A 
ATOM     78  C   UNL A   1      42.773  25.164  27.280  1.00  0.00     0.148 A 
ATOM     79  C   UNL A   1      44.325  26.669  25.490  1.00  0.00     0.002 A 
ATOM     80  C   UNL A   1      43.350  24.559  26.169  1.00  0.00     0.091 A 
ATOM     81  F   UNL A   1      41.995  24.484  28.133  1.00  0.00    -0.205 F 
ATOM     82  C   UNL A   1      44.110  25.313  25.263  1.00  0.00     0.022 A 
BRANCH  80  83
ATOM     83  S   UNL A   1      43.220  22.795  25.854  1.00  0.00     0.127 S 
ATOM     84  O   UNL A   1      41.992  22.454  26.568  1.00  0.00    -0.237 OA
ATOM     85  O   UNL A   1      43.114  22.760  24.395  1.00  0.00    -0.237 OA
ATOM     86  O   UNL A   1      44.441  22.207  26.386  1.00  0.00    -0.744 OA
ENDBRANCH  80  83
ENDBRANCH  52  76
BRANCH  64  87
ATOM     87  C   UNL A   1      45.148  27.351  34.135  1.00  0.00     0.023 A 
ATOM     88  C   UNL A   1      45.130  26.097  34.775  1.00  0.00     0.012 A 
ATOM     89  C   UNL A   1      46.340  28.108  34.137  1.00  0.00     0.148 A 
ATOM     90  C   UNL A   1      46.265  25.617  35.429  1.00  0.00     0.002 A 
ATOM     91  C   UNL A   1      47.482  27.599  34.744  1.00  0.00     0.091 A 
ATOM     92  F   UNL A   1      46.336  29.305  33.534  1.00  0.00    -0.205 F 
ATOM     93  C   UNL A   1      47.443  26.360  35.402  1.00  0.00     0.022 A 
BRANCH  91  94
ATOM     94  S   UNL A   1      49.068  28.439  34.673  1.00  0.00     0.127 S 
ATOM     95  O   UNL A   1      48.660  29.835  34.518  1.00  0.00    -0.237 OA
ATOM     96  O   UNL A   1      49.647  28.117  35.978  1.00  0.00    -0.237 OA
ATOM     97  O   UNL A   1      49.779  27.870  33.536  1.00  0.00    -0.744 OA
ENDBRANCH  91  94
ENDBRANCH  64  87
ENDBRANCH  38  39
ENDBRANCH  31  33
ENDBRANCH  30  31
ENDBRANCH  29  30
ENDBRANCH  28  29
ENDBRANCH  27  28
ENDBRANCH   1  27
TORSDOF 23
ENDMDL
