MODEL 1
REMARK VINA RESULT:     -10.5      0.000      0.000
REMARK SMILES CC[C@@](C)(NC(=O)NCCc1ncn[nH]1)C(=O)OCCOCCOCCOC(=O)c1ccc(-c2c3nc(c(-c4cccc(S(=O)(=O)[O-])c4F)c4ccc([nH]4)c(-c4cccc(S(=O)(=O)[O-])c4F)c4nc(c(-c5cccc(S(=O)(=O)[O-])c5F)c5ccc2[nH]5)C=C4)C=C3)cc1
REMARK SMILES IDX 22 1 21 2 20 3 19 4 18 5 16 6 17 7 3 8 4 9 2 10 1 11 5 12
REMARK SMILES IDX 6 13 7 15 8 16 9 18 10 19 11 20 12 21 15 22 13 23 14 24
REMARK SMILES IDX 23 26 24 27 25 28 26 29 27 30 28 31 29 32 30 33 31 34 92 35
REMARK SMILES IDX 32 36 91 37 33 38 34 39 35 40 85 41 36 42 90 43 84 44 86 45
REMARK SMILES IDX 37 46 89 47 83 48 82 49 38 51 70 52 50 53 69 54 51 55 54 56
REMARK SMILES IDX 68 57 87 58 52 59 53 60 67 62 88 63 55 64 39 65 40 66 48 67
REMARK SMILES IDX 41 68 43 69 49 70 42 71 44 72 45 73 46 74 47 75 71 76 72 77
REMARK SMILES IDX 80 78 73 79 75 80 81 81 74 82 76 83 77 84 78 85 79 86 56 87
REMARK SMILES IDX 57 88 65 89 58 90 60 91 66 92 59 93 61 94 62 95 63 96 64 97
REMARK H PARENT 5 14 8 17 15 25 86 50 54 61
REMARK Flexibility Score: inf
ROOT
ATOM      1  C   UNL A   1      33.390  21.465  25.043  1.00  0.00     0.188 C 
ENDROOT
BRANCH   1   2
ATOM      2  O   UNL A   1      33.171  22.126  23.800  1.00  0.00    -0.376 OA
BRANCH   2   3
ATOM      3  C   UNL A   1      31.805  22.355  23.451  1.00  0.00     0.202 C 
BRANCH   3   4
ATOM      4  C   UNL A   1      31.513  23.840  23.224  1.00  0.00     0.261 C 
BRANCH   4   5
ATOM      5  O   UNL A   1      31.201  24.407  24.509  1.00  0.00    -0.462 OA
BRANCH   5   6
ATOM      6  C   UNL A   1      32.065  25.278  25.063  1.00  0.00     0.331 C 
ATOM      7  O   UNL A   1      32.930  24.949  25.867  1.00  0.00    -0.249 OA
BRANCH   6   8
ATOM      8  C   UNL A   1      31.845  26.732  24.544  1.00  0.00     0.136 C 
ATOM      9  C   UNL A   1      30.330  26.920  24.378  1.00  0.00     0.047 C 
BRANCH   8  10
ATOM     10  C   UNL A   1      32.393  27.721  25.637  1.00  0.00     0.037 C 
ATOM     11  C   UNL A   1      31.554  27.998  26.875  1.00  0.00     0.007 C 
ENDBRANCH   8  10
BRANCH   8  12
ATOM     12  N   UNL A   1      32.538  27.207  23.289  1.00  0.00    -0.322 N 
ATOM     13  C   UNL A   1      32.703  28.344  22.611  1.00  0.00     0.315 C 
ATOM     14  H   UNL A   1      33.003  26.462  22.842  1.00  0.00     0.166 HD
ATOM     15  O   UNL A   1      33.799  28.523  22.075  1.00  0.00    -0.249 OA
ATOM     16  N   UNL A   1      31.776  29.291  22.446  1.00  0.00    -0.338 N 
ATOM     17  H   UNL A   1      32.114  30.205  22.310  1.00  0.00     0.165 HD
BRANCH  16  18
ATOM     18  C   UNL A   1      30.341  29.140  22.443  1.00  0.00     0.125 C 
BRANCH  18  19
ATOM     19  C   UNL A   1      29.593  30.140  23.332  1.00  0.00     0.098 C 
BRANCH  19  20
ATOM     20  C   UNL A   1      28.978  31.226  22.517  1.00  0.00     0.125 A 
ATOM     21  N   UNL A   1      28.233  31.103  21.439  1.00  0.00    -0.220 NA
ATOM     22  N   UNL A   1      29.078  32.553  22.830  1.00  0.00    -0.263 N 
ATOM     23  C   UNL A   1      27.862  32.387  21.162  1.00  0.00     0.246 A 
ATOM     24  N   UNL A   1      28.372  33.311  21.977  1.00  0.00    -0.162 NA
ATOM     25  H   UNL A   1      29.603  32.908  23.584  1.00  0.00     0.192 HD
ENDBRANCH  19  20
ENDBRANCH  18  19
ENDBRANCH  16  18
ENDBRANCH   8  12
ENDBRANCH   6   8
ENDBRANCH   5   6
ENDBRANCH   4   5
ENDBRANCH   3   4
ENDBRANCH   2   3
ENDBRANCH   1   2
BRANCH   1  26
ATOM     26  C   UNL A   1      33.749  19.999  24.893  1.00  0.00     0.188 C 
BRANCH  26  27
ATOM     27  O   UNL A   1      35.134  19.704  24.740  1.00  0.00    -0.376 OA
BRANCH  27  28
ATOM     28  C   UNL A   1      35.981  20.785  25.162  1.00  0.00     0.202 C 
BRANCH  28  29
ATOM     29  C   UNL A   1      37.500  20.566  25.013  1.00  0.00     0.261 C 
BRANCH  29  30
ATOM     30  O   UNL A   1      38.242  21.666  25.572  1.00  0.00    -0.460 OA
BRANCH  30  31
ATOM     31  C   UNL A   1      39.425  21.344  26.163  1.00  0.00     0.338 C 
ATOM     32  O   UNL A   1      40.055  20.318  26.018  1.00  0.00    -0.246 OA
BRANCH  31  33
ATOM     33  C   UNL A   1      39.976  22.565  26.815  1.00  0.00     0.060 A 
ATOM     34  C   UNL A   1      39.420  23.803  26.451  1.00  0.00     0.016 A 
ATOM     35  C   UNL A   1      40.923  22.499  27.841  1.00  0.00     0.016 A 
ATOM     36  C   UNL A   1      39.835  24.979  27.081  1.00  0.00     0.010 A 
ATOM     37  C   UNL A   1      41.351  23.675  28.460  1.00  0.00     0.010 A 
ATOM     38  C   UNL A   1      40.839  24.920  28.053  1.00  0.00    -0.014 A 
BRANCH  38  39
ATOM     39  C   UNL A   1      41.582  26.145  28.433  1.00  0.00     0.031 A 
ATOM     40  C   UNL A   1      40.777  27.261  29.040  1.00  0.00     0.074 A 
ATOM     41  C   UNL A   1      42.889  26.306  28.171  1.00  0.00     0.049 A 
ATOM     42  N   UNL A   1      41.132  28.485  29.322  1.00  0.00    -0.248 NA
ATOM     43  C   UNL A   1      39.369  26.953  29.350  1.00  0.00     0.031 C 
ATOM     44  C   UNL A   1      43.768  25.301  27.578  1.00  0.00     0.029 A 
ATOM     45  N   UNL A   1      43.692  27.410  28.325  1.00  0.00    -0.354 N 
ATOM     46  C   UNL A   1      39.982  29.105  29.795  1.00  0.00     0.074 A 
ATOM     47  C   UNL A   1      38.921  28.125  29.768  1.00  0.00     0.031 C 
ATOM     48  C   UNL A   1      44.977  25.853  27.366  1.00  0.00     0.029 A 
ATOM     49  C   UNL A   1      44.946  27.256  27.781  1.00  0.00     0.049 A 
ATOM     50  H   UNL A   1      43.399  28.232  28.782  1.00  0.00     0.167 HD
ATOM     51  C   UNL A   1      39.820  30.378  30.218  1.00  0.00     0.034 A 
ATOM     52  C   UNL A   1      45.934  28.156  27.603  1.00  0.00     0.034 A 
ATOM     53  C   UNL A   1      40.876  31.347  30.253  1.00  0.00     0.049 A 
ATOM     54  C   UNL A   1      45.736  29.574  28.081  1.00  0.00     0.074 A 
ATOM     55  C   UNL A   1      40.835  32.647  30.721  1.00  0.00     0.029 A 
ATOM     56  N   UNL A   1      42.159  31.125  29.780  1.00  0.00    -0.354 N 
ATOM     57  N   UNL A   1      44.689  30.111  28.660  1.00  0.00    -0.248 NA
ATOM     58  C   UNL A   1      46.863  30.505  27.908  1.00  0.00     0.031 C 
ATOM     59  C   UNL A   1      42.093  33.221  30.509  1.00  0.00     0.029 A 
ATOM     60  C   UNL A   1      42.920  32.269  29.930  1.00  0.00     0.049 A 
ATOM     61  H   UNL A   1      42.482  30.279  29.393  1.00  0.00     0.167 HD
ATOM     62  C   UNL A   1      45.039  31.428  28.948  1.00  0.00     0.074 A 
ATOM     63  C   UNL A   1      46.401  31.604  28.492  1.00  0.00     0.031 C 
ATOM     64  C   UNL A   1      44.296  32.405  29.527  1.00  0.00     0.034 A 
BRANCH  51  65
ATOM     65  C   UNL A   1      38.447  30.776  30.682  1.00  0.00     0.023 A 
ATOM     66  C   UNL A   1      38.033  30.456  31.992  1.00  0.00     0.012 A 
ATOM     67  C   UNL A   1      37.567  31.462  29.825  1.00  0.00     0.148 A 
ATOM     68  C   UNL A   1      36.748  30.778  32.426  1.00  0.00     0.002 A 
ATOM     69  C   UNL A   1      36.304  31.817  30.280  1.00  0.00     0.091 A 
ATOM     70  F   UNL A   1      37.967  31.724  28.572  1.00  0.00    -0.205 F 
ATOM     71  C   UNL A   1      35.888  31.466  31.575  1.00  0.00     0.022 A 
BRANCH  69  72
ATOM     72  S   UNL A   1      35.158  32.765  29.275  1.00  0.00     0.127 S 
ATOM     73  O   UNL A   1      34.043  32.960  30.200  1.00  0.00    -0.237 OA
ATOM     74  O   UNL A   1      35.926  33.976  28.984  1.00  0.00    -0.237 OA
ATOM     75  O   UNL A   1      34.875  31.939  28.110  1.00  0.00    -0.744 OA
ENDBRANCH  69  72
ENDBRANCH  51  65
BRANCH  52  76
ATOM     76  C   UNL A   1      47.209  27.737  26.952  1.00  0.00     0.023 A 
ATOM     77  C   UNL A   1      48.270  27.258  27.744  1.00  0.00     0.012 A 
ATOM     78  C   UNL A   1      47.361  27.776  25.551  1.00  0.00     0.148 A 
ATOM     79  C   UNL A   1      49.465  26.842  27.156  1.00  0.00     0.002 A 
ATOM     80  C   UNL A   1      48.535  27.312  24.968  1.00  0.00     0.091 A 
ATOM     81  F   UNL A   1      46.347  28.253  24.816  1.00  0.00    -0.205 F 
ATOM     82  C   UNL A   1      49.594  26.858  25.769  1.00  0.00     0.022 A 
BRANCH  80  83
ATOM     83  S   UNL A   1      48.748  27.181  23.189  1.00  0.00     0.127 S 
ATOM     84  O   UNL A   1      48.164  25.872  22.912  1.00  0.00    -0.237 OA
ATOM     85  O   UNL A   1      47.963  28.320  22.709  1.00  0.00    -0.237 OA
ATOM     86  O   UNL A   1      50.181  27.297  22.954  1.00  0.00    -0.744 OA
ENDBRANCH  80  83
ENDBRANCH  52  76
BRANCH  64  87
ATOM     87  C   UNL A   1      44.935  33.750  29.745  1.00  0.00     0.023 A 
ATOM     88  C   UNL A   1      45.772  33.955  30.859  1.00  0.00     0.012 A 
ATOM     89  C   UNL A   1      44.817  34.763  28.771  1.00  0.00     0.148 A 
ATOM     90  C   UNL A   1      46.473  35.151  31.006  1.00  0.00     0.002 A 
ATOM     91  C   UNL A   1      45.553  35.934  28.902  1.00  0.00     0.091 A 
ATOM     92  F   UNL A   1      44.003  34.550  27.727  1.00  0.00    -0.205 F 
ATOM     93  C   UNL A   1      46.375  36.133  30.022  1.00  0.00     0.022 A 
BRANCH  91  94
ATOM     94  S   UNL A   1      45.569  37.208  27.634  1.00  0.00     0.127 S 
ATOM     95  O   UNL A   1      45.561  38.428  28.438  1.00  0.00    -0.237 OA
ATOM     96  O   UNL A   1      46.830  36.941  26.942  1.00  0.00    -0.237 OA
ATOM     97  O   UNL A   1      44.378  36.986  26.825  1.00  0.00    -0.744 OA
ENDBRANCH  91  94
ENDBRANCH  64  87
ENDBRANCH  38  39
ENDBRANCH  31  33
ENDBRANCH  30  31
ENDBRANCH  29  30
ENDBRANCH  28  29
ENDBRANCH  27  28
ENDBRANCH  26  27
ENDBRANCH   1  26
TORSDOF 25
ENDMDL
MODEL 2
REMARK VINA RESULT:     -10.2      1.522      7.635
REMARK SMILES CC[C@@](C)(NC(=O)NCCc1ncn[nH]1)C(=O)OCCOCCOCCOC(=O)c1ccc(-c2c3nc(c(-c4cccc(S(=O)(=O)[O-])c4F)c4ccc([nH]4)c(-c4cccc(S(=O)(=O)[O-])c4F)c4nc(c(-c5cccc(S(=O)(=O)[O-])c5F)c5ccc2[nH]5)C=C4)C=C3)cc1
REMARK SMILES IDX 22 1 21 2 20 3 19 4 18 5 16 6 17 7 3 8 4 9 2 10 1 11 5 12
REMARK SMILES IDX 6 13 7 15 8 16 9 18 10 19 11 20 12 21 15 22 13 23 14 24
REMARK SMILES IDX 23 26 24 27 25 28 26 29 27 30 28 31 29 32 30 33 31 34 92 35
REMARK SMILES IDX 32 36 91 37 33 38 34 39 35 40 85 41 36 42 90 43 84 44 86 45
REMARK SMILES IDX 37 46 89 47 83 48 82 49 38 51 70 52 50 53 69 54 51 55 54 56
REMARK SMILES IDX 68 57 87 58 52 59 53 60 67 62 88 63 55 64 39 65 40 66 48 67
REMARK SMILES IDX 41 68 43 69 49 70 42 71 44 72 45 73 46 74 47 75 71 76 72 77
REMARK SMILES IDX 80 78 73 79 75 80 81 81 74 82 76 83 77 84 78 85 79 86 56 87
REMARK SMILES IDX 57 88 65 89 58 90 60 91 66 92 59 93 61 94 62 95 63 96 64 97
REMARK H PARENT 5 14 8 17 15 25 86 50 54 61
REMARK Flexibility Score: inf
ROOT
ATOM      1  C   UNL A   1      33.753  21.360  24.549  1.00  0.00     0.188 C 
ENDROOT
BRANCH   1   2
ATOM      2  O   UNL A   1      33.358  21.774  23.245  1.00  0.00    -0.376 OA
BRANCH   2   3
ATOM      3  C   UNL A   1      32.113  22.469  23.165  1.00  0.00     0.202 C 
BRANCH   3   4
ATOM      4  C   UNL A   1      32.080  23.693  24.084  1.00  0.00     0.261 C 
BRANCH   4   5
ATOM      5  O   UNL A   1      31.682  24.814  23.275  1.00  0.00    -0.462 OA
BRANCH   5   6
ATOM      6  C   UNL A   1      32.421  25.938  23.314  1.00  0.00     0.331 C 
ATOM      7  O   UNL A   1      33.039  26.372  22.347  1.00  0.00    -0.249 OA
BRANCH   6   8
ATOM      8  C   UNL A   1      32.373  26.624  24.714  1.00  0.00     0.136 C 
ATOM      9  C   UNL A   1      33.608  26.140  25.488  1.00  0.00     0.047 C 
BRANCH   8  10
ATOM     10  C   UNL A   1      32.453  28.178  24.491  1.00  0.00     0.037 C 
ATOM     11  C   UNL A   1      31.524  29.090  25.277  1.00  0.00     0.007 C 
ENDBRANCH   8  10
BRANCH   8  12
ATOM     12  N   UNL A   1      31.154  26.476  25.594  1.00  0.00    -0.322 N 
ATOM     13  C   UNL A   1      29.899  26.036  25.491  1.00  0.00     0.315 C 
ATOM     14  H   UNL A   1      31.340  26.796  26.507  1.00  0.00     0.166 HD
ATOM     15  O   UNL A   1      29.429  25.447  26.468  1.00  0.00    -0.249 OA
ATOM     16  N   UNL A   1      29.103  26.200  24.432  1.00  0.00    -0.338 N 
ATOM     17  H   UNL A   1      28.407  25.516  24.306  1.00  0.00     0.165 HD
BRANCH  16  18
ATOM     18  C   UNL A   1      29.137  27.255  23.448  1.00  0.00     0.125 C 
BRANCH  18  19
ATOM     19  C   UNL A   1      27.814  28.011  23.276  1.00  0.00     0.098 C 
BRANCH  19  20
ATOM     20  C   UNL A   1      28.046  29.377  22.727  1.00  0.00     0.125 A 
ATOM     21  N   UNL A   1      28.274  29.717  21.476  1.00  0.00    -0.220 NA
ATOM     22  N   UNL A   1      28.003  30.513  23.487  1.00  0.00    -0.263 N 
ATOM     23  C   UNL A   1      28.312  31.081  21.520  1.00  0.00     0.246 A 
ATOM     24  N   UNL A   1      28.170  31.612  22.736  1.00  0.00    -0.162 NA
ATOM     25  H   UNL A   1      27.868  30.523  24.463  1.00  0.00     0.192 HD
ENDBRANCH  19  20
ENDBRANCH  18  19
ENDBRANCH  16  18
ENDBRANCH   8  12
ENDBRANCH   6   8
ENDBRANCH   5   6
ENDBRANCH   4   5
ENDBRANCH   3   4
ENDBRANCH   2   3
ENDBRANCH   1   2
BRANCH   1  26
ATOM     26  C   UNL A   1      33.991  19.866  24.663  1.00  0.00     0.188 C 
BRANCH  26  27
ATOM     27  O   UNL A   1      35.347  19.456  24.815  1.00  0.00    -0.376 OA
BRANCH  27  28
ATOM     28  C   UNL A   1      36.241  20.562  25.016  1.00  0.00     0.202 C 
BRANCH  28  29
ATOM     29  C   UNL A   1      37.731  20.213  25.208  1.00  0.00     0.261 C 
BRANCH  29  30
ATOM     30  O   UNL A   1      38.527  21.402  25.366  1.00  0.00    -0.460 OA
BRANCH  30  31
ATOM     31  C   UNL A   1      39.559  21.312  26.249  1.00  0.00     0.338 C 
ATOM     32  O   UNL A   1      40.256  20.341  26.456  1.00  0.00    -0.246 OA
BRANCH  31  33
ATOM     33  C   UNL A   1      39.886  22.681  26.736  1.00  0.00     0.060 A 
ATOM     34  C   UNL A   1      39.013  23.724  26.379  1.00  0.00     0.016 A 
ATOM     35  C   UNL A   1      40.943  22.926  27.618  1.00  0.00     0.016 A 
ATOM     36  C   UNL A   1      39.217  25.017  26.867  1.00  0.00     0.010 A 
ATOM     37  C   UNL A   1      41.157  24.221  28.093  1.00  0.00     0.010 A 
ATOM     38  C   UNL A   1      40.321  25.276  27.687  1.00  0.00    -0.014 A 
BRANCH  38  39
ATOM     39  C   UNL A   1      40.797  26.666  27.879  1.00  0.00     0.031 A 
ATOM     40  C   UNL A   1      42.165  26.991  27.346  1.00  0.00     0.074 A 
ATOM     41  C   UNL A   1      40.096  27.579  28.572  1.00  0.00     0.049 A 
ATOM     42  N   UNL A   1      42.885  28.067  27.505  1.00  0.00    -0.248 NA
ATOM     43  C   UNL A   1      42.816  25.942  26.541  1.00  0.00     0.031 C 
ATOM     44  C   UNL A   1      38.766  27.377  29.142  1.00  0.00     0.029 A 
ATOM     45  N   UNL A   1      40.441  28.851  28.958  1.00  0.00    -0.354 N 
ATOM     46  C   UNL A   1      44.089  27.807  26.862  1.00  0.00     0.074 A 
ATOM     47  C   UNL A   1      44.003  26.476  26.308  1.00  0.00     0.031 C 
ATOM     48  C   UNL A   1      38.430  28.467  29.855  1.00  0.00     0.029 A 
ATOM     49  C   UNL A   1      39.532  29.429  29.814  1.00  0.00     0.049 A 
ATOM     50  H   UNL A   1      41.259  29.306  28.652  1.00  0.00     0.167 HD
ATOM     51  C   UNL A   1      45.174  28.603  26.740  1.00  0.00     0.034 A 
ATOM     52  C   UNL A   1      39.606  30.579  30.514  1.00  0.00     0.034 A 
ATOM     53  C   UNL A   1      45.256  29.927  27.283  1.00  0.00     0.049 A 
ATOM     54  C   UNL A   1      40.824  31.457  30.366  1.00  0.00     0.074 A 
ATOM     55  C   UNL A   1      46.284  30.843  27.165  1.00  0.00     0.029 A 
ATOM     56  N   UNL A   1      44.275  30.515  28.066  1.00  0.00    -0.354 N 
ATOM     57  N   UNL A   1      41.898  31.262  29.638  1.00  0.00    -0.248 NA
ATOM     58  C   UNL A   1      40.833  32.726  31.112  1.00  0.00     0.031 C 
ATOM     59  C   UNL A   1      45.934  31.981  27.899  1.00  0.00     0.029 A 
ATOM     60  C   UNL A   1      44.678  31.780  28.453  1.00  0.00     0.049 A 
ATOM     61  H   UNL A   1      43.419  30.095  28.312  1.00  0.00     0.167 HD
ATOM     62  C   UNL A   1      42.694  32.392  29.813  1.00  0.00     0.074 A 
ATOM     63  C   UNL A   1      41.971  33.275  30.705  1.00  0.00     0.031 C 
ATOM     64  C   UNL A   1      43.915  32.669  29.291  1.00  0.00     0.034 A 
BRANCH  51  65
ATOM     65  C   UNL A   1      46.348  28.051  25.981  1.00  0.00     0.023 A 
ATOM     66  C   UNL A   1      46.386  28.166  24.575  1.00  0.00     0.012 A 
ATOM     67  C   UNL A   1      47.408  27.417  26.654  1.00  0.00     0.148 A 
ATOM     68  C   UNL A   1      47.444  27.622  23.850  1.00  0.00     0.002 A 
ATOM     69  C   UNL A   1      48.480  26.916  25.927  1.00  0.00     0.091 A 
ATOM     70  F   UNL A   1      47.335  27.286  27.986  1.00  0.00    -0.205 F 
ATOM     71  C   UNL A   1      48.494  27.006  24.525  1.00  0.00     0.022 A 
BRANCH  69  72
ATOM     72  S   UNL A   1      49.907  26.169  26.720  1.00  0.00     0.127 S 
ATOM     73  O   UNL A   1      49.278  25.178  27.591  1.00  0.00    -0.237 OA
ATOM     74  O   UNL A   1      50.636  25.606  25.583  1.00  0.00    -0.237 OA
ATOM     75  O   UNL A   1      50.597  27.258  27.397  1.00  0.00    -0.744 OA
ENDBRANCH  69  72
ENDBRANCH  51  65
BRANCH  52  76
ATOM     76  C   UNL A   1      38.479  30.975  31.408  1.00  0.00     0.023 A 
ATOM     77  C   UNL A   1      38.558  30.706  32.788  1.00  0.00     0.012 A 
ATOM     78  C   UNL A   1      37.348  31.648  30.903  1.00  0.00     0.148 A 
ATOM     79  C   UNL A   1      37.524  31.084  33.646  1.00  0.00     0.002 A 
ATOM     80  C   UNL A   1      36.346  32.067  31.771  1.00  0.00     0.091 A 
ATOM     81  F   UNL A   1      37.283  31.877  29.584  1.00  0.00    -0.205 F 
ATOM     82  C   UNL A   1      36.425  31.774  33.141  1.00  0.00     0.022 A 
BRANCH  80  83
ATOM     83  S   UNL A   1      34.952  33.065  31.233  1.00  0.00     0.127 S 
ATOM     84  O   UNL A   1      34.120  33.091  32.433  1.00  0.00    -0.237 OA
ATOM     85  O   UNL A   1      35.601  34.335  30.906  1.00  0.00    -0.237 OA
ATOM     86  O   UNL A   1      34.386  32.366  30.087  1.00  0.00    -0.744 OA
ENDBRANCH  80  83
ENDBRANCH  52  76
BRANCH  64  87
ATOM     87  C   UNL A   1      44.551  33.991  29.628  1.00  0.00     0.023 A 
ATOM     88  C   UNL A   1      45.314  34.121  30.804  1.00  0.00     0.012 A 
ATOM     89  C   UNL A   1      44.507  35.059  28.708  1.00  0.00     0.148 A 
ATOM     90  C   UNL A   1      46.015  35.297  31.066  1.00  0.00     0.002 A 
ATOM     91  C   UNL A   1      45.243  36.211  28.954  1.00  0.00     0.091 A 
ATOM     92  F   UNL A   1      43.762  34.917  27.602  1.00  0.00    -0.205 F 
ATOM     93  C   UNL A   1      45.991  36.336  30.136  1.00  0.00     0.022 A 
BRANCH  91  94
ATOM     94  S   UNL A   1      45.356  37.554  27.766  1.00  0.00     0.127 S 
ATOM     95  O   UNL A   1      43.960  37.973  27.657  1.00  0.00    -0.237 OA
ATOM     96  O   UNL A   1      46.227  38.506  28.455  1.00  0.00    -0.237 OA
ATOM     97  O   UNL A   1      45.930  36.976  26.558  1.00  0.00    -0.744 OA
ENDBRANCH  91  94
ENDBRANCH  64  87
ENDBRANCH  38  39
ENDBRANCH  31  33
ENDBRANCH  30  31
ENDBRANCH  29  30
ENDBRANCH  28  29
ENDBRANCH  27  28
ENDBRANCH  26  27
ENDBRANCH   1  26
TORSDOF 25
ENDMDL
MODEL 3
REMARK VINA RESULT:      -9.9      2.793      8.062
REMARK SMILES CC[C@@](C)(NC(=O)NCCc1ncn[nH]1)C(=O)OCCOCCOCCOC(=O)c1ccc(-c2c3nc(c(-c4cccc(S(=O)(=O)[O-])c4F)c4ccc([nH]4)c(-c4cccc(S(=O)(=O)[O-])c4F)c4nc(c(-c5cccc(S(=O)(=O)[O-])c5F)c5ccc2[nH]5)C=C4)C=C3)cc1
REMARK SMILES IDX 22 1 21 2 20 3 19 4 18 5 16 6 17 7 3 8 4 9 2 10 1 11 5 12
REMARK SMILES IDX 6 13 7 15 8 16 9 18 10 19 11 20 12 21 15 22 13 23 14 24
REMARK SMILES IDX 23 26 24 27 25 28 26 29 27 30 28 31 29 32 30 33 31 34 92 35
REMARK SMILES IDX 32 36 91 37 33 38 34 39 35 40 85 41 36 42 90 43 84 44 86 45
REMARK SMILES IDX 37 46 89 47 83 48 82 49 38 51 70 52 50 53 69 54 51 55 54 56
REMARK SMILES IDX 68 57 87 58 52 59 53 60 67 62 88 63 55 64 39 65 40 66 48 67
REMARK SMILES IDX 41 68 43 69 49 70 42 71 44 72 45 73 46 74 47 75 71 76 72 77
REMARK SMILES IDX 80 78 73 79 75 80 81 81 74 82 76 83 77 84 78 85 79 86 56 87
REMARK SMILES IDX 57 88 65 89 58 90 60 91 66 92 59 93 61 94 62 95 63 96 64 97
REMARK H PARENT 5 14 8 17 15 25 86 50 54 61
REMARK Flexibility Score: inf
ROOT
ATOM      1  C   UNL A   1      34.361  21.872  25.327  1.00  0.00     0.188 C 
ENDROOT
BRANCH   1   2
ATOM      2  O   UNL A   1      33.218  22.359  24.632  1.00  0.00    -0.376 OA
BRANCH   2   3
ATOM      3  C   UNL A   1      31.956  21.877  25.097  1.00  0.00     0.202 C 
BRANCH   3   4
ATOM      4  C   UNL A   1      30.880  22.965  25.065  1.00  0.00     0.261 C 
BRANCH   4   5
ATOM      5  O   UNL A   1      30.852  23.488  23.726  1.00  0.00    -0.462 OA
BRANCH   5   6
ATOM      6  C   UNL A   1      30.777  24.820  23.548  1.00  0.00     0.331 C 
ATOM      7  O   UNL A   1      29.738  25.458  23.671  1.00  0.00    -0.249 OA
BRANCH   6   8
ATOM      8  C   UNL A   1      32.163  25.443  23.196  1.00  0.00     0.136 C 
ATOM      9  C   UNL A   1      32.753  24.598  22.058  1.00  0.00     0.047 C 
BRANCH   8  10
ATOM     10  C   UNL A   1      31.916  26.915  22.701  1.00  0.00     0.037 C 
ATOM     11  C   UNL A   1      33.094  27.870  22.595  1.00  0.00     0.007 C 
ENDBRANCH   8  10
BRANCH   8  12
ATOM     12  N   UNL A   1      33.212  25.624  24.267  1.00  0.00    -0.322 N 
ATOM     13  C   UNL A   1      33.287  25.621  25.599  1.00  0.00     0.315 C 
ATOM     14  H   UNL A   1      34.097  25.790  23.867  1.00  0.00     0.166 HD
ATOM     15  O   UNL A   1      34.303  25.136  26.103  1.00  0.00    -0.249 OA
ATOM     16  N   UNL A   1      32.367  26.119  26.429  1.00  0.00    -0.338 N 
ATOM     17  H   UNL A   1      32.326  25.708  27.322  1.00  0.00     0.165 HD
BRANCH  16  18
ATOM     18  C   UNL A   1      31.427  27.184  26.179  1.00  0.00     0.125 C 
BRANCH  18  19
ATOM     19  C   UNL A   1      31.539  28.374  27.139  1.00  0.00     0.098 C 
BRANCH  19  20
ATOM     20  C   UNL A   1      32.899  28.983  27.079  1.00  0.00     0.125 A 
ATOM     21  N   UNL A   1      33.852  28.747  26.202  1.00  0.00    -0.220 NA
ATOM     22  N   UNL A   1      33.332  29.949  27.945  1.00  0.00    -0.263 N 
ATOM     23  C   UNL A   1      34.830  29.634  26.550  1.00  0.00     0.246 A 
ATOM     24  N   UNL A   1      34.562  30.378  27.624  1.00  0.00    -0.162 NA
ATOM     25  H   UNL A   1      32.808  30.286  28.708  1.00  0.00     0.192 HD
ENDBRANCH  19  20
ENDBRANCH  18  19
ENDBRANCH  16  18
ENDBRANCH   8  12
ENDBRANCH   6   8
ENDBRANCH   5   6
ENDBRANCH   4   5
ENDBRANCH   3   4
ENDBRANCH   2   3
ENDBRANCH   1   2
BRANCH   1  26
ATOM     26  C   UNL A   1      34.832  20.514  24.843  1.00  0.00     0.188 C 
BRANCH  26  27
ATOM     27  O   UNL A   1      36.241  20.311  24.815  1.00  0.00    -0.376 OA
BRANCH  27  28
ATOM     28  C   UNL A   1      36.926  21.031  25.853  1.00  0.00     0.202 C 
BRANCH  28  29
ATOM     29  C   UNL A   1      38.400  21.390  25.581  1.00  0.00     0.261 C 
BRANCH  29  30
ATOM     30  O   UNL A   1      38.691  22.739  25.994  1.00  0.00    -0.460 OA
BRANCH  30  31
ATOM     31  C   UNL A   1      39.888  22.923  26.615  1.00  0.00     0.338 C 
ATOM     32  O   UNL A   1      40.838  22.169  26.602  1.00  0.00    -0.246 OA
BRANCH  31  33
ATOM     33  C   UNL A   1      39.960  24.331  27.096  1.00  0.00     0.060 A 
ATOM     34  C   UNL A   1      40.424  25.304  26.193  1.00  0.00     0.016 A 
ATOM     35  C   UNL A   1      39.476  24.715  28.350  1.00  0.00     0.016 A 
ATOM     36  C   UNL A   1      40.441  26.653  26.554  1.00  0.00     0.010 A 
ATOM     37  C   UNL A   1      39.508  26.062  28.717  1.00  0.00     0.010 A 
ATOM     38  C   UNL A   1      40.029  27.027  27.838  1.00  0.00    -0.014 A 
BRANCH  38  39
ATOM     39  C   UNL A   1      40.414  28.348  28.388  1.00  0.00     0.031 A 
ATOM     40  C   UNL A   1      41.881  28.583  28.617  1.00  0.00     0.074 A 
ATOM     41  C   UNL A   1      39.506  29.267  28.758  1.00  0.00     0.049 A 
ATOM     42  N   UNL A   1      42.482  29.571  29.221  1.00  0.00    -0.248 NA
ATOM     43  C   UNL A   1      42.793  27.541  28.110  1.00  0.00     0.031 C 
ATOM     44  C   UNL A   1      38.060  29.148  28.594  1.00  0.00     0.029 A 
ATOM     45  N   UNL A   1      39.677  30.468  29.403  1.00  0.00    -0.354 N 
ATOM     46  C   UNL A   1      43.833  29.248  29.209  1.00  0.00     0.074 A 
ATOM     47  C   UNL A   1      43.966  27.977  28.536  1.00  0.00     0.031 C 
ATOM     48  C   UNL A   1      37.469  30.208  29.177  1.00  0.00     0.029 A 
ATOM     49  C   UNL A   1      38.494  31.062  29.777  1.00  0.00     0.049 A 
ATOM     50  H   UNL A   1      40.561  30.866  29.579  1.00  0.00     0.167 HD
ATOM     51  C   UNL A   1      44.876  29.946  29.712  1.00  0.00     0.034 A 
ATOM     52  C   UNL A   1      38.271  32.144  30.551  1.00  0.00     0.034 A 
ATOM     53  C   UNL A   1      44.743  31.212  30.373  1.00  0.00     0.049 A 
ATOM     54  C   UNL A   1      39.445  32.912  31.104  1.00  0.00     0.074 A 
ATOM     55  C   UNL A   1      45.738  32.033  30.865  1.00  0.00     0.029 A 
ATOM     56  N   UNL A   1      43.533  31.827  30.650  1.00  0.00    -0.354 N 
ATOM     57  N   UNL A   1      40.728  32.673  30.963  1.00  0.00    -0.248 NA
ATOM     58  C   UNL A   1      39.148  34.113  31.900  1.00  0.00     0.031 C 
ATOM     59  C   UNL A   1      45.128  33.139  31.464  1.00  0.00     0.029 A 
ATOM     60  C   UNL A   1      43.753  33.015  31.322  1.00  0.00     0.049 A 
ATOM     61  H   UNL A   1      42.647  31.472  30.407  1.00  0.00     0.167 HD
ATOM     62  C   UNL A   1      41.388  33.706  31.623  1.00  0.00     0.074 A 
ATOM     63  C   UNL A   1      40.364  34.582  32.153  1.00  0.00     0.031 C 
ATOM     64  C   UNL A   1      42.721  33.906  31.786  1.00  0.00     0.034 A 
BRANCH  51  65
ATOM     65  C   UNL A   1      46.244  29.346  29.551  1.00  0.00     0.023 A 
ATOM     66  C   UNL A   1      46.794  28.573  30.596  1.00  0.00     0.012 A 
ATOM     67  C   UNL A   1      46.986  29.548  28.373  1.00  0.00     0.148 A 
ATOM     68  C   UNL A   1      48.078  28.045  30.483  1.00  0.00     0.002 A 
ATOM     69  C   UNL A   1      48.248  28.982  28.253  1.00  0.00     0.091 A 
ATOM     70  F   UNL A   1      46.460  30.316  27.408  1.00  0.00    -0.205 F 
ATOM     71  C   UNL A   1      48.801  28.241  29.310  1.00  0.00     0.022 A 
BRANCH  69  72
ATOM     72  S   UNL A   1      49.220  29.125  26.750  1.00  0.00     0.127 S 
ATOM     73  O   UNL A   1      49.446  30.568  26.679  1.00  0.00    -0.237 OA
ATOM     74  O   UNL A   1      50.410  28.338  27.072  1.00  0.00    -0.237 OA
ATOM     75  O   UNL A   1      48.395  28.563  25.690  1.00  0.00    -0.744 OA
ENDBRANCH  69  72
ENDBRANCH  51  65
BRANCH  52  76
ATOM     76  C   UNL A   1      36.870  32.574  30.834  1.00  0.00     0.023 A 
ATOM     77  C   UNL A   1      36.339  32.407  32.127  1.00  0.00     0.012 A 
ATOM     78  C   UNL A   1      36.077  33.181  29.838  1.00  0.00     0.148 A 
ATOM     79  C   UNL A   1      35.038  32.820  32.419  1.00  0.00     0.002 A 
ATOM     80  C   UNL A   1      34.802  33.636  30.150  1.00  0.00     0.091 A 
ATOM     81  F   UNL A   1      36.595  33.313  28.609  1.00  0.00    -0.205 F 
ATOM     82  C   UNL A   1      34.274  33.444  31.436  1.00  0.00     0.022 A 
BRANCH  80  83
ATOM     83  S   UNL A   1      33.790  34.557  28.986  1.00  0.00     0.127 S 
ATOM     84  O   UNL A   1      34.707  35.610  28.559  1.00  0.00    -0.237 OA
ATOM     85  O   UNL A   1      33.501  33.543  27.972  1.00  0.00    -0.237 OA
ATOM     86  O   UNL A   1      32.626  35.002  29.740  1.00  0.00    -0.744 OA
ENDBRANCH  80  83
ENDBRANCH  52  76
BRANCH  64  87
ATOM     87  C   UNL A   1      43.171  35.133  32.532  1.00  0.00     0.023 A 
ATOM     88  C   UNL A   1      43.388  35.066  33.922  1.00  0.00     0.012 A 
ATOM     89  C   UNL A   1      43.514  36.308  31.832  1.00  0.00     0.148 A 
ATOM     90  C   UNL A   1      43.928  36.154  34.606  1.00  0.00     0.002 A 
ATOM     91  C   UNL A   1      44.093  37.371  32.513  1.00  0.00     0.091 A 
ATOM     92  F   UNL A   1      43.285  36.353  30.512  1.00  0.00    -0.205 F 
ATOM     93  C   UNL A   1      44.293  37.300  33.901  1.00  0.00     0.022 A 
BRANCH  91  94
ATOM     94  S   UNL A   1      44.690  38.843  31.672  1.00  0.00     0.127 S 
ATOM     95  O   UNL A   1      45.249  39.614  32.781  1.00  0.00    -0.237 OA
ATOM     96  O   UNL A   1      45.683  38.293  30.750  1.00  0.00    -0.237 OA
ATOM     97  O   UNL A   1      43.527  39.436  31.024  1.00  0.00    -0.744 OA
ENDBRANCH  91  94
ENDBRANCH  64  87
ENDBRANCH  38  39
ENDBRANCH  31  33
ENDBRANCH  30  31
ENDBRANCH  29  30
ENDBRANCH  28  29
ENDBRANCH  27  28
ENDBRANCH  26  27
ENDBRANCH   1  26
TORSDOF 25
ENDMDL
