MODEL 1
REMARK VINA RESULT:      -9.7      0.000      0.000
REMARK SMILES Cc1noc(C)c1[C@H](C)NC(=O)NCC(=O)NCC(=O)OCCOCCOCCOC(=O)c1ccc(-c2c3nc(c(-c4cccc(S(=O)(=O)[O-])c4F)c4ccc([nH]4)c(-c4cccc(S(=O)(=O)[O-])c4F)c4nc(c(-c5cccc(S(=O)(=O)[O-])c5F)c5ccc2[nH]5)C=C4)C=C3)cc1
REMARK SMILES IDX 25 1 24 2 23 3 22 4 21 5 19 6 20 7 18 8 17 9 15 10 16 11
REMARK SMILES IDX 14 13 13 14 10 15 11 16 12 18 8 20 9 21 7 22 1 23 2 24 3 25
REMARK SMILES IDX 4 26 5 27 6 28 26 29 27 30 28 31 29 32 30 33 31 34 32 35
REMARK SMILES IDX 33 36 34 37 95 38 35 39 94 40 36 41 37 42 38 43 88 44 39 45
REMARK SMILES IDX 93 46 87 47 89 48 40 49 92 50 86 51 85 52 41 54 73 55 53 56
REMARK SMILES IDX 72 57 54 58 57 59 71 60 90 61 55 62 56 63 70 65 91 66 58 67
REMARK SMILES IDX 42 68 43 69 51 70 44 71 46 72 52 73 45 74 47 75 48 76 49 77
REMARK SMILES IDX 50 78 74 79 75 80 83 81 76 82 78 83 84 84 77 85 79 86 80 87
REMARK SMILES IDX 81 88 82 89 59 90 60 91 68 92 61 93 63 94 69 95 62 96 64 97
REMARK SMILES IDX 65 98 66 99 67 100
REMARK H PARENT 17 12 10 17 13 19 89 53 57 64
REMARK Flexibility Score: inf
ROOT
ATOM      1  C   UNL A   1      35.474  23.098  25.106  1.00  0.00     0.188 C 
ENDROOT
BRANCH   1   2
ATOM      2  O   UNL A   1      35.365  24.504  24.957  1.00  0.00    -0.376 OA
BRANCH   2   3
ATOM      3  C   UNL A   1      34.646  25.237  25.945  1.00  0.00     0.202 C 
BRANCH   3   4
ATOM      4  C   UNL A   1      34.056  26.592  25.533  1.00  0.00     0.261 C 
BRANCH   4   5
ATOM      5  O   UNL A   1      33.014  26.428  24.547  1.00  0.00    -0.462 OA
BRANCH   5   6
ATOM      6  C   UNL A   1      32.250  27.537  24.326  1.00  0.00     0.325 C 
ATOM      7  O   UNL A   1      32.691  28.614  23.941  1.00  0.00    -0.250 OA
BRANCH   6   8
ATOM      8  C   UNL A   1      30.770  27.185  24.244  1.00  0.00     0.238 C 
BRANCH   8   9
ATOM      9  N   UNL A   1      30.202  26.109  25.017  1.00  0.00    -0.344 N 
ATOM     10  C   UNL A   1      30.317  24.774  24.774  1.00  0.00     0.239 C 
ATOM     11  O   UNL A   1      30.235  24.004  25.737  1.00  0.00    -0.273 OA
ATOM     12  H   UNL A   1      29.673  26.367  25.807  1.00  0.00     0.164 HD
BRANCH  10  13
ATOM     13  C   UNL A   1      30.615  24.201  23.371  1.00  0.00     0.217 C 
BRANCH  13  14
ATOM     14  N   UNL A   1      31.928  24.395  22.771  1.00  0.00    -0.329 N 
ATOM     15  N   UNL A   1      33.013  22.291  22.601  1.00  0.00    -0.331 N 
ATOM     16  C   UNL A   1      32.971  23.623  22.435  1.00  0.00     0.315 C 
ATOM     17  H   UNL A   1      33.926  21.922  22.637  1.00  0.00     0.165 HD
ATOM     18  O   UNL A   1      33.967  24.196  21.993  1.00  0.00    -0.249 OA
ATOM     19  H   UNL A   1      32.092  25.340  22.556  1.00  0.00     0.165 HD
BRANCH  15  20
ATOM     20  C   UNL A   1      31.967  21.290  22.739  1.00  0.00     0.116 C 
ATOM     21  C   UNL A   1      31.749  20.643  21.373  1.00  0.00     0.036 C 
BRANCH  20  22
ATOM     22  C   UNL A   1      32.309  20.328  23.846  1.00  0.00     0.040 A 
ATOM     23  C   UNL A   1      32.562  18.042  22.535  1.00  0.00     0.071 C 
ATOM     24  C   UNL A   1      32.566  18.921  23.725  1.00  0.00     0.086 A 
ATOM     25  N   UNL A   1      32.871  18.369  24.902  1.00  0.00    -0.085 NA
ATOM     26  O   UNL A   1      32.863  19.392  25.812  1.00  0.00    -0.361 OA
ATOM     27  C   UNL A   1      32.556  20.559  25.191  1.00  0.00     0.139 A 
ATOM     28  C   UNL A   1      32.604  21.741  26.071  1.00  0.00     0.091 C 
ENDBRANCH  20  22
ENDBRANCH  15  20
ENDBRANCH  13  14
ENDBRANCH  10  13
ENDBRANCH   8   9
ENDBRANCH   6   8
ENDBRANCH   5   6
ENDBRANCH   4   5
ENDBRANCH   3   4
ENDBRANCH   2   3
ENDBRANCH   1   2
BRANCH   1  29
ATOM     29  C   UNL A   1      36.862  22.584  25.480  1.00  0.00     0.188 C 
BRANCH  29  30
ATOM     30  O   UNL A   1      37.079  21.184  25.505  1.00  0.00    -0.376 OA
BRANCH  30  31
ATOM     31  C   UNL A   1      38.352  20.632  25.166  1.00  0.00     0.202 C 
BRANCH  31  32
ATOM     32  C   UNL A   1      39.573  20.522  26.116  1.00  0.00     0.261 C 
BRANCH  32  33
ATOM     33  O   UNL A   1      40.366  19.336  26.077  1.00  0.00    -0.460 OA
BRANCH  33  34
ATOM     34  C   UNL A   1      41.710  19.518  26.051  1.00  0.00     0.338 C 
ATOM     35  O   UNL A   1      42.526  18.762  25.584  1.00  0.00    -0.246 OA
BRANCH  34  36
ATOM     36  C   UNL A   1      41.978  20.930  26.451  1.00  0.00     0.060 A 
ATOM     37  C   UNL A   1      42.091  21.878  25.426  1.00  0.00     0.016 A 
ATOM     38  C   UNL A   1      42.033  21.340  27.788  1.00  0.00     0.016 A 
ATOM     39  C   UNL A   1      42.301  23.225  25.727  1.00  0.00     0.010 A 
ATOM     40  C   UNL A   1      42.262  22.689  28.090  1.00  0.00     0.010 A 
ATOM     41  C   UNL A   1      42.432  23.633  27.060  1.00  0.00    -0.014 A 
BRANCH  41  42
ATOM     42  C   UNL A   1      42.959  24.989  27.372  1.00  0.00     0.031 A 
ATOM     43  C   UNL A   1      42.026  25.975  28.027  1.00  0.00     0.074 A 
ATOM     44  C   UNL A   1      44.222  25.354  27.086  1.00  0.00     0.049 A 
ATOM     45  N   UNL A   1      42.228  27.227  28.343  1.00  0.00    -0.248 NA
ATOM     46  C   UNL A   1      40.681  25.479  28.367  1.00  0.00     0.031 C 
ATOM     47  C   UNL A   1      45.235  24.500  26.471  1.00  0.00     0.029 A 
ATOM     48  N   UNL A   1      44.856  26.563  27.253  1.00  0.00    -0.354 N 
ATOM     49  C   UNL A   1      41.030  27.678  28.884  1.00  0.00     0.074 A 
ATOM     50  C   UNL A   1      40.104  26.568  28.849  1.00  0.00     0.031 C 
ATOM     51  C   UNL A   1      46.354  25.222  26.279  1.00  0.00     0.029 A 
ATOM     52  C   UNL A   1      46.128  26.595  26.731  1.00  0.00     0.049 A 
ATOM     53  H   UNL A   1      44.439  27.332  27.704  1.00  0.00     0.167 HD
ATOM     54  C   UNL A   1      40.728  28.901  29.376  1.00  0.00     0.034 A 
ATOM     55  C   UNL A   1      46.998  27.620  26.606  1.00  0.00     0.034 A 
ATOM     56  C   UNL A   1      41.648  30.003  29.435  1.00  0.00     0.049 A 
ATOM     57  C   UNL A   1      46.625  28.984  27.136  1.00  0.00     0.074 A 
ATOM     58  C   UNL A   1      41.442  31.264  29.964  1.00  0.00     0.029 A 
ATOM     59  N   UNL A   1      42.939  29.984  28.935  1.00  0.00    -0.354 N 
ATOM     60  N   UNL A   1      45.531  29.363  27.752  1.00  0.00    -0.248 NA
ATOM     61  C   UNL A   1      47.621  30.057  26.982  1.00  0.00     0.031 C 
ATOM     62  C   UNL A   1      42.598  32.020  29.753  1.00  0.00     0.029 A 
ATOM     63  C   UNL A   1      43.537  31.217  29.128  1.00  0.00     0.049 A 
ATOM     64  H   UNL A   1      43.368  29.208  28.507  1.00  0.00     0.167 HD
ATOM     65  C   UNL A   1      45.724  30.699  28.093  1.00  0.00     0.074 A 
ATOM     66  C   UNL A   1      47.047  31.060  27.631  1.00  0.00     0.031 C 
ATOM     67  C   UNL A   1      44.877  31.553  28.720  1.00  0.00     0.034 A 
BRANCH  54  68
ATOM     68  C   UNL A   1      39.336  29.113  29.909  1.00  0.00     0.023 A 
ATOM     69  C   UNL A   1      39.028  28.746  31.234  1.00  0.00     0.012 A 
ATOM     70  C   UNL A   1      38.352  29.735  29.115  1.00  0.00     0.148 A 
ATOM     71  C   UNL A   1      37.754  28.968  31.753  1.00  0.00     0.002 A 
ATOM     72  C   UNL A   1      37.099  29.995  29.655  1.00  0.00     0.091 A 
ATOM     73  F   UNL A   1      38.659  30.054  27.850  1.00  0.00    -0.205 F 
ATOM     74  C   UNL A   1      36.794  29.602  30.968  1.00  0.00     0.022 A 
BRANCH  72  75
ATOM     75  S   UNL A   1      35.822  30.877  28.752  1.00  0.00     0.127 S 
ATOM     76  O   UNL A   1      34.965  31.349  29.840  1.00  0.00    -0.237 OA
ATOM     77  O   UNL A   1      36.590  31.927  28.082  1.00  0.00    -0.237 OA
ATOM     78  O   UNL A   1      35.212  29.903  27.857  1.00  0.00    -0.744 OA
ENDBRANCH  72  75
ENDBRANCH  54  68
BRANCH  55  79
ATOM     79  C   UNL A   1      48.324  27.406  25.956  1.00  0.00     0.023 A 
ATOM     80  C   UNL A   1      49.442  27.064  26.744  1.00  0.00     0.012 A 
ATOM     81  C   UNL A   1      48.487  27.557  24.565  1.00  0.00     0.148 A 
ATOM     82  C   UNL A   1      50.702  26.915  26.163  1.00  0.00     0.002 A 
ATOM     83  C   UNL A   1      49.734  27.352  23.986  1.00  0.00     0.091 A 
ATOM     84  F   UNL A   1      47.417  27.905  23.835  1.00  0.00    -0.205 F 
ATOM     85  C   UNL A   1      50.847  27.049  24.784  1.00  0.00     0.022 A 
BRANCH  83  86
ATOM     86  S   UNL A   1      49.988  27.389  22.208  1.00  0.00     0.127 S 
ATOM     87  O   UNL A   1      51.384  26.975  22.096  1.00  0.00    -0.237 OA
ATOM     88  O   UNL A   1      49.013  26.401  21.743  1.00  0.00    -0.237 OA
ATOM     89  O   UNL A   1      49.700  28.757  21.798  1.00  0.00    -0.744 OA
ENDBRANCH  83  86
ENDBRANCH  55  79
BRANCH  67  90
ATOM     90  C   UNL A   1      45.357  32.956  28.997  1.00  0.00     0.023 A 
ATOM     91  C   UNL A   1      46.095  33.232  30.164  1.00  0.00     0.012 A 
ATOM     92  C   UNL A   1      45.151  33.983  28.052  1.00  0.00     0.148 A 
ATOM     93  C   UNL A   1      46.593  34.514  30.403  1.00  0.00     0.002 A 
ATOM     94  C   UNL A   1      45.693  35.244  28.272  1.00  0.00     0.091 A 
ATOM     95  F   UNL A   1      44.435  33.706  26.953  1.00  0.00    -0.205 F 
ATOM     96  C   UNL A   1      46.403  35.514  29.452  1.00  0.00     0.022 A 
BRANCH  94  97
ATOM     97  S   UNL A   1      45.585  36.566  27.060  1.00  0.00     0.127 S 
ATOM     98  O   UNL A   1      46.212  35.951  25.891  1.00  0.00    -0.237 OA
ATOM     99  O   UNL A   1      44.140  36.764  26.944  1.00  0.00    -0.237 OA
ATOM    100  O   UNL A   1      46.304  37.697  27.632  1.00  0.00    -0.744 OA
ENDBRANCH  94  97
ENDBRANCH  67  90
ENDBRANCH  41  42
ENDBRANCH  34  36
ENDBRANCH  33  34
ENDBRANCH  32  33
ENDBRANCH  31  32
ENDBRANCH  30  31
ENDBRANCH  29  30
ENDBRANCH   1  29
TORSDOF 25
ENDMDL
MODEL 2
REMARK VINA RESULT:      -8.7      1.960      2.371
REMARK SMILES Cc1noc(C)c1[C@H](C)NC(=O)NCC(=O)NCC(=O)OCCOCCOCCOC(=O)c1ccc(-c2c3nc(c(-c4cccc(S(=O)(=O)[O-])c4F)c4ccc([nH]4)c(-c4cccc(S(=O)(=O)[O-])c4F)c4nc(c(-c5cccc(S(=O)(=O)[O-])c5F)c5ccc2[nH]5)C=C4)C=C3)cc1
REMARK SMILES IDX 25 1 24 2 23 3 22 4 21 5 19 6 20 7 18 8 17 9 15 10 16 11
REMARK SMILES IDX 14 13 13 14 10 15 11 16 12 18 8 20 9 21 7 22 1 23 2 24 3 25
REMARK SMILES IDX 4 26 5 27 6 28 26 29 27 30 28 31 29 32 30 33 31 34 32 35
REMARK SMILES IDX 33 36 34 37 95 38 35 39 94 40 36 41 37 42 38 43 88 44 39 45
REMARK SMILES IDX 93 46 87 47 89 48 40 49 92 50 86 51 85 52 41 54 73 55 53 56
REMARK SMILES IDX 72 57 54 58 57 59 71 60 90 61 55 62 56 63 70 65 91 66 58 67
REMARK SMILES IDX 42 68 43 69 51 70 44 71 46 72 52 73 45 74 47 75 48 76 49 77
REMARK SMILES IDX 50 78 74 79 75 80 83 81 76 82 78 83 84 84 77 85 79 86 80 87
REMARK SMILES IDX 81 88 82 89 59 90 60 91 68 92 61 93 63 94 69 95 62 96 64 97
REMARK SMILES IDX 65 98 66 99 67 100
REMARK H PARENT 17 12 10 17 13 19 89 53 57 64
REMARK Flexibility Score: inf
ROOT
ATOM      1  C   UNL A   1      35.593  23.060  25.345  1.00  0.00     0.188 C 
ENDROOT
BRANCH   1   2
ATOM      2  O   UNL A   1      35.413  24.418  24.975  1.00  0.00    -0.376 OA
BRANCH   2   3
ATOM      3  C   UNL A   1      35.006  25.345  25.978  1.00  0.00     0.202 C 
BRANCH   3   4
ATOM      4  C   UNL A   1      34.021  26.447  25.566  1.00  0.00     0.261 C 
BRANCH   4   5
ATOM      5  O   UNL A   1      32.654  26.006  25.719  1.00  0.00    -0.462 OA
BRANCH   5   6
ATOM      6  C   UNL A   1      31.709  26.931  25.379  1.00  0.00     0.325 C 
ATOM      7  O   UNL A   1      31.941  27.954  24.746  1.00  0.00    -0.250 OA
BRANCH   6   8
ATOM      8  C   UNL A   1      30.301  26.370  25.537  1.00  0.00     0.238 C 
BRANCH   8   9
ATOM      9  N   UNL A   1      30.068  25.022  25.993  1.00  0.00    -0.344 N 
ATOM     10  C   UNL A   1      30.390  23.869  25.344  1.00  0.00     0.239 C 
ATOM     11  O   UNL A   1      30.600  22.863  26.029  1.00  0.00    -0.273 OA
ATOM     12  H   UNL A   1      29.626  24.925  26.867  1.00  0.00     0.164 HD
BRANCH  10  13
ATOM     13  C   UNL A   1      30.572  23.793  23.812  1.00  0.00     0.217 C 
BRANCH  13  14
ATOM     14  N   UNL A   1      31.855  24.136  23.216  1.00  0.00    -0.329 N 
ATOM     15  N   UNL A   1      33.068  22.138  22.801  1.00  0.00    -0.331 N 
ATOM     16  C   UNL A   1      32.938  23.474  22.781  1.00  0.00     0.315 C 
ATOM     17  H   UNL A   1      34.003  21.829  22.782  1.00  0.00     0.165 HD
ATOM     18  O   UNL A   1      33.884  24.156  22.387  1.00  0.00    -0.249 OA
ATOM     19  H   UNL A   1      31.954  25.108  23.101  1.00  0.00     0.165 HD
BRANCH  15  20
ATOM     20  C   UNL A   1      32.092  21.061  22.847  1.00  0.00     0.116 C 
ATOM     21  C   UNL A   1      31.735  20.685  21.411  1.00  0.00     0.036 C 
BRANCH  20  22
ATOM     22  C   UNL A   1      32.609  19.925  23.688  1.00  0.00     0.040 A 
ATOM     23  C   UNL A   1      33.085  21.121  26.002  1.00  0.00     0.071 C 
ATOM     24  C   UNL A   1      33.030  19.982  25.060  1.00  0.00     0.086 A 
ATOM     25  N   UNL A   1      33.404  18.783  25.514  1.00  0.00    -0.085 NA
ATOM     26  O   UNL A   1      33.203  17.908  24.481  1.00  0.00    -0.361 OA
ATOM     27  C   UNL A   1      32.710  18.572  23.405  1.00  0.00     0.139 A 
ATOM     28  C   UNL A   1      32.379  17.702  22.260  1.00  0.00     0.091 C 
ENDBRANCH  20  22
ENDBRANCH  15  20
ENDBRANCH  13  14
ENDBRANCH  10  13
ENDBRANCH   8   9
ENDBRANCH   6   8
ENDBRANCH   5   6
ENDBRANCH   4   5
ENDBRANCH   3   4
ENDBRANCH   2   3
ENDBRANCH   1   2
BRANCH   1  29
ATOM     29  C   UNL A   1      37.041  22.623  25.551  1.00  0.00     0.188 C 
BRANCH  29  30
ATOM     30  O   UNL A   1      37.308  21.247  25.752  1.00  0.00    -0.376 OA
BRANCH  30  31
ATOM     31  C   UNL A   1      38.588  20.693  25.442  1.00  0.00     0.202 C 
BRANCH  31  32
ATOM     32  C   UNL A   1      39.870  20.840  26.301  1.00  0.00     0.261 C 
BRANCH  32  33
ATOM     33  O   UNL A   1      40.774  19.738  26.377  1.00  0.00    -0.460 OA
BRANCH  33  34
ATOM     34  C   UNL A   1      42.040  19.974  25.950  1.00  0.00     0.338 C 
ATOM     35  O   UNL A   1      42.681  19.288  25.192  1.00  0.00    -0.246 OA
BRANCH  34  36
ATOM     36  C   UNL A   1      42.400  21.362  26.363  1.00  0.00     0.060 A 
ATOM     37  C   UNL A   1      42.484  22.331  25.355  1.00  0.00     0.016 A 
ATOM     38  C   UNL A   1      42.565  21.734  27.702  1.00  0.00     0.016 A 
ATOM     39  C   UNL A   1      42.776  23.659  25.672  1.00  0.00     0.010 A 
ATOM     40  C   UNL A   1      42.875  23.063  28.018  1.00  0.00     0.010 A 
ATOM     41  C   UNL A   1      43.018  24.026  27.002  1.00  0.00    -0.014 A 
BRANCH  41  42
ATOM     42  C   UNL A   1      43.626  25.349  27.307  1.00  0.00     0.031 A 
ATOM     43  C   UNL A   1      42.740  26.412  27.903  1.00  0.00     0.074 A 
ATOM     44  C   UNL A   1      44.921  25.618  27.064  1.00  0.00     0.049 A 
ATOM     45  N   UNL A   1      43.018  27.654  28.202  1.00  0.00    -0.248 NA
ATOM     46  C   UNL A   1      41.352  26.018  28.199  1.00  0.00     0.031 C 
ATOM     47  C   UNL A   1      45.895  24.682  26.508  1.00  0.00     0.029 A 
ATOM     48  N   UNL A   1      45.632  26.783  27.233  1.00  0.00    -0.354 N 
ATOM     49  C   UNL A   1      41.834  28.199  28.685  1.00  0.00     0.074 A 
ATOM     50  C   UNL A   1      40.834  27.156  28.636  1.00  0.00     0.031 C 
ATOM     51  C   UNL A   1      47.068  25.320  26.346  1.00  0.00     0.029 A 
ATOM     52  C   UNL A   1      46.923  26.716  26.761  1.00  0.00     0.049 A 
ATOM     53  H   UNL A   1      45.254  27.590  27.651  1.00  0.00     0.167 HD
ATOM     54  C   UNL A   1      41.600  29.451  29.141  1.00  0.00     0.034 A 
ATOM     55  C   UNL A   1      47.867  27.674  26.651  1.00  0.00     0.034 A 
ATOM     56  C   UNL A   1      42.593  30.487  29.214  1.00  0.00     0.049 A 
ATOM     57  C   UNL A   1      47.570  29.072  27.138  1.00  0.00     0.074 A 
ATOM     58  C   UNL A   1      42.455  31.772  29.708  1.00  0.00     0.029 A 
ATOM     59  N   UNL A   1      43.898  30.367  28.767  1.00  0.00    -0.354 N 
ATOM     60  N   UNL A   1      46.483  29.540  27.702  1.00  0.00    -0.248 NA
ATOM     61  C   UNL A   1      48.645  30.069  27.003  1.00  0.00     0.031 C 
ATOM     62  C   UNL A   1      43.670  32.440  29.529  1.00  0.00     0.029 A 
ATOM     63  C   UNL A   1      44.573  31.560  28.958  1.00  0.00     0.049 A 
ATOM     64  H   UNL A   1      44.287  29.554  28.372  1.00  0.00     0.167 HD
ATOM     65  C   UNL A   1      46.756  30.868  28.023  1.00  0.00     0.074 A 
ATOM     66  C   UNL A   1      48.118  31.125  27.607  1.00  0.00     0.031 C 
ATOM     67  C   UNL A   1      45.948  31.792  28.598  1.00  0.00     0.034 A 
BRANCH  54  68
ATOM     68  C   UNL A   1      40.207  29.772  29.612  1.00  0.00     0.023 A 
ATOM     69  C   UNL A   1      39.296  30.397  28.737  1.00  0.00     0.012 A 
ATOM     70  C   UNL A   1      39.783  29.398  30.902  1.00  0.00     0.148 A 
ATOM     71  C   UNL A   1      37.993  30.669  29.147  1.00  0.00     0.002 A 
ATOM     72  C   UNL A   1      38.469  29.631  31.288  1.00  0.00     0.091 A 
ATOM     73  F   UNL A   1      40.673  28.827  31.727  1.00  0.00    -0.205 F 
ATOM     74  C   UNL A   1      37.576  30.276  30.417  1.00  0.00     0.022 A 
BRANCH  72  75
ATOM     75  S   UNL A   1      37.815  29.090  32.870  1.00  0.00     0.127 S 
ATOM     76  O   UNL A   1      38.729  29.746  33.806  1.00  0.00    -0.237 OA
ATOM     77  O   UNL A   1      36.462  29.646  32.848  1.00  0.00    -0.237 OA
ATOM     78  O   UNL A   1      37.876  27.635  32.857  1.00  0.00    -0.744 OA
ENDBRANCH  72  75
ENDBRANCH  54  68
BRANCH  55  79
ATOM     79  C   UNL A   1      49.199  27.353  26.060  1.00  0.00     0.023 A 
ATOM     80  C   UNL A   1      49.323  27.184  24.666  1.00  0.00     0.012 A 
ATOM     81  C   UNL A   1      50.339  27.196  26.873  1.00  0.00     0.148 A 
ATOM     82  C   UNL A   1      50.548  26.828  24.099  1.00  0.00     0.002 A 
ATOM     83  C   UNL A   1      51.568  26.898  26.295  1.00  0.00     0.091 A 
ATOM     84  F   UNL A   1      50.196  27.338  28.199  1.00  0.00    -0.205 F 
ATOM     85  C   UNL A   1      51.671  26.694  24.911  1.00  0.00     0.022 A 
BRANCH  83  86
ATOM     86  S   UNL A   1      53.087  26.822  27.250  1.00  0.00     0.127 S 
ATOM     87  O   UNL A   1      53.225  28.202  27.706  1.00  0.00    -0.237 OA
ATOM     88  O   UNL A   1      52.738  25.859  28.296  1.00  0.00    -0.237 OA
ATOM     89  O   UNL A   1      54.111  26.357  26.323  1.00  0.00    -0.744 OA
ENDBRANCH  83  86
ENDBRANCH  55  79
BRANCH  67  90
ATOM     90  C   UNL A   1      46.515  33.165  28.866  1.00  0.00     0.023 A 
ATOM     91  C   UNL A   1      47.183  33.428  30.077  1.00  0.00     0.012 A 
ATOM     92  C   UNL A   1      46.461  34.168  27.875  1.00  0.00     0.148 A 
ATOM     93  C   UNL A   1      47.761  34.677  30.312  1.00  0.00     0.002 A 
ATOM     94  C   UNL A   1      47.081  35.391  28.096  1.00  0.00     0.091 A 
ATOM     95  F   UNL A   1      45.808  33.904  26.734  1.00  0.00    -0.205 F 
ATOM     96  C   UNL A   1      47.721  35.652  29.317  1.00  0.00     0.022 A 
BRANCH  94  97
ATOM     97  S   UNL A   1      47.168  36.671  26.837  1.00  0.00     0.127 S 
ATOM     98  O   UNL A   1      47.911  35.995  25.774  1.00  0.00    -0.237 OA
ATOM     99  O   UNL A   1      45.755  36.908  26.537  1.00  0.00    -0.237 OA
ATOM    100  O   UNL A   1      47.850  37.799  27.455  1.00  0.00    -0.744 OA
ENDBRANCH  94  97
ENDBRANCH  67  90
ENDBRANCH  41  42
ENDBRANCH  34  36
ENDBRANCH  33  34
ENDBRANCH  32  33
ENDBRANCH  31  32
ENDBRANCH  30  31
ENDBRANCH  29  30
ENDBRANCH   1  29
TORSDOF 25
ENDMDL
MODEL 3
REMARK VINA RESULT:      -8.7     11.286     19.309
REMARK SMILES Cc1noc(C)c1[C@H](C)NC(=O)NCC(=O)NCC(=O)OCCOCCOCCOC(=O)c1ccc(-c2c3nc(c(-c4cccc(S(=O)(=O)[O-])c4F)c4ccc([nH]4)c(-c4cccc(S(=O)(=O)[O-])c4F)c4nc(c(-c5cccc(S(=O)(=O)[O-])c5F)c5ccc2[nH]5)C=C4)C=C3)cc1
REMARK SMILES IDX 25 1 24 2 23 3 22 4 21 5 19 6 20 7 18 8 17 9 15 10 16 11
REMARK SMILES IDX 14 13 13 14 10 15 11 16 12 18 8 20 9 21 7 22 1 23 2 24 3 25
REMARK SMILES IDX 4 26 5 27 6 28 26 29 27 30 28 31 29 32 30 33 31 34 32 35
REMARK SMILES IDX 33 36 34 37 95 38 35 39 94 40 36 41 37 42 38 43 88 44 39 45
REMARK SMILES IDX 93 46 87 47 89 48 40 49 92 50 86 51 85 52 41 54 73 55 53 56
REMARK SMILES IDX 72 57 54 58 57 59 71 60 90 61 55 62 56 63 70 65 91 66 58 67
REMARK SMILES IDX 42 68 43 69 51 70 44 71 46 72 52 73 45 74 47 75 48 76 49 77
REMARK SMILES IDX 50 78 74 79 75 80 83 81 76 82 78 83 84 84 77 85 79 86 80 87
REMARK SMILES IDX 81 88 82 89 59 90 60 91 68 92 61 93 63 94 69 95 62 96 64 97
REMARK SMILES IDX 65 98 66 99 67 100
REMARK H PARENT 17 12 10 17 13 19 89 53 57 64
REMARK Flexibility Score: inf
ROOT
ATOM      1  C   UNL A   1      45.222  41.247  25.511  1.00  0.00     0.188 C 
ENDROOT
BRANCH   1   2
ATOM      2  O   UNL A   1      44.751  42.543  25.841  1.00  0.00    -0.376 OA
BRANCH   2   3
ATOM      3  C   UNL A   1      44.309  43.393  24.787  1.00  0.00     0.202 C 
BRANCH   3   4
ATOM      4  C   UNL A   1      43.295  42.817  23.790  1.00  0.00     0.261 C 
BRANCH   4   5
ATOM      5  O   UNL A   1      43.306  43.557  22.549  1.00  0.00    -0.462 OA
BRANCH   5   6
ATOM      6  C   UNL A   1      43.391  42.791  21.423  1.00  0.00     0.325 C 
ATOM      7  O   UNL A   1      42.817  41.719  21.272  1.00  0.00    -0.250 OA
BRANCH   6   8
ATOM      8  C   UNL A   1      43.955  43.586  20.252  1.00  0.00     0.238 C 
BRANCH   8   9
ATOM      9  N   UNL A   1      43.788  43.151  18.888  1.00  0.00    -0.344 N 
ATOM     10  C   UNL A   1      43.176  43.830  17.879  1.00  0.00     0.239 C 
ATOM     11  O   UNL A   1      43.541  43.595  16.722  1.00  0.00    -0.273 OA
ATOM     12  H   UNL A   1      44.155  42.266  18.661  1.00  0.00     0.164 HD
BRANCH  10  13
ATOM     13  C   UNL A   1      42.111  44.922  18.129  1.00  0.00     0.217 C 
BRANCH  13  14
ATOM     14  N   UNL A   1      41.670  45.770  17.031  1.00  0.00    -0.329 N 
ATOM     15  N   UNL A   1      43.010  47.728  16.985  1.00  0.00    -0.331 N 
ATOM     16  C   UNL A   1      42.014  46.960  16.517  1.00  0.00     0.315 C 
ATOM     17  H   UNL A   1      42.924  48.680  16.749  1.00  0.00     0.165 HD
ATOM     18  O   UNL A   1      41.327  47.382  15.586  1.00  0.00    -0.249 OA
ATOM     19  H   UNL A   1      40.924  45.363  16.535  1.00  0.00     0.165 HD
BRANCH  15  20
ATOM     20  C   UNL A   1      44.192  47.422  17.776  1.00  0.00     0.116 C 
ATOM     21  C   UNL A   1      45.193  46.705  16.873  1.00  0.00     0.036 C 
BRANCH  20  22
ATOM     22  C   UNL A   1      44.716  48.670  18.435  1.00  0.00     0.040 A 
ATOM     23  C   UNL A   1      45.602  47.742  20.751  1.00  0.00     0.071 C 
ATOM     24  C   UNL A   1      45.328  48.776  19.730  1.00  0.00     0.086 A 
ATOM     25  N   UNL A   1      45.708  50.029  19.997  1.00  0.00    -0.085 NA
ATOM     26  O   UNL A   1      45.399  50.762  18.884  1.00  0.00    -0.361 OA
ATOM     27  C   UNL A   1      44.834  49.961  17.946  1.00  0.00     0.139 A 
ATOM     28  C   UNL A   1      44.539  50.642  16.671  1.00  0.00     0.091 C 
ENDBRANCH  20  22
ENDBRANCH  15  20
ENDBRANCH  13  14
ENDBRANCH  10  13
ENDBRANCH   8   9
ENDBRANCH   6   8
ENDBRANCH   5   6
ENDBRANCH   4   5
ENDBRANCH   3   4
ENDBRANCH   2   3
ENDBRANCH   1   2
BRANCH   1  29
ATOM     29  C   UNL A   1      44.480  40.091  26.176  1.00  0.00     0.188 C 
BRANCH  29  30
ATOM     30  O   UNL A   1      43.305  40.378  26.914  1.00  0.00    -0.376 OA
BRANCH  30  31
ATOM     31  C   UNL A   1      42.791  39.449  27.870  1.00  0.00     0.202 C 
BRANCH  31  32
ATOM     32  C   UNL A   1      43.143  39.415  29.379  1.00  0.00     0.261 C 
BRANCH  32  33
ATOM     33  O   UNL A   1      43.907  38.319  29.880  1.00  0.00    -0.460 OA
BRANCH  33  34
ATOM     34  C   UNL A   1      44.788  38.609  30.870  1.00  0.00     0.338 C 
ATOM     35  O   UNL A   1      45.727  39.363  30.795  1.00  0.00    -0.246 OA
BRANCH  34  36
ATOM     36  C   UNL A   1      44.237  38.048  32.138  1.00  0.00     0.060 A 
ATOM     37  C   UNL A   1      44.571  36.724  32.453  1.00  0.00     0.016 A 
ATOM     38  C   UNL A   1      43.490  38.811  33.041  1.00  0.00     0.016 A 
ATOM     39  C   UNL A   1      44.125  36.146  33.643  1.00  0.00     0.010 A 
ATOM     40  C   UNL A   1      43.028  38.225  34.227  1.00  0.00     0.010 A 
ATOM     41  C   UNL A   1      43.313  36.878  34.518  1.00  0.00    -0.014 A 
BRANCH  41  42
ATOM     42  C   UNL A   1      42.589  36.182  35.615  1.00  0.00     0.031 A 
ATOM     43  C   UNL A   1      41.458  35.260  35.240  1.00  0.00     0.074 A 
ATOM     44  C   UNL A   1      42.907  36.356  36.911  1.00  0.00     0.049 A 
ATOM     45  N   UNL A   1      40.643  34.588  36.010  1.00  0.00    -0.248 NA
ATOM     46  C   UNL A   1      41.215  35.073  33.799  1.00  0.00     0.031 C 
ATOM     47  C   UNL A   1      43.985  37.203  37.415  1.00  0.00     0.029 A 
ATOM     48  N   UNL A   1      42.322  35.843  38.045  1.00  0.00    -0.354 N 
ATOM     49  C   UNL A   1      39.769  33.930  35.153  1.00  0.00     0.074 A 
ATOM     50  C   UNL A   1      40.150  34.286  33.804  1.00  0.00     0.031 C 
ATOM     51  C   UNL A   1      43.962  37.180  38.760  1.00  0.00     0.029 A 
ATOM     52  C   UNL A   1      42.852  36.340  39.213  1.00  0.00     0.049 A 
ATOM     53  H   UNL A   1      41.593  35.181  38.023  1.00  0.00     0.167 HD
ATOM     54  C   UNL A   1      38.749  33.096  35.456  1.00  0.00     0.034 A 
ATOM     55  C   UNL A   1      42.470  36.162  40.494  1.00  0.00     0.034 A 
ATOM     56  C   UNL A   1      38.377  32.720  36.792  1.00  0.00     0.049 A 
ATOM     57  C   UNL A   1      41.307  35.249  40.805  1.00  0.00     0.074 A 
ATOM     58  C   UNL A   1      37.387  31.840  37.190  1.00  0.00     0.029 A 
ATOM     59  N   UNL A   1      38.965  33.211  37.946  1.00  0.00    -0.354 N 
ATOM     60  N   UNL A   1      40.567  34.542  39.986  1.00  0.00    -0.248 NA
ATOM     61  C   UNL A   1      40.947  35.085  42.223  1.00  0.00     0.031 C 
ATOM     62  C   UNL A   1      37.353  31.825  38.588  1.00  0.00     0.029 A 
ATOM     63  C   UNL A   1      38.348  32.666  39.058  1.00  0.00     0.049 A 
ATOM     64  H   UNL A   1      39.711  33.853  37.970  1.00  0.00     0.167 HD
ATOM     65  C   UNL A   1      39.685  33.822  40.788  1.00  0.00     0.074 A 
ATOM     66  C   UNL A   1      39.994  34.165  42.160  1.00  0.00     0.031 C 
ATOM     67  C   UNL A   1      38.700  32.965  40.421  1.00  0.00     0.034 A 
BRANCH  54  68
ATOM     68  C   UNL A   1      37.960  32.515  34.313  1.00  0.00     0.023 A 
ATOM     69  C   UNL A   1      38.302  31.249  33.796  1.00  0.00     0.012 A 
ATOM     70  C   UNL A   1      36.842  33.197  33.794  1.00  0.00     0.148 A 
ATOM     71  C   UNL A   1      37.559  30.683  32.761  1.00  0.00     0.002 A 
ATOM     72  C   UNL A   1      36.080  32.606  32.795  1.00  0.00     0.091 A 
ATOM     73  F   UNL A   1      36.550  34.411  34.283  1.00  0.00    -0.205 F 
ATOM     74  C   UNL A   1      36.443  31.355  32.270  1.00  0.00     0.022 A 
BRANCH  72  75
ATOM     75  S   UNL A   1      34.580  33.354  32.151  1.00  0.00     0.127 S 
ATOM     76  O   UNL A   1      35.035  34.711  31.847  1.00  0.00    -0.237 OA
ATOM     77  O   UNL A   1      34.304  32.526  30.977  1.00  0.00    -0.237 OA
ATOM     78  O   UNL A   1      33.590  33.254  33.214  1.00  0.00    -0.744 OA
ENDBRANCH  72  75
ENDBRANCH  54  68
BRANCH  55  79
ATOM     79  C   UNL A   1      43.195  36.855  41.599  1.00  0.00     0.023 A 
ATOM     80  C   UNL A   1      42.790  38.143  42.002  1.00  0.00     0.012 A 
ATOM     81  C   UNL A   1      44.295  36.251  42.239  1.00  0.00     0.148 A 
ATOM     82  C   UNL A   1      43.490  38.830  42.995  1.00  0.00     0.002 A 
ATOM     83  C   UNL A   1      44.953  36.919  43.266  1.00  0.00     0.091 A 
ATOM     84  F   UNL A   1      44.681  35.035  41.826  1.00  0.00    -0.205 F 
ATOM     85  C   UNL A   1      44.564  38.216  43.633  1.00  0.00     0.022 A 
BRANCH  83  86
ATOM     86  S   UNL A   1      46.271  36.159  44.221  1.00  0.00     0.127 S 
ATOM     87  O   UNL A   1      45.546  35.143  44.978  1.00  0.00    -0.237 OA
ATOM     88  O   UNL A   1      47.144  35.637  43.167  1.00  0.00    -0.237 OA
ATOM     89  O   UNL A   1      46.858  37.235  45.008  1.00  0.00    -0.744 OA
ENDBRANCH  83  86
ENDBRANCH  55  79
BRANCH  67  90
ATOM     90  C   UNL A   1      37.904  32.288  41.510  1.00  0.00     0.023 A 
ATOM     91  C   UNL A   1      38.413  31.139  42.146  1.00  0.00     0.012 A 
ATOM     92  C   UNL A   1      36.690  32.847  41.962  1.00  0.00     0.148 A 
ATOM     93  C   UNL A   1      37.712  30.538  43.192  1.00  0.00     0.002 A 
ATOM     94  C   UNL A   1      36.023  32.272  43.037  1.00  0.00     0.091 A 
ATOM     95  F   UNL A   1      36.213  33.932  41.335  1.00  0.00    -0.205 F 
ATOM     96  C   UNL A   1      36.525  31.112  43.646  1.00  0.00     0.022 A 
BRANCH  94  97
ATOM     97  S   UNL A   1      34.542  32.996  43.753  1.00  0.00     0.127 S 
ATOM     98  O   UNL A   1      33.519  32.601  42.786  1.00  0.00    -0.237 OA
ATOM     99  O   UNL A   1      34.455  32.314  45.045  1.00  0.00    -0.237 OA
ATOM    100  O   UNL A   1      34.796  34.428  43.844  1.00  0.00    -0.744 OA
ENDBRANCH  94  97
ENDBRANCH  67  90
ENDBRANCH  41  42
ENDBRANCH  34  36
ENDBRANCH  33  34
ENDBRANCH  32  33
ENDBRANCH  31  32
ENDBRANCH  30  31
ENDBRANCH  29  30
ENDBRANCH   1  29
TORSDOF 25
ENDMDL
