MODEL 1
REMARK VINA RESULT:      -8.4      0.000      0.000
REMARK SMILES O=C(OCCOCCOCCOC(=O)c1ccc2c(=O)[nH]c(N3CC[NH2+]CC3)nc2c1)c1ccc(-c2c3nc(c(-c4cccc(S(=O)(=O)[O-])c4F)c4ccc([nH]4)c(-c4cccc(S(=O)(=O)[O-])c4F)c4nc(c(-c5cccc(S(=O)(=O)[O-])c5F)c5ccc2[nH]5)C=C4)C=C3)cc1
REMARK SMILES IDX 7 1 6 2 5 3 4 4 3 5 2 6 1 7 32 8 33 9 94 10 34 11 93 12
REMARK SMILES IDX 35 13 36 14 37 15 87 16 38 17 92 18 86 19 88 20 39 21 91 22
REMARK SMILES IDX 85 23 84 24 40 26 72 27 52 28 71 29 53 30 56 31 70 32 89 33
REMARK SMILES IDX 54 34 55 35 69 37 90 38 57 39 41 40 42 41 50 42 43 43 45 44
REMARK SMILES IDX 51 45 44 46 46 47 47 48 48 49 49 50 73 51 74 52 82 53 75 54
REMARK SMILES IDX 77 55 83 56 76 57 78 58 79 59 80 60 81 61 58 62 59 63 67 64
REMARK SMILES IDX 60 65 62 66 68 67 61 68 63 69 64 70 65 71 66 72 8 73 9 74
REMARK SMILES IDX 10 75 11 76 12 77 13 78 14 79 15 80 16 81 31 82 17 83 30 84
REMARK SMILES IDX 18 85 29 86 19 87 22 88 20 89 21 90 23 92 24 93 28 94 25 95
REMARK SMILES IDX 27 96 26 97
REMARK H PARENT 88 25 56 36 21 91 26 98 26 99
REMARK Flexibility Score: inf
ROOT
ATOM      1  C   UNL A   1      42.741  23.512  25.531  1.00  0.00     0.188 C 
ENDROOT
BRANCH   1   2
ATOM      2  O   UNL A   1      43.735  22.485  25.550  1.00  0.00    -0.376 OA
BRANCH   2   3
ATOM      3  C   UNL A   1      44.936  22.847  26.242  1.00  0.00     0.202 C 
BRANCH   3   4
ATOM      4  C   UNL A   1      46.086  23.359  25.357  1.00  0.00     0.261 C 
BRANCH   4   5
ATOM      5  O   UNL A   1      45.765  24.566  24.645  1.00  0.00    -0.460 OA
BRANCH   5   6
ATOM      6  C   UNL A   1      46.088  25.842  24.978  1.00  0.00     0.338 C 
ATOM      7  O   UNL A   1      46.902  26.439  24.274  1.00  0.00    -0.246 OA
BRANCH   6   8
ATOM      8  C   UNL A   1      45.503  26.566  26.152  1.00  0.00     0.060 A 
ATOM      9  C   UNL A   1      44.139  26.743  26.381  1.00  0.00     0.016 A 
ATOM     10  C   UNL A   1      46.395  27.060  27.118  1.00  0.00     0.016 A 
ATOM     11  C   UNL A   1      43.667  27.489  27.449  1.00  0.00     0.010 A 
ATOM     12  C   UNL A   1      45.927  27.764  28.234  1.00  0.00     0.010 A 
ATOM     13  C   UNL A   1      44.558  28.017  28.375  1.00  0.00    -0.014 A 
BRANCH  13  14
ATOM     14  C   UNL A   1      44.029  28.946  29.391  1.00  0.00     0.031 A 
ATOM     15  C   UNL A   1      43.755  28.411  30.763  1.00  0.00     0.074 A 
ATOM     16  C   UNL A   1      43.923  30.259  29.116  1.00  0.00     0.049 A 
ATOM     17  N   UNL A   1      43.277  29.027  31.807  1.00  0.00    -0.248 NA
ATOM     18  C   UNL A   1      44.089  26.994  31.001  1.00  0.00     0.031 C 
ATOM     19  C   UNL A   1      44.302  30.886  27.848  1.00  0.00     0.029 A 
ATOM     20  N   UNL A   1      43.481  31.305  29.882  1.00  0.00    -0.354 N 
ATOM     21  C   UNL A   1      43.208  28.068  32.810  1.00  0.00     0.074 A 
ATOM     22  C   UNL A   1      43.701  26.829  32.255  1.00  0.00     0.031 C 
ATOM     23  C   UNL A   1      44.063  32.205  27.921  1.00  0.00     0.029 A 
ATOM     24  C   UNL A   1      43.462  32.505  29.209  1.00  0.00     0.049 A 
ATOM     25  H   UNL A   1      43.205  31.208  30.821  1.00  0.00     0.167 HD
ATOM     26  C   UNL A   1      42.772  28.219  34.079  1.00  0.00     0.034 A 
ATOM     27  C   UNL A   1      42.983  33.705  29.583  1.00  0.00     0.034 A 
ATOM     28  C   UNL A   1      42.296  29.469  34.601  1.00  0.00     0.049 A 
ATOM     29  C   UNL A   1      42.419  33.821  30.967  1.00  0.00     0.074 A 
ATOM     30  C   UNL A   1      41.796  29.747  35.858  1.00  0.00     0.029 A 
ATOM     31  N   UNL A   1      42.252  30.654  33.877  1.00  0.00    -0.354 N 
ATOM     32  N   UNL A   1      42.366  32.911  31.911  1.00  0.00    -0.248 NA
ATOM     33  C   UNL A   1      41.877  35.128  31.352  1.00  0.00     0.031 C 
ATOM     34  C   UNL A   1      41.419  31.092  35.883  1.00  0.00     0.029 A 
ATOM     35  C   UNL A   1      41.719  31.664  34.655  1.00  0.00     0.049 A 
ATOM     36  H   UNL A   1      42.557  30.759  32.947  1.00  0.00     0.167 HD
ATOM     37  C   UNL A   1      41.812  33.540  33.014  1.00  0.00     0.074 A 
ATOM     38  C   UNL A   1      41.565  34.916  32.624  1.00  0.00     0.031 C 
ATOM     39  C   UNL A   1      41.523  33.030  34.235  1.00  0.00     0.034 A 
BRANCH  26  40
ATOM     40  C   UNL A   1      42.757  26.994  34.953  1.00  0.00     0.023 A 
ATOM     41  C   UNL A   1      41.601  26.192  35.031  1.00  0.00     0.012 A 
ATOM     42  C   UNL A   1      43.890  26.650  35.713  1.00  0.00     0.148 A 
ATOM     43  C   UNL A   1      41.560  25.087  35.883  1.00  0.00     0.002 A 
ATOM     44  C   UNL A   1      43.857  25.526  36.527  1.00  0.00     0.091 A 
ATOM     45  F   UNL A   1      44.968  27.444  35.646  1.00  0.00    -0.205 F 
ATOM     46  C   UNL A   1      42.689  24.751  36.626  1.00  0.00     0.022 A 
BRANCH  44  47
ATOM     47  S   UNL A   1      45.277  24.979  37.482  1.00  0.00     0.127 S 
ATOM     48  O   UNL A   1      46.281  24.791  36.436  1.00  0.00    -0.237 OA
ATOM     49  O   UNL A   1      45.514  26.127  38.358  1.00  0.00    -0.237 OA
ATOM     50  O   UNL A   1      44.858  23.765  38.167  1.00  0.00    -0.744 OA
ENDBRANCH  44  47
ENDBRANCH  26  40
BRANCH  27  51
ATOM     51  C   UNL A   1      43.034  34.875  28.661  1.00  0.00     0.023 A 
ATOM     52  C   UNL A   1      41.867  35.272  27.982  1.00  0.00     0.012 A 
ATOM     53  C   UNL A   1      44.225  35.604  28.459  1.00  0.00     0.148 A 
ATOM     54  C   UNL A   1      41.887  36.361  27.108  1.00  0.00     0.002 A 
ATOM     55  C   UNL A   1      44.225  36.721  27.629  1.00  0.00     0.091 A 
ATOM     56  F   UNL A   1      45.330  35.192  29.092  1.00  0.00    -0.205 F 
ATOM     57  C   UNL A   1      43.061  37.089  26.939  1.00  0.00     0.022 A 
BRANCH  55  58
ATOM     58  S   UNL A   1      45.678  37.762  27.412  1.00  0.00     0.127 S 
ATOM     59  O   UNL A   1      46.644  36.833  26.820  1.00  0.00    -0.237 OA
ATOM     60  O   UNL A   1      45.174  38.775  26.485  1.00  0.00    -0.237 OA
ATOM     61  O   UNL A   1      46.042  38.212  28.747  1.00  0.00    -0.744 OA
ENDBRANCH  55  58
ENDBRANCH  27  51
BRANCH  39  62
ATOM     62  C   UNL A   1      40.938  33.975  35.244  1.00  0.00     0.023 A 
ATOM     63  C   UNL A   1      39.544  34.025  35.431  1.00  0.00     0.012 A 
ATOM     64  C   UNL A   1      41.783  34.747  36.061  1.00  0.00     0.148 A 
ATOM     65  C   UNL A   1      38.996  34.856  36.404  1.00  0.00     0.002 A 
ATOM     66  C   UNL A   1      41.234  35.530  37.065  1.00  0.00     0.091 A 
ATOM     67  F   UNL A   1      43.106  34.696  35.844  1.00  0.00    -0.205 F 
ATOM     68  C   UNL A   1      39.841  35.596  37.230  1.00  0.00     0.022 A 
BRANCH  66  69
ATOM     69  S   UNL A   1      42.250  36.425  38.243  1.00  0.00     0.127 S 
ATOM     70  O   UNL A   1      42.931  35.334  38.938  1.00  0.00    -0.237 OA
ATOM     71  O   UNL A   1      43.107  37.223  37.367  1.00  0.00    -0.237 OA
ATOM     72  O   UNL A   1      41.328  37.204  39.060  1.00  0.00    -0.744 OA
ENDBRANCH  66  69
ENDBRANCH  39  62
ENDBRANCH  13  14
ENDBRANCH   6   8
ENDBRANCH   5   6
ENDBRANCH   4   5
ENDBRANCH   3   4
ENDBRANCH   2   3
ENDBRANCH   1   2
BRANCH   1  73
ATOM     73  C   UNL A   1      42.010  23.660  26.867  1.00  0.00     0.188 C 
BRANCH  73  74
ATOM     74  O   UNL A   1      40.699  23.104  26.940  1.00  0.00    -0.376 OA
BRANCH  74  75
ATOM     75  C   UNL A   1      39.675  23.936  27.473  1.00  0.00     0.202 C 
BRANCH  75  76
ATOM     76  C   UNL A   1      39.872  25.460  27.435  1.00  0.00     0.261 C 
BRANCH  76  77
ATOM     77  O   UNL A   1      39.784  26.155  28.693  1.00  0.00    -0.460 OA
BRANCH  77  78
ATOM     78  C   UNL A   1      39.510  27.478  28.575  1.00  0.00     0.338 C 
ATOM     79  O   UNL A   1      39.740  28.190  27.609  1.00  0.00    -0.246 OA
BRANCH  78  80
ATOM     80  C   UNL A   1      38.982  28.033  29.834  1.00  0.00     0.062 A 
ATOM     81  C   UNL A   1      39.759  27.812  30.975  1.00  0.00     0.016 A 
ATOM     82  C   UNL A   1      37.882  28.912  29.864  1.00  0.00     0.045 A 
ATOM     83  C   UNL A   1      39.449  28.481  32.150  1.00  0.00     0.017 A 
ATOM     84  C   UNL A   1      37.562  29.595  31.047  1.00  0.00     0.081 A 
ATOM     85  C   UNL A   1      38.357  29.354  32.172  1.00  0.00     0.066 A 
ATOM     86  N   UNL A   1      36.519  30.556  31.059  1.00  0.00    -0.214 NA
ATOM     87  C   UNL A   1      38.031  30.082  33.396  1.00  0.00     0.260 A 
ATOM     88  C   UNL A   1      36.362  31.278  32.132  1.00  0.00     0.206 A 
ATOM     89  O   UNL A   1      38.541  29.820  34.469  1.00  0.00    -0.269 OA
ATOM     90  N   UNL A   1      37.095  31.061  33.261  1.00  0.00    -0.292 N 
ATOM     91  H   UNL A   1      36.938  31.653  34.032  1.00  0.00     0.173 HD
BRANCH  88  92
ATOM     92  N   UNL A   1      35.454  32.300  32.238  1.00  0.00    -0.331 N 
ATOM     93  C   UNL A   1      35.347  33.103  33.456  1.00  0.00     0.181 C 
ATOM     94  C   UNL A   1      34.700  32.801  31.084  1.00  0.00     0.181 C 
ATOM     95  C   UNL A   1      35.630  34.592  33.131  1.00  0.00     0.282 C 
ATOM     96  C   UNL A   1      34.994  34.294  30.834  1.00  0.00     0.282 C 
ATOM     97  N   UNL A   1      34.792  35.132  32.034  1.00  0.00    -0.343 N 
ATOM     98  H   UNL A   1      35.067  36.093  31.832  1.00  0.00     0.346 HD
ATOM     99  H   UNL A   1      33.809  35.120  32.307  1.00  0.00     0.346 HD
ENDBRANCH  88  92
ENDBRANCH  78  80
ENDBRANCH  77  78
ENDBRANCH  76  77
ENDBRANCH  75  76
ENDBRANCH  74  75
ENDBRANCH  73  74
ENDBRANCH   1  73
TORSDOF 21
ENDMDL
MODEL 2
REMARK VINA RESULT:      -8.2      2.061      2.514
REMARK SMILES O=C(OCCOCCOCCOC(=O)c1ccc2c(=O)[nH]c(N3CC[NH2+]CC3)nc2c1)c1ccc(-c2c3nc(c(-c4cccc(S(=O)(=O)[O-])c4F)c4ccc([nH]4)c(-c4cccc(S(=O)(=O)[O-])c4F)c4nc(c(-c5cccc(S(=O)(=O)[O-])c5F)c5ccc2[nH]5)C=C4)C=C3)cc1
REMARK SMILES IDX 7 1 6 2 5 3 4 4 3 5 2 6 1 7 32 8 33 9 94 10 34 11 93 12
REMARK SMILES IDX 35 13 36 14 37 15 87 16 38 17 92 18 86 19 88 20 39 21 91 22
REMARK SMILES IDX 85 23 84 24 40 26 72 27 52 28 71 29 53 30 56 31 70 32 89 33
REMARK SMILES IDX 54 34 55 35 69 37 90 38 57 39 41 40 42 41 50 42 43 43 45 44
REMARK SMILES IDX 51 45 44 46 46 47 47 48 48 49 49 50 73 51 74 52 82 53 75 54
REMARK SMILES IDX 77 55 83 56 76 57 78 58 79 59 80 60 81 61 58 62 59 63 67 64
REMARK SMILES IDX 60 65 62 66 68 67 61 68 63 69 64 70 65 71 66 72 8 73 9 74
REMARK SMILES IDX 10 75 11 76 12 77 13 78 14 79 15 80 16 81 31 82 17 83 30 84
REMARK SMILES IDX 18 85 29 86 19 87 22 88 20 89 21 90 23 92 24 93 28 94 25 95
REMARK SMILES IDX 27 96 26 97
REMARK H PARENT 88 25 56 36 21 91 26 98 26 99
REMARK Flexibility Score: inf
ROOT
ATOM      1  C   UNL A   1      42.518  23.222  25.759  1.00  0.00     0.188 C 
ENDROOT
BRANCH   1   2
ATOM      2  O   UNL A   1      43.322  22.642  24.729  1.00  0.00    -0.376 OA
BRANCH   2   3
ATOM      3  C   UNL A   1      44.525  22.027  25.204  1.00  0.00     0.202 C 
BRANCH   3   4
ATOM      4  C   UNL A   1      45.833  22.745  24.831  1.00  0.00     0.261 C 
BRANCH   4   5
ATOM      5  O   UNL A   1      45.636  24.099  24.388  1.00  0.00    -0.460 OA
BRANCH   5   6
ATOM      6  C   UNL A   1      46.308  25.212  24.779  1.00  0.00     0.338 C 
ATOM      7  O   UNL A   1      47.361  25.487  24.206  1.00  0.00    -0.246 OA
BRANCH   6   8
ATOM      8  C   UNL A   1      45.835  26.126  25.868  1.00  0.00     0.060 A 
ATOM      9  C   UNL A   1      46.669  26.821  26.743  1.00  0.00     0.016 A 
ATOM     10  C   UNL A   1      44.451  26.333  25.985  1.00  0.00     0.016 A 
ATOM     11  C   UNL A   1      46.164  27.591  27.779  1.00  0.00     0.010 A 
ATOM     12  C   UNL A   1      43.930  27.157  26.989  1.00  0.00     0.010 A 
ATOM     13  C   UNL A   1      44.791  27.753  27.918  1.00  0.00    -0.014 A 
BRANCH  13  14
ATOM     14  C   UNL A   1      44.295  28.432  29.129  1.00  0.00     0.031 A 
ATOM     15  C   UNL A   1      44.245  27.651  30.407  1.00  0.00     0.074 A 
ATOM     16  C   UNL A   1      44.019  29.750  29.101  1.00  0.00     0.049 A 
ATOM     17  N   UNL A   1      43.834  28.026  31.585  1.00  0.00    -0.248 NA
ATOM     18  C   UNL A   1      44.752  26.267  30.357  1.00  0.00     0.031 C 
ATOM     19  C   UNL A   1      44.175  30.615  27.931  1.00  0.00     0.029 A 
ATOM     20  N   UNL A   1      43.566  30.594  30.079  1.00  0.00    -0.354 N 
ATOM     21  C   UNL A   1      43.987  26.916  32.406  1.00  0.00     0.074 A 
ATOM     22  C   UNL A   1      44.537  25.854  31.596  1.00  0.00     0.031 C 
ATOM     23  C   UNL A   1      43.810  31.865  28.258  1.00  0.00     0.029 A 
ATOM     24  C   UNL A   1      43.340  31.876  29.632  1.00  0.00     0.049 A 
ATOM     25  H   UNL A   1      43.416  30.312  31.009  1.00  0.00     0.167 HD
ATOM     26  C   UNL A   1      43.694  26.803  33.720  1.00  0.00     0.034 A 
ATOM     27  C   UNL A   1      42.786  32.930  30.257  1.00  0.00     0.034 A 
ATOM     28  C   UNL A   1      43.155  27.883  34.498  1.00  0.00     0.049 A 
ATOM     29  C   UNL A   1      42.384  32.750  31.690  1.00  0.00     0.074 A 
ATOM     30  C   UNL A   1      42.784  27.889  35.828  1.00  0.00     0.029 A 
ATOM     31  N   UNL A   1      42.901  29.156  34.001  1.00  0.00    -0.354 N 
ATOM     32  N   UNL A   1      42.540  31.699  32.459  1.00  0.00    -0.248 NA
ATOM     33  C   UNL A   1      41.758  33.900  32.350  1.00  0.00     0.031 C 
ATOM     34  C   UNL A   1      42.274  29.156  36.127  1.00  0.00     0.029 A 
ATOM     35  C   UNL A   1      42.362  29.952  34.994  1.00  0.00     0.049 A 
ATOM     36  H   UNL A   1      43.079  29.447  33.078  1.00  0.00     0.167 HD
ATOM     37  C   UNL A   1      42.060  32.067  33.706  1.00  0.00     0.074 A 
ATOM     38  C   UNL A   1      41.625  33.447  33.590  1.00  0.00     0.031 C 
ATOM     39  C   UNL A   1      41.975  31.333  34.842  1.00  0.00     0.034 A 
BRANCH  26  40
ATOM     40  C   UNL A   1      43.913  25.461  34.362  1.00  0.00     0.023 A 
ATOM     41  C   UNL A   1      42.843  24.551  34.487  1.00  0.00     0.012 A 
ATOM     42  C   UNL A   1      45.181  25.109  34.860  1.00  0.00     0.148 A 
ATOM     43  C   UNL A   1      43.025  23.327  35.134  1.00  0.00     0.002 A 
ATOM     44  C   UNL A   1      45.365  23.873  35.465  1.00  0.00     0.091 A 
ATOM     45  F   UNL A   1      46.176  26.002  34.757  1.00  0.00    -0.205 F 
ATOM     46  C   UNL A   1      44.286  22.986  35.616  1.00  0.00     0.022 A 
BRANCH  44  47
ATOM     47  S   UNL A   1      46.962  23.320  36.071  1.00  0.00     0.127 S 
ATOM     48  O   UNL A   1      46.603  22.746  37.368  1.00  0.00    -0.237 OA
ATOM     49  O   UNL A   1      47.350  22.339  35.057  1.00  0.00    -0.237 OA
ATOM     50  O   UNL A   1      47.805  24.505  36.128  1.00  0.00    -0.744 OA
ENDBRANCH  44  47
ENDBRANCH  26  40
BRANCH  27  51
ATOM     51  C   UNL A   1      42.603  34.232  29.553  1.00  0.00     0.023 A 
ATOM     52  C   UNL A   1      41.330  34.579  29.063  1.00  0.00     0.012 A 
ATOM     53  C   UNL A   1      43.674  35.132  29.377  1.00  0.00     0.148 A 
ATOM     54  C   UNL A   1      41.131  35.790  28.395  1.00  0.00     0.002 A 
ATOM     55  C   UNL A   1      43.457  36.361  28.759  1.00  0.00     0.091 A 
ATOM     56  F   UNL A   1      44.881  34.770  29.826  1.00  0.00    -0.205 F 
ATOM     57  C   UNL A   1      42.190  36.682  28.251  1.00  0.00     0.022 A 
BRANCH  55  58
ATOM     58  S   UNL A   1      44.750  37.603  28.598  1.00  0.00     0.127 S 
ATOM     59  O   UNL A   1      44.055  38.692  27.908  1.00  0.00    -0.237 OA
ATOM     60  O   UNL A   1      45.062  37.883  29.999  1.00  0.00    -0.237 OA
ATOM     61  O   UNL A   1      45.796  36.979  27.800  1.00  0.00    -0.744 OA
ENDBRANCH  55  58
ENDBRANCH  27  51
BRANCH  39  62
ATOM     62  C   UNL A   1      41.420  32.021  36.055  1.00  0.00     0.023 A 
ATOM     63  C   UNL A   1      42.252  32.851  36.831  1.00  0.00     0.012 A 
ATOM     64  C   UNL A   1      40.055  31.907  36.369  1.00  0.00     0.148 A 
ATOM     65  C   UNL A   1      41.732  33.539  37.924  1.00  0.00     0.002 A 
ATOM     66  C   UNL A   1      39.533  32.638  37.425  1.00  0.00     0.091 A 
ATOM     67  F   UNL A   1      39.293  31.090  35.626  1.00  0.00    -0.205 F 
ATOM     68  C   UNL A   1      40.372  33.444  38.211  1.00  0.00     0.022 A 
BRANCH  66  69
ATOM     69  S   UNL A   1      37.777  32.664  37.795  1.00  0.00     0.127 S 
ATOM     70  O   UNL A   1      37.749  33.410  39.052  1.00  0.00    -0.237 OA
ATOM     71  O   UNL A   1      37.230  33.383  36.645  1.00  0.00    -0.237 OA
ATOM     72  O   UNL A   1      37.365  31.269  37.889  1.00  0.00    -0.744 OA
ENDBRANCH  66  69
ENDBRANCH  39  62
ENDBRANCH  13  14
ENDBRANCH   6   8
ENDBRANCH   5   6
ENDBRANCH   4   5
ENDBRANCH   3   4
ENDBRANCH   2   3
ENDBRANCH   1   2
BRANCH   1  73
ATOM     73  C   UNL A   1      42.181  22.237  26.880  1.00  0.00     0.188 C 
BRANCH  73  74
ATOM     74  O   UNL A   1      40.968  22.472  27.591  1.00  0.00    -0.376 OA
BRANCH  74  75
ATOM     75  C   UNL A   1      39.853  22.925  26.833  1.00  0.00     0.202 C 
BRANCH  75  76
ATOM     76  C   UNL A   1      39.221  24.279  27.192  1.00  0.00     0.261 C 
BRANCH  76  77
ATOM     77  O   UNL A   1      39.989  25.145  28.047  1.00  0.00    -0.460 OA
BRANCH  77  78
ATOM     78  C   UNL A   1      40.171  26.394  27.550  1.00  0.00     0.338 C 
ATOM     79  O   UNL A   1      40.745  26.693  26.513  1.00  0.00    -0.246 OA
BRANCH  78  80
ATOM     80  C   UNL A   1      39.681  27.423  28.484  1.00  0.00     0.062 A 
ATOM     81  C   UNL A   1      40.623  27.932  29.384  1.00  0.00     0.016 A 
ATOM     82  C   UNL A   1      38.412  28.018  28.348  1.00  0.00     0.045 A 
ATOM     83  C   UNL A   1      40.305  29.048  30.144  1.00  0.00     0.017 A 
ATOM     84  C   UNL A   1      38.082  29.148  29.111  1.00  0.00     0.081 A 
ATOM     85  C   UNL A   1      39.044  29.634  30.002  1.00  0.00     0.066 A 
ATOM     86  N   UNL A   1      36.845  29.812  28.908  1.00  0.00    -0.214 NA
ATOM     87  C   UNL A   1      38.701  30.823  30.780  1.00  0.00     0.260 A 
ATOM     88  C   UNL A   1      36.648  30.945  29.521  1.00  0.00     0.206 A 
ATOM     89  O   UNL A   1      39.387  31.222  31.702  1.00  0.00    -0.269 OA
ATOM     90  N   UNL A   1      37.545  31.443  30.419  1.00  0.00    -0.292 N 
ATOM     91  H   UNL A   1      37.343  32.313  30.835  1.00  0.00     0.173 HD
BRANCH  88  92
ATOM     92  N   UNL A   1      35.538  31.729  29.339  1.00  0.00    -0.331 N 
ATOM     93  C   UNL A   1      34.803  32.287  30.473  1.00  0.00     0.181 C 
ATOM     94  C   UNL A   1      35.150  32.242  28.021  1.00  0.00     0.181 C 
ATOM     95  C   UNL A   1      34.802  33.834  30.389  1.00  0.00     0.282 C 
ATOM     96  C   UNL A   1      35.130  33.784  28.010  1.00  0.00     0.282 C 
ATOM     97  N   UNL A   1      34.308  34.360  29.094  1.00  0.00    -0.343 N 
ATOM     98  H   UNL A   1      34.387  35.377  29.082  1.00  0.00     0.346 HD
ATOM     99  H   UNL A   1      33.329  34.104  28.964  1.00  0.00     0.346 HD
ENDBRANCH  88  92
ENDBRANCH  78  80
ENDBRANCH  77  78
ENDBRANCH  76  77
ENDBRANCH  75  76
ENDBRANCH  74  75
ENDBRANCH  73  74
ENDBRANCH   1  73
TORSDOF 21
ENDMDL
MODEL 3
REMARK VINA RESULT:      -7.9      5.050     12.175
REMARK SMILES O=C(OCCOCCOCCOC(=O)c1ccc2c(=O)[nH]c(N3CC[NH2+]CC3)nc2c1)c1ccc(-c2c3nc(c(-c4cccc(S(=O)(=O)[O-])c4F)c4ccc([nH]4)c(-c4cccc(S(=O)(=O)[O-])c4F)c4nc(c(-c5cccc(S(=O)(=O)[O-])c5F)c5ccc2[nH]5)C=C4)C=C3)cc1
REMARK SMILES IDX 7 1 6 2 5 3 4 4 3 5 2 6 1 7 32 8 33 9 94 10 34 11 93 12
REMARK SMILES IDX 35 13 36 14 37 15 87 16 38 17 92 18 86 19 88 20 39 21 91 22
REMARK SMILES IDX 85 23 84 24 40 26 72 27 52 28 71 29 53 30 56 31 70 32 89 33
REMARK SMILES IDX 54 34 55 35 69 37 90 38 57 39 41 40 42 41 50 42 43 43 45 44
REMARK SMILES IDX 51 45 44 46 46 47 47 48 48 49 49 50 73 51 74 52 82 53 75 54
REMARK SMILES IDX 77 55 83 56 76 57 78 58 79 59 80 60 81 61 58 62 59 63 67 64
REMARK SMILES IDX 60 65 62 66 68 67 61 68 63 69 64 70 65 71 66 72 8 73 9 74
REMARK SMILES IDX 10 75 11 76 12 77 13 78 14 79 15 80 16 81 31 82 17 83 30 84
REMARK SMILES IDX 18 85 29 86 19 87 22 88 20 89 21 90 23 92 24 93 28 94 25 95
REMARK SMILES IDX 27 96 26 97
REMARK H PARENT 88 25 56 36 21 91 26 98 26 99
REMARK Flexibility Score: inf
ROOT
ATOM      1  C   UNL A   1      33.170  35.204  30.106  1.00  0.00     0.188 C 
ENDROOT
BRANCH   1   2
ATOM      2  O   UNL A   1      33.722  35.930  31.207  1.00  0.00    -0.376 OA
BRANCH   2   3
ATOM      3  C   UNL A   1      33.772  35.188  32.430  1.00  0.00     0.202 C 
BRANCH   3   4
ATOM      4  C   UNL A   1      35.145  34.597  32.796  1.00  0.00     0.261 C 
BRANCH   4   5
ATOM      5  O   UNL A   1      35.827  34.001  31.679  1.00  0.00    -0.460 OA
BRANCH   5   6
ATOM      6  C   UNL A   1      36.018  32.681  31.426  1.00  0.00     0.338 C 
ATOM      7  O   UNL A   1      35.043  31.931  31.482  1.00  0.00    -0.246 OA
BRANCH   6   8
ATOM      8  C   UNL A   1      37.348  32.087  31.077  1.00  0.00     0.060 A 
ATOM      9  C   UNL A   1      38.284  31.628  32.003  1.00  0.00     0.016 A 
ATOM     10  C   UNL A   1      37.654  31.939  29.714  1.00  0.00     0.016 A 
ATOM     11  C   UNL A   1      39.529  31.159  31.614  1.00  0.00     0.010 A 
ATOM     12  C   UNL A   1      38.885  31.412  29.307  1.00  0.00     0.010 A 
ATOM     13  C   UNL A   1      39.844  31.061  30.265  1.00  0.00    -0.014 A 
BRANCH  13  14
ATOM     14  C   UNL A   1      41.233  30.726  29.902  1.00  0.00     0.031 A 
ATOM     15  C   UNL A   1      42.237  31.837  29.846  1.00  0.00     0.074 A 
ATOM     16  C   UNL A   1      41.602  29.440  29.754  1.00  0.00     0.049 A 
ATOM     17  N   UNL A   1      43.501  31.790  29.537  1.00  0.00    -0.248 NA
ATOM     18  C   UNL A   1      41.756  33.183  30.214  1.00  0.00     0.031 C 
ATOM     19  C   UNL A   1      40.717  28.287  29.930  1.00  0.00     0.029 A 
ATOM     20  N   UNL A   1      42.812  28.883  29.437  1.00  0.00    -0.354 N 
ATOM     21  C   UNL A   1      43.959  33.098  29.626  1.00  0.00     0.074 A 
ATOM     22  C   UNL A   1      42.839  33.919  30.026  1.00  0.00     0.031 C 
ATOM     23  C   UNL A   1      41.414  27.161  29.705  1.00  0.00     0.029 A 
ATOM     24  C   UNL A   1      42.767  27.513  29.313  1.00  0.00     0.049 A 
ATOM     25  H   UNL A   1      43.633  29.410  29.311  1.00  0.00     0.167 HD
ATOM     26  C   UNL A   1      45.205  33.564  29.394  1.00  0.00     0.034 A 
ATOM     27  C   UNL A   1      43.708  26.646  28.898  1.00  0.00     0.034 A 
ATOM     28  C   UNL A   1      46.298  32.718  29.005  1.00  0.00     0.049 A 
ATOM     29  C   UNL A   1      45.057  27.202  28.558  1.00  0.00     0.074 A 
ATOM     30  C   UNL A   1      47.600  33.069  28.708  1.00  0.00     0.029 A 
ATOM     31  N   UNL A   1      46.205  31.340  28.848  1.00  0.00    -0.354 N 
ATOM     32  N   UNL A   1      45.482  28.440  28.653  1.00  0.00    -0.248 NA
ATOM     33  C   UNL A   1      46.065  26.248  28.082  1.00  0.00     0.031 C 
ATOM     34  C   UNL A   1      48.285  31.908  28.339  1.00  0.00     0.029 A 
ATOM     35  C   UNL A   1      47.422  30.827  28.443  1.00  0.00     0.049 A 
ATOM     36  H   UNL A   1      45.391  30.808  29.004  1.00  0.00     0.167 HD
ATOM     37  C   UNL A   1      46.815  28.413  28.278  1.00  0.00     0.074 A 
ATOM     38  C   UNL A   1      47.131  27.029  27.972  1.00  0.00     0.031 C 
ATOM     39  C   UNL A   1      47.699  29.436  28.184  1.00  0.00     0.034 A 
BRANCH  26  40
ATOM     40  C   UNL A   1      45.420  35.048  29.516  1.00  0.00     0.023 A 
ATOM     41  C   UNL A   1      45.965  35.591  30.697  1.00  0.00     0.012 A 
ATOM     42  C   UNL A   1      45.062  35.907  28.461  1.00  0.00     0.148 A 
ATOM     43  C   UNL A   1      46.114  36.972  30.840  1.00  0.00     0.002 A 
ATOM     44  C   UNL A   1      45.251  37.276  28.593  1.00  0.00     0.091 A 
ATOM     45  F   UNL A   1      44.517  35.371  27.359  1.00  0.00    -0.205 F 
ATOM     46  C   UNL A   1      45.763  37.813  29.787  1.00  0.00     0.022 A 
BRANCH  44  47
ATOM     47  S   UNL A   1      44.880  38.438  27.275  1.00  0.00     0.127 S 
ATOM     48  O   UNL A   1      43.636  37.886  26.737  1.00  0.00    -0.237 OA
ATOM     49  O   UNL A   1      44.723  39.693  28.010  1.00  0.00    -0.237 OA
ATOM     50  O   UNL A   1      46.020  38.398  26.370  1.00  0.00    -0.744 OA
ENDBRANCH  44  47
ENDBRANCH  26  40
BRANCH  27  51
ATOM     51  C   UNL A   1      43.419  25.186  28.804  1.00  0.00     0.023 A 
ATOM     52  C   UNL A   1      43.533  24.382  29.953  1.00  0.00     0.012 A 
ATOM     53  C   UNL A   1      43.021  24.590  27.588  1.00  0.00     0.148 A 
ATOM     54  C   UNL A   1      43.274  23.011  29.892  1.00  0.00     0.002 A 
ATOM     55  C   UNL A   1      42.711  23.234  27.546  1.00  0.00     0.091 A 
ATOM     56  F   UNL A   1      42.946  25.367  26.501  1.00  0.00    -0.205 F 
ATOM     57  C   UNL A   1      42.856  22.440  28.693  1.00  0.00     0.022 A 
BRANCH  55  58
ATOM     58  S   UNL A   1      42.093  22.430  26.059  1.00  0.00     0.127 S 
ATOM     59  O   UNL A   1      42.486  21.035  26.269  1.00  0.00    -0.237 OA
ATOM     60  O   UNL A   1      40.655  22.672  26.173  1.00  0.00    -0.237 OA
ATOM     61  O   UNL A   1      42.785  23.071  24.949  1.00  0.00    -0.744 OA
ENDBRANCH  55  58
ENDBRANCH  27  51
BRANCH  39  62
ATOM     62  C   UNL A   1      49.098  29.088  27.764  1.00  0.00     0.023 A 
ATOM     63  C   UNL A   1      50.130  29.059  28.721  1.00  0.00     0.012 A 
ATOM     64  C   UNL A   1      49.363  28.709  26.436  1.00  0.00     0.148 A 
ATOM     65  C   UNL A   1      51.418  28.682  28.352  1.00  0.00     0.002 A 
ATOM     66  C   UNL A   1      50.635  28.281  26.089  1.00  0.00     0.091 A 
ATOM     67  F   UNL A   1      48.365  28.769  25.542  1.00  0.00    -0.205 F 
ATOM     68  C   UNL A   1      51.667  28.279  27.042  1.00  0.00     0.022 A 
BRANCH  66  69
ATOM     69  S   UNL A   1      51.016  27.640  24.456  1.00  0.00     0.127 S 
ATOM     70  O   UNL A   1      50.817  28.822  23.619  1.00  0.00    -0.237 OA
ATOM     71  O   UNL A   1      52.411  27.225  24.606  1.00  0.00    -0.237 OA
ATOM     72  O   UNL A   1      50.081  26.547  24.224  1.00  0.00    -0.744 OA
ENDBRANCH  66  69
ENDBRANCH  39  62
ENDBRANCH  13  14
ENDBRANCH   6   8
ENDBRANCH   5   6
ENDBRANCH   4   5
ENDBRANCH   3   4
ENDBRANCH   2   3
ENDBRANCH   1   2
BRANCH   1  73
ATOM     73  C   UNL A   1      33.856  35.525  28.776  1.00  0.00     0.188 C 
BRANCH  73  74
ATOM     74  O   UNL A   1      34.352  34.414  28.033  1.00  0.00    -0.376 OA
BRANCH  74  75
ATOM     75  C   UNL A   1      33.821  33.134  28.353  1.00  0.00     0.202 C 
BRANCH  75  76
ATOM     76  C   UNL A   1      34.531  31.886  27.805  1.00  0.00     0.261 C 
BRANCH  76  77
ATOM     77  O   UNL A   1      33.690  30.821  27.325  1.00  0.00    -0.460 OA
BRANCH  77  78
ATOM     78  C   UNL A   1      34.330  29.634  27.178  1.00  0.00     0.338 C 
ATOM     79  O   UNL A   1      35.527  29.427  27.309  1.00  0.00    -0.246 OA
BRANCH  78  80
ATOM     80  C   UNL A   1      33.412  28.581  26.711  1.00  0.00     0.062 A 
ATOM     81  C   UNL A   1      32.123  29.000  26.366  1.00  0.00     0.016 A 
ATOM     82  C   UNL A   1      33.852  27.274  26.422  1.00  0.00     0.045 A 
ATOM     83  C   UNL A   1      31.271  28.118  25.715  1.00  0.00     0.017 A 
ATOM     84  C   UNL A   1      32.998  26.376  25.762  1.00  0.00     0.081 A 
ATOM     85  C   UNL A   1      31.716  26.824  25.429  1.00  0.00     0.066 A 
ATOM     86  N   UNL A   1      33.467  25.094  25.379  1.00  0.00    -0.214 NA
ATOM     87  C   UNL A   1      30.839  25.892  24.726  1.00  0.00     0.260 A 
ATOM     88  C   UNL A   1      32.697  24.357  24.631  1.00  0.00     0.206 A 
ATOM     89  O   UNL A   1      29.656  26.113  24.547  1.00  0.00    -0.269 OA
ATOM     90  N   UNL A   1      31.429  24.740  24.304  1.00  0.00    -0.292 N 
ATOM     91  H   UNL A   1      30.905  24.143  23.722  1.00  0.00     0.173 HD
BRANCH  88  92
ATOM     92  N   UNL A   1      33.067  23.141  24.117  1.00  0.00    -0.331 N 
ATOM     93  C   UNL A   1      34.465  22.714  24.097  1.00  0.00     0.181 C 
ATOM     94  C   UNL A   1      32.086  22.108  23.767  1.00  0.00     0.181 C 
ATOM     95  C   UNL A   1      34.627  21.406  24.914  1.00  0.00     0.282 C 
ATOM     96  C   UNL A   1      32.321  20.820  24.583  1.00  0.00     0.282 C 
ATOM     97  N   UNL A   1      33.709  20.322  24.491  1.00  0.00    -0.343 N 
ATOM     98  H   UNL A   1      33.826  19.514  25.102  1.00  0.00     0.346 HD
ATOM     99  H   UNL A   1      33.917  20.043  23.532  1.00  0.00     0.346 HD
ENDBRANCH  88  92
ENDBRANCH  78  80
ENDBRANCH  77  78
ENDBRANCH  76  77
ENDBRANCH  75  76
ENDBRANCH  74  75
ENDBRANCH  73  74
ENDBRANCH   1  73
TORSDOF 21
ENDMDL
