MODEL 1
REMARK VINA RESULT:     -10.7      0.000      0.000
REMARK SMILES O=C(OCCOCCOCCOC(=O)[C@H]1CC1(c1ccccc1)c1ccccc1)c1ccc(-c2c3nc(c(-c4cccc(S(=O)(=O)[O-])c4F)c4ccc([nH]4)c(-c4cccc(S(=O)(=O)[O-])c4F)c4nc(c(-c5cccc(S(=O)(=O)[O-])c5F)c5ccc2[nH]5)C=C4)C=C3)cc1
REMARK SMILES IDX 7 1 6 2 5 3 4 4 3 5 2 6 1 7 30 8 31 9 92 10 32 11 91 12
REMARK SMILES IDX 33 13 34 14 35 15 85 16 36 17 90 18 84 19 86 20 37 21 89 22
REMARK SMILES IDX 83 23 82 24 38 26 70 27 50 28 69 29 51 30 54 31 68 32 87 33
REMARK SMILES IDX 52 34 53 35 67 37 88 38 55 39 39 40 40 41 48 42 41 43 43 44
REMARK SMILES IDX 49 45 42 46 44 47 45 48 46 49 47 50 71 51 72 52 80 53 73 54
REMARK SMILES IDX 75 55 81 56 74 57 76 58 77 59 78 60 79 61 56 62 57 63 65 64
REMARK SMILES IDX 58 65 60 66 66 67 59 68 61 69 62 70 63 71 64 72 8 73 9 74
REMARK SMILES IDX 10 75 11 76 12 77 13 78 14 79 15 80 16 81 17 82 18 83 19 84
REMARK SMILES IDX 23 85 20 86 22 87 21 88 24 89 25 90 29 91 26 92 28 93 27 94
REMARK H PARENT 86 25 54 36
REMARK Flexibility Score: inf
ROOT
ATOM      1  C   UNL A   1      31.843  29.820  25.484  1.00  0.00     0.188 C 
ENDROOT
BRANCH   1   2
ATOM      2  O   UNL A   1      31.446  30.480  26.693  1.00  0.00    -0.376 OA
BRANCH   2   3
ATOM      3  C   UNL A   1      31.458  31.909  26.597  1.00  0.00     0.202 C 
BRANCH   3   4
ATOM      4  C   UNL A   1      32.686  32.598  27.212  1.00  0.00     0.261 C 
BRANCH   4   5
ATOM      5  O   UNL A   1      32.401  33.933  27.660  1.00  0.00    -0.460 OA
BRANCH   5   6
ATOM      6  C   UNL A   1      33.086  34.667  28.574  1.00  0.00     0.338 C 
ATOM      7  O   UNL A   1      32.754  35.839  28.749  1.00  0.00    -0.246 OA
BRANCH   6   8
ATOM      8  C   UNL A   1      34.199  34.119  29.411  1.00  0.00     0.060 A 
ATOM      9  C   UNL A   1      35.558  34.279  29.141  1.00  0.00     0.016 A 
ATOM     10  C   UNL A   1      33.837  33.441  30.589  1.00  0.00     0.016 A 
ATOM     11  C   UNL A   1      36.526  33.667  29.934  1.00  0.00     0.010 A 
ATOM     12  C   UNL A   1      34.808  32.874  31.424  1.00  0.00     0.010 A 
ATOM     13  C   UNL A   1      36.156  32.942  31.069  1.00  0.00    -0.014 A 
BRANCH  13  14
ATOM     14  C   UNL A   1      37.212  32.206  31.795  1.00  0.00     0.031 A 
ATOM     15  C   UNL A   1      38.070  31.232  31.047  1.00  0.00     0.074 A 
ATOM     16  C   UNL A   1      37.457  32.502  33.085  1.00  0.00     0.049 A 
ATOM     17  N   UNL A   1      39.144  30.608  31.449  1.00  0.00    -0.248 NA
ATOM     18  C   UNL A   1      37.655  30.895  29.675  1.00  0.00     0.031 C 
ATOM     19  C   UNL A   1      36.628  33.379  33.909  1.00  0.00     0.029 A 
ATOM     20  N   UNL A   1      38.493  32.147  33.912  1.00  0.00    -0.354 N 
ATOM     21  C   UNL A   1      39.479  29.738  30.420  1.00  0.00     0.074 A 
ATOM     22  C   UNL A   1      38.527  29.951  29.354  1.00  0.00     0.031 C 
ATOM     23  C   UNL A   1      37.236  33.568  35.092  1.00  0.00     0.029 A 
ATOM     24  C   UNL A   1      38.496  32.840  35.105  1.00  0.00     0.049 A 
ATOM     25  H   UNL A   1      39.164  31.467  33.678  1.00  0.00     0.167 HD
ATOM     26  C   UNL A   1      40.473  28.821  30.391  1.00  0.00     0.034 A 
ATOM     27  C   UNL A   1      39.443  32.911  36.062  1.00  0.00     0.034 A 
ATOM     28  C   UNL A   1      41.412  28.637  31.463  1.00  0.00     0.049 A 
ATOM     29  C   UNL A   1      40.657  32.033  35.908  1.00  0.00     0.074 A 
ATOM     30  C   UNL A   1      42.425  27.703  31.579  1.00  0.00     0.029 A 
ATOM     31  N   UNL A   1      41.451  29.416  32.612  1.00  0.00    -0.354 N 
ATOM     32  N   UNL A   1      40.986  31.249  34.908  1.00  0.00    -0.248 NA
ATOM     33  C   UNL A   1      41.621  32.035  37.017  1.00  0.00     0.031 C 
ATOM     34  C   UNL A   1      43.073  27.915  32.804  1.00  0.00     0.029 A 
ATOM     35  C   UNL A   1      42.479  28.997  33.436  1.00  0.00     0.049 A 
ATOM     36  H   UNL A   1      40.837  30.158  32.810  1.00  0.00     0.167 HD
ATOM     37  C   UNL A   1      42.164  30.623  35.292  1.00  0.00     0.074 A 
ATOM     38  C   UNL A   1      42.548  31.204  36.564  1.00  0.00     0.031 C 
ATOM     39  C   UNL A   1      42.833  29.608  34.690  1.00  0.00     0.034 A 
BRANCH  26  40
ATOM     40  C   UNL A   1      40.547  27.928  29.184  1.00  0.00     0.023 A 
ATOM     41  C   UNL A   1      39.745  26.772  29.108  1.00  0.00     0.012 A 
ATOM     42  C   UNL A   1      41.430  28.228  28.129  1.00  0.00     0.148 A 
ATOM     43  C   UNL A   1      39.846  25.910  28.015  1.00  0.00     0.002 A 
ATOM     44  C   UNL A   1      41.497  27.386  27.026  1.00  0.00     0.091 A 
ATOM     45  F   UNL A   1      42.202  29.319  28.235  1.00  0.00    -0.205 F 
ATOM     46  C   UNL A   1      40.716  26.220  26.972  1.00  0.00     0.022 A 
BRANCH  44  47
ATOM     47  S   UNL A   1      42.550  27.719  25.609  1.00  0.00     0.127 S 
ATOM     48  O   UNL A   1      43.864  27.844  26.240  1.00  0.00    -0.237 OA
ATOM     49  O   UNL A   1      42.370  26.510  24.808  1.00  0.00    -0.237 OA
ATOM     50  O   UNL A   1      42.038  28.940  25.002  1.00  0.00    -0.744 OA
ENDBRANCH  44  47
ENDBRANCH  26  40
BRANCH  27  51
ATOM     51  C   UNL A   1      39.341  33.886  37.191  1.00  0.00     0.023 A 
ATOM     52  C   UNL A   1      39.766  35.216  36.987  1.00  0.00     0.012 A 
ATOM     53  C   UNL A   1      38.840  33.528  38.456  1.00  0.00     0.148 A 
ATOM     54  C   UNL A   1      39.713  36.157  38.017  1.00  0.00     0.002 A 
ATOM     55  C   UNL A   1      38.741  34.483  39.465  1.00  0.00     0.091 A 
ATOM     56  F   UNL A   1      38.480  32.253  38.663  1.00  0.00    -0.205 F 
ATOM     57  C   UNL A   1      39.187  35.795  39.253  1.00  0.00     0.022 A 
BRANCH  55  58
ATOM     58  S   UNL A   1      37.999  34.090  41.053  1.00  0.00     0.127 S 
ATOM     59  O   UNL A   1      37.833  35.414  41.644  1.00  0.00    -0.237 OA
ATOM     60  O   UNL A   1      36.748  33.429  40.672  1.00  0.00    -0.237 OA
ATOM     61  O   UNL A   1      38.963  33.216  41.710  1.00  0.00    -0.744 OA
ENDBRANCH  55  58
ENDBRANCH  27  51
BRANCH  39  62
ATOM     62  C   UNL A   1      44.002  29.037  35.444  1.00  0.00     0.023 A 
ATOM     63  C   UNL A   1      45.277  29.617  35.275  1.00  0.00     0.012 A 
ATOM     64  C   UNL A   1      43.840  27.959  36.332  1.00  0.00     0.148 A 
ATOM     65  C   UNL A   1      46.383  29.102  35.946  1.00  0.00     0.002 A 
ATOM     66  C   UNL A   1      44.940  27.481  37.032  1.00  0.00     0.091 A 
ATOM     67  F   UNL A   1      42.623  27.412  36.461  1.00  0.00    -0.205 F 
ATOM     68  C   UNL A   1      46.214  28.040  36.831  1.00  0.00     0.022 A 
BRANCH  66  69
ATOM     69  S   UNL A   1      44.802  26.171  38.250  1.00  0.00     0.127 S 
ATOM     70  O   UNL A   1      43.915  26.778  39.241  1.00  0.00    -0.237 OA
ATOM     71  O   UNL A   1      44.198  25.086  37.474  1.00  0.00    -0.237 OA
ATOM     72  O   UNL A   1      46.160  25.903  38.704  1.00  0.00    -0.744 OA
ENDBRANCH  66  69
ENDBRANCH  39  62
ENDBRANCH  13  14
ENDBRANCH   6   8
ENDBRANCH   5   6
ENDBRANCH   4   5
ENDBRANCH   3   4
ENDBRANCH   2   3
ENDBRANCH   1   2
BRANCH   1  73
ATOM     73  C   UNL A   1      31.102  28.497  25.272  1.00  0.00     0.188 C 
BRANCH  73  74
ATOM     74  O   UNL A   1      30.503  28.297  23.989  1.00  0.00    -0.376 OA
BRANCH  74  75
ATOM     75  C   UNL A   1      29.417  27.378  23.908  1.00  0.00     0.202 C 
BRANCH  75  76
ATOM     76  C   UNL A   1      29.549  26.045  24.655  1.00  0.00     0.261 C 
BRANCH  76  77
ATOM     77  O   UNL A   1      30.676  25.264  24.258  1.00  0.00    -0.463 OA
BRANCH  77  78
ATOM     78  C   UNL A   1      31.142  24.403  25.205  1.00  0.00     0.310 C 
ATOM     79  O   UNL A   1      30.893  24.444  26.403  1.00  0.00    -0.252 OA
BRANCH  78  80
ATOM     80  C   UNL A   1      31.946  23.303  24.636  1.00  0.00     0.115 C 
ATOM     81  C   UNL A   1      31.942  22.927  23.184  1.00  0.00     0.034 C 
ATOM     82  C   UNL A   1      33.178  23.617  23.780  1.00  0.00     0.034 C 
BRANCH  82  83
ATOM     83  C   UNL A   1      33.411  25.065  23.290  1.00  0.00    -0.037 A 
ATOM     84  C   UNL A   1      33.941  26.043  24.144  1.00  0.00     0.004 A 
ATOM     85  C   UNL A   1      33.046  25.490  21.999  1.00  0.00     0.004 A 
ATOM     86  C   UNL A   1      34.021  27.387  23.780  1.00  0.00     0.000 A 
ATOM     87  C   UNL A   1      33.122  26.835  21.623  1.00  0.00     0.000 A 
ATOM     88  C   UNL A   1      33.591  27.787  22.523  1.00  0.00     0.000 A 
ENDBRANCH  82  83
BRANCH  82  89
ATOM     89  C   UNL A   1      34.451  22.790  24.133  1.00  0.00    -0.037 A 
ATOM     90  C   UNL A   1      35.671  23.003  23.456  1.00  0.00     0.004 A 
ATOM     91  C   UNL A   1      34.484  21.805  25.142  1.00  0.00     0.004 A 
ATOM     92  C   UNL A   1      36.834  22.287  23.752  1.00  0.00     0.000 A 
ATOM     93  C   UNL A   1      35.649  21.088  25.451  1.00  0.00     0.000 A 
ATOM     94  C   UNL A   1      36.824  21.329  24.752  1.00  0.00     0.000 A 
ENDBRANCH  82  89
ENDBRANCH  78  80
ENDBRANCH  77  78
ENDBRANCH  76  77
ENDBRANCH  75  76
ENDBRANCH  74  75
ENDBRANCH  73  74
ENDBRANCH   1  73
TORSDOF 22
ENDMDL
MODEL 2
REMARK VINA RESULT:     -10.6      1.174      2.113
REMARK SMILES O=C(OCCOCCOCCOC(=O)[C@H]1CC1(c1ccccc1)c1ccccc1)c1ccc(-c2c3nc(c(-c4cccc(S(=O)(=O)[O-])c4F)c4ccc([nH]4)c(-c4cccc(S(=O)(=O)[O-])c4F)c4nc(c(-c5cccc(S(=O)(=O)[O-])c5F)c5ccc2[nH]5)C=C4)C=C3)cc1
REMARK SMILES IDX 7 1 6 2 5 3 4 4 3 5 2 6 1 7 30 8 31 9 92 10 32 11 91 12
REMARK SMILES IDX 33 13 34 14 35 15 85 16 36 17 90 18 84 19 86 20 37 21 89 22
REMARK SMILES IDX 83 23 82 24 38 26 70 27 50 28 69 29 51 30 54 31 68 32 87 33
REMARK SMILES IDX 52 34 53 35 67 37 88 38 55 39 39 40 40 41 48 42 41 43 43 44
REMARK SMILES IDX 49 45 42 46 44 47 45 48 46 49 47 50 71 51 72 52 80 53 73 54
REMARK SMILES IDX 75 55 81 56 74 57 76 58 77 59 78 60 79 61 56 62 57 63 65 64
REMARK SMILES IDX 58 65 60 66 66 67 59 68 61 69 62 70 63 71 64 72 8 73 9 74
REMARK SMILES IDX 10 75 11 76 12 77 13 78 14 79 15 80 16 81 17 82 18 83 19 84
REMARK SMILES IDX 23 85 20 86 22 87 21 88 24 89 25 90 29 91 26 92 28 93 27 94
REMARK H PARENT 86 25 54 36
REMARK Flexibility Score: inf
ROOT
ATOM      1  C   UNL A   1      32.316  29.579  26.064  1.00  0.00     0.188 C 
ENDROOT
BRANCH   1   2
ATOM      2  O   UNL A   1      31.642  30.431  27.000  1.00  0.00    -0.376 OA
BRANCH   2   3
ATOM      3  C   UNL A   1      31.674  31.816  26.641  1.00  0.00     0.202 C 
BRANCH   3   4
ATOM      4  C   UNL A   1      32.884  32.604  27.168  1.00  0.00     0.261 C 
BRANCH   4   5
ATOM      5  O   UNL A   1      32.520  33.895  27.682  1.00  0.00    -0.460 OA
BRANCH   5   6
ATOM      6  C   UNL A   1      33.158  34.620  28.636  1.00  0.00     0.338 C 
ATOM      7  O   UNL A   1      32.762  35.762  28.864  1.00  0.00    -0.246 OA
BRANCH   6   8
ATOM      8  C   UNL A   1      34.294  34.093  29.455  1.00  0.00     0.060 A 
ATOM      9  C   UNL A   1      35.641  34.382  29.236  1.00  0.00     0.016 A 
ATOM     10  C   UNL A   1      33.964  33.294  30.564  1.00  0.00     0.016 A 
ATOM     11  C   UNL A   1      36.639  33.784  30.002  1.00  0.00     0.010 A 
ATOM     12  C   UNL A   1      34.960  32.737  31.376  1.00  0.00     0.010 A 
ATOM     13  C   UNL A   1      36.306  32.940  31.064  1.00  0.00    -0.014 A 
BRANCH  13  14
ATOM     14  C   UNL A   1      37.402  32.232  31.756  1.00  0.00     0.031 A 
ATOM     15  C   UNL A   1      38.226  31.238  30.995  1.00  0.00     0.074 A 
ATOM     16  C   UNL A   1      37.713  32.569  33.021  1.00  0.00     0.049 A 
ATOM     17  N   UNL A   1      39.323  30.632  31.359  1.00  0.00    -0.248 NA
ATOM     18  C   UNL A   1      37.742  30.857  29.658  1.00  0.00     0.031 C 
ATOM     19  C   UNL A   1      36.924  33.467  33.861  1.00  0.00     0.029 A 
ATOM     20  N   UNL A   1      38.793  32.245  33.804  1.00  0.00    -0.354 N 
ATOM     21  C   UNL A   1      39.608  29.731  30.342  1.00  0.00     0.074 A 
ATOM     22  C   UNL A   1      38.600  29.907  29.321  1.00  0.00     0.031 C 
ATOM     23  C   UNL A   1      37.591  33.696  35.003  1.00  0.00     0.029 A 
ATOM     24  C   UNL A   1      38.855  32.974  34.973  1.00  0.00     0.049 A 
ATOM     25  H   UNL A   1      39.454  31.560  33.557  1.00  0.00     0.167 HD
ATOM     26  C   UNL A   1      40.605  28.819  30.289  1.00  0.00     0.034 A 
ATOM     27  C   UNL A   1      39.850  33.079  35.876  1.00  0.00     0.034 A 
ATOM     28  C   UNL A   1      41.600  28.672  31.315  1.00  0.00     0.049 A 
ATOM     29  C   UNL A   1      41.059  32.202  35.686  1.00  0.00     0.074 A 
ATOM     30  C   UNL A   1      42.623  27.746  31.406  1.00  0.00     0.029 A 
ATOM     31  N   UNL A   1      41.694  29.486  32.435  1.00  0.00    -0.354 N 
ATOM     32  N   UNL A   1      41.340  31.388  34.695  1.00  0.00    -0.248 NA
ATOM     33  C   UNL A   1      42.080  32.243  36.742  1.00  0.00     0.031 C 
ATOM     34  C   UNL A   1      43.333  27.999  32.588  1.00  0.00     0.029 A 
ATOM     35  C   UNL A   1      42.767  29.098  33.217  1.00  0.00     0.049 A 
ATOM     36  H   UNL A   1      41.087  30.232  32.642  1.00  0.00     0.167 HD
ATOM     37  C   UNL A   1      42.540  30.780  35.036  1.00  0.00     0.074 A 
ATOM     38  C   UNL A   1      42.987  31.402  36.267  1.00  0.00     0.031 C 
ATOM     39  C   UNL A   1      43.183  29.749  34.431  1.00  0.00     0.034 A 
BRANCH  26  40
ATOM     40  C   UNL A   1      40.621  27.888  29.108  1.00  0.00     0.023 A 
ATOM     41  C   UNL A   1      39.784  26.754  29.088  1.00  0.00     0.012 A 
ATOM     42  C   UNL A   1      41.484  28.130  28.021  1.00  0.00     0.148 A 
ATOM     43  C   UNL A   1      39.830  25.859  28.019  1.00  0.00     0.002 A 
ATOM     44  C   UNL A   1      41.497  27.255  26.943  1.00  0.00     0.091 A 
ATOM     45  F   UNL A   1      42.290  29.201  28.074  1.00  0.00    -0.205 F 
ATOM     46  C   UNL A   1      40.681  26.112  26.945  1.00  0.00     0.022 A 
BRANCH  44  47
ATOM     47  S   UNL A   1      42.521  27.514  25.491  1.00  0.00     0.127 S 
ATOM     48  O   UNL A   1      42.296  26.276  24.745  1.00  0.00    -0.237 OA
ATOM     49  O   UNL A   1      41.910  28.704  24.898  1.00  0.00    -0.237 OA
ATOM     50  O   UNL A   1      43.880  27.702  25.980  1.00  0.00    -0.744 OA
ENDBRANCH  44  47
ENDBRANCH  26  40
BRANCH  27  51
ATOM     51  C   UNL A   1      39.801  34.088  36.978  1.00  0.00     0.023 A 
ATOM     52  C   UNL A   1      40.273  35.395  36.730  1.00  0.00     0.012 A 
ATOM     53  C   UNL A   1      39.307  33.786  38.260  1.00  0.00     0.148 A 
ATOM     54  C   UNL A   1      40.270  36.367  37.733  1.00  0.00     0.002 A 
ATOM     55  C   UNL A   1      39.260  34.772  39.243  1.00  0.00     0.091 A 
ATOM     56  F   UNL A   1      38.904  32.531  38.509  1.00  0.00    -0.205 F 
ATOM     57  C   UNL A   1      39.750  36.060  38.987  1.00  0.00     0.022 A 
BRANCH  55  58
ATOM     58  S   UNL A   1      38.529  34.451  40.852  1.00  0.00     0.127 S 
ATOM     59  O   UNL A   1      37.801  33.209  40.610  1.00  0.00    -0.237 OA
ATOM     60  O   UNL A   1      39.702  34.312  41.719  1.00  0.00    -0.237 OA
ATOM     61  O   UNL A   1      37.712  35.624  41.132  1.00  0.00    -0.744 OA
ENDBRANCH  55  58
ENDBRANCH  27  51
BRANCH  39  62
ATOM     62  C   UNL A   1      44.392  29.206  35.140  1.00  0.00     0.023 A 
ATOM     63  C   UNL A   1      45.667  29.716  34.810  1.00  0.00     0.012 A 
ATOM     64  C   UNL A   1      44.273  28.227  36.141  1.00  0.00     0.148 A 
ATOM     65  C   UNL A   1      46.809  29.224  35.437  1.00  0.00     0.002 A 
ATOM     66  C   UNL A   1      45.413  27.774  36.793  1.00  0.00     0.091 A 
ATOM     67  F   UNL A   1      43.054  27.744  36.422  1.00  0.00    -0.205 F 
ATOM     68  C   UNL A   1      46.681  28.260  36.434  1.00  0.00     0.022 A 
BRANCH  66  69
ATOM     69  S   UNL A   1      45.336  26.594  38.142  1.00  0.00     0.127 S 
ATOM     70  O   UNL A   1      44.213  27.108  38.924  1.00  0.00    -0.237 OA
ATOM     71  O   UNL A   1      45.069  25.337  37.442  1.00  0.00    -0.237 OA
ATOM     72  O   UNL A   1      46.636  26.654  38.798  1.00  0.00    -0.744 OA
ENDBRANCH  66  69
ENDBRANCH  39  62
ENDBRANCH  13  14
ENDBRANCH   6   8
ENDBRANCH   5   6
ENDBRANCH   4   5
ENDBRANCH   3   4
ENDBRANCH   2   3
ENDBRANCH   1   2
BRANCH   1  73
ATOM     73  C   UNL A   1      31.736  28.162  26.042  1.00  0.00     0.188 C 
BRANCH  73  74
ATOM     74  O   UNL A   1      31.959  27.398  24.855  1.00  0.00    -0.376 OA
BRANCH  74  75
ATOM     75  C   UNL A   1      31.018  26.372  24.549  1.00  0.00     0.202 C 
BRANCH  75  76
ATOM     76  C   UNL A   1      30.903  25.191  25.522  1.00  0.00     0.261 C 
BRANCH  76  77
ATOM     77  O   UNL A   1      32.144  24.541  25.799  1.00  0.00    -0.463 OA
BRANCH  77  78
ATOM     78  C   UNL A   1      32.076  23.541  26.720  1.00  0.00     0.310 C 
ATOM     79  O   UNL A   1      31.054  23.015  27.141  1.00  0.00    -0.252 OA
BRANCH  78  80
ATOM     80  C   UNL A   1      33.406  23.052  27.135  1.00  0.00     0.115 C 
ATOM     81  C   UNL A   1      33.651  21.700  27.738  1.00  0.00     0.034 C 
ATOM     82  C   UNL A   1      34.123  21.983  26.304  1.00  0.00     0.034 C 
BRANCH  82  83
ATOM     83  C   UNL A   1      33.342  21.228  25.204  1.00  0.00    -0.037 A 
ATOM     84  C   UNL A   1      33.074  19.856  25.316  1.00  0.00     0.004 A 
ATOM     85  C   UNL A   1      32.921  21.855  24.016  1.00  0.00     0.004 A 
ATOM     86  C   UNL A   1      32.507  19.120  24.276  1.00  0.00     0.000 A 
ATOM     87  C   UNL A   1      32.351  21.127  22.967  1.00  0.00     0.000 A 
ATOM     88  C   UNL A   1      32.163  19.754  23.090  1.00  0.00     0.000 A 
ENDBRANCH  82  83
BRANCH  82  89
ATOM     89  C   UNL A   1      35.626  22.277  26.011  1.00  0.00    -0.037 A 
ATOM     90  C   UNL A   1      36.490  21.265  25.541  1.00  0.00     0.004 A 
ATOM     91  C   UNL A   1      36.215  23.549  26.171  1.00  0.00     0.004 A 
ATOM     92  C   UNL A   1      37.840  21.495  25.260  1.00  0.00     0.000 A 
ATOM     93  C   UNL A   1      37.566  23.790  25.883  1.00  0.00     0.000 A 
ATOM     94  C   UNL A   1      38.378  22.760  25.430  1.00  0.00     0.000 A 
ENDBRANCH  82  89
ENDBRANCH  78  80
ENDBRANCH  77  78
ENDBRANCH  76  77
ENDBRANCH  75  76
ENDBRANCH  74  75
ENDBRANCH  73  74
ENDBRANCH   1  73
TORSDOF 22
ENDMDL
MODEL 3
REMARK VINA RESULT:      -9.8      5.282     10.188
REMARK SMILES O=C(OCCOCCOCCOC(=O)[C@H]1CC1(c1ccccc1)c1ccccc1)c1ccc(-c2c3nc(c(-c4cccc(S(=O)(=O)[O-])c4F)c4ccc([nH]4)c(-c4cccc(S(=O)(=O)[O-])c4F)c4nc(c(-c5cccc(S(=O)(=O)[O-])c5F)c5ccc2[nH]5)C=C4)C=C3)cc1
REMARK SMILES IDX 7 1 6 2 5 3 4 4 3 5 2 6 1 7 30 8 31 9 92 10 32 11 91 12
REMARK SMILES IDX 33 13 34 14 35 15 85 16 36 17 90 18 84 19 86 20 37 21 89 22
REMARK SMILES IDX 83 23 82 24 38 26 70 27 50 28 69 29 51 30 54 31 68 32 87 33
REMARK SMILES IDX 52 34 53 35 67 37 88 38 55 39 39 40 40 41 48 42 41 43 43 44
REMARK SMILES IDX 49 45 42 46 44 47 45 48 46 49 47 50 71 51 72 52 80 53 73 54
REMARK SMILES IDX 75 55 81 56 74 57 76 58 77 59 78 60 79 61 56 62 57 63 65 64
REMARK SMILES IDX 58 65 60 66 66 67 59 68 61 69 62 70 63 71 64 72 8 73 9 74
REMARK SMILES IDX 10 75 11 76 12 77 13 78 14 79 15 80 16 81 17 82 18 83 19 84
REMARK SMILES IDX 23 85 20 86 22 87 21 88 24 89 25 90 29 91 26 92 28 93 27 94
REMARK H PARENT 86 25 54 36
REMARK Flexibility Score: inf
ROOT
ATOM      1  C   UNL A   1      39.015  32.723  38.253  1.00  0.00     0.188 C 
ENDROOT
BRANCH   1   2
ATOM      2  O   UNL A   1      38.812  33.219  39.583  1.00  0.00    -0.376 OA
BRANCH   2   3
ATOM      3  C   UNL A   1      38.659  34.641  39.648  1.00  0.00     0.202 C 
BRANCH   3   4
ATOM      4  C   UNL A   1      39.611  35.361  40.616  1.00  0.00     0.261 C 
BRANCH   4   5
ATOM      5  O   UNL A   1      40.916  35.568  40.053  1.00  0.00    -0.460 OA
BRANCH   5   6
ATOM      6  C   UNL A   1      41.229  36.178  38.881  1.00  0.00     0.338 C 
ATOM      7  O   UNL A   1      41.354  37.401  38.874  1.00  0.00    -0.246 OA
BRANCH   6   8
ATOM      8  C   UNL A   1      41.468  35.439  37.602  1.00  0.00     0.060 A 
ATOM      9  C   UNL A   1      40.571  35.372  36.535  1.00  0.00     0.016 A 
ATOM     10  C   UNL A   1      42.720  34.816  37.449  1.00  0.00     0.016 A 
ATOM     11  C   UNL A   1      40.846  34.595  35.412  1.00  0.00     0.010 A 
ATOM     12  C   UNL A   1      43.027  34.082  36.297  1.00  0.00     0.010 A 
ATOM     13  C   UNL A   1      42.067  33.927  35.295  1.00  0.00    -0.014 A 
BRANCH  13  14
ATOM     14  C   UNL A   1      42.251  33.015  34.147  1.00  0.00     0.031 A 
ATOM     15  C   UNL A   1      42.653  33.582  32.820  1.00  0.00     0.074 A 
ATOM     16  C   UNL A   1      42.163  31.685  34.337  1.00  0.00     0.049 A 
ATOM     17  N   UNL A   1      43.020  32.954  31.737  1.00  0.00    -0.248 NA
ATOM     18  C   UNL A   1      42.615  35.048  32.683  1.00  0.00     0.031 C 
ATOM     19  C   UNL A   1      41.706  31.050  35.571  1.00  0.00     0.029 A 
ATOM     20  N   UNL A   1      42.499  30.632  33.525  1.00  0.00    -0.354 N 
ATOM     21  C   UNL A   1      43.165  33.935  30.765  1.00  0.00     0.074 A 
ATOM     22  C   UNL A   1      42.899  35.206  31.399  1.00  0.00     0.031 C 
ATOM     23  C   UNL A   1      41.879  29.723  35.468  1.00  0.00     0.029 A 
ATOM     24  C   UNL A   1      42.467  29.415  34.173  1.00  0.00     0.049 A 
ATOM     25  H   UNL A   1      42.738  30.735  32.576  1.00  0.00     0.167 HD
ATOM     26  C   UNL A   1      43.461  33.777  29.455  1.00  0.00     0.034 A 
ATOM     27  C   UNL A   1      42.917  28.209  33.773  1.00  0.00     0.034 A 
ATOM     28  C   UNL A   1      43.730  32.500  28.852  1.00  0.00     0.049 A 
ATOM     29  C   UNL A   1      43.445  28.094  32.368  1.00  0.00     0.074 A 
ATOM     30  C   UNL A   1      43.982  32.202  27.526  1.00  0.00     0.029 A 
ATOM     31  N   UNL A   1      43.786  31.302  29.550  1.00  0.00    -0.354 N 
ATOM     32  N   UNL A   1      43.622  29.037  31.472  1.00  0.00    -0.248 NA
ATOM     33  C   UNL A   1      43.821  26.749  31.909  1.00  0.00     0.031 C 
ATOM     34  C   UNL A   1      44.184  30.819  27.422  1.00  0.00     0.029 A 
ATOM     35  C   UNL A   1      44.083  30.262  28.688  1.00  0.00     0.049 A 
ATOM     36  H   UNL A   1      43.636  31.206  30.518  1.00  0.00     0.167 HD
ATOM     37  C   UNL A   1      44.075  28.393  30.330  1.00  0.00     0.074 A 
ATOM     38  C   UNL A   1      44.253  26.998  30.682  1.00  0.00     0.031 C 
ATOM     39  C   UNL A   1      44.259  28.889  29.080  1.00  0.00     0.034 A 
BRANCH  26  40
ATOM     40  C   UNL A   1      43.452  35.010  28.595  1.00  0.00     0.023 A 
ATOM     41  C   UNL A   1      42.247  35.468  28.026  1.00  0.00     0.012 A 
ATOM     42  C   UNL A   1      44.648  35.708  28.337  1.00  0.00     0.148 A 
ATOM     43  C   UNL A   1      42.238  36.583  27.187  1.00  0.00     0.002 A 
ATOM     44  C   UNL A   1      44.626  36.838  27.531  1.00  0.00     0.091 A 
ATOM     45  F   UNL A   1      45.786  35.238  28.868  1.00  0.00    -0.205 F 
ATOM     46  C   UNL A   1      43.425  37.271  26.944  1.00  0.00     0.022 A 
BRANCH  44  47
ATOM     47  S   UNL A   1      46.090  37.823  27.194  1.00  0.00     0.127 S 
ATOM     48  O   UNL A   1      46.959  36.845  26.538  1.00  0.00    -0.237 OA
ATOM     49  O   UNL A   1      45.560  38.860  26.310  1.00  0.00    -0.237 OA
ATOM     50  O   UNL A   1      46.564  38.300  28.486  1.00  0.00    -0.744 OA
ENDBRANCH  44  47
ENDBRANCH  26  40
BRANCH  27  51
ATOM     51  C   UNL A   1      42.973  27.046  34.711  1.00  0.00     0.023 A 
ATOM     52  C   UNL A   1      41.814  26.262  34.899  1.00  0.00     0.012 A 
ATOM     53  C   UNL A   1      44.139  26.701  35.419  1.00  0.00     0.148 A 
ATOM     54  C   UNL A   1      41.810  25.180  35.782  1.00  0.00     0.002 A 
ATOM     55  C   UNL A   1      44.144  25.590  36.260  1.00  0.00     0.091 A 
ATOM     56  F   UNL A   1      45.225  27.474  35.276  1.00  0.00    -0.205 F 
ATOM     57  C   UNL A   1      42.979  24.834  36.452  1.00  0.00     0.022 A 
BRANCH  55  58
ATOM     58  S   UNL A   1      45.645  25.055  37.089  1.00  0.00     0.127 S 
ATOM     59  O   UNL A   1      45.748  26.021  38.178  1.00  0.00    -0.237 OA
ATOM     60  O   UNL A   1      45.313  23.692  37.512  1.00  0.00    -0.237 OA
ATOM     61  O   UNL A   1      46.683  25.131  36.069  1.00  0.00    -0.744 OA
ENDBRANCH  55  58
ENDBRANCH  27  51
BRANCH  39  62
ATOM     62  C   UNL A   1      44.609  27.893  28.010  1.00  0.00     0.023 A 
ATOM     63  C   UNL A   1      45.967  27.665  27.701  1.00  0.00     0.012 A 
ATOM     64  C   UNL A   1      43.612  27.166  27.337  1.00  0.00     0.148 A 
ATOM     65  C   UNL A   1      46.325  26.761  26.705  1.00  0.00     0.002 A 
ATOM     66  C   UNL A   1      43.979  26.233  26.376  1.00  0.00     0.091 A 
ATOM     67  F   UNL A   1      42.328  27.413  27.633  1.00  0.00    -0.205 F 
ATOM     68  C   UNL A   1      45.332  26.038  26.048  1.00  0.00     0.022 A 
BRANCH  66  69
ATOM     69  S   UNL A   1      42.774  25.201  25.537  1.00  0.00     0.127 S 
ATOM     70  O   UNL A   1      41.974  26.196  24.825  1.00  0.00    -0.237 OA
ATOM     71  O   UNL A   1      43.620  24.369  24.679  1.00  0.00    -0.237 OA
ATOM     72  O   UNL A   1      42.076  24.469  26.586  1.00  0.00    -0.744 OA
ENDBRANCH  66  69
ENDBRANCH  39  62
ENDBRANCH  13  14
ENDBRANCH   6   8
ENDBRANCH   5   6
ENDBRANCH   4   5
ENDBRANCH   3   4
ENDBRANCH   2   3
ENDBRANCH   1   2
BRANCH   1  73
ATOM     73  C   UNL A   1      37.724  32.718  37.429  1.00  0.00     0.188 C 
BRANCH  73  74
ATOM     74  O   UNL A   1      37.542  33.804  36.518  1.00  0.00    -0.376 OA
BRANCH  74  75
ATOM     75  C   UNL A   1      36.501  33.684  35.553  1.00  0.00     0.202 C 
BRANCH  75  76
ATOM     76  C   UNL A   1      36.900  33.437  34.093  1.00  0.00     0.261 C 
BRANCH  76  77
ATOM     77  O   UNL A   1      36.466  32.179  33.575  1.00  0.00    -0.463 OA
BRANCH  77  78
ATOM     78  C   UNL A   1      37.459  31.273  33.360  1.00  0.00     0.310 C 
ATOM     79  O   UNL A   1      38.510  31.192  33.982  1.00  0.00    -0.252 OA
BRANCH  78  80
ATOM     80  C   UNL A   1      37.117  30.283  32.319  1.00  0.00     0.115 C 
ATOM     81  C   UNL A   1      36.027  30.474  31.307  1.00  0.00     0.034 C 
ATOM     82  C   UNL A   1      37.494  30.546  30.857  1.00  0.00     0.034 C 
BRANCH  82  83
ATOM     83  C   UNL A   1      37.976  31.955  30.441  1.00  0.00    -0.037 A 
ATOM     84  C   UNL A   1      37.144  32.822  29.719  1.00  0.00     0.004 A 
ATOM     85  C   UNL A   1      39.280  32.412  30.705  1.00  0.00     0.004 A 
ATOM     86  C   UNL A   1      37.600  34.035  29.201  1.00  0.00     0.000 A 
ATOM     87  C   UNL A   1      39.749  33.625  30.191  1.00  0.00     0.000 A 
ATOM     88  C   UNL A   1      38.913  34.427  29.421  1.00  0.00     0.000 A 
ENDBRANCH  82  83
BRANCH  82  89
ATOM     89  C   UNL A   1      38.155  29.341  30.122  1.00  0.00    -0.037 A 
ATOM     90  C   UNL A   1      38.411  29.383  28.735  1.00  0.00     0.004 A 
ATOM     91  C   UNL A   1      38.554  28.156  30.774  1.00  0.00     0.004 A 
ATOM     92  C   UNL A   1      39.009  28.326  28.044  1.00  0.00     0.000 A 
ATOM     93  C   UNL A   1      39.163  27.094  30.091  1.00  0.00     0.000 A 
ATOM     94  C   UNL A   1      39.387  27.179  28.724  1.00  0.00     0.000 A 
ENDBRANCH  82  89
ENDBRANCH  78  80
ENDBRANCH  77  78
ENDBRANCH  76  77
ENDBRANCH  75  76
ENDBRANCH  74  75
ENDBRANCH  73  74
ENDBRANCH   1  73
TORSDOF 22
ENDMDL
