MODEL 1
REMARK VINA RESULT:     -11.9      0.000      0.000
REMARK SMILES Cc1cccc(-c2cccc(O)c2)c1C(=O)OCCOCCOCCOC(=O)c1ccc(-c2c3nc(c(-c4cccc(S(=O)(=O)[O-])c4F)c4ccc([nH]4)c(-c4cccc(S(=O)(=O)[O-])c4F)c4nc(c(-c5cccc(S(=O)(=O)[O-])c5F)c5ccc2[nH]5)C=C4)C=C3)cc1
REMARK SMILES IDX 22 1 21 2 20 3 19 4 18 5 17 6 15 7 16 8 14 9 1 10 2 11 3 12
REMARK SMILES IDX 4 13 6 14 5 15 7 16 8 17 13 18 9 19 11 20 10 21 12 22 23 24
REMARK SMILES IDX 24 25 25 26 26 27 27 28 28 29 29 30 30 31 91 32 31 33 90 34
REMARK SMILES IDX 32 35 33 36 34 37 84 38 35 39 89 40 83 41 85 42 36 43 88 44
REMARK SMILES IDX 82 45 81 46 37 48 69 49 49 50 68 51 50 52 53 53 67 54 86 55
REMARK SMILES IDX 51 56 52 57 66 59 87 60 54 61 38 62 39 63 47 64 40 65 42 66
REMARK SMILES IDX 48 67 41 68 43 69 44 70 45 71 46 72 70 73 71 74 79 75 72 76
REMARK SMILES IDX 74 77 80 78 73 79 75 80 76 81 77 82 78 83 55 84 56 85 64 86
REMARK SMILES IDX 57 87 59 88 65 89 58 90 60 91 61 92 62 93 63 94
REMARK H PARENT 12 23 85 47 53 58
REMARK Flexibility Score: inf
ROOT
ATOM      1  C   UNL A   1      33.012  27.486  26.564  1.00  0.00     0.188 C 
ENDROOT
BRANCH   1   2
ATOM      2  C   UNL A   1      32.453  27.626  25.147  1.00  0.00     0.188 C 
BRANCH   2   3
ATOM      3  O   UNL A   1      33.364  27.504  24.074  1.00  0.00    -0.376 OA
BRANCH   3   4
ATOM      4  C   UNL A   1      33.099  27.396  22.677  1.00  0.00     0.202 C 
BRANCH   4   5
ATOM      5  C   UNL A   1      33.215  26.066  21.587  1.00  0.00     0.261 C 
BRANCH   5   6
ATOM      6  O   UNL A   1      33.140  24.281  21.844  1.00  0.00    -0.460 OA
BRANCH   6   7
ATOM      7  C   UNL A   1      32.910  23.147  22.855  1.00  0.00     0.339 C 
ATOM      8  O   UNL A   1      32.820  21.936  22.628  1.00  0.00    -0.246 OA
BRANCH   7   9
ATOM      9  C   UNL A   1      32.617  23.351  24.292  1.00  0.00     0.070 A 
ATOM     10  C   UNL A   1      30.355  24.295  23.507  1.00  0.00     0.045 C 
ATOM     11  C   UNL A   1      31.302  23.790  24.559  1.00  0.00    -0.036 A 
ATOM     12  C   UNL A   1      30.794  23.649  25.853  1.00  0.00     0.004 A 
ATOM     13  C   UNL A   1      31.552  23.103  26.879  1.00  0.00     0.001 A 
ATOM     14  C   UNL A   1      33.465  22.803  25.371  1.00  0.00    -0.003 A 
ATOM     15  C   UNL A   1      32.853  22.692  26.640  1.00  0.00     0.009 A 
BRANCH  14  16
ATOM     16  C   UNL A   1      34.962  22.459  25.477  1.00  0.00    -0.014 A 
ATOM     17  C   UNL A   1      35.315  21.127  25.127  1.00  0.00     0.009 A 
ATOM     18  C   UNL A   1      36.065  23.339  25.587  1.00  0.00     0.055 A 
ATOM     19  C   UNL A   1      36.638  20.672  24.952  1.00  0.00     0.004 A 
ATOM     20  C   UNL A   1      37.402  22.869  25.429  1.00  0.00     0.116 A 
ATOM     21  C   UNL A   1      37.696  21.541  25.132  1.00  0.00     0.046 A 
BRANCH  20  22
ATOM     22  O   UNL A   1      38.457  23.735  25.585  1.00  0.00    -0.508 OA
ATOM     23  H   UNL A   1      38.576  24.187  26.398  1.00  0.00     0.293 HD
ENDBRANCH  20  22
ENDBRANCH  14  16
ENDBRANCH   7   9
ENDBRANCH   6   7
ENDBRANCH   5   6
ENDBRANCH   4   5
ENDBRANCH   3   4
ENDBRANCH   2   3
ENDBRANCH   1   2
BRANCH   1  24
ATOM     24  O   UNL A   1      32.381  28.277  27.546  1.00  0.00    -0.376 OA
BRANCH  24  25
ATOM     25  C   UNL A   1      32.274  29.629  27.156  1.00  0.00     0.202 C 
BRANCH  25  26
ATOM     26  C   UNL A   1      33.478  30.627  27.157  1.00  0.00     0.261 C 
BRANCH  26  27
ATOM     27  O   UNL A   1      33.842  31.840  27.979  1.00  0.00    -0.460 OA
BRANCH  27  28
ATOM     28  C   UNL A   1      34.177  33.018  28.540  1.00  0.00     0.338 C 
ATOM     29  O   UNL A   1      33.423  33.983  28.459  1.00  0.00    -0.246 OA
BRANCH  28  30
ATOM     30  C   UNL A   1      35.426  33.141  29.319  1.00  0.00     0.060 A 
ATOM     31  C   UNL A   1      36.618  33.744  28.958  1.00  0.00     0.016 A 
ATOM     32  C   UNL A   1      35.449  32.631  30.556  1.00  0.00     0.016 A 
ATOM     33  C   UNL A   1      37.893  33.201  29.358  1.00  0.00     0.010 A 
ATOM     34  C   UNL A   1      36.670  32.052  30.894  1.00  0.00     0.010 A 
ATOM     35  C   UNL A   1      37.966  32.126  30.214  1.00  0.00    -0.014 A 
BRANCH  35  36
ATOM     36  C   UNL A   1      39.423  31.198  30.482  1.00  0.00     0.031 A 
ATOM     37  C   UNL A   1      39.916  29.519  29.985  1.00  0.00     0.074 A 
ATOM     38  C   UNL A   1      40.430  31.892  31.077  1.00  0.00     0.049 A 
ATOM     39  N   UNL A   1      41.091  28.986  30.208  1.00  0.00    -0.248 NA
ATOM     40  C   UNL A   1      39.126  28.362  29.263  1.00  0.00     0.031 C 
ATOM     41  C   UNL A   1      41.849  31.553  30.997  1.00  0.00     0.029 A 
ATOM     42  N   UNL A   1      40.444  33.070  31.829  1.00  0.00    -0.354 N 
ATOM     43  C   UNL A   1      41.190  27.767  29.521  1.00  0.00     0.074 A 
ATOM     44  C   UNL A   1      39.927  27.332  29.117  1.00  0.00     0.031 C 
ATOM     45  C   UNL A   1      42.543  32.329  31.834  1.00  0.00     0.029 A 
ATOM     46  C   UNL A   1      41.586  33.040  32.644  1.00  0.00     0.049 A 
ATOM     47  H   UNL A   1      39.775  33.790  31.794  1.00  0.00     0.167 HD
ATOM     48  C   UNL A   1      42.370  27.207  29.189  1.00  0.00     0.034 A 
ATOM     49  C   UNL A   1      41.543  32.913  34.002  1.00  0.00     0.034 A 
ATOM     50  C   UNL A   1      43.323  27.619  30.191  1.00  0.00     0.049 A 
ATOM     51  C   UNL A   1      41.998  31.505  34.482  1.00  0.00     0.074 A 
ATOM     52  C   UNL A   1      44.240  28.644  30.273  1.00  0.00     0.029 A 
ATOM     53  N   UNL A   1      42.990  27.286  31.502  1.00  0.00    -0.354 N 
ATOM     54  N   UNL A   1      42.609  30.597  33.747  1.00  0.00    -0.248 NA
ATOM     55  C   UNL A   1      41.809  31.014  35.847  1.00  0.00     0.031 C 
ATOM     56  C   UNL A   1      44.292  29.043  31.651  1.00  0.00     0.029 A 
ATOM     57  C   UNL A   1      43.459  28.227  32.408  1.00  0.00     0.049 A 
ATOM     58  H   UNL A   1      42.484  26.480  31.755  1.00  0.00     0.167 HD
ATOM     59  C   UNL A   1      42.675  29.384  34.410  1.00  0.00     0.074 A 
ATOM     60  C   UNL A   1      42.267  29.750  35.760  1.00  0.00     0.031 C 
ATOM     61  C   UNL A   1      42.994  28.173  33.811  1.00  0.00     0.034 A 
BRANCH  48  62
ATOM     62  C   UNL A   1      42.558  26.320  27.959  1.00  0.00     0.023 A 
ATOM     63  C   UNL A   1      42.952  26.956  26.772  1.00  0.00     0.012 A 
ATOM     64  C   UNL A   1      42.250  24.918  27.845  1.00  0.00     0.148 A 
ATOM     65  C   UNL A   1      43.044  26.264  25.554  1.00  0.00     0.002 A 
ATOM     66  C   UNL A   1      42.418  24.214  26.642  1.00  0.00     0.091 A 
ATOM     67  F   UNL A   1      41.698  24.261  28.877  1.00  0.00    -0.205 F 
ATOM     68  C   UNL A   1      42.798  24.897  25.488  1.00  0.00     0.022 A 
BRANCH  66  69
ATOM     69  S   UNL A   1      42.172  22.426  26.476  1.00  0.00     0.127 S 
ATOM     70  O   UNL A   1      40.719  22.300  26.586  1.00  0.00    -0.237 OA
ATOM     71  O   UNL A   1      42.700  22.154  25.138  1.00  0.00    -0.237 OA
ATOM     72  O   UNL A   1      42.932  21.807  27.556  1.00  0.00    -0.744 OA
ENDBRANCH  66  69
ENDBRANCH  48  62
BRANCH  49  73
ATOM     73  C   UNL A   1      40.634  33.931  34.631  1.00  0.00     0.023 A 
ATOM     74  C   UNL A   1      39.291  33.519  34.862  1.00  0.00     0.012 A 
ATOM     75  C   UNL A   1      41.134  34.968  35.435  1.00  0.00     0.148 A 
ATOM     76  C   UNL A   1      38.510  34.060  35.893  1.00  0.00     0.002 A 
ATOM     77  C   UNL A   1      40.360  35.455  36.499  1.00  0.00     0.091 A 
ATOM     78  F   UNL A   1      42.412  35.318  35.264  1.00  0.00    -0.205 F 
ATOM     79  C   UNL A   1      39.054  35.016  36.722  1.00  0.00     0.022 A 
BRANCH  77  80
ATOM     80  S   UNL A   1      41.024  36.281  37.930  1.00  0.00     0.127 S 
ATOM     81  O   UNL A   1      39.939  37.122  38.399  1.00  0.00    -0.237 OA
ATOM     82  O   UNL A   1      41.347  35.139  38.778  1.00  0.00    -0.237 OA
ATOM     83  O   UNL A   1      42.169  37.016  37.418  1.00  0.00    -0.744 OA
ENDBRANCH  77  80
ENDBRANCH  49  73
BRANCH  61  84
ATOM     84  C   UNL A   1      42.836  26.777  34.488  1.00  0.00     0.023 A 
ATOM     85  C   UNL A   1      41.586  26.261  34.884  1.00  0.00     0.012 A 
ATOM     86  C   UNL A   1      43.927  25.865  34.631  1.00  0.00     0.148 A 
ATOM     87  C   UNL A   1      41.437  24.996  35.480  1.00  0.00     0.002 A 
ATOM     88  C   UNL A   1      43.744  24.545  35.061  1.00  0.00     0.091 A 
ATOM     89  F   UNL A   1      45.182  26.263  34.380  1.00  0.00    -0.205 F 
ATOM     90  C   UNL A   1      42.511  24.124  35.546  1.00  0.00     0.022 A 
BRANCH  88  91
ATOM     91  S   UNL A   1      45.031  23.306  34.804  1.00  0.00     0.127 S 
ATOM     92  O   UNL A   1      44.258  22.079  34.630  1.00  0.00    -0.237 OA
ATOM     93  O   UNL A   1      45.700  23.778  33.589  1.00  0.00    -0.237 OA
ATOM     94  O   UNL A   1      45.854  23.391  36.004  1.00  0.00    -0.744 OA
ENDBRANCH  88  91
ENDBRANCH  61  84
ENDBRANCH  35  36
ENDBRANCH  28  30
ENDBRANCH  27  28
ENDBRANCH  26  27
ENDBRANCH  25  26
ENDBRANCH  24  25
ENDBRANCH   1  24
TORSDOF 22
ENDMDL
MODEL 2
REMARK VINA RESULT:     -11.6      2.185      4.420
REMARK SMILES Cc1cccc(-c2cccc(O)c2)c1C(=O)OCCOCCOCCOC(=O)c1ccc(-c2c3nc(c(-c4cccc(S(=O)(=O)[O-])c4F)c4ccc([nH]4)c(-c4cccc(S(=O)(=O)[O-])c4F)c4nc(c(-c5cccc(S(=O)(=O)[O-])c5F)c5ccc2[nH]5)C=C4)C=C3)cc1
REMARK SMILES IDX 22 1 21 2 20 3 19 4 18 5 17 6 15 7 16 8 14 9 1 10 2 11 3 12
REMARK SMILES IDX 4 13 6 14 5 15 7 16 8 17 13 18 9 19 11 20 10 21 12 22 23 24
REMARK SMILES IDX 24 25 25 26 26 27 27 28 28 29 29 30 30 31 91 32 31 33 90 34
REMARK SMILES IDX 32 35 33 36 34 37 84 38 35 39 89 40 83 41 85 42 36 43 88 44
REMARK SMILES IDX 82 45 81 46 37 48 69 49 49 50 68 51 50 52 53 53 67 54 86 55
REMARK SMILES IDX 51 56 52 57 66 59 87 60 54 61 38 62 39 63 47 64 40 65 42 66
REMARK SMILES IDX 48 67 41 68 43 69 44 70 45 71 46 72 70 73 71 74 79 75 72 76
REMARK SMILES IDX 74 77 80 78 73 79 75 80 76 81 77 82 78 83 55 84 56 85 64 86
REMARK SMILES IDX 57 87 59 88 65 89 58 90 60 91 61 92 62 93 63 94
REMARK H PARENT 12 23 85 47 53 58
REMARK Flexibility Score: inf
ROOT
ATOM      1  C   UNL A   1      34.730  34.345  28.011  1.00  0.00     0.188 C 
ENDROOT
BRANCH   1   2
ATOM      2  C   UNL A   1      35.565  33.064  27.966  1.00  0.00     0.188 C 
BRANCH   2   3
ATOM      3  O   UNL A   1      34.926  31.888  27.514  1.00  0.00    -0.376 OA
BRANCH   3   4
ATOM      4  C   UNL A   1      35.098  30.543  27.956  1.00  0.00     0.202 C 
BRANCH   4   5
ATOM      5  C   UNL A   1      34.557  29.043  27.303  1.00  0.00     0.261 C 
BRANCH   5   6
ATOM      6  O   UNL A   1      33.102  28.600  26.332  1.00  0.00    -0.460 OA
BRANCH   6   7
ATOM      7  C   UNL A   1      31.878  27.677  26.219  1.00  0.00     0.339 C 
ATOM      8  O   UNL A   1      31.009  27.462  27.071  1.00  0.00    -0.246 OA
BRANCH   7   9
ATOM      9  C   UNL A   1      31.615  26.768  25.080  1.00  0.00     0.070 A 
ATOM     10  C   UNL A   1      33.400  25.239  26.128  1.00  0.00     0.045 C 
ATOM     11  C   UNL A   1      32.289  25.531  25.158  1.00  0.00    -0.036 A 
ATOM     12  C   UNL A   1      31.838  24.466  24.373  1.00  0.00     0.004 A 
ATOM     13  C   UNL A   1      30.757  24.600  23.515  1.00  0.00     0.001 A 
ATOM     14  C   UNL A   1      30.486  26.957  24.146  1.00  0.00    -0.003 A 
ATOM     15  C   UNL A   1      30.100  25.815  23.406  1.00  0.00     0.009 A 
BRANCH  14  16
ATOM     16  C   UNL A   1      29.705  28.190  23.656  1.00  0.00    -0.014 A 
ATOM     17  C   UNL A   1      28.329  27.975  23.369  1.00  0.00     0.009 A 
ATOM     18  C   UNL A   1      30.074  29.554  23.725  1.00  0.00     0.055 A 
ATOM     19  C   UNL A   1      27.397  29.002  23.116  1.00  0.00     0.004 A 
ATOM     20  C   UNL A   1      29.132  30.589  23.448  1.00  0.00     0.116 A 
ATOM     21  C   UNL A   1      27.804  30.321  23.127  1.00  0.00     0.046 A 
BRANCH  20  22
ATOM     22  O   UNL A   1      29.528  31.904  23.479  1.00  0.00    -0.508 OA
ATOM     23  H   UNL A   1      29.727  32.353  22.681  1.00  0.00     0.293 HD
ENDBRANCH  20  22
ENDBRANCH  14  16
ENDBRANCH   7   9
ENDBRANCH   6   7
ENDBRANCH   5   6
ENDBRANCH   4   5
ENDBRANCH   3   4
ENDBRANCH   2   3
ENDBRANCH   1   2
BRANCH   1  24
ATOM     24  O   UNL A   1      33.437  34.207  28.556  1.00  0.00    -0.376 OA
BRANCH  24  25
ATOM     25  C   UNL A   1      32.837  35.454  28.835  1.00  0.00     0.202 C 
BRANCH  25  26
ATOM     26  C   UNL A   1      33.074  36.248  30.162  1.00  0.00     0.261 C 
BRANCH  26  27
ATOM     27  O   UNL A   1      33.600  35.885  31.529  1.00  0.00    -0.460 OA
BRANCH  27  28
ATOM     28  C   UNL A   1      34.236  35.511  32.656  1.00  0.00     0.338 C 
ATOM     29  O   UNL A   1      34.321  36.281  33.608  1.00  0.00    -0.246 OA
BRANCH  28  30
ATOM     30  C   UNL A   1      34.780  34.143  32.783  1.00  0.00     0.060 A 
ATOM     31  C   UNL A   1      35.273  33.506  33.907  1.00  0.00     0.016 A 
ATOM     32  C   UNL A   1      34.798  33.370  31.691  1.00  0.00     0.016 A 
ATOM     33  C   UNL A   1      36.394  32.600  33.834  1.00  0.00     0.010 A 
ATOM     34  C   UNL A   1      35.924  32.554  31.609  1.00  0.00     0.010 A 
ATOM     35  C   UNL A   1      36.939  32.247  32.620  1.00  0.00    -0.014 A 
BRANCH  35  36
ATOM     36  C   UNL A   1      38.482  31.444  32.448  1.00  0.00     0.031 A 
ATOM     37  C   UNL A   1      38.953  29.830  31.753  1.00  0.00     0.074 A 
ATOM     38  C   UNL A   1      39.554  32.206  32.792  1.00  0.00     0.049 A 
ATOM     39  N   UNL A   1      40.182  29.397  31.632  1.00  0.00    -0.248 NA
ATOM     40  C   UNL A   1      38.091  28.630  31.205  1.00  0.00     0.031 C 
ATOM     41  C   UNL A   1      40.922  31.996  32.325  1.00  0.00     0.029 A 
ATOM     42  N   UNL A   1      39.677  33.359  33.574  1.00  0.00    -0.354 N 
ATOM     43  C   UNL A   1      40.189  28.211  30.882  1.00  0.00     0.074 A 
ATOM     44  C   UNL A   1      38.902  27.679  30.802  1.00  0.00     0.031 C 
ATOM     45  C   UNL A   1      41.752  32.806  32.989  1.00  0.00     0.029 A 
ATOM     46  C   UNL A   1      40.993  33.407  34.057  1.00  0.00     0.049 A 
ATOM     47  H   UNL A   1      38.968  34.018  33.752  1.00  0.00     0.167 HD
ATOM     48  C   UNL A   1      41.278  27.768  30.223  1.00  0.00     0.034 A 
ATOM     49  C   UNL A   1      41.323  33.236  35.370  1.00  0.00     0.034 A 
ATOM     50  C   UNL A   1      42.429  28.233  30.959  1.00  0.00     0.049 A 
ATOM     51  C   UNL A   1      41.997  31.861  35.641  1.00  0.00     0.074 A 
ATOM     52  C   UNL A   1      43.252  29.332  30.849  1.00  0.00     0.029 A 
ATOM     53  N   UNL A   1      42.483  27.834  32.292  1.00  0.00    -0.354 N 
ATOM     54  N   UNL A   1      42.458  31.032  34.726  1.00  0.00    -0.248 NA
ATOM     55  C   UNL A   1      42.217  31.315  36.980  1.00  0.00     0.031 C 
ATOM     56  C   UNL A   1      43.638  29.694  32.184  1.00  0.00     0.029 A 
ATOM     57  C   UNL A   1      43.102  28.787  33.091  1.00  0.00     0.049 A 
ATOM     58  H   UNL A   1      42.127  26.980  32.628  1.00  0.00     0.167 HD
ATOM     59  C   UNL A   1      42.792  29.811  35.285  1.00  0.00     0.074 A 
ATOM     60  C   UNL A   1      42.731  30.100  36.712  1.00  0.00     0.031 C 
ATOM     61  C   UNL A   1      43.033  28.651  34.562  1.00  0.00     0.034 A 
BRANCH  48  62
ATOM     62  C   UNL A   1      41.200  26.938  28.943  1.00  0.00     0.023 A 
ATOM     63  C   UNL A   1      40.189  27.272  28.029  1.00  0.00     0.012 A 
ATOM     64  C   UNL A   1      41.967  25.761  28.623  1.00  0.00     0.148 A 
ATOM     65  C   UNL A   1      39.948  26.509  26.876  1.00  0.00     0.002 A 
ATOM     66  C   UNL A   1      41.773  25.047  27.431  1.00  0.00     0.091 A 
ATOM     67  F   UNL A   1      42.835  25.259  29.514  1.00  0.00    -0.205 F 
ATOM     68  C   UNL A   1      40.745  25.412  26.564  1.00  0.00     0.022 A 
BRANCH  66  69
ATOM     69  S   UNL A   1      42.797  23.641  26.919  1.00  0.00     0.127 S 
ATOM     70  O   UNL A   1      44.145  24.203  26.966  1.00  0.00    -0.237 OA
ATOM     71  O   UNL A   1      42.521  22.650  27.960  1.00  0.00    -0.237 OA
ATOM     72  O   UNL A   1      42.330  23.258  25.591  1.00  0.00    -0.744 OA
ENDBRANCH  66  69
ENDBRANCH  48  62
BRANCH  49  73
ATOM     73  C   UNL A   1      40.537  34.152  36.267  1.00  0.00     0.023 A 
ATOM     74  C   UNL A   1      39.250  33.692  36.664  1.00  0.00     0.012 A 
ATOM     75  C   UNL A   1      41.172  35.085  37.104  1.00  0.00     0.148 A 
ATOM     76  C   UNL A   1      38.655  34.085  37.872  1.00  0.00     0.002 A 
ATOM     77  C   UNL A   1      40.589  35.420  38.335  1.00  0.00     0.091 A 
ATOM     78  F   UNL A   1      42.405  35.474  36.769  1.00  0.00    -0.205 F 
ATOM     79  C   UNL A   1      39.336  34.936  38.714  1.00  0.00     0.022 A 
BRANCH  77  80
ATOM     80  S   UNL A   1      41.487  36.066  39.730  1.00  0.00     0.127 S 
ATOM     81  O   UNL A   1      40.476  36.706  40.549  1.00  0.00    -0.237 OA
ATOM     82  O   UNL A   1      42.059  34.841  40.278  1.00  0.00    -0.237 OA
ATOM     83  O   UNL A   1      42.446  36.987  39.141  1.00  0.00    -0.744 OA
ENDBRANCH  77  80
ENDBRANCH  49  73
BRANCH  61  84
ATOM     84  C   UNL A   1      43.169  27.227  35.183  1.00  0.00     0.023 A 
ATOM     85  C   UNL A   1      42.127  26.609  35.902  1.00  0.00     0.012 A 
ATOM     86  C   UNL A   1      44.308  26.395  34.954  1.00  0.00     0.148 A 
ATOM     87  C   UNL A   1      42.240  25.318  36.451  1.00  0.00     0.002 A 
ATOM     88  C   UNL A   1      44.343  25.053  35.351  1.00  0.00     0.091 A 
ATOM     89  F   UNL A   1      45.405  26.892  34.366  1.00  0.00    -0.205 F 
ATOM     90  C   UNL A   1      43.338  24.527  36.154  1.00  0.00     0.022 A 
BRANCH  88  91
ATOM     91  S   UNL A   1      45.571  23.921  34.665  1.00  0.00     0.127 S 
ATOM     92  O   UNL A   1      46.758  24.223  35.460  1.00  0.00    -0.237 OA
ATOM     93  O   UNL A   1      44.983  22.605  34.929  1.00  0.00    -0.237 OA
ATOM     94  O   UNL A   1      45.628  24.270  33.251  1.00  0.00    -0.744 OA
ENDBRANCH  88  91
ENDBRANCH  61  84
ENDBRANCH  35  36
ENDBRANCH  28  30
ENDBRANCH  27  28
ENDBRANCH  26  27
ENDBRANCH  25  26
ENDBRANCH  24  25
ENDBRANCH   1  24
TORSDOF 22
ENDMDL
MODEL 3
REMARK VINA RESULT:     -11.4      2.755      9.382
REMARK SMILES Cc1cccc(-c2cccc(O)c2)c1C(=O)OCCOCCOCCOC(=O)c1ccc(-c2c3nc(c(-c4cccc(S(=O)(=O)[O-])c4F)c4ccc([nH]4)c(-c4cccc(S(=O)(=O)[O-])c4F)c4nc(c(-c5cccc(S(=O)(=O)[O-])c5F)c5ccc2[nH]5)C=C4)C=C3)cc1
REMARK SMILES IDX 22 1 21 2 20 3 19 4 18 5 17 6 15 7 16 8 14 9 1 10 2 11 3 12
REMARK SMILES IDX 4 13 6 14 5 15 7 16 8 17 13 18 9 19 11 20 10 21 12 22 23 24
REMARK SMILES IDX 24 25 25 26 26 27 27 28 28 29 29 30 30 31 91 32 31 33 90 34
REMARK SMILES IDX 32 35 33 36 34 37 84 38 35 39 89 40 83 41 85 42 36 43 88 44
REMARK SMILES IDX 82 45 81 46 37 48 69 49 49 50 68 51 50 52 53 53 67 54 86 55
REMARK SMILES IDX 51 56 52 57 66 59 87 60 54 61 38 62 39 63 47 64 40 65 42 66
REMARK SMILES IDX 48 67 41 68 43 69 44 70 45 71 46 72 70 73 71 74 79 75 72 76
REMARK SMILES IDX 74 77 80 78 73 79 75 80 76 81 77 82 78 83 55 84 56 85 64 86
REMARK SMILES IDX 57 87 59 88 65 89 58 90 60 91 61 92 62 93 63 94
REMARK H PARENT 12 23 85 47 53 58
REMARK Flexibility Score: inf
ROOT
ATOM      1  C   UNL A   1      42.362  21.301  26.439  1.00  0.00     0.188 C 
ENDROOT
BRANCH   1   2
ATOM      2  C   UNL A   1      41.037  20.597  26.739  1.00  0.00     0.188 C 
BRANCH   2   3
ATOM      3  O   UNL A   1      40.000  20.734  25.790  1.00  0.00    -0.376 OA
BRANCH   3   4
ATOM      4  C   UNL A   1      38.827  21.544  25.848  1.00  0.00     0.202 C 
BRANCH   4   5
ATOM      5  C   UNL A   1      37.330  21.456  25.000  1.00  0.00     0.261 C 
BRANCH   5   6
ATOM      6  O   UNL A   1      36.256  22.730  24.305  1.00  0.00    -0.460 OA
BRANCH   6   7
ATOM      7  C   UNL A   1      34.821  23.108  23.907  1.00  0.00     0.339 C 
ATOM      8  O   UNL A   1      34.436  23.608  22.844  1.00  0.00    -0.246 OA
BRANCH   7   9
ATOM      9  C   UNL A   1      33.655  23.056  24.819  1.00  0.00     0.070 A 
ATOM     10  C   UNL A   1      34.264  25.479  25.437  1.00  0.00     0.045 C 
ATOM     11  C   UNL A   1      33.350  24.286  25.441  1.00  0.00    -0.036 A 
ATOM     12  C   UNL A   1      32.082  24.461  26.002  1.00  0.00     0.004 A 
ATOM     13  C   UNL A   1      31.126  23.456  25.973  1.00  0.00     0.001 A 
ATOM     14  C   UNL A   1      32.675  21.951  24.807  1.00  0.00    -0.003 A 
ATOM     15  C   UNL A   1      31.419  22.234  25.390  1.00  0.00     0.009 A 
BRANCH  14  16
ATOM     16  C   UNL A   1      32.758  20.459  24.435  1.00  0.00    -0.014 A 
ATOM     17  C   UNL A   1      32.974  19.564  25.519  1.00  0.00     0.009 A 
ATOM     18  C   UNL A   1      32.366  19.824  23.232  1.00  0.00     0.055 A 
ATOM     19  C   UNL A   1      32.871  18.160  25.428  1.00  0.00     0.004 A 
ATOM     20  C   UNL A   1      32.283  18.404  23.140  1.00  0.00     0.116 A 
ATOM     21  C   UNL A   1      32.550  17.569  24.223  1.00  0.00     0.046 A 
BRANCH  20  22
ATOM     22  O   UNL A   1      31.941  17.811  21.948  1.00  0.00    -0.508 OA
ATOM     23  H   UNL A   1      31.473  18.300  21.300  1.00  0.00     0.293 HD
ENDBRANCH  20  22
ENDBRANCH  14  16
ENDBRANCH   7   9
ENDBRANCH   6   7
ENDBRANCH   5   6
ENDBRANCH   4   5
ENDBRANCH   3   4
ENDBRANCH   2   3
ENDBRANCH   1   2
BRANCH   1  24
ATOM     24  O   UNL A   1      42.268  22.448  25.625  1.00  0.00    -0.376 OA
BRANCH  24  25
ATOM     25  C   UNL A   1      43.273  23.396  25.919  1.00  0.00     0.202 C 
BRANCH  25  26
ATOM     26  C   UNL A   1      43.327  24.823  25.280  1.00  0.00     0.261 C 
BRANCH  26  27
ATOM     27  O   UNL A   1      43.752  26.184  25.774  1.00  0.00    -0.460 OA
BRANCH  27  28
ATOM     28  C   UNL A   1      44.137  27.450  26.025  1.00  0.00     0.338 C 
ATOM     29  O   UNL A   1      45.311  27.782  25.891  1.00  0.00    -0.246 OA
BRANCH  28  30
ATOM     30  C   UNL A   1      43.137  28.471  26.399  1.00  0.00     0.060 A 
ATOM     31  C   UNL A   1      43.341  29.766  26.839  1.00  0.00     0.016 A 
ATOM     32  C   UNL A   1      41.842  28.150  26.294  1.00  0.00     0.016 A 
ATOM     33  C   UNL A   1      42.492  30.370  27.837  1.00  0.00     0.010 A 
ATOM     34  C   UNL A   1      41.054  28.689  27.308  1.00  0.00     0.010 A 
ATOM     35  C   UNL A   1      41.374  29.716  28.303  1.00  0.00    -0.014 A 
BRANCH  35  36
ATOM     36  C   UNL A   1      40.490  30.204  29.731  1.00  0.00     0.031 A 
ATOM     37  C   UNL A   1      39.452  31.652  30.094  1.00  0.00     0.074 A 
ATOM     38  C   UNL A   1      40.477  29.278  30.727  1.00  0.00     0.049 A 
ATOM     39  N   UNL A   1      38.791  31.840  31.208  1.00  0.00    -0.248 NA
ATOM     40  C   UNL A   1      39.136  32.955  29.264  1.00  0.00     0.031 C 
ATOM     41  C   UNL A   1      39.477  29.198  31.788  1.00  0.00     0.029 A 
ATOM     42  N   UNL A   1      41.293  28.176  30.998  1.00  0.00    -0.354 N 
ATOM     43  C   UNL A   1      37.946  32.951  31.071  1.00  0.00     0.074 A 
ATOM     44  C   UNL A   1      38.317  33.709  29.958  1.00  0.00     0.031 C 
ATOM     45  C   UNL A   1      39.856  28.292  32.695  1.00  0.00     0.029 A 
ATOM     46  C   UNL A   1      41.210  27.914  32.374  1.00  0.00     0.049 A 
ATOM     47  H   UNL A   1      41.828  27.674  30.343  1.00  0.00     0.167 HD
ATOM     48  C   UNL A   1      36.853  33.140  31.835  1.00  0.00     0.034 A 
ATOM     49  C   UNL A   1      42.245  28.105  33.243  1.00  0.00     0.034 A 
ATOM     50  C   UNL A   1      37.122  32.516  33.109  1.00  0.00     0.049 A 
ATOM     51  C   UNL A   1      42.033  29.345  34.159  1.00  0.00     0.074 A 
ATOM     52  C   UNL A   1      36.843  31.278  33.644  1.00  0.00     0.029 A 
ATOM     53  N   UNL A   1      38.254  32.984  33.772  1.00  0.00    -0.354 N 
ATOM     54  N   UNL A   1      40.905  30.012  34.308  1.00  0.00    -0.248 NA
ATOM     55  C   UNL A   1      43.084  29.925  34.994  1.00  0.00     0.031 C 
ATOM     56  C   UNL A   1      37.947  30.938  34.496  1.00  0.00     0.029 A 
ATOM     57  C   UNL A   1      38.860  31.987  34.525  1.00  0.00     0.049 A 
ATOM     58  H   UNL A   1      38.584  33.910  33.715  1.00  0.00     0.167 HD
ATOM     59  C   UNL A   1      41.111  31.183  35.017  1.00  0.00     0.074 A 
ATOM     60  C   UNL A   1      42.469  31.004  35.517  1.00  0.00     0.031 C 
ATOM     61  C   UNL A   1      40.202  32.228  35.097  1.00  0.00     0.034 A 
BRANCH  48  62
ATOM     62  C   UNL A   1      35.611  33.885  31.349  1.00  0.00     0.023 A 
ATOM     63  C   UNL A   1      35.078  33.493  30.112  1.00  0.00     0.012 A 
ATOM     64  C   UNL A   1      34.997  35.038  31.957  1.00  0.00     0.148 A 
ATOM     65  C   UNL A   1      34.011  34.180  29.511  1.00  0.00     0.002 A 
ATOM     66  C   UNL A   1      33.882  35.673  31.390  1.00  0.00     0.091 A 
ATOM     67  F   UNL A   1      35.542  35.596  33.049  1.00  0.00    -0.205 F 
ATOM     68  C   UNL A   1      33.400  35.253  30.151  1.00  0.00     0.022 A 
BRANCH  66  69
ATOM     69  S   UNL A   1      32.991  37.042  32.178  1.00  0.00     0.127 S 
ATOM     70  O   UNL A   1      32.911  38.024  31.098  1.00  0.00    -0.237 OA
ATOM     71  O   UNL A   1      31.710  36.428  32.530  1.00  0.00    -0.237 OA
ATOM     72  O   UNL A   1      33.796  37.446  33.325  1.00  0.00    -0.744 OA
ENDBRANCH  66  69
ENDBRANCH  48  62
BRANCH  49  73
ATOM     73  C   UNL A   1      43.497  27.413  32.783  1.00  0.00     0.023 A 
ATOM     74  C   UNL A   1      44.474  28.233  32.151  1.00  0.00     0.012 A 
ATOM     75  C   UNL A   1      43.948  26.228  33.387  1.00  0.00     0.148 A 
ATOM     76  C   UNL A   1      45.842  27.927  32.183  1.00  0.00     0.002 A 
ATOM     77  C   UNL A   1      45.324  25.969  33.462  1.00  0.00     0.091 A 
ATOM     78  F   UNL A   1      43.045  25.484  34.034  1.00  0.00    -0.205 F 
ATOM     79  C   UNL A   1      46.266  26.802  32.856  1.00  0.00     0.022 A 
BRANCH  77  80
ATOM     80  S   UNL A   1      46.082  24.896  34.664  1.00  0.00     0.127 S 
ATOM     81  O   UNL A   1      45.784  25.515  35.942  1.00  0.00    -0.237 OA
ATOM     82  O   UNL A   1      45.383  23.645  34.393  1.00  0.00    -0.237 OA
ATOM     83  O   UNL A   1      47.493  24.906  34.312  1.00  0.00    -0.744 OA
ENDBRANCH  77  80
ENDBRANCH  49  73
BRANCH  61  84
ATOM     84  C   UNL A   1      40.517  33.638  35.683  1.00  0.00     0.023 A 
ATOM     85  C   UNL A   1      39.859  34.156  36.816  1.00  0.00     0.012 A 
ATOM     86  C   UNL A   1      41.586  34.451  35.194  1.00  0.00     0.148 A 
ATOM     87  C   UNL A   1      40.152  35.421  37.357  1.00  0.00     0.002 A 
ATOM     88  C   UNL A   1      41.987  35.625  35.843  1.00  0.00     0.091 A 
ATOM     89  F   UNL A   1      42.230  34.120  34.066  1.00  0.00    -0.205 F 
ATOM     90  C   UNL A   1      41.234  36.148  36.888  1.00  0.00     0.022 A 
BRANCH  88  91
ATOM     91  S   UNL A   1      43.590  36.374  35.486  1.00  0.00     0.127 S 
ATOM     92  O   UNL A   1      44.506  35.246  35.638  1.00  0.00    -0.237 OA
ATOM     93  O   UNL A   1      43.431  36.844  34.107  1.00  0.00    -0.237 OA
ATOM     94  O   UNL A   1      43.710  37.446  36.466  1.00  0.00    -0.744 OA
ENDBRANCH  88  91
ENDBRANCH  61  84
ENDBRANCH  35  36
ENDBRANCH  28  30
ENDBRANCH  27  28
ENDBRANCH  26  27
ENDBRANCH  25  26
ENDBRANCH  24  25
ENDBRANCH   1  24
TORSDOF 22
ENDMDL
