MODEL 1
REMARK VINA RESULT:     -11.0      0.000      0.000
REMARK SMILES Cc1c(Cl)cccc1NC(=O)C[C@](C)(C(=O)OCCOCCOCCOC(=O)c1ccc(-c2c3nc(c(-c4cccc(S(=O)(=O)[O-])c4F)c4ccc([nH]4)c(-c4cccc(S(=O)(=O)[O-])c4F)c4nc(c(-c5cccc(S(=O)(=O)[O-])c5F)c5ccc2[nH]5)C=C4)C=C3)cc1)c1ccccc1
REMARK SMILES IDX 21 1 20 2 19 3 18 4 17 5 15 6 16 7 13 8 14 9 12 10 10 11
REMARK SMILES IDX 9 12 11 14 8 15 1 16 2 17 3 18 4 19 5 20 7 21 6 22 92 23
REMARK SMILES IDX 93 24 97 25 94 26 96 27 95 28 22 29 23 30 24 31 25 32 26 33
REMARK SMILES IDX 27 34 28 35 29 36 30 37 91 38 31 39 90 40 32 41 33 42 34 43
REMARK SMILES IDX 84 44 35 45 89 46 83 47 85 48 36 49 88 50 82 51 81 52 37 54
REMARK SMILES IDX 69 55 49 56 68 57 50 58 53 59 67 60 86 61 51 62 52 63 66 65
REMARK SMILES IDX 87 66 54 67 38 68 39 69 47 70 40 71 42 72 48 73 41 74 43 75
REMARK SMILES IDX 44 76 45 77 46 78 70 79 71 80 79 81 72 82 74 83 80 84 73 85
REMARK SMILES IDX 75 86 76 87 77 88 78 89 55 90 56 91 64 92 57 93 59 94 65 95
REMARK SMILES IDX 58 96 60 97 61 98 62 99 63 100
REMARK H PARENT 9 13 85 53 53 64
REMARK Flexibility Score: inf
ROOT
ATOM      1  C   UNL A   1      35.906  21.478  25.821  1.00  0.00     0.188 C 
ENDROOT
BRANCH   1   2
ATOM      2  O   UNL A   1      36.847  22.503  26.074  1.00  0.00    -0.376 OA
BRANCH   2   3
ATOM      3  C   UNL A   1      36.518  23.823  25.662  1.00  0.00     0.202 C 
BRANCH   3   4
ATOM      4  C   UNL A   1      35.523  24.017  24.515  1.00  0.00     0.261 C 
BRANCH   4   5
ATOM      5  O   UNL A   1      34.177  24.304  24.951  1.00  0.00    -0.463 OA
BRANCH   5   6
ATOM      6  C   UNL A   1      33.385  24.876  24.009  1.00  0.00     0.316 C 
ATOM      7  O   UNL A   1      33.683  24.888  22.816  1.00  0.00    -0.251 OA
BRANCH   6   8
ATOM      8  C   UNL A   1      32.074  25.526  24.542  1.00  0.00     0.099 C 
ATOM      9  C   UNL A   1      31.220  26.307  23.503  1.00  0.00     0.029 C 
BRANCH   8  10
ATOM     10  C   UNL A   1      31.186  24.356  25.089  1.00  0.00     0.123 C 
BRANCH  10  11
ATOM     11  C   UNL A   1      31.794  23.327  26.048  1.00  0.00     0.225 C 
ATOM     12  N   UNL A   1      32.293  22.109  25.689  1.00  0.00    -0.326 N 
ATOM     13  H   UNL A   1      32.818  21.689  26.408  1.00  0.00     0.169 HD
ATOM     14  O   UNL A   1      31.856  23.599  27.254  1.00  0.00    -0.275 OA
BRANCH  12  15
ATOM     15  C   UNL A   1      32.234  21.312  24.530  1.00  0.00     0.045 A 
ATOM     16  C   UNL A   1      32.840  19.218  25.903  1.00  0.00     0.048 C 
ATOM     17  C   UNL A   1      32.531  19.925  24.603  1.00  0.00    -0.009 A 
ATOM     18  C   UNL A   1      32.545  19.174  23.405  1.00  0.00     0.046 A 
ATOM     19  Cl  UNL A   1      32.941  17.487  23.382  1.00  0.00    -0.084 Cl
ATOM     20  C   UNL A   1      32.246  19.764  22.178  1.00  0.00     0.021 A 
ATOM     21  C   UNL A   1      31.845  21.857  23.305  1.00  0.00     0.026 A 
ATOM     22  C   UNL A   1      31.872  21.098  22.132  1.00  0.00     0.004 A 
ENDBRANCH  12  15
ENDBRANCH  10  11
ENDBRANCH   8  10
BRANCH   8  23
ATOM     23  C   UNL A   1      32.394  26.585  25.652  1.00  0.00    -0.030 A 
ATOM     24  C   UNL A   1      31.404  26.983  26.577  1.00  0.00     0.005 A 
ATOM     25  C   UNL A   1      33.628  27.263  25.714  1.00  0.00     0.005 A 
ATOM     26  C   UNL A   1      31.625  28.030  27.482  1.00  0.00     0.000 A 
ATOM     27  C   UNL A   1      33.855  28.290  26.637  1.00  0.00     0.000 A 
ATOM     28  C   UNL A   1      32.850  28.686  27.510  1.00  0.00     0.000 A 
ENDBRANCH   8  23
ENDBRANCH   6   8
ENDBRANCH   5   6
ENDBRANCH   4   5
ENDBRANCH   3   4
ENDBRANCH   2   3
ENDBRANCH   1   2
BRANCH   1  29
ATOM     29  C   UNL A   1      36.370  20.253  25.021  1.00  0.00     0.188 C 
BRANCH  29  30
ATOM     30  O   UNL A   1      37.698  20.115  24.576  1.00  0.00    -0.376 OA
BRANCH  30  31
ATOM     31  C   UNL A   1      38.776  20.257  25.484  1.00  0.00     0.202 C 
BRANCH  31  32
ATOM     32  C   UNL A   1      39.799  19.154  25.819  1.00  0.00     0.261 C 
BRANCH  32  33
ATOM     33  O   UNL A   1      41.183  19.476  25.692  1.00  0.00    -0.460 OA
BRANCH  33  34
ATOM     34  C   UNL A   1      41.854  19.688  26.859  1.00  0.00     0.338 C 
ATOM     35  O   UNL A   1      42.435  18.867  27.530  1.00  0.00    -0.246 OA
BRANCH  34  36
ATOM     36  C   UNL A   1      41.986  21.157  27.020  1.00  0.00     0.060 A 
ATOM     37  C   UNL A   1      41.972  21.964  25.870  1.00  0.00     0.016 A 
ATOM     38  C   UNL A   1      42.018  21.731  28.291  1.00  0.00     0.016 A 
ATOM     39  C   UNL A   1      41.977  23.353  25.992  1.00  0.00     0.010 A 
ATOM     40  C   UNL A   1      42.065  23.120  28.409  1.00  0.00     0.010 A 
ATOM     41  C   UNL A   1      42.060  23.934  27.262  1.00  0.00    -0.014 A 
BRANCH  41  42
ATOM     42  C   UNL A   1      42.354  25.376  27.411  1.00  0.00     0.031 A 
ATOM     43  C   UNL A   1      43.698  25.865  26.954  1.00  0.00     0.074 A 
ATOM     44  C   UNL A   1      41.485  26.217  27.999  1.00  0.00     0.049 A 
ATOM     45  N   UNL A   1      44.243  27.042  27.095  1.00  0.00    -0.248 NA
ATOM     46  C   UNL A   1      44.544  24.883  26.257  1.00  0.00     0.031 C 
ATOM     47  C   UNL A   1      40.149  25.859  28.470  1.00  0.00     0.029 A 
ATOM     48  N   UNL A   1      41.616  27.543  28.325  1.00  0.00    -0.354 N 
ATOM     49  C   UNL A   1      45.511  26.934  26.538  1.00  0.00     0.074 A 
ATOM     50  C   UNL A   1      45.653  25.578  26.056  1.00  0.00     0.031 C 
ATOM     51  C   UNL A   1      39.588  26.938  29.044  1.00  0.00     0.029 A 
ATOM     52  C   UNL A   1      40.540  28.048  29.018  1.00  0.00     0.049 A 
ATOM     53  H   UNL A   1      42.405  28.081  28.088  1.00  0.00     0.167 HD
ATOM     54  C   UNL A   1      46.473  27.879  26.434  1.00  0.00     0.034 A 
ATOM     55  C   UNL A   1      40.365  29.256  29.591  1.00  0.00     0.034 A 
ATOM     56  C   UNL A   1      46.334  29.222  26.924  1.00  0.00     0.049 A 
ATOM     57  C   UNL A   1      41.477  30.274  29.517  1.00  0.00     0.074 A 
ATOM     58  C   UNL A   1      47.241  30.262  26.848  1.00  0.00     0.029 A 
ATOM     59  N   UNL A   1      45.225  29.704  27.602  1.00  0.00    -0.354 N 
ATOM     60  N   UNL A   1      42.632  30.196  28.898  1.00  0.00    -0.248 NA
ATOM     61  C   UNL A   1      41.261  31.548  30.219  1.00  0.00     0.031 C 
ATOM     62  C   UNL A   1      46.690  31.367  27.506  1.00  0.00     0.029 A 
ATOM     63  C   UNL A   1      45.429  31.022  27.967  1.00  0.00     0.049 A 
ATOM     64  H   UNL A   1      44.411  29.184  27.794  1.00  0.00     0.167 HD
ATOM     65  C   UNL A   1      43.265  31.417  29.112  1.00  0.00     0.074 A 
ATOM     66  C   UNL A   1      42.357  32.225  29.899  1.00  0.00     0.031 C 
ATOM     67  C   UNL A   1      44.494  31.828  28.709  1.00  0.00     0.034 A 
BRANCH  54  68
ATOM     68  C   UNL A   1      47.756  27.480  25.761  1.00  0.00     0.023 A 
ATOM     69  C   UNL A   1      48.812  26.951  26.532  1.00  0.00     0.012 A 
ATOM     70  C   UNL A   1      47.919  27.622  24.369  1.00  0.00     0.148 A 
ATOM     71  C   UNL A   1      50.024  26.607  25.934  1.00  0.00     0.002 A 
ATOM     72  C   UNL A   1      49.113  27.236  23.775  1.00  0.00     0.091 A 
ATOM     73  F   UNL A   1      46.914  28.156  23.659  1.00  0.00    -0.205 F 
ATOM     74  C   UNL A   1      50.170  26.741  24.556  1.00  0.00     0.022 A 
BRANCH  72  75
ATOM     75  S   UNL A   1      49.371  27.306  21.999  1.00  0.00     0.127 S 
ATOM     76  O   UNL A   1      49.136  28.722  21.723  1.00  0.00    -0.237 OA
ATOM     77  O   UNL A   1      50.767  26.884  21.874  1.00  0.00    -0.237 OA
ATOM     78  O   UNL A   1      48.406  26.383  21.419  1.00  0.00    -0.744 OA
ENDBRANCH  72  75
ENDBRANCH  54  68
BRANCH  55  79
ATOM     79  C   UNL A   1      39.078  29.591  30.267  1.00  0.00     0.023 A 
ATOM     80  C   UNL A   1      38.815  29.055  31.544  1.00  0.00     0.012 A 
ATOM     81  C   UNL A   1      38.121  30.429  29.666  1.00  0.00     0.148 A 
ATOM     82  C   UNL A   1      37.614  29.330  32.198  1.00  0.00     0.002 A 
ATOM     83  C   UNL A   1      36.948  30.742  30.346  1.00  0.00     0.091 A 
ATOM     84  F   UNL A   1      38.378  30.913  28.443  1.00  0.00    -0.205 F 
ATOM     85  C   UNL A   1      36.686  30.181  31.606  1.00  0.00     0.022 A 
BRANCH  83  86
ATOM     86  S   UNL A   1      35.745  31.915  29.713  1.00  0.00     0.127 S 
ATOM     87  O   UNL A   1      35.185  31.187  28.577  1.00  0.00    -0.237 OA
ATOM     88  O   UNL A   1      34.842  32.066  30.854  1.00  0.00    -0.237 OA
ATOM     89  O   UNL A   1      36.502  33.115  29.380  1.00  0.00    -0.744 OA
ENDBRANCH  83  86
ENDBRANCH  55  79
BRANCH  67  90
ATOM     90  C   UNL A   1      44.931  33.221  29.084  1.00  0.00     0.023 A 
ATOM     91  C   UNL A   1      45.492  33.458  30.355  1.00  0.00     0.012 A 
ATOM     92  C   UNL A   1      44.885  34.268  28.142  1.00  0.00     0.148 A 
ATOM     93  C   UNL A   1      45.980  34.721  30.689  1.00  0.00     0.002 A 
ATOM     94  C   UNL A   1      45.418  35.510  28.465  1.00  0.00     0.091 A 
ATOM     95  F   UNL A   1      44.336  34.024  26.943  1.00  0.00    -0.205 F 
ATOM     96  C   UNL A   1      45.956  35.742  29.742  1.00  0.00     0.022 A 
BRANCH  94  97
ATOM     97  S   UNL A   1      45.520  36.858  27.281  1.00  0.00     0.127 S 
ATOM     98  O   UNL A   1      44.114  37.232  27.133  1.00  0.00    -0.237 OA
ATOM     99  O   UNL A   1      46.340  37.836  27.996  1.00  0.00    -0.237 OA
ATOM    100  O   UNL A   1      46.142  36.301  26.087  1.00  0.00    -0.744 OA
ENDBRANCH  94  97
ENDBRANCH  67  90
ENDBRANCH  41  42
ENDBRANCH  34  36
ENDBRANCH  33  34
ENDBRANCH  32  33
ENDBRANCH  31  32
ENDBRANCH  30  31
ENDBRANCH  29  30
ENDBRANCH   1  29
TORSDOF 24
ENDMDL
MODEL 2
REMARK VINA RESULT:     -10.9      1.248      2.074
REMARK SMILES Cc1c(Cl)cccc1NC(=O)C[C@](C)(C(=O)OCCOCCOCCOC(=O)c1ccc(-c2c3nc(c(-c4cccc(S(=O)(=O)[O-])c4F)c4ccc([nH]4)c(-c4cccc(S(=O)(=O)[O-])c4F)c4nc(c(-c5cccc(S(=O)(=O)[O-])c5F)c5ccc2[nH]5)C=C4)C=C3)cc1)c1ccccc1
REMARK SMILES IDX 21 1 20 2 19 3 18 4 17 5 15 6 16 7 13 8 14 9 12 10 10 11
REMARK SMILES IDX 9 12 11 14 8 15 1 16 2 17 3 18 4 19 5 20 7 21 6 22 92 23
REMARK SMILES IDX 93 24 97 25 94 26 96 27 95 28 22 29 23 30 24 31 25 32 26 33
REMARK SMILES IDX 27 34 28 35 29 36 30 37 91 38 31 39 90 40 32 41 33 42 34 43
REMARK SMILES IDX 84 44 35 45 89 46 83 47 85 48 36 49 88 50 82 51 81 52 37 54
REMARK SMILES IDX 69 55 49 56 68 57 50 58 53 59 67 60 86 61 51 62 52 63 66 65
REMARK SMILES IDX 87 66 54 67 38 68 39 69 47 70 40 71 42 72 48 73 41 74 43 75
REMARK SMILES IDX 44 76 45 77 46 78 70 79 71 80 79 81 72 82 74 83 80 84 73 85
REMARK SMILES IDX 75 86 76 87 77 88 78 89 55 90 56 91 64 92 57 93 59 94 65 95
REMARK SMILES IDX 58 96 60 97 61 98 62 99 63 100
REMARK H PARENT 9 13 85 53 53 64
REMARK Flexibility Score: inf
ROOT
ATOM      1  C   UNL A   1      35.352  21.561  25.211  1.00  0.00     0.188 C 
ENDROOT
BRANCH   1   2
ATOM      2  O   UNL A   1      35.599  22.953  25.161  1.00  0.00    -0.376 OA
BRANCH   2   3
ATOM      3  C   UNL A   1      34.656  23.818  25.779  1.00  0.00     0.202 C 
BRANCH   3   4
ATOM      4  C   UNL A   1      34.698  25.315  25.456  1.00  0.00     0.261 C 
BRANCH   4   5
ATOM      5  O   UNL A   1      33.404  25.890  25.179  1.00  0.00    -0.463 OA
BRANCH   5   6
ATOM      6  C   UNL A   1      33.430  27.199  24.818  1.00  0.00     0.316 C 
ATOM      7  O   UNL A   1      33.653  28.099  25.624  1.00  0.00    -0.251 OA
BRANCH   6   8
ATOM      8  C   UNL A   1      33.145  27.484  23.314  1.00  0.00     0.099 C 
ATOM      9  C   UNL A   1      34.037  28.563  22.637  1.00  0.00     0.029 C 
BRANCH   8  10
ATOM     10  C   UNL A   1      33.385  26.135  22.551  1.00  0.00     0.123 C 
BRANCH  10  11
ATOM     11  C   UNL A   1      32.223  25.466  21.811  1.00  0.00     0.225 C 
ATOM     12  N   UNL A   1      31.342  24.580  22.358  1.00  0.00    -0.326 N 
ATOM     13  H   UNL A   1      30.557  24.425  21.784  1.00  0.00     0.169 HD
ATOM     14  O   UNL A   1      32.042  25.737  20.617  1.00  0.00    -0.275 OA
BRANCH  12  15
ATOM     15  C   UNL A   1      31.291  23.837  23.553  1.00  0.00     0.045 A 
ATOM     16  C   UNL A   1      32.544  21.888  22.427  1.00  0.00     0.048 C 
ATOM     17  C   UNL A   1      31.830  22.523  23.597  1.00  0.00    -0.009 A 
ATOM     18  C   UNL A   1      31.684  21.774  24.788  1.00  0.00     0.046 A 
ATOM     19  Cl  UNL A   1      32.264  20.148  24.928  1.00  0.00    -0.084 Cl
ATOM     20  C   UNL A   1      31.055  22.314  25.908  1.00  0.00     0.021 A 
ATOM     21  C   UNL A   1      30.752  24.387  24.717  1.00  0.00     0.026 A 
ATOM     22  C   UNL A   1      30.612  23.627  25.881  1.00  0.00     0.004 A 
ENDBRANCH  12  15
ENDBRANCH  10  11
ENDBRANCH   8  10
BRANCH   8  23
ATOM     23  C   UNL A   1      31.683  28.014  23.119  1.00  0.00    -0.030 A 
ATOM     24  C   UNL A   1      31.401  29.021  22.170  1.00  0.00     0.005 A 
ATOM     25  C   UNL A   1      30.615  27.600  23.940  1.00  0.00     0.005 A 
ATOM     26  C   UNL A   1      30.132  29.609  22.081  1.00  0.00     0.000 A 
ATOM     27  C   UNL A   1      29.342  28.171  23.830  1.00  0.00     0.000 A 
ATOM     28  C   UNL A   1      29.103  29.186  22.914  1.00  0.00     0.000 A 
ENDBRANCH   8  23
ENDBRANCH   6   8
ENDBRANCH   5   6
ENDBRANCH   4   5
ENDBRANCH   3   4
ENDBRANCH   2   3
ENDBRANCH   1   2
BRANCH   1  29
ATOM     29  C   UNL A   1      36.528  20.609  24.956  1.00  0.00     0.188 C 
BRANCH  29  30
ATOM     30  O   UNL A   1      37.836  21.083  24.744  1.00  0.00    -0.376 OA
BRANCH  30  31
ATOM     31  C   UNL A   1      38.830  20.912  25.739  1.00  0.00     0.202 C 
BRANCH  31  32
ATOM     32  C   UNL A   1      39.586  19.599  26.015  1.00  0.00     0.261 C 
BRANCH  32  33
ATOM     33  O   UNL A   1      40.947  19.519  25.594  1.00  0.00    -0.460 OA
BRANCH  33  34
ATOM     34  C   UNL A   1      41.883  19.704  26.567  1.00  0.00     0.338 C 
ATOM     35  O   UNL A   1      42.630  18.874  27.034  1.00  0.00    -0.246 OA
BRANCH  34  36
ATOM     36  C   UNL A   1      42.020  21.169  26.761  1.00  0.00     0.060 A 
ATOM     37  C   UNL A   1      42.062  21.996  25.627  1.00  0.00     0.016 A 
ATOM     38  C   UNL A   1      42.004  21.719  28.043  1.00  0.00     0.016 A 
ATOM     39  C   UNL A   1      42.073  23.383  25.775  1.00  0.00     0.010 A 
ATOM     40  C   UNL A   1      42.057  23.105  28.188  1.00  0.00     0.010 A 
ATOM     41  C   UNL A   1      42.108  23.940  27.058  1.00  0.00    -0.014 A 
BRANCH  41  42
ATOM     42  C   UNL A   1      42.407  25.376  27.246  1.00  0.00     0.031 A 
ATOM     43  C   UNL A   1      43.758  25.869  26.814  1.00  0.00     0.074 A 
ATOM     44  C   UNL A   1      41.536  26.206  27.847  1.00  0.00     0.049 A 
ATOM     45  N   UNL A   1      44.307  27.040  26.989  1.00  0.00    -0.248 NA
ATOM     46  C   UNL A   1      44.606  24.901  26.100  1.00  0.00     0.031 C 
ATOM     47  C   UNL A   1      40.195  25.843  28.297  1.00  0.00     0.029 A 
ATOM     48  N   UNL A   1      41.671  27.524  28.208  1.00  0.00    -0.354 N 
ATOM     49  C   UNL A   1      45.580  26.940  26.442  1.00  0.00     0.074 A 
ATOM     50  C   UNL A   1      45.719  25.595  25.927  1.00  0.00     0.031 C 
ATOM     51  C   UNL A   1      39.633  26.911  28.892  1.00  0.00     0.029 A 
ATOM     52  C   UNL A   1      40.591  28.016  28.903  1.00  0.00     0.049 A 
ATOM     53  H   UNL A   1      42.465  28.063  27.991  1.00  0.00     0.167 HD
ATOM     54  C   UNL A   1      46.547  27.882  26.371  1.00  0.00     0.034 A 
ATOM     55  C   UNL A   1      40.417  29.210  29.504  1.00  0.00     0.034 A 
ATOM     56  C   UNL A   1      46.410  29.213  26.893  1.00  0.00     0.049 A 
ATOM     57  C   UNL A   1      41.535  30.224  29.467  1.00  0.00     0.074 A 
ATOM     58  C   UNL A   1      47.323  30.250  26.852  1.00  0.00     0.029 A 
ATOM     59  N   UNL A   1      45.297  29.683  27.572  1.00  0.00    -0.354 N 
ATOM     60  N   UNL A   1      42.694  30.156  28.856  1.00  0.00    -0.248 NA
ATOM     61  C   UNL A   1      41.318  31.481  30.198  1.00  0.00     0.031 C 
ATOM     62  C   UNL A   1      46.771  31.340  27.533  1.00  0.00     0.029 A 
ATOM     63  C   UNL A   1      45.504  30.990  27.973  1.00  0.00     0.049 A 
ATOM     64  H   UNL A   1      44.479  29.163  27.744  1.00  0.00     0.167 HD
ATOM     65  C   UNL A   1      43.331  31.368  29.107  1.00  0.00     0.074 A 
ATOM     66  C   UNL A   1      42.420  32.160  29.906  1.00  0.00     0.031 C 
ATOM     67  C   UNL A   1      44.566  31.783  28.726  1.00  0.00     0.034 A 
BRANCH  54  68
ATOM     68  C   UNL A   1      47.835  27.493  25.699  1.00  0.00     0.023 A 
ATOM     69  C   UNL A   1      48.891  26.965  26.471  1.00  0.00     0.012 A 
ATOM     70  C   UNL A   1      48.001  27.644  24.309  1.00  0.00     0.148 A 
ATOM     71  C   UNL A   1      50.106  26.632  25.875  1.00  0.00     0.002 A 
ATOM     72  C   UNL A   1      49.199  27.268  23.717  1.00  0.00     0.091 A 
ATOM     73  F   UNL A   1      46.996  28.177  23.599  1.00  0.00    -0.205 F 
ATOM     74  C   UNL A   1      50.257  26.774  24.498  1.00  0.00     0.022 A 
BRANCH  72  75
ATOM     75  S   UNL A   1      49.463  27.349  21.942  1.00  0.00     0.127 S 
ATOM     76  O   UNL A   1      49.500  28.793  21.716  1.00  0.00    -0.237 OA
ATOM     77  O   UNL A   1      50.753  26.675  21.791  1.00  0.00    -0.237 OA
ATOM     78  O   UNL A   1      48.339  26.647  21.339  1.00  0.00    -0.744 OA
ENDBRANCH  72  75
ENDBRANCH  54  68
BRANCH  55  79
ATOM     79  C   UNL A   1      39.125  29.534  30.178  1.00  0.00     0.023 A 
ATOM     80  C   UNL A   1      38.877  29.024  31.467  1.00  0.00     0.012 A 
ATOM     81  C   UNL A   1      38.149  30.339  29.560  1.00  0.00     0.148 A 
ATOM     82  C   UNL A   1      37.672  29.288  32.119  1.00  0.00     0.002 A 
ATOM     83  C   UNL A   1      36.972  30.643  30.236  1.00  0.00     0.091 A 
ATOM     84  F   UNL A   1      38.393  30.798  28.325  1.00  0.00    -0.205 F 
ATOM     85  C   UNL A   1      36.725  30.106  31.510  1.00  0.00     0.022 A 
BRANCH  83  86
ATOM     86  S   UNL A   1      35.743  31.776  29.580  1.00  0.00     0.127 S 
ATOM     87  O   UNL A   1      35.121  30.970  28.533  1.00  0.00    -0.237 OA
ATOM     88  O   UNL A   1      34.902  32.020  30.752  1.00  0.00    -0.237 OA
ATOM     89  O   UNL A   1      36.488  32.941  29.120  1.00  0.00    -0.744 OA
ENDBRANCH  83  86
ENDBRANCH  55  79
BRANCH  67  90
ATOM     90  C   UNL A   1      45.006  33.163  29.140  1.00  0.00     0.023 A 
ATOM     91  C   UNL A   1      45.716  33.338  30.345  1.00  0.00     0.012 A 
ATOM     92  C   UNL A   1      44.812  34.267  28.287  1.00  0.00     0.148 A 
ATOM     93  C   UNL A   1      46.205  34.593  30.704  1.00  0.00     0.002 A 
ATOM     94  C   UNL A   1      45.344  35.505  28.627  1.00  0.00     0.091 A 
ATOM     95  F   UNL A   1      44.123  34.081  27.150  1.00  0.00    -0.205 F 
ATOM     96  C   UNL A   1      46.032  35.672  29.840  1.00  0.00     0.022 A 
BRANCH  94  97
ATOM     97  S   UNL A   1      45.258  36.930  27.536  1.00  0.00     0.127 S 
ATOM     98  O   UNL A   1      43.815  37.151  27.448  1.00  0.00    -0.237 OA
ATOM     99  O   UNL A   1      45.986  37.945  28.296  1.00  0.00    -0.237 OA
ATOM    100  O   UNL A   1      45.900  36.526  26.292  1.00  0.00    -0.744 OA
ENDBRANCH  94  97
ENDBRANCH  67  90
ENDBRANCH  41  42
ENDBRANCH  34  36
ENDBRANCH  33  34
ENDBRANCH  32  33
ENDBRANCH  31  32
ENDBRANCH  30  31
ENDBRANCH  29  30
ENDBRANCH   1  29
TORSDOF 24
ENDMDL
MODEL 3
REMARK VINA RESULT:     -10.6      6.299     11.598
REMARK SMILES Cc1c(Cl)cccc1NC(=O)C[C@](C)(C(=O)OCCOCCOCCOC(=O)c1ccc(-c2c3nc(c(-c4cccc(S(=O)(=O)[O-])c4F)c4ccc([nH]4)c(-c4cccc(S(=O)(=O)[O-])c4F)c4nc(c(-c5cccc(S(=O)(=O)[O-])c5F)c5ccc2[nH]5)C=C4)C=C3)cc1)c1ccccc1
REMARK SMILES IDX 21 1 20 2 19 3 18 4 17 5 15 6 16 7 13 8 14 9 12 10 10 11
REMARK SMILES IDX 9 12 11 14 8 15 1 16 2 17 3 18 4 19 5 20 7 21 6 22 92 23
REMARK SMILES IDX 93 24 97 25 94 26 96 27 95 28 22 29 23 30 24 31 25 32 26 33
REMARK SMILES IDX 27 34 28 35 29 36 30 37 91 38 31 39 90 40 32 41 33 42 34 43
REMARK SMILES IDX 84 44 35 45 89 46 83 47 85 48 36 49 88 50 82 51 81 52 37 54
REMARK SMILES IDX 69 55 49 56 68 57 50 58 53 59 67 60 86 61 51 62 52 63 66 65
REMARK SMILES IDX 87 66 54 67 38 68 39 69 47 70 40 71 42 72 48 73 41 74 43 75
REMARK SMILES IDX 44 76 45 77 46 78 70 79 71 80 79 81 72 82 74 83 80 84 73 85
REMARK SMILES IDX 75 86 76 87 77 88 78 89 55 90 56 91 64 92 57 93 59 94 65 95
REMARK SMILES IDX 58 96 60 97 61 98 62 99 63 100
REMARK H PARENT 9 13 85 53 53 64
REMARK Flexibility Score: inf
ROOT
ATOM      1  C   UNL A   1      35.002  32.239  27.956  1.00  0.00     0.188 C 
ENDROOT
BRANCH   1   2
ATOM      2  O   UNL A   1      34.246  31.053  28.103  1.00  0.00    -0.376 OA
BRANCH   2   3
ATOM      3  C   UNL A   1      33.246  30.778  27.130  1.00  0.00     0.202 C 
BRANCH   3   4
ATOM      4  C   UNL A   1      33.518  29.711  26.066  1.00  0.00     0.261 C 
BRANCH   4   5
ATOM      5  O   UNL A   1      32.329  29.060  25.573  1.00  0.00    -0.463 OA
BRANCH   5   6
ATOM      6  C   UNL A   1      32.266  28.939  24.222  1.00  0.00     0.316 C 
ATOM      7  O   UNL A   1      33.167  29.331  23.483  1.00  0.00    -0.251 OA
BRANCH   6   8
ATOM      8  C   UNL A   1      30.969  28.278  23.670  1.00  0.00     0.099 C 
ATOM      9  C   UNL A   1      31.109  27.499  22.331  1.00  0.00     0.029 C 
BRANCH   8  10
ATOM     10  C   UNL A   1      30.491  27.254  24.757  1.00  0.00     0.123 C 
BRANCH  10  11
ATOM     11  C   UNL A   1      29.670  26.030  24.337  1.00  0.00     0.225 C 
ATOM     12  N   UNL A   1      30.155  24.764  24.192  1.00  0.00    -0.326 N 
ATOM     13  H   UNL A   1      29.439  24.092  24.118  1.00  0.00     0.169 HD
ATOM     14  O   UNL A   1      28.462  26.173  24.110  1.00  0.00    -0.275 OA
BRANCH  12  15
ATOM     15  C   UNL A   1      31.440  24.192  24.123  1.00  0.00     0.045 A 
ATOM     16  C   UNL A   1      31.563  24.089  26.694  1.00  0.00     0.048 C 
ATOM     17  C   UNL A   1      32.151  23.895  25.316  1.00  0.00    -0.009 A 
ATOM     18  C   UNL A   1      33.473  23.401  25.208  1.00  0.00     0.046 A 
ATOM     19  Cl  UNL A   1      34.441  23.053  26.602  1.00  0.00    -0.084 Cl
ATOM     20  C   UNL A   1      34.062  23.180  23.965  1.00  0.00     0.021 A 
ATOM     21  C   UNL A   1      32.017  23.872  22.893  1.00  0.00     0.026 A 
ATOM     22  C   UNL A   1      33.325  23.391  22.809  1.00  0.00     0.004 A 
ENDBRANCH  12  15
ENDBRANCH  10  11
ENDBRANCH   8  10
BRANCH   8  23
ATOM     23  C   UNL A   1      29.878  29.365  23.371  1.00  0.00    -0.030 A 
ATOM     24  C   UNL A   1      29.915  30.619  24.019  1.00  0.00     0.005 A 
ATOM     25  C   UNL A   1      28.767  29.110  22.543  1.00  0.00     0.005 A 
ATOM     26  C   UNL A   1      28.874  31.547  23.877  1.00  0.00     0.000 A 
ATOM     27  C   UNL A   1      27.743  30.049  22.383  1.00  0.00     0.000 A 
ATOM     28  C   UNL A   1      27.785  31.260  23.061  1.00  0.00     0.000 A 
ENDBRANCH   8  23
ENDBRANCH   6   8
ENDBRANCH   5   6
ENDBRANCH   4   5
ENDBRANCH   3   4
ENDBRANCH   2   3
ENDBRANCH   1   2
BRANCH   1  29
ATOM     29  C   UNL A   1      34.788  33.363  28.978  1.00  0.00     0.188 C 
BRANCH  29  30
ATOM     30  O   UNL A   1      34.259  34.613  28.607  1.00  0.00    -0.376 OA
BRANCH  30  31
ATOM     31  C   UNL A   1      33.014  35.048  29.126  1.00  0.00     0.202 C 
BRANCH  31  32
ATOM     32  C   UNL A   1      32.764  36.414  29.791  1.00  0.00     0.261 C 
BRANCH  32  33
ATOM     33  O   UNL A   1      33.322  36.631  31.086  1.00  0.00    -0.460 OA
BRANCH  33  34
ATOM     34  C   UNL A   1      32.941  35.751  32.054  1.00  0.00     0.338 C 
ATOM     35  O   UNL A   1      31.820  35.554  32.466  1.00  0.00    -0.246 OA
BRANCH  34  36
ATOM     36  C   UNL A   1      34.106  34.872  32.323  1.00  0.00     0.060 A 
ATOM     37  C   UNL A   1      33.872  33.567  32.786  1.00  0.00     0.016 A 
ATOM     38  C   UNL A   1      35.400  35.299  32.025  1.00  0.00     0.016 A 
ATOM     39  C   UNL A   1      34.936  32.678  32.938  1.00  0.00     0.010 A 
ATOM     40  C   UNL A   1      36.467  34.422  32.216  1.00  0.00     0.010 A 
ATOM     41  C   UNL A   1      36.241  33.117  32.688  1.00  0.00    -0.014 A 
BRANCH  41  42
ATOM     42  C   UNL A   1      37.401  32.301  33.108  1.00  0.00     0.031 A 
ATOM     43  C   UNL A   1      38.080  32.668  34.396  1.00  0.00     0.074 A 
ATOM     44  C   UNL A   1      37.885  31.310  32.339  1.00  0.00     0.049 A 
ATOM     45  N   UNL A   1      39.183  32.200  34.914  1.00  0.00    -0.248 NA
ATOM     46  C   UNL A   1      37.429  33.716  35.200  1.00  0.00     0.031 C 
ATOM     47  C   UNL A   1      37.302  30.859  31.078  1.00  0.00     0.029 A 
ATOM     48  N   UNL A   1      38.999  30.525  32.499  1.00  0.00    -0.354 N 
ATOM     49  C   UNL A   1      39.381  32.922  36.084  1.00  0.00     0.074 A 
ATOM     50  C   UNL A   1      38.283  33.856  36.201  1.00  0.00     0.031 C 
ATOM     51  C   UNL A   1      38.077  29.885  30.566  1.00  0.00     0.029 A 
ATOM     52  C   UNL A   1      39.230  29.677  31.442  1.00  0.00     0.049 A 
ATOM     53  H   UNL A   1      39.578  30.568  33.294  1.00  0.00     0.167 HD
ATOM     54  C   UNL A   1      40.385  32.817  36.984  1.00  0.00     0.034 A 
ATOM     55  C   UNL A   1      40.270  28.854  31.200  1.00  0.00     0.034 A 
ATOM     56  C   UNL A   1      41.480  31.896  36.859  1.00  0.00     0.049 A 
ATOM     57  C   UNL A   1      41.411  28.799  32.187  1.00  0.00     0.074 A 
ATOM     58  C   UNL A   1      42.537  31.695  37.728  1.00  0.00     0.029 A 
ATOM     59  N   UNL A   1      41.671  31.038  35.787  1.00  0.00    -0.354 N 
ATOM     60  N   UNL A   1      41.537  29.410  33.342  1.00  0.00    -0.248 NA
ATOM     61  C   UNL A   1      42.552  27.939  31.840  1.00  0.00     0.031 C 
ATOM     62  C   UNL A   1      43.383  30.733  37.165  1.00  0.00     0.029 A 
ATOM     63  C   UNL A   1      42.839  30.317  35.960  1.00  0.00     0.049 A 
ATOM     64  H   UNL A   1      41.065  30.954  35.016  1.00  0.00     0.167 HD
ATOM     65  C   UNL A   1      42.754  28.987  33.869  1.00  0.00     0.074 A 
ATOM     66  C   UNL A   1      43.317  28.051  32.918  1.00  0.00     0.031 C 
ATOM     67  C   UNL A   1      43.360  29.352  35.027  1.00  0.00     0.034 A 
BRANCH  54  68
ATOM     68  C   UNL A   1      40.331  33.726  38.180  1.00  0.00     0.023 A 
ATOM     69  C   UNL A   1      41.081  34.921  38.180  1.00  0.00     0.012 A 
ATOM     70  C   UNL A   1      39.541  33.404  39.299  1.00  0.00     0.148 A 
ATOM     71  C   UNL A   1      41.075  35.761  39.292  1.00  0.00     0.002 A 
ATOM     72  C   UNL A   1      39.506  34.269  40.386  1.00  0.00     0.091 A 
ATOM     73  F   UNL A   1      38.861  32.248  39.292  1.00  0.00    -0.205 F 
ATOM     74  C   UNL A   1      40.281  35.440  40.390  1.00  0.00     0.022 A 
BRANCH  72  75
ATOM     75  S   UNL A   1      38.459  33.975  41.816  1.00  0.00     0.127 S 
ATOM     76  O   UNL A   1      37.316  34.839  41.526  1.00  0.00    -0.237 OA
ATOM     77  O   UNL A   1      38.183  32.543  41.707  1.00  0.00    -0.237 OA
ATOM     78  O   UNL A   1      39.254  34.352  42.976  1.00  0.00    -0.744 OA
ENDBRANCH  72  75
ENDBRANCH  54  68
BRANCH  55  79
ATOM     79  C   UNL A   1      40.282  27.990  29.984  1.00  0.00     0.023 A 
ATOM     80  C   UNL A   1      39.435  26.866  29.932  1.00  0.00     0.012 A 
ATOM     81  C   UNL A   1      41.115  28.270  28.884  1.00  0.00     0.148 A 
ATOM     82  C   UNL A   1      39.434  26.024  28.820  1.00  0.00     0.002 A 
ATOM     83  C   UNL A   1      41.072  27.457  27.756  1.00  0.00     0.091 A 
ATOM     84  F   UNL A   1      41.930  29.332  28.959  1.00  0.00    -0.205 F 
ATOM     85  C   UNL A   1      40.243  26.325  27.728  1.00  0.00     0.022 A 
BRANCH  83  86
ATOM     86  S   UNL A   1      41.994  27.827  26.259  1.00  0.00     0.127 S 
ATOM     87  O   UNL A   1      43.374  27.731  26.726  1.00  0.00    -0.237 OA
ATOM     88  O   UNL A   1      41.567  26.748  25.369  1.00  0.00    -0.237 OA
ATOM     89  O   UNL A   1      41.559  29.155  25.847  1.00  0.00    -0.744 OA
ENDBRANCH  83  86
ENDBRANCH  55  79
BRANCH  67  90
ATOM     90  C   UNL A   1      44.692  28.726  35.354  1.00  0.00     0.023 A 
ATOM     91  C   UNL A   1      45.882  29.383  34.983  1.00  0.00     0.012 A 
ATOM     92  C   UNL A   1      44.764  27.547  36.122  1.00  0.00     0.148 A 
ATOM     93  C   UNL A   1      47.122  28.863  35.351  1.00  0.00     0.002 A 
ATOM     94  C   UNL A   1      46.001  27.061  36.527  1.00  0.00     0.091 A 
ATOM     95  F   UNL A   1      43.619  26.931  36.454  1.00  0.00    -0.205 F 
ATOM     96  C   UNL A   1      47.182  27.712  36.133  1.00  0.00     0.022 A 
BRANCH  94  97
ATOM     97  S   UNL A   1      46.176  25.643  37.615  1.00  0.00     0.127 S 
ATOM     98  O   UNL A   1      45.241  24.691  37.017  1.00  0.00    -0.237 OA
ATOM     99  O   UNL A   1      47.588  25.297  37.448  1.00  0.00    -0.237 OA
ATOM    100  O   UNL A   1      45.819  26.109  38.948  1.00  0.00    -0.744 OA
ENDBRANCH  94  97
ENDBRANCH  67  90
ENDBRANCH  41  42
ENDBRANCH  34  36
ENDBRANCH  33  34
ENDBRANCH  32  33
ENDBRANCH  31  32
ENDBRANCH  30  31
ENDBRANCH  29  30
ENDBRANCH   1  29
TORSDOF 24
ENDMDL
