MODEL 1
REMARK VINA RESULT:     -11.2      0.000      0.000
REMARK SMILES Cc1cc(NC(=O)c2ccc(Br)cc2N)ccc1C(=O)OCCOCCOCCOC(=O)c1ccc(-c2c3nc(c(-c4cccc(S(=O)(=O)[O-])c4F)c4ccc([nH]4)c(-c4cccc(S(=O)(=O)[O-])c4F)c4nc(c(-c5cccc(S(=O)(=O)[O-])c5F)c5ccc2[nH]5)C=C4)C=C3)cc1
REMARK SMILES IDX 25 1 24 2 23 3 22 4 21 5 19 6 20 7 18 8 1 9 2 10 3 11 4 12
REMARK SMILES IDX 17 13 16 14 5 15 6 16 7 18 8 19 9 20 14 21 10 22 13 23 11 24
REMARK SMILES IDX 12 25 15 26 26 29 27 30 28 31 29 32 30 33 31 34 32 35 33 36
REMARK SMILES IDX 34 37 95 38 35 39 94 40 36 41 37 42 38 43 88 44 39 45 93 46
REMARK SMILES IDX 87 47 89 48 40 49 92 50 86 51 85 52 41 54 73 55 53 56 72 57
REMARK SMILES IDX 54 58 57 59 71 60 90 61 55 62 56 63 70 65 91 66 58 67 42 68
REMARK SMILES IDX 43 69 51 70 44 71 46 72 52 73 45 74 47 75 48 76 49 77 50 78
REMARK SMILES IDX 74 79 75 80 83 81 76 82 78 83 84 84 77 85 79 86 80 87 81 88
REMARK SMILES IDX 82 89 59 90 60 91 68 92 61 93 63 94 69 95 62 96 64 97 65 98
REMARK SMILES IDX 66 99 67 100
REMARK H PARENT 5 17 15 27 15 28 89 53 57 64
REMARK Flexibility Score: inf
ROOT
ATOM      1  C   UNL A   1      34.556  21.235  25.129  1.00  0.00     0.188 C 
ENDROOT
BRANCH   1   2
ATOM      2  O   UNL A   1      34.203  22.463  24.537  1.00  0.00    -0.376 OA
BRANCH   2   3
ATOM      3  C   UNL A   1      33.249  22.172  23.498  1.00  0.00     0.202 C 
BRANCH   3   4
ATOM      4  C   UNL A   1      33.276  23.239  22.317  1.00  0.00     0.261 C 
BRANCH   4   5
ATOM      5  O   UNL A   1      32.433  24.709  22.207  1.00  0.00    -0.460 OA
BRANCH   5   6
ATOM      6  C   UNL A   1      32.127  25.919  21.440  1.00  0.00     0.338 C 
ATOM      7  O   UNL A   1      31.573  26.095  20.352  1.00  0.00    -0.246 OA
BRANCH   6   8
ATOM      8  C   UNL A   1      32.384  27.266  21.934  1.00  0.00     0.063 A 
ATOM      9  C   UNL A   1      30.071  27.269  22.904  1.00  0.00     0.045 C 
ATOM     10  C   UNL A   1      31.465  27.797  22.812  1.00  0.00    -0.035 A 
ATOM     11  C   UNL A   1      31.977  28.652  23.781  1.00  0.00     0.030 A 
ATOM     12  C   UNL A   1      33.356  28.941  23.863  1.00  0.00     0.041 A 
ATOM     13  C   UNL A   1      33.753  27.694  21.909  1.00  0.00     0.018 A 
ATOM     14  C   UNL A   1      34.234  28.581  22.853  1.00  0.00     0.027 A 
BRANCH  12  15
ATOM     15  N   UNL A   1      33.908  29.415  25.057  1.00  0.00    -0.322 N 
ATOM     16  C   UNL A   1      33.647  28.902  26.317  1.00  0.00     0.257 C 
ATOM     17  H   UNL A   1      34.533  30.173  24.997  1.00  0.00     0.170 HD
ATOM     18  O   UNL A   1      33.918  29.557  27.323  1.00  0.00    -0.269 OA
BRANCH  16  19
ATOM     19  C   UNL A   1      33.063  27.530  26.466  1.00  0.00     0.063 A 
ATOM     20  C   UNL A   1      33.748  26.496  25.805  1.00  0.00     0.017 A 
ATOM     21  C   UNL A   1      31.892  27.245  27.210  1.00  0.00     0.045 A 
ATOM     22  C   UNL A   1      33.282  25.183  25.871  1.00  0.00     0.016 A 
ATOM     23  C   UNL A   1      31.424  25.919  27.234  1.00  0.00     0.042 A 
ATOM     24  C   UNL A   1      32.117  24.902  26.580  1.00  0.00     0.020 A 
ATOM     25  Br  UNL A   1      31.447  23.135  26.620  1.00  0.00    -0.051 Br
BRANCH  21  26
ATOM     26  N   UNL A   1      31.065  28.220  27.773  1.00  0.00    -0.398 N 
ATOM     27  H   UNL A   1      30.422  27.972  28.475  1.00  0.00     0.156 HD
ATOM     28  H   UNL A   1      31.125  29.153  27.467  1.00  0.00     0.156 HD
ENDBRANCH  21  26
ENDBRANCH  16  19
ENDBRANCH  12  15
ENDBRANCH   6   8
ENDBRANCH   5   6
ENDBRANCH   4   5
ENDBRANCH   3   4
ENDBRANCH   2   3
ENDBRANCH   1   2
BRANCH   1  29
ATOM     29  C   UNL A   1      35.891  21.231  25.838  1.00  0.00     0.188 C 
BRANCH  29  30
ATOM     30  O   UNL A   1      37.016  20.954  25.024  1.00  0.00    -0.376 OA
BRANCH  30  31
ATOM     31  C   UNL A   1      37.986  21.995  25.004  1.00  0.00     0.202 C 
BRANCH  31  32
ATOM     32  C   UNL A   1      37.756  23.205  25.977  1.00  0.00     0.261 C 
BRANCH  32  33
ATOM     33  O   UNL A   1      38.919  23.560  26.808  1.00  0.00    -0.460 OA
BRANCH  33  34
ATOM     34  C   UNL A   1      39.690  24.693  26.707  1.00  0.00     0.338 C 
ATOM     35  O   UNL A   1      39.907  25.279  25.641  1.00  0.00    -0.246 OA
BRANCH  34  36
ATOM     36  C   UNL A   1      39.840  25.374  28.015  1.00  0.00     0.060 A 
ATOM     37  C   UNL A   1      38.919  25.542  29.027  1.00  0.00     0.016 A 
ATOM     38  C   UNL A   1      41.067  25.792  28.383  1.00  0.00     0.016 A 
ATOM     39  C   UNL A   1      39.031  26.642  29.949  1.00  0.00     0.010 A 
ATOM     40  C   UNL A   1      41.129  26.893  29.252  1.00  0.00     0.010 A 
ATOM     41  C   UNL A   1      40.047  27.590  29.870  1.00  0.00    -0.014 A 
BRANCH  41  42
ATOM     42  C   UNL A   1      39.785  29.215  30.365  1.00  0.00     0.031 A 
ATOM     43  C   UNL A   1      38.680  30.552  30.001  1.00  0.00     0.074 A 
ATOM     44  C   UNL A   1      40.634  29.527  31.382  1.00  0.00     0.049 A 
ATOM     45  N   UNL A   1      39.024  31.823  30.071  1.00  0.00    -0.248 NA
ATOM     46  C   UNL A   1      37.244  30.608  29.372  1.00  0.00     0.031 C 
ATOM     47  C   UNL A   1      40.619  30.665  32.292  1.00  0.00     0.029 A 
ATOM     48  N   UNL A   1      41.771  28.834  31.788  1.00  0.00    -0.354 N 
ATOM     49  C   UNL A   1      37.902  32.580  29.650  1.00  0.00     0.074 A 
ATOM     50  C   UNL A   1      37.115  31.794  28.817  1.00  0.00     0.031 C 
ATOM     51  C   UNL A   1      41.800  30.718  32.941  1.00  0.00     0.029 A 
ATOM     52  C   UNL A   1      42.675  29.727  32.343  1.00  0.00     0.049 A 
ATOM     53  H   UNL A   1      41.910  27.863  31.696  1.00  0.00     0.167 HD
ATOM     54  C   UNL A   1      37.462  33.718  30.241  1.00  0.00     0.034 A 
ATOM     55  C   UNL A   1      43.816  29.993  31.634  1.00  0.00     0.034 A 
ATOM     56  C   UNL A   1      38.589  34.273  30.941  1.00  0.00     0.049 A 
ATOM     57  C   UNL A   1      43.808  31.410  31.048  1.00  0.00     0.074 A 
ATOM     58  C   UNL A   1      39.045  34.161  32.236  1.00  0.00     0.029 A 
ATOM     59  N   UNL A   1      39.695  34.555  30.151  1.00  0.00    -0.354 N 
ATOM     60  N   UNL A   1      42.814  32.265  31.143  1.00  0.00    -0.248 NA
ATOM     61  C   UNL A   1      44.947  31.989  30.347  1.00  0.00     0.031 C 
ATOM     62  C   UNL A   1      40.478  34.164  32.164  1.00  0.00     0.029 A 
ATOM     63  C   UNL A   1      40.877  34.345  30.843  1.00  0.00     0.049 A 
ATOM     64  H   UNL A   1      39.645  34.864  29.218  1.00  0.00     0.167 HD
ATOM     65  C   UNL A   1      43.080  33.393  30.406  1.00  0.00     0.074 A 
ATOM     66  C   UNL A   1      44.471  33.203  30.021  1.00  0.00     0.031 C 
ATOM     67  C   UNL A   1      42.148  34.362  30.101  1.00  0.00     0.034 A 
BRANCH  54  68
ATOM     68  C   UNL A   1      35.998  34.230  30.205  1.00  0.00     0.023 A 
ATOM     69  C   UNL A   1      35.322  34.085  28.982  1.00  0.00     0.012 A 
ATOM     70  C   UNL A   1      35.252  34.920  31.231  1.00  0.00     0.148 A 
ATOM     71  C   UNL A   1      34.012  34.560  28.783  1.00  0.00     0.002 A 
ATOM     72  C   UNL A   1      33.913  35.315  31.056  1.00  0.00     0.091 A 
ATOM     73  F   UNL A   1      35.847  35.321  32.360  1.00  0.00    -0.205 F 
ATOM     74  C   UNL A   1      33.297  35.149  29.820  1.00  0.00     0.022 A 
BRANCH  72  75
ATOM     75  S   UNL A   1      32.905  36.059  32.370  1.00  0.00     0.127 S 
ATOM     76  O   UNL A   1      33.768  35.911  33.543  1.00  0.00    -0.237 OA
ATOM     77  O   UNL A   1      32.746  37.439  31.911  1.00  0.00    -0.237 OA
ATOM     78  O   UNL A   1      31.664  35.293  32.418  1.00  0.00    -0.744 OA
ENDBRANCH  72  75
ENDBRANCH  54  68
BRANCH  55  79
ATOM     79  C   UNL A   1      44.474  28.736  31.083  1.00  0.00     0.023 A 
ATOM     80  C   UNL A   1      44.652  27.672  32.018  1.00  0.00     0.012 A 
ATOM     81  C   UNL A   1      44.627  28.418  29.718  1.00  0.00     0.148 A 
ATOM     82  C   UNL A   1      44.814  26.341  31.620  1.00  0.00     0.002 A 
ATOM     83  C   UNL A   1      44.825  27.079  29.324  1.00  0.00     0.091 A 
ATOM     84  F   UNL A   1      44.458  29.378  28.799  1.00  0.00    -0.205 F 
ATOM     85  C   UNL A   1      44.901  26.043  30.270  1.00  0.00     0.022 A 
BRANCH  83  86
ATOM     86  S   UNL A   1      44.790  26.619  27.573  1.00  0.00     0.127 S 
ATOM     87  O   UNL A   1      46.145  26.933  27.120  1.00  0.00    -0.237 OA
ATOM     88  O   UNL A   1      44.491  25.192  27.610  1.00  0.00    -0.237 OA
ATOM     89  O   UNL A   1      43.757  27.496  27.036  1.00  0.00    -0.744 OA
ENDBRANCH  83  86
ENDBRANCH  55  79
BRANCH  67  90
ATOM     90  C   UNL A   1      42.351  35.394  28.973  1.00  0.00     0.023 A 
ATOM     91  C   UNL A   1      41.875  35.175  27.665  1.00  0.00     0.012 A 
ATOM     92  C   UNL A   1      42.869  36.694  29.219  1.00  0.00     0.148 A 
ATOM     93  C   UNL A   1      42.010  36.124  26.643  1.00  0.00     0.002 A 
ATOM     94  C   UNL A   1      42.826  37.694  28.248  1.00  0.00     0.091 A 
ATOM     95  F   UNL A   1      43.425  36.992  30.403  1.00  0.00    -0.205 F 
ATOM     96  C   UNL A   1      42.458  37.400  26.939  1.00  0.00     0.022 A 
BRANCH  94  97
ATOM     97  S   UNL A   1      43.013  39.423  28.723  1.00  0.00     0.127 S 
ATOM     98  O   UNL A   1      44.025  39.897  27.784  1.00  0.00    -0.237 OA
ATOM     99  O   UNL A   1      41.672  39.967  28.499  1.00  0.00    -0.237 OA
ATOM    100  O   UNL A   1      43.404  39.362  30.126  1.00  0.00    -0.744 OA
ENDBRANCH  94  97
ENDBRANCH  67  90
ENDBRANCH  41  42
ENDBRANCH  34  36
ENDBRANCH  33  34
ENDBRANCH  32  33
ENDBRANCH  31  32
ENDBRANCH  30  31
ENDBRANCH  29  30
ENDBRANCH   1  29
TORSDOF 23
ENDMDL
MODEL 2
REMARK VINA RESULT:     -10.4      3.897      9.928
REMARK SMILES Cc1cc(NC(=O)c2ccc(Br)cc2N)ccc1C(=O)OCCOCCOCCOC(=O)c1ccc(-c2c3nc(c(-c4cccc(S(=O)(=O)[O-])c4F)c4ccc([nH]4)c(-c4cccc(S(=O)(=O)[O-])c4F)c4nc(c(-c5cccc(S(=O)(=O)[O-])c5F)c5ccc2[nH]5)C=C4)C=C3)cc1
REMARK SMILES IDX 25 1 24 2 23 3 22 4 21 5 19 6 20 7 18 8 1 9 2 10 3 11 4 12
REMARK SMILES IDX 17 13 16 14 5 15 6 16 7 18 8 19 9 20 14 21 10 22 13 23 11 24
REMARK SMILES IDX 12 25 15 26 26 29 27 30 28 31 29 32 30 33 31 34 32 35 33 36
REMARK SMILES IDX 34 37 95 38 35 39 94 40 36 41 37 42 38 43 88 44 39 45 93 46
REMARK SMILES IDX 87 47 89 48 40 49 92 50 86 51 85 52 41 54 73 55 53 56 72 57
REMARK SMILES IDX 54 58 57 59 71 60 90 61 55 62 56 63 70 65 91 66 58 67 42 68
REMARK SMILES IDX 43 69 51 70 44 71 46 72 52 73 45 74 47 75 48 76 49 77 50 78
REMARK SMILES IDX 74 79 75 80 83 81 76 82 78 83 84 84 77 85 79 86 80 87 81 88
REMARK SMILES IDX 82 89 59 90 60 91 68 92 61 93 63 94 69 95 62 96 64 97 65 98
REMARK SMILES IDX 66 99 67 100
REMARK H PARENT 5 17 15 27 15 28 89 53 57 64
REMARK Flexibility Score: inf
ROOT
ATOM      1  C   UNL A   1      34.237  27.421  25.766  1.00  0.00     0.188 C 
ENDROOT
BRANCH   1   2
ATOM      2  O   UNL A   1      34.073  26.629  24.614  1.00  0.00    -0.376 OA
BRANCH   2   3
ATOM      3  C   UNL A   1      33.042  27.246  23.820  1.00  0.00     0.202 C 
BRANCH   3   4
ATOM      4  C   UNL A   1      31.682  26.419  23.820  1.00  0.00     0.261 C 
BRANCH   4   5
ATOM      5  O   UNL A   1      30.665  26.068  25.134  1.00  0.00    -0.460 OA
BRANCH   5   6
ATOM      6  C   UNL A   1      30.279  25.142  26.202  1.00  0.00     0.338 C 
ATOM      7  O   UNL A   1      29.185  24.847  26.691  1.00  0.00    -0.246 OA
BRANCH   6   8
ATOM      8  C   UNL A   1      31.224  24.260  26.877  1.00  0.00     0.063 A 
ATOM      9  C   UNL A   1      29.387  22.561  27.061  1.00  0.00     0.045 C 
ATOM     10  C   UNL A   1      30.827  22.957  27.080  1.00  0.00    -0.035 A 
ATOM     11  C   UNL A   1      31.837  22.003  27.032  1.00  0.00     0.030 A 
ATOM     12  C   UNL A   1      33.180  22.355  26.774  1.00  0.00     0.041 A 
ATOM     13  C   UNL A   1      32.605  24.635  26.789  1.00  0.00     0.018 A 
ATOM     14  C   UNL A   1      33.599  23.675  26.789  1.00  0.00     0.027 A 
BRANCH  12  15
ATOM     15  N   UNL A   1      34.081  21.398  26.295  1.00  0.00    -0.322 N 
ATOM     16  C   UNL A   1      34.351  21.154  24.959  1.00  0.00     0.257 C 
ATOM     17  H   UNL A   1      34.562  20.857  26.961  1.00  0.00     0.170 HD
ATOM     18  O   UNL A   1      34.904  20.110  24.618  1.00  0.00    -0.269 OA
BRANCH  16  19
ATOM     19  C   UNL A   1      34.000  22.176  23.920  1.00  0.00     0.063 A 
ATOM     20  C   UNL A   1      32.706  22.081  23.379  1.00  0.00     0.017 A 
ATOM     21  C   UNL A   1      34.884  23.189  23.476  1.00  0.00     0.045 A 
ATOM     22  C   UNL A   1      32.282  22.978  22.397  1.00  0.00     0.016 A 
ATOM     23  C   UNL A   1      34.444  24.060  22.463  1.00  0.00     0.042 A 
ATOM     24  C   UNL A   1      33.156  23.959  21.939  1.00  0.00     0.020 A 
ATOM     25  Br  UNL A   1      32.608  25.137  20.566  1.00  0.00    -0.051 Br
BRANCH  21  26
ATOM     26  N   UNL A   1      36.229  23.272  23.844  1.00  0.00    -0.398 N 
ATOM     27  H   UNL A   1      36.714  22.460  24.116  1.00  0.00     0.156 HD
ATOM     28  H   UNL A   1      36.690  24.140  23.831  1.00  0.00     0.156 HD
ENDBRANCH  21  26
ENDBRANCH  16  19
ENDBRANCH  12  15
ENDBRANCH   6   8
ENDBRANCH   5   6
ENDBRANCH   4   5
ENDBRANCH   3   4
ENDBRANCH   2   3
ENDBRANCH   1   2
BRANCH   1  29
ATOM     29  C   UNL A   1      33.966  28.895  25.570  1.00  0.00     0.188 C 
BRANCH  29  30
ATOM     30  O   UNL A   1      33.492  29.587  26.711  1.00  0.00    -0.376 OA
BRANCH  30  31
ATOM     31  C   UNL A   1      34.439  30.485  27.279  1.00  0.00     0.202 C 
BRANCH  31  32
ATOM     32  C   UNL A   1      33.889  31.846  27.834  1.00  0.00     0.261 C 
BRANCH  32  33
ATOM     33  O   UNL A   1      34.287  32.155  29.218  1.00  0.00    -0.460 OA
BRANCH  33  34
ATOM     34  C   UNL A   1      34.567  33.396  29.738  1.00  0.00     0.338 C 
ATOM     35  O   UNL A   1      33.700  34.224  30.038  1.00  0.00    -0.246 OA
BRANCH  34  36
ATOM     36  C   UNL A   1      35.933  33.454  30.312  1.00  0.00     0.060 A 
ATOM     37  C   UNL A   1      37.069  34.053  29.814  1.00  0.00     0.016 A 
ATOM     38  C   UNL A   1      36.123  32.988  31.562  1.00  0.00     0.016 A 
ATOM     39  C   UNL A   1      38.376  33.581  30.188  1.00  0.00     0.010 A 
ATOM     40  C   UNL A   1      37.402  32.499  31.871  1.00  0.00     0.010 A 
ATOM     41  C   UNL A   1      38.569  32.503  31.048  1.00  0.00    -0.014 A 
BRANCH  41  42
ATOM     42  C   UNL A   1      39.936  31.474  30.889  1.00  0.00     0.031 A 
ATOM     43  C   UNL A   1      40.361  29.942  30.105  1.00  0.00     0.074 A 
ATOM     44  C   UNL A   1      41.016  32.051  31.483  1.00  0.00     0.049 A 
ATOM     45  N   UNL A   1      41.250  29.097  30.587  1.00  0.00    -0.248 NA
ATOM     46  C   UNL A   1      39.739  29.153  28.899  1.00  0.00     0.031 C 
ATOM     47  C   UNL A   1      42.428  31.703  31.388  1.00  0.00     0.029 A 
ATOM     48  N   UNL A   1      41.030  33.121  32.373  1.00  0.00    -0.354 N 
ATOM     49  C   UNL A   1      41.265  27.974  29.723  1.00  0.00     0.074 A 
ATOM     50  C   UNL A   1      40.038  27.885  29.078  1.00  0.00     0.031 C 
ATOM     51  C   UNL A   1      43.102  32.352  32.358  1.00  0.00     0.029 A 
ATOM     52  C   UNL A   1      42.125  32.997  33.216  1.00  0.00     0.049 A 
ATOM     53  H   UNL A   1      40.369  33.849  32.399  1.00  0.00     0.167 HD
ATOM     54  C   UNL A   1      42.381  27.327  29.303  1.00  0.00     0.034 A 
ATOM     55  C   UNL A   1      41.880  32.680  34.526  1.00  0.00     0.034 A 
ATOM     56  C   UNL A   1      43.402  27.607  30.276  1.00  0.00     0.049 A 
ATOM     57  C   UNL A   1      42.314  31.248  34.859  1.00  0.00     0.074 A 
ATOM     58  C   UNL A   1      44.385  28.568  30.366  1.00  0.00     0.029 A 
ATOM     59  N   UNL A   1      43.101  27.221  31.576  1.00  0.00    -0.354 N 
ATOM     60  N   UNL A   1      42.804  30.384  33.999  1.00  0.00    -0.248 NA
ATOM     61  C   UNL A   1      42.271  30.695  36.207  1.00  0.00     0.031 C 
ATOM     62  C   UNL A   1      44.501  28.902  31.756  1.00  0.00     0.029 A 
ATOM     63  C   UNL A   1      43.644  28.099  32.502  1.00  0.00     0.049 A 
ATOM     64  H   UNL A   1      42.569  26.427  31.809  1.00  0.00     0.167 HD
ATOM     65  C   UNL A   1      42.972  29.158  34.594  1.00  0.00     0.074 A 
ATOM     66  C   UNL A   1      42.723  29.446  35.999  1.00  0.00     0.031 C 
ATOM     67  C   UNL A   1      43.233  27.989  33.911  1.00  0.00     0.034 A 
BRANCH  54  68
ATOM     68  C   UNL A   1      42.500  26.526  27.980  1.00  0.00     0.023 A 
ATOM     69  C   UNL A   1      42.762  27.278  26.823  1.00  0.00     0.012 A 
ATOM     70  C   UNL A   1      42.291  25.116  27.750  1.00  0.00     0.148 A 
ATOM     71  C   UNL A   1      42.834  26.695  25.544  1.00  0.00     0.002 A 
ATOM     72  C   UNL A   1      42.450  24.523  26.484  1.00  0.00     0.091 A 
ATOM     73  F   UNL A   1      41.818  24.325  28.721  1.00  0.00    -0.205 F 
ATOM     74  C   UNL A   1      42.706  25.321  25.374  1.00  0.00     0.022 A 
BRANCH  72  75
ATOM     75  S   UNL A   1      42.331  22.736  26.188  1.00  0.00     0.127 S 
ATOM     76  O   UNL A   1      43.167  22.190  27.258  1.00  0.00    -0.237 OA
ATOM     77  O   UNL A   1      40.900  22.478  26.352  1.00  0.00    -0.237 OA
ATOM     78  O   UNL A   1      42.833  22.510  24.837  1.00  0.00    -0.744 OA
ENDBRANCH  72  75
ENDBRANCH  54  68
BRANCH  55  79
ATOM     79  C   UNL A   1      40.747  33.499  35.128  1.00  0.00     0.023 A 
ATOM     80  C   UNL A   1      39.431  33.129  34.714  1.00  0.00     0.012 A 
ATOM     81  C   UNL A   1      40.849  34.343  36.252  1.00  0.00     0.148 A 
ATOM     82  C   UNL A   1      38.291  33.445  35.461  1.00  0.00     0.002 A 
ATOM     83  C   UNL A   1      39.692  34.687  36.982  1.00  0.00     0.091 A 
ATOM     84  F   UNL A   1      42.061  34.709  36.689  1.00  0.00    -0.205 F 
ATOM     85  C   UNL A   1      38.422  34.226  36.598  1.00  0.00     0.022 A 
BRANCH  83  86
ATOM     86  S   UNL A   1      39.826  35.572  38.557  1.00  0.00     0.127 S 
ATOM     87  O   UNL A   1      41.230  35.383  38.925  1.00  0.00    -0.237 OA
ATOM     88  O   UNL A   1      39.486  36.943  38.197  1.00  0.00    -0.237 OA
ATOM     89  O   UNL A   1      38.881  34.857  39.404  1.00  0.00    -0.744 OA
ENDBRANCH  83  86
ENDBRANCH  55  79
BRANCH  67  90
ATOM     90  C   UNL A   1      43.033  26.593  34.533  1.00  0.00     0.023 A 
ATOM     91  C   UNL A   1      41.787  26.168  35.034  1.00  0.00     0.012 A 
ATOM     92  C   UNL A   1      44.038  25.588  34.482  1.00  0.00     0.148 A 
ATOM     93  C   UNL A   1      41.579  24.885  35.558  1.00  0.00     0.002 A 
ATOM     94  C   UNL A   1      43.769  24.265  34.829  1.00  0.00     0.091 A 
ATOM     95  F   UNL A   1      45.287  25.895  34.101  1.00  0.00    -0.205 F 
ATOM     96  C   UNL A   1      42.562  23.919  35.429  1.00  0.00     0.022 A 
BRANCH  94  97
ATOM     97  S   UNL A   1      44.874  22.947  34.292  1.00  0.00     0.127 S 
ATOM     98  O   UNL A   1      46.117  23.282  34.981  1.00  0.00    -0.237 OA
ATOM     99  O   UNL A   1      44.207  21.742  34.790  1.00  0.00    -0.237 OA
ATOM    100  O   UNL A   1      44.881  23.064  32.839  1.00  0.00    -0.744 OA
ENDBRANCH  94  97
ENDBRANCH  67  90
ENDBRANCH  41  42
ENDBRANCH  34  36
ENDBRANCH  33  34
ENDBRANCH  32  33
ENDBRANCH  31  32
ENDBRANCH  30  31
ENDBRANCH  29  30
ENDBRANCH   1  29
TORSDOF 23
ENDMDL
MODEL 3
REMARK VINA RESULT:     -10.3      5.216      7.921
REMARK SMILES Cc1cc(NC(=O)c2ccc(Br)cc2N)ccc1C(=O)OCCOCCOCCOC(=O)c1ccc(-c2c3nc(c(-c4cccc(S(=O)(=O)[O-])c4F)c4ccc([nH]4)c(-c4cccc(S(=O)(=O)[O-])c4F)c4nc(c(-c5cccc(S(=O)(=O)[O-])c5F)c5ccc2[nH]5)C=C4)C=C3)cc1
REMARK SMILES IDX 25 1 24 2 23 3 22 4 21 5 19 6 20 7 18 8 1 9 2 10 3 11 4 12
REMARK SMILES IDX 17 13 16 14 5 15 6 16 7 18 8 19 9 20 14 21 10 22 13 23 11 24
REMARK SMILES IDX 12 25 15 26 26 29 27 30 28 31 29 32 30 33 31 34 32 35 33 36
REMARK SMILES IDX 34 37 95 38 35 39 94 40 36 41 37 42 38 43 88 44 39 45 93 46
REMARK SMILES IDX 87 47 89 48 40 49 92 50 86 51 85 52 41 54 73 55 53 56 72 57
REMARK SMILES IDX 54 58 57 59 71 60 90 61 55 62 56 63 70 65 91 66 58 67 42 68
REMARK SMILES IDX 43 69 51 70 44 71 46 72 52 73 45 74 47 75 48 76 49 77 50 78
REMARK SMILES IDX 74 79 75 80 83 81 76 82 78 83 84 84 77 85 79 86 80 87 81 88
REMARK SMILES IDX 82 89 59 90 60 91 68 92 61 93 63 94 69 95 62 96 64 97 65 98
REMARK SMILES IDX 66 99 67 100
REMARK H PARENT 5 17 15 27 15 28 89 53 57 64
REMARK Flexibility Score: inf
ROOT
ATOM      1  C   UNL A   1      41.415  25.425  27.132  1.00  0.00     0.188 C 
ENDROOT
BRANCH   1   2
ATOM      2  O   UNL A   1      40.328  24.644  26.694  1.00  0.00    -0.376 OA
BRANCH   2   3
ATOM      3  C   UNL A   1      40.825  23.310  26.478  1.00  0.00     0.202 C 
BRANCH   3   4
ATOM      4  C   UNL A   1      39.685  22.203  26.567  1.00  0.00     0.261 C 
BRANCH   4   5
ATOM      5  O   UNL A   1      38.254  22.089  25.660  1.00  0.00    -0.460 OA
BRANCH   5   6
ATOM      6  C   UNL A   1      36.790  22.125  25.627  1.00  0.00     0.338 C 
ATOM      7  O   UNL A   1      35.931  21.299  25.949  1.00  0.00    -0.246 OA
BRANCH   6   8
ATOM      8  C   UNL A   1      36.027  23.307  25.244  1.00  0.00     0.063 A 
ATOM      9  C   UNL A   1      36.627  22.825  22.856  1.00  0.00     0.045 C 
ATOM     10  C   UNL A   1      35.790  23.489  23.900  1.00  0.00    -0.035 A 
ATOM     11  C   UNL A   1      34.581  24.095  23.575  1.00  0.00     0.030 A 
ATOM     12  C   UNL A   1      33.654  24.481  24.567  1.00  0.00     0.041 A 
ATOM     13  C   UNL A   1      35.167  23.853  26.253  1.00  0.00     0.018 A 
ATOM     14  C   UNL A   1      33.992  24.494  25.910  1.00  0.00     0.027 A 
BRANCH  12  15
ATOM     15  N   UNL A   1      32.307  24.665  24.240  1.00  0.00    -0.322 N 
ATOM     16  C   UNL A   1      31.467  23.687  23.734  1.00  0.00     0.257 C 
ATOM     17  H   UNL A   1      31.925  25.561  24.383  1.00  0.00     0.170 HD
ATOM     18  O   UNL A   1      30.408  23.998  23.189  1.00  0.00    -0.269 OA
BRANCH  16  19
ATOM     19  C   UNL A   1      31.826  22.238  23.876  1.00  0.00     0.063 A 
ATOM     20  C   UNL A   1      32.092  21.553  22.679  1.00  0.00     0.017 A 
ATOM     21  C   UNL A   1      31.899  21.559  25.116  1.00  0.00     0.045 A 
ATOM     22  C   UNL A   1      32.426  20.198  22.698  1.00  0.00     0.016 A 
ATOM     23  C   UNL A   1      32.206  20.187  25.107  1.00  0.00     0.042 A 
ATOM     24  C   UNL A   1      32.474  19.520  23.913  1.00  0.00     0.020 A 
ATOM     25  Br  UNL A   1      32.865  17.671  23.939  1.00  0.00    -0.051 Br
BRANCH  21  26
ATOM     26  N   UNL A   1      31.509  22.113  26.338  1.00  0.00    -0.398 N 
ATOM     27  H   UNL A   1      32.098  22.756  26.796  1.00  0.00     0.156 HD
ATOM     28  H   UNL A   1      30.648  21.861  26.740  1.00  0.00     0.156 HD
ENDBRANCH  21  26
ENDBRANCH  16  19
ENDBRANCH  12  15
ENDBRANCH   6   8
ENDBRANCH   5   6
ENDBRANCH   4   5
ENDBRANCH   3   4
ENDBRANCH   2   3
ENDBRANCH   1   2
BRANCH   1  29
ATOM     29  C   UNL A   1      41.041  26.613  27.987  1.00  0.00     0.188 C 
BRANCH  29  30
ATOM     30  O   UNL A   1      40.040  27.461  27.453  1.00  0.00    -0.376 OA
BRANCH  30  31
ATOM     31  C   UNL A   1      39.137  27.974  28.426  1.00  0.00     0.202 C 
BRANCH  31  32
ATOM     32  C   UNL A   1      38.226  29.176  27.991  1.00  0.00     0.261 C 
BRANCH  32  33
ATOM     33  O   UNL A   1      38.495  30.442  28.694  1.00  0.00    -0.460 OA
BRANCH  33  34
ATOM     34  C   UNL A   1      37.837  30.927  29.799  1.00  0.00     0.338 C 
ATOM     35  O   UNL A   1      37.153  30.226  30.551  1.00  0.00    -0.246 OA
BRANCH  34  36
ATOM     36  C   UNL A   1      38.392  32.230  30.239  1.00  0.00     0.060 A 
ATOM     37  C   UNL A   1      39.526  32.889  29.816  1.00  0.00     0.016 A 
ATOM     38  C   UNL A   1      37.658  32.990  31.075  1.00  0.00     0.016 A 
ATOM     39  C   UNL A   1      40.200  33.825  30.677  1.00  0.00     0.010 A 
ATOM     40  C   UNL A   1      38.359  33.859  31.926  1.00  0.00     0.010 A 
ATOM     41  C   UNL A   1      39.764  34.106  31.969  1.00  0.00    -0.014 A 
BRANCH  41  42
ATOM     42  C   UNL A   1      40.878  34.530  33.208  1.00  0.00     0.031 A 
ATOM     43  C   UNL A   1      40.852  35.252  34.826  1.00  0.00     0.074 A 
ATOM     44  C   UNL A   1      42.129  34.122  32.858  1.00  0.00     0.049 A 
ATOM     45  N   UNL A   1      41.835  35.982  35.315  1.00  0.00    -0.248 NA
ATOM     46  C   UNL A   1      39.729  35.394  35.912  1.00  0.00     0.031 C 
ATOM     47  C   UNL A   1      43.335  34.018  33.670  1.00  0.00     0.029 A 
ATOM     48  N   UNL A   1      42.578  33.727  31.602  1.00  0.00    -0.354 N 
ATOM     49  C   UNL A   1      41.421  36.428  36.596  1.00  0.00     0.074 A 
ATOM     50  C   UNL A   1      40.033  36.447  36.640  1.00  0.00     0.031 C 
ATOM     51  C   UNL A   1      44.395  33.850  32.854  1.00  0.00     0.029 A 
ATOM     52  C   UNL A   1      43.930  34.018  31.489  1.00  0.00     0.049 A 
ATOM     53  H   UNL A   1      42.024  33.309  30.904  1.00  0.00     0.167 HD
ATOM     54  C   UNL A   1      42.206  36.462  37.701  1.00  0.00     0.034 A 
ATOM     55  C   UNL A   1      44.289  35.034  30.643  1.00  0.00     0.034 A 
ATOM     56  C   UNL A   1      43.565  36.512  37.232  1.00  0.00     0.049 A 
ATOM     57  C   UNL A   1      44.777  36.269  31.408  1.00  0.00     0.074 A 
ATOM     58  C   UNL A   1      44.515  35.547  36.982  1.00  0.00     0.029 A 
ATOM     59  N   UNL A   1      43.867  37.591  36.412  1.00  0.00    -0.354 N 
ATOM     60  N   UNL A   1      44.799  36.394  32.716  1.00  0.00    -0.248 NA
ATOM     61  C   UNL A   1      45.326  37.449  30.750  1.00  0.00     0.031 C 
ATOM     62  C   UNL A   1      45.255  35.992  35.836  1.00  0.00     0.029 A 
ATOM     63  C   UNL A   1      44.797  37.246  35.444  1.00  0.00     0.049 A 
ATOM     64  H   UNL A   1      43.469  38.487  36.506  1.00  0.00     0.167 HD
ATOM     65  C   UNL A   1      45.175  37.666  33.071  1.00  0.00     0.074 A 
ATOM     66  C   UNL A   1      45.593  38.242  31.802  1.00  0.00     0.031 C 
ATOM     67  C   UNL A   1      45.060  38.186  34.343  1.00  0.00     0.034 A 
BRANCH  54  68
ATOM     68  C   UNL A   1      41.691  36.376  39.161  1.00  0.00     0.023 A 
ATOM     69  C   UNL A   1      41.487  35.082  39.670  1.00  0.00     0.012 A 
ATOM     70  C   UNL A   1      41.303  37.444  40.052  1.00  0.00     0.148 A 
ATOM     71  C   UNL A   1      40.963  34.850  40.955  1.00  0.00     0.002 A 
ATOM     72  C   UNL A   1      40.863  37.210  41.368  1.00  0.00     0.091 A 
ATOM     73  F   UNL A   1      41.234  38.708  39.619  1.00  0.00    -0.205 F 
ATOM     74  C   UNL A   1      40.676  35.906  41.814  1.00  0.00     0.022 A 
BRANCH  72  75
ATOM     75  S   UNL A   1      40.501  38.533  42.557  1.00  0.00     0.127 S 
ATOM     76  O   UNL A   1      39.314  39.158  41.973  1.00  0.00    -0.237 OA
ATOM     77  O   UNL A   1      40.244  37.793  43.793  1.00  0.00    -0.237 OA
ATOM     78  O   UNL A   1      41.687  39.382  42.599  1.00  0.00    -0.744 OA
ENDBRANCH  72  75
ENDBRANCH  54  68
BRANCH  55  79
ATOM     79  C   UNL A   1      43.576  34.962  29.301  1.00  0.00     0.023 A 
ATOM     80  C   UNL A   1      42.631  36.002  29.047  1.00  0.00     0.012 A 
ATOM     81  C   UNL A   1      43.975  34.180  28.198  1.00  0.00     0.148 A 
ATOM     82  C   UNL A   1      42.226  36.351  27.754  1.00  0.00     0.002 A 
ATOM     83  C   UNL A   1      43.536  34.514  26.901  1.00  0.00     0.091 A 
ATOM     84  F   UNL A   1      44.869  33.199  28.380  1.00  0.00    -0.205 F 
ATOM     85  C   UNL A   1      42.679  35.605  26.679  1.00  0.00     0.022 A 
BRANCH  83  86
ATOM     86  S   UNL A   1      44.219  33.671  25.451  1.00  0.00     0.127 S 
ATOM     87  O   UNL A   1      43.929  32.262  25.719  1.00  0.00    -0.237 OA
ATOM     88  O   UNL A   1      43.452  34.236  24.346  1.00  0.00    -0.237 OA
ATOM     89  O   UNL A   1      45.632  34.018  25.519  1.00  0.00    -0.744 OA
ENDBRANCH  83  86
ENDBRANCH  55  79
BRANCH  67  90
ATOM     90  C   UNL A   1      45.114  39.698  34.637  1.00  0.00     0.023 A 
ATOM     91  C   UNL A   1      46.309  40.347  35.006  1.00  0.00     0.012 A 
ATOM     92  C   UNL A   1      44.010  40.559  34.389  1.00  0.00     0.148 A 
ATOM     93  C   UNL A   1      46.383  41.728  35.230  1.00  0.00     0.002 A 
ATOM     94  C   UNL A   1      44.141  41.947  34.431  1.00  0.00     0.091 A 
ATOM     95  F   UNL A   1      42.801  40.051  34.112  1.00  0.00    -0.205 F 
ATOM     96  C   UNL A   1      45.305  42.537  34.913  1.00  0.00     0.022 A 
BRANCH  94  97
ATOM     97  S   UNL A   1      42.906  42.995  33.641  1.00  0.00     0.127 S 
ATOM     98  O   UNL A   1      41.881  43.102  34.675  1.00  0.00    -0.237 OA
ATOM     99  O   UNL A   1      43.647  44.233  33.387  1.00  0.00    -0.237 OA
ATOM    100  O   UNL A   1      42.541  42.262  32.435  1.00  0.00    -0.744 OA
ENDBRANCH  94  97
ENDBRANCH  67  90
ENDBRANCH  41  42
ENDBRANCH  34  36
ENDBRANCH  33  34
ENDBRANCH  32  33
ENDBRANCH  31  32
ENDBRANCH  30  31
ENDBRANCH  29  30
ENDBRANCH   1  29
TORSDOF 23
ENDMDL
