MODEL 1
REMARK VINA RESULT:      -9.4      0.000      0.000
REMARK SMILES CC(C)(C(=O)OCCOCCOCCOC(=O)c1ccc(-c2c3nc(c(-c4cccc(S(=O)(=O)[O-])c4F)c4ccc([nH]4)c(-c4cccc(S(=O)(=O)[O-])c4F)c4nc(c(-c5cccc(S(=O)(=O)[O-])c5F)c5ccc2[nH]5)C=C4)C=C3)cc1)N1C(=O)/C(=C/c2ccc(C=O)cc2)SC1=S
REMARK SMILES IDX 10 1 9 2 8 3 7 4 6 5 4 6 5 7 2 8 1 9 3 10 81 11 82 12 95 13
REMARK SMILES IDX 83 14 84 15 94 16 96 17 85 18 86 19 87 20 93 21 88 22 92 23
REMARK SMILES IDX 89 24 90 25 91 26 11 27 12 28 13 29 14 30 15 31 16 32 17 33
REMARK SMILES IDX 18 34 19 35 80 36 20 37 79 38 21 39 22 40 23 41 73 42 24 43
REMARK SMILES IDX 78 44 72 45 74 46 25 47 77 48 71 49 70 50 26 52 58 53 38 54
REMARK SMILES IDX 57 55 39 56 42 57 56 58 75 59 40 60 41 61 55 63 76 64 43 65
REMARK SMILES IDX 27 66 28 67 36 68 29 69 31 70 37 71 30 72 32 73 33 74 34 75
REMARK SMILES IDX 35 76 59 77 60 78 68 79 61 80 63 81 69 82 62 83 64 84 65 85
REMARK SMILES IDX 66 86 67 87 44 88 45 89 53 90 46 91 48 92 54 93 47 94 49 95
REMARK SMILES IDX 50 96 51 97 52 98
REMARK H PARENT 74 51 42 62
REMARK Flexibility Score: inf
ROOT
ATOM      1  C   UNL A   1      34.077  31.197  27.631  1.00  0.00     0.188 C 
ENDROOT
BRANCH   1   2
ATOM      2  O   UNL A   1      32.953  32.011  27.302  1.00  0.00    -0.376 OA
BRANCH   2   3
ATOM      3  C   UNL A   1      31.784  31.401  26.771  1.00  0.00     0.202 C 
BRANCH   3   4
ATOM      4  C   UNL A   1      31.770  29.875  26.674  1.00  0.00     0.261 C 
BRANCH   4   5
ATOM      5  O   UNL A   1      31.494  29.351  25.356  1.00  0.00    -0.461 OA
BRANCH   5   6
ATOM      6  C   UNL A   1      32.536  28.727  24.741  1.00  0.00     0.332 C 
ATOM      7  O   UNL A   1      33.688  28.748  25.166  1.00  0.00    -0.249 OA
BRANCH   6   8
ATOM      8  C   UNL A   1      32.163  28.063  23.390  1.00  0.00     0.141 C 
ATOM      9  C   UNL A   1      30.778  28.417  22.820  1.00  0.00     0.048 C 
ATOM     10  C   UNL A   1      33.154  28.681  22.375  1.00  0.00     0.048 C 
BRANCH   8  11
ATOM     11  N   UNL A   1      32.365  26.586  23.657  1.00  0.00    -0.276 N 
ATOM     12  C   UNL A   1      33.347  25.836  23.005  1.00  0.00     0.267 C 
ATOM     13  C   UNL A   1      31.769  25.890  24.695  1.00  0.00     0.149 C 
ATOM     14  O   UNL A   1      33.953  26.129  21.985  1.00  0.00    -0.268 OA
ATOM     15  C   UNL A   1      33.472  24.496  23.649  1.00  0.00     0.081 C 
ATOM     16  S   UNL A   1      32.796  24.576  25.210  1.00  0.00    -0.054 SA
ATOM     17  S   UNL A   1      30.264  26.046  25.370  1.00  0.00    -0.052 S 
ATOM     18  C   UNL A   1      33.868  23.397  22.997  1.00  0.00     0.029 C 
BRANCH  18  19
ATOM     19  C   UNL A   1      33.729  22.014  23.488  1.00  0.00    -0.024 A 
ATOM     20  C   UNL A   1      32.602  21.271  23.133  1.00  0.00     0.009 A 
ATOM     21  C   UNL A   1      34.656  21.458  24.390  1.00  0.00     0.009 A 
ATOM     22  C   UNL A   1      32.386  20.014  23.701  1.00  0.00     0.012 A 
ATOM     23  C   UNL A   1      34.466  20.183  24.926  1.00  0.00     0.012 A 
ATOM     24  C   UNL A   1      33.312  19.477  24.603  1.00  0.00     0.014 A 
BRANCH  24  25
ATOM     25  C   UNL A   1      33.067  18.166  25.238  1.00  0.00     0.260 C 
ATOM     26  O   UNL A   1      31.928  17.739  25.385  1.00  0.00    -0.298 OA
ENDBRANCH  24  25
ENDBRANCH  18  19
ENDBRANCH   8  11
ENDBRANCH   6   8
ENDBRANCH   5   6
ENDBRANCH   4   5
ENDBRANCH   3   4
ENDBRANCH   2   3
ENDBRANCH   1   2
BRANCH   1  27
ATOM     27  C   UNL A   1      35.388  31.911  27.994  1.00  0.00     0.188 C 
BRANCH  27  28
ATOM     28  O   UNL A   1      35.596  31.985  29.389  1.00  0.00    -0.376 OA
BRANCH  28  29
ATOM     29  C   UNL A   1      34.718  32.742  30.190  1.00  0.00     0.202 C 
BRANCH  29  30
ATOM     30  C   UNL A   1      34.782  32.658  31.719  1.00  0.00     0.261 C 
BRANCH  30  31
ATOM     31  O   UNL A   1      35.801  33.419  32.381  1.00  0.00    -0.460 OA
BRANCH  31  32
ATOM     32  C   UNL A   1      36.299  32.930  33.545  1.00  0.00     0.338 C 
ATOM     33  O   UNL A   1      35.775  32.997  34.630  1.00  0.00    -0.246 OA
BRANCH  32  34
ATOM     34  C   UNL A   1      37.554  32.180  33.236  1.00  0.00     0.060 A 
ATOM     35  C   UNL A   1      37.823  31.010  33.949  1.00  0.00     0.016 A 
ATOM     36  C   UNL A   1      38.455  32.610  32.252  1.00  0.00     0.016 A 
ATOM     37  C   UNL A   1      38.969  30.257  33.660  1.00  0.00     0.010 A 
ATOM     38  C   UNL A   1      39.621  31.874  31.988  1.00  0.00     0.010 A 
ATOM     39  C   UNL A   1      39.887  30.690  32.691  1.00  0.00    -0.014 A 
BRANCH  39  40
ATOM     40  C   UNL A   1      41.196  29.989  32.564  1.00  0.00     0.031 A 
ATOM     41  C   UNL A   1      42.249  30.287  33.595  1.00  0.00     0.074 A 
ATOM     42  C   UNL A   1      41.454  29.115  31.570  1.00  0.00     0.049 A 
ATOM     43  N   UNL A   1      43.391  29.690  33.810  1.00  0.00    -0.248 NA
ATOM     44  C   UNL A   1      41.969  31.401  34.520  1.00  0.00     0.031 C 
ATOM     45  C   UNL A   1      40.532  28.775  30.492  1.00  0.00     0.029 A 
ATOM     46  N   UNL A   1      42.577  28.366  31.292  1.00  0.00    -0.354 N 
ATOM     47  C   UNL A   1      43.956  30.340  34.901  1.00  0.00     0.074 A 
ATOM     48  C   UNL A   1      43.038  31.383  35.301  1.00  0.00     0.031 C 
ATOM     49  C   UNL A   1      41.133  27.912  29.652  1.00  0.00     0.029 A 
ATOM     50  C   UNL A   1      42.492  27.642  30.118  1.00  0.00     0.049 A 
ATOM     51  H   UNL A   1      43.368  28.348  31.878  1.00  0.00     0.167 HD
ATOM     52  C   UNL A   1      45.130  30.086  35.522  1.00  0.00     0.034 A 
ATOM     53  C   UNL A   1      43.409  26.862  29.499  1.00  0.00     0.034 A 
ATOM     54  C   UNL A   1      46.068  29.090  35.083  1.00  0.00     0.049 A 
ATOM     55  C   UNL A   1      44.719  26.603  30.228  1.00  0.00     0.074 A 
ATOM     56  C   UNL A   1      47.290  28.755  35.635  1.00  0.00     0.029 A 
ATOM     57  N   UNL A   1      45.903  28.295  33.958  1.00  0.00    -0.354 N 
ATOM     58  N   UNL A   1      45.098  27.004  31.422  1.00  0.00    -0.248 NA
ATOM     59  C   UNL A   1      45.699  25.728  29.568  1.00  0.00     0.031 C 
ATOM     60  C   UNL A   1      47.877  27.775  34.828  1.00  0.00     0.029 A 
ATOM     61  C   UNL A   1      47.008  27.482  33.789  1.00  0.00     0.049 A 
ATOM     62  H   UNL A   1      45.115  28.309  33.367  1.00  0.00     0.167 HD
ATOM     63  C   UNL A   1      46.327  26.394  31.666  1.00  0.00     0.074 A 
ATOM     64  C   UNL A   1      46.591  25.538  30.529  1.00  0.00     0.031 C 
ATOM     65  C   UNL A   1      47.190  26.551  32.703  1.00  0.00     0.034 A 
BRANCH  52  66
ATOM     66  C   UNL A   1      45.456  30.891  36.749  1.00  0.00     0.023 A 
ATOM     67  C   UNL A   1      46.060  32.157  36.602  1.00  0.00     0.012 A 
ATOM     68  C   UNL A   1      45.131  30.424  38.036  1.00  0.00     0.148 A 
ATOM     69  C   UNL A   1      46.355  32.937  37.719  1.00  0.00     0.002 A 
ATOM     70  C   UNL A   1      45.397  31.221  39.143  1.00  0.00     0.091 A 
ATOM     71  F   UNL A   1      44.580  29.207  38.152  1.00  0.00    -0.205 F 
ATOM     72  C   UNL A   1      46.016  32.473  38.987  1.00  0.00     0.022 A 
BRANCH  70  73
ATOM     73  S   UNL A   1      44.951  30.743  40.815  1.00  0.00     0.127 S 
ATOM     74  O   UNL A   1      43.561  31.193  40.890  1.00  0.00    -0.237 OA
ATOM     75  O   UNL A   1      45.121  29.290  40.773  1.00  0.00    -0.237 OA
ATOM     76  O   UNL A   1      45.877  31.442  41.695  1.00  0.00    -0.744 OA
ENDBRANCH  70  73
ENDBRANCH  52  66
BRANCH  53  77
ATOM     77  C   UNL A   1      43.115  26.204  28.172  1.00  0.00     0.023 A 
ATOM     78  C   UNL A   1      43.256  26.932  26.973  1.00  0.00     0.012 A 
ATOM     79  C   UNL A   1      42.677  24.867  28.066  1.00  0.00     0.148 A 
ATOM     80  C   UNL A   1      42.975  26.379  25.722  1.00  0.00     0.002 A 
ATOM     81  C   UNL A   1      42.445  24.296  26.813  1.00  0.00     0.091 A 
ATOM     82  F   UNL A   1      42.486  24.170  29.195  1.00  0.00    -0.205 F 
ATOM     83  C   UNL A   1      42.584  25.054  25.640  1.00  0.00     0.022 A 
BRANCH  81  84
ATOM     84  S   UNL A   1      42.008  22.568  26.589  1.00  0.00     0.127 S 
ATOM     85  O   UNL A   1      40.622  22.548  27.053  1.00  0.00    -0.237 OA
ATOM     86  O   UNL A   1      42.175  22.405  25.146  1.00  0.00    -0.237 OA
ATOM     87  O   UNL A   1      42.950  21.812  27.403  1.00  0.00    -0.744 OA
ENDBRANCH  81  84
ENDBRANCH  53  77
BRANCH  65  88
ATOM     88  C   UNL A   1      48.472  25.748  32.686  1.00  0.00     0.023 A 
ATOM     89  C   UNL A   1      49.577  26.210  31.942  1.00  0.00     0.012 A 
ATOM     90  C   UNL A   1      48.609  24.580  33.463  1.00  0.00     0.148 A 
ATOM     91  C   UNL A   1      50.774  25.495  31.924  1.00  0.00     0.002 A 
ATOM     92  C   UNL A   1      49.826  23.906  33.489  1.00  0.00     0.091 A 
ATOM     93  F   UNL A   1      47.550  24.146  34.163  1.00  0.00    -0.205 F 
ATOM     94  C   UNL A   1      50.903  24.350  32.706  1.00  0.00     0.022 A 
BRANCH  92  95
ATOM     95  S   UNL A   1      50.122  22.498  34.567  1.00  0.00     0.127 S 
ATOM     96  O   UNL A   1      49.839  23.064  35.886  1.00  0.00    -0.237 OA
ATOM     97  O   UNL A   1      49.131  21.529  34.097  1.00  0.00    -0.237 OA
ATOM     98  O   UNL A   1      51.505  22.104  34.333  1.00  0.00    -0.744 OA
ENDBRANCH  92  95
ENDBRANCH  65  88
ENDBRANCH  39  40
ENDBRANCH  32  34
ENDBRANCH  31  32
ENDBRANCH  30  31
ENDBRANCH  29  30
ENDBRANCH  28  29
ENDBRANCH  27  28
ENDBRANCH   1  27
TORSDOF 23
ENDMDL
MODEL 2
REMARK VINA RESULT:      -9.2      1.549      1.834
REMARK SMILES CC(C)(C(=O)OCCOCCOCCOC(=O)c1ccc(-c2c3nc(c(-c4cccc(S(=O)(=O)[O-])c4F)c4ccc([nH]4)c(-c4cccc(S(=O)(=O)[O-])c4F)c4nc(c(-c5cccc(S(=O)(=O)[O-])c5F)c5ccc2[nH]5)C=C4)C=C3)cc1)N1C(=O)/C(=C/c2ccc(C=O)cc2)SC1=S
REMARK SMILES IDX 10 1 9 2 8 3 7 4 6 5 4 6 5 7 2 8 1 9 3 10 81 11 82 12 95 13
REMARK SMILES IDX 83 14 84 15 94 16 96 17 85 18 86 19 87 20 93 21 88 22 92 23
REMARK SMILES IDX 89 24 90 25 91 26 11 27 12 28 13 29 14 30 15 31 16 32 17 33
REMARK SMILES IDX 18 34 19 35 80 36 20 37 79 38 21 39 22 40 23 41 73 42 24 43
REMARK SMILES IDX 78 44 72 45 74 46 25 47 77 48 71 49 70 50 26 52 58 53 38 54
REMARK SMILES IDX 57 55 39 56 42 57 56 58 75 59 40 60 41 61 55 63 76 64 43 65
REMARK SMILES IDX 27 66 28 67 36 68 29 69 31 70 37 71 30 72 32 73 33 74 34 75
REMARK SMILES IDX 35 76 59 77 60 78 68 79 61 80 63 81 69 82 62 83 64 84 65 85
REMARK SMILES IDX 66 86 67 87 44 88 45 89 53 90 46 91 48 92 54 93 47 94 49 95
REMARK SMILES IDX 50 96 51 97 52 98
REMARK H PARENT 74 51 42 62
REMARK Flexibility Score: inf
ROOT
ATOM      1  C   UNL A   1      34.164  30.898  27.673  1.00  0.00     0.188 C 
ENDROOT
BRANCH   1   2
ATOM      2  O   UNL A   1      33.128  31.796  27.276  1.00  0.00    -0.376 OA
BRANCH   2   3
ATOM      3  C   UNL A   1      31.881  31.270  26.843  1.00  0.00     0.202 C 
BRANCH   3   4
ATOM      4  C   UNL A   1      31.825  29.778  26.508  1.00  0.00     0.261 C 
BRANCH   4   5
ATOM      5  O   UNL A   1      31.723  29.474  25.100  1.00  0.00    -0.461 OA
BRANCH   5   6
ATOM      6  C   UNL A   1      32.738  28.725  24.585  1.00  0.00     0.332 C 
ATOM      7  O   UNL A   1      33.862  28.674  25.076  1.00  0.00    -0.249 OA
BRANCH   6   8
ATOM      8  C   UNL A   1      32.381  28.011  23.255  1.00  0.00     0.141 C 
ATOM      9  C   UNL A   1      31.034  28.398  22.618  1.00  0.00     0.048 C 
ATOM     10  C   UNL A   1      33.433  28.532  22.249  1.00  0.00     0.048 C 
BRANCH   8  11
ATOM     11  N   UNL A   1      32.505  26.542  23.601  1.00  0.00    -0.276 N 
ATOM     12  C   UNL A   1      33.398  25.693  22.945  1.00  0.00     0.267 C 
ATOM     13  C   UNL A   1      31.927  25.948  24.711  1.00  0.00     0.149 C 
ATOM     14  O   UNL A   1      33.962  25.886  21.878  1.00  0.00    -0.268 OA
ATOM     15  C   UNL A   1      33.477  24.387  23.663  1.00  0.00     0.081 C 
ATOM     16  S   UNL A   1      32.898  24.601  25.250  1.00  0.00    -0.054 SA
ATOM     17  S   UNL A   1      30.476  26.242  25.455  1.00  0.00    -0.052 S 
ATOM     18  C   UNL A   1      33.765  23.228  23.059  1.00  0.00     0.029 C 
BRANCH  18  19
ATOM     19  C   UNL A   1      33.568  21.888  23.640  1.00  0.00    -0.024 A 
ATOM     20  C   UNL A   1      34.567  21.336  24.444  1.00  0.00     0.009 A 
ATOM     21  C   UNL A   1      32.440  21.106  23.321  1.00  0.00     0.009 A 
ATOM     22  C   UNL A   1      34.458  20.016  24.887  1.00  0.00     0.012 A 
ATOM     23  C   UNL A   1      32.308  19.801  23.797  1.00  0.00     0.012 A 
ATOM     24  C   UNL A   1      33.336  19.249  24.554  1.00  0.00     0.014 A 
BRANCH  24  25
ATOM     25  C   UNL A   1      33.237  17.839  24.984  1.00  0.00     0.260 C 
ATOM     26  O   UNL A   1      32.890  16.963  24.201  1.00  0.00    -0.298 OA
ENDBRANCH  24  25
ENDBRANCH  18  19
ENDBRANCH   8  11
ENDBRANCH   6   8
ENDBRANCH   5   6
ENDBRANCH   4   5
ENDBRANCH   3   4
ENDBRANCH   2   3
ENDBRANCH   1   2
BRANCH   1  27
ATOM     27  C   UNL A   1      35.534  31.504  28.014  1.00  0.00     0.188 C 
BRANCH  27  28
ATOM     28  O   UNL A   1      35.745  31.618  29.405  1.00  0.00    -0.376 OA
BRANCH  28  29
ATOM     29  C   UNL A   1      34.900  32.439  30.178  1.00  0.00     0.202 C 
BRANCH  29  30
ATOM     30  C   UNL A   1      34.973  32.422  31.709  1.00  0.00     0.261 C 
BRANCH  30  31
ATOM     31  O   UNL A   1      36.023  33.176  32.329  1.00  0.00    -0.460 OA
BRANCH  31  32
ATOM     32  C   UNL A   1      36.583  32.672  33.458  1.00  0.00     0.338 C 
ATOM     33  O   UNL A   1      36.097  32.685  34.563  1.00  0.00    -0.246 OA
BRANCH  32  34
ATOM     34  C   UNL A   1      37.852  31.979  33.079  1.00  0.00     0.060 A 
ATOM     35  C   UNL A   1      38.179  30.787  33.728  1.00  0.00     0.016 A 
ATOM     36  C   UNL A   1      38.711  32.485  32.094  1.00  0.00     0.016 A 
ATOM     37  C   UNL A   1      39.340  30.088  33.373  1.00  0.00     0.010 A 
ATOM     38  C   UNL A   1      39.891  31.802  31.763  1.00  0.00     0.010 A 
ATOM     39  C   UNL A   1      40.216  30.596  32.402  1.00  0.00    -0.014 A 
BRANCH  39  40
ATOM     40  C   UNL A   1      41.542  29.946  32.206  1.00  0.00     0.031 A 
ATOM     41  C   UNL A   1      42.645  30.311  33.162  1.00  0.00     0.074 A 
ATOM     42  C   UNL A   1      41.774  29.060  31.217  1.00  0.00     0.049 A 
ATOM     43  N   UNL A   1      43.822  29.766  33.316  1.00  0.00    -0.248 NA
ATOM     44  C   UNL A   1      42.376  31.434  34.079  1.00  0.00     0.031 C 
ATOM     45  C   UNL A   1      40.801  28.657  30.207  1.00  0.00     0.029 A 
ATOM     46  N   UNL A   1      42.908  28.351  30.883  1.00  0.00    -0.354 N 
ATOM     47  C   UNL A   1      44.426  30.464  34.355  1.00  0.00     0.074 A 
ATOM     48  C   UNL A   1      43.492  31.478  34.790  1.00  0.00     0.031 C 
ATOM     49  C   UNL A   1      41.384  27.799  29.349  1.00  0.00     0.029 A 
ATOM     50  C   UNL A   1      42.779  27.596  29.733  1.00  0.00     0.049 A 
ATOM     51  H   UNL A   1      43.734  28.378  31.418  1.00  0.00     0.167 HD
ATOM     52  C   UNL A   1      45.647  30.272  34.904  1.00  0.00     0.034 A 
ATOM     53  C   UNL A   1      43.688  26.839  29.073  1.00  0.00     0.034 A 
ATOM     54  C   UNL A   1      46.596  29.305  34.428  1.00  0.00     0.049 A 
ATOM     55  C   UNL A   1      45.051  26.652  29.723  1.00  0.00     0.074 A 
ATOM     56  C   UNL A   1      47.864  29.034  34.908  1.00  0.00     0.029 A 
ATOM     57  N   UNL A   1      46.395  28.478  33.333  1.00  0.00    -0.354 N 
ATOM     58  N   UNL A   1      45.487  27.096  30.881  1.00  0.00    -0.248 NA
ATOM     59  C   UNL A   1      46.024  25.802  29.020  1.00  0.00     0.031 C 
ATOM     60  C   UNL A   1      48.440  28.060  34.086  1.00  0.00     0.029 A 
ATOM     61  C   UNL A   1      47.520  27.707  33.110  1.00  0.00     0.049 A 
ATOM     62  H   UNL A   1      45.572  28.446  32.793  1.00  0.00     0.167 HD
ATOM     63  C   UNL A   1      46.754  26.542  31.059  1.00  0.00     0.074 A 
ATOM     64  C   UNL A   1      46.982  25.671  29.926  1.00  0.00     0.031 C 
ATOM     65  C   UNL A   1      47.673  26.759  32.035  1.00  0.00     0.034 A 
BRANCH  52  66
ATOM     66  C   UNL A   1      46.014  31.119  36.091  1.00  0.00     0.023 A 
ATOM     67  C   UNL A   1      45.727  30.649  37.389  1.00  0.00     0.012 A 
ATOM     68  C   UNL A   1      46.676  32.352  35.932  1.00  0.00     0.148 A 
ATOM     69  C   UNL A   1      46.072  31.401  38.510  1.00  0.00     0.002 A 
ATOM     70  C   UNL A   1      47.048  33.080  37.055  1.00  0.00     0.091 A 
ATOM     71  F   UNL A   1      46.917  32.790  34.688  1.00  0.00    -0.205 F 
ATOM     72  C   UNL A   1      46.741  32.611  38.344  1.00  0.00     0.022 A 
BRANCH  70  73
ATOM     73  S   UNL A   1      47.961  34.624  36.954  1.00  0.00     0.127 S 
ATOM     74  O   UNL A   1      46.986  35.501  36.308  1.00  0.00    -0.237 OA
ATOM     75  O   UNL A   1      48.211  34.923  38.364  1.00  0.00    -0.237 OA
ATOM     76  O   UNL A   1      49.154  34.336  36.169  1.00  0.00    -0.744 OA
ENDBRANCH  70  73
ENDBRANCH  52  66
BRANCH  53  77
ATOM     77  C   UNL A   1      43.339  26.139  27.782  1.00  0.00     0.023 A 
ATOM     78  C   UNL A   1      43.521  26.795  26.548  1.00  0.00     0.012 A 
ATOM     79  C   UNL A   1      42.809  24.832  27.744  1.00  0.00     0.148 A 
ATOM     80  C   UNL A   1      43.193  26.202  25.327  1.00  0.00     0.002 A 
ATOM     81  C   UNL A   1      42.529  24.218  26.522  1.00  0.00     0.091 A 
ATOM     82  F   UNL A   1      42.579  24.207  28.908  1.00  0.00    -0.205 F 
ATOM     83  C   UNL A   1      42.710  24.905  25.313  1.00  0.00     0.022 A 
BRANCH  81  84
ATOM     84  S   UNL A   1      41.972  22.515  26.386  1.00  0.00     0.127 S 
ATOM     85  O   UNL A   1      42.540  22.115  25.100  1.00  0.00    -0.237 OA
ATOM     86  O   UNL A   1      42.604  21.903  27.554  1.00  0.00    -0.237 OA
ATOM     87  O   UNL A   1      40.517  22.568  26.437  1.00  0.00    -0.744 OA
ENDBRANCH  81  84
ENDBRANCH  53  77
BRANCH  65  88
ATOM     88  C   UNL A   1      48.983  26.009  31.953  1.00  0.00     0.023 A 
ATOM     89  C   UNL A   1      50.020  26.497  31.131  1.00  0.00     0.012 A 
ATOM     90  C   UNL A   1      49.218  24.865  32.744  1.00  0.00     0.148 A 
ATOM     91  C   UNL A   1      51.242  25.832  31.052  1.00  0.00     0.002 A 
ATOM     92  C   UNL A   1      50.462  24.243  32.707  1.00  0.00     0.091 A 
ATOM     93  F   UNL A   1      48.224  24.405  33.519  1.00  0.00    -0.205 F 
ATOM     94  C   UNL A   1      51.467  24.712  31.848  1.00  0.00     0.022 A 
BRANCH  92  95
ATOM     95  S   UNL A   1      50.883  22.874  33.793  1.00  0.00     0.127 S 
ATOM     96  O   UNL A   1      50.695  23.469  35.116  1.00  0.00    -0.237 OA
ATOM     97  O   UNL A   1      49.884  21.866  33.432  1.00  0.00    -0.237 OA
ATOM     98  O   UNL A   1      52.253  22.508  33.456  1.00  0.00    -0.744 OA
ENDBRANCH  92  95
ENDBRANCH  65  88
ENDBRANCH  39  40
ENDBRANCH  32  34
ENDBRANCH  31  32
ENDBRANCH  30  31
ENDBRANCH  29  30
ENDBRANCH  28  29
ENDBRANCH  27  28
ENDBRANCH   1  27
TORSDOF 23
ENDMDL
MODEL 3
REMARK VINA RESULT:      -9.0      4.927      6.048
REMARK SMILES CC(C)(C(=O)OCCOCCOCCOC(=O)c1ccc(-c2c3nc(c(-c4cccc(S(=O)(=O)[O-])c4F)c4ccc([nH]4)c(-c4cccc(S(=O)(=O)[O-])c4F)c4nc(c(-c5cccc(S(=O)(=O)[O-])c5F)c5ccc2[nH]5)C=C4)C=C3)cc1)N1C(=O)/C(=C/c2ccc(C=O)cc2)SC1=S
REMARK SMILES IDX 10 1 9 2 8 3 7 4 6 5 4 6 5 7 2 8 1 9 3 10 81 11 82 12 95 13
REMARK SMILES IDX 83 14 84 15 94 16 96 17 85 18 86 19 87 20 93 21 88 22 92 23
REMARK SMILES IDX 89 24 90 25 91 26 11 27 12 28 13 29 14 30 15 31 16 32 17 33
REMARK SMILES IDX 18 34 19 35 80 36 20 37 79 38 21 39 22 40 23 41 73 42 24 43
REMARK SMILES IDX 78 44 72 45 74 46 25 47 77 48 71 49 70 50 26 52 58 53 38 54
REMARK SMILES IDX 57 55 39 56 42 57 56 58 75 59 40 60 41 61 55 63 76 64 43 65
REMARK SMILES IDX 27 66 28 67 36 68 29 69 31 70 37 71 30 72 32 73 33 74 34 75
REMARK SMILES IDX 35 76 59 77 60 78 68 79 61 80 63 81 69 82 62 83 64 84 65 85
REMARK SMILES IDX 66 86 67 87 44 88 45 89 53 90 46 91 48 92 54 93 47 94 49 95
REMARK SMILES IDX 50 96 51 97 52 98
REMARK H PARENT 74 51 42 62
REMARK Flexibility Score: inf
ROOT
ATOM      1  C   UNL A   1      34.708  30.427  28.024  1.00  0.00     0.188 C 
ENDROOT
BRANCH   1   2
ATOM      2  O   UNL A   1      33.930  31.498  27.493  1.00  0.00    -0.376 OA
BRANCH   2   3
ATOM      3  C   UNL A   1      32.566  31.270  27.166  1.00  0.00     0.202 C 
BRANCH   3   4
ATOM      4  C   UNL A   1      32.138  29.826  26.900  1.00  0.00     0.261 C 
BRANCH   4   5
ATOM      5  O   UNL A   1      31.858  29.518  25.517  1.00  0.00    -0.461 OA
BRANCH   5   6
ATOM      6  C   UNL A   1      32.827  28.821  24.861  1.00  0.00     0.332 C 
ATOM      7  O   UNL A   1      33.989  28.745  25.248  1.00  0.00    -0.249 OA
BRANCH   6   8
ATOM      8  C   UNL A   1      32.358  28.205  23.517  1.00  0.00     0.141 C 
ATOM      9  C   UNL A   1      30.962  28.631  23.027  1.00  0.00     0.048 C 
ATOM     10  C   UNL A   1      33.322  28.805  22.467  1.00  0.00     0.048 C 
BRANCH   8  11
ATOM     11  N   UNL A   1      32.509  26.715  23.742  1.00  0.00    -0.276 N 
ATOM     12  C   UNL A   1      33.448  25.947  23.050  1.00  0.00     0.267 C 
ATOM     13  C   UNL A   1      31.909  26.015  24.775  1.00  0.00     0.149 C 
ATOM     14  O   UNL A   1      34.043  26.244  22.025  1.00  0.00    -0.268 OA
ATOM     15  C   UNL A   1      33.536  24.587  23.657  1.00  0.00     0.081 C 
ATOM     16  S   UNL A   1      32.896  24.650  25.234  1.00  0.00    -0.054 SA
ATOM     17  S   UNL A   1      30.425  26.210  25.487  1.00  0.00    -0.052 S 
ATOM     18  C   UNL A   1      33.876  23.491  22.968  1.00  0.00     0.029 C 
BRANCH  18  19
ATOM     19  C   UNL A   1      33.695  22.102  23.426  1.00  0.00    -0.024 A 
ATOM     20  C   UNL A   1      32.534  21.410  23.075  1.00  0.00     0.009 A 
ATOM     21  C   UNL A   1      34.617  21.489  24.297  1.00  0.00     0.009 A 
ATOM     22  C   UNL A   1      32.283  20.147  23.615  1.00  0.00     0.012 A 
ATOM     23  C   UNL A   1      34.390  20.208  24.804  1.00  0.00     0.012 A 
ATOM     24  C   UNL A   1      33.205  19.554  24.485  1.00  0.00     0.014 A 
BRANCH  24  25
ATOM     25  C   UNL A   1      32.923  18.237  25.092  1.00  0.00     0.260 C 
ATOM     26  O   UNL A   1      32.477  18.148  26.230  1.00  0.00    -0.298 OA
ENDBRANCH  24  25
ENDBRANCH  18  19
ENDBRANCH   8  11
ENDBRANCH   6   8
ENDBRANCH   5   6
ENDBRANCH   4   5
ENDBRANCH   3   4
ENDBRANCH   2   3
ENDBRANCH   1   2
BRANCH   1  27
ATOM     27  C   UNL A   1      36.028  30.788  28.724  1.00  0.00     0.188 C 
BRANCH  27  28
ATOM     28  O   UNL A   1      35.856  31.056  30.099  1.00  0.00    -0.376 OA
BRANCH  28  29
ATOM     29  C   UNL A   1      35.109  32.179  30.507  1.00  0.00     0.202 C 
BRANCH  29  30
ATOM     30  C   UNL A   1      35.186  32.691  31.950  1.00  0.00     0.261 C 
BRANCH  30  31
ATOM     31  O   UNL A   1      35.729  34.002  32.158  1.00  0.00    -0.460 OA
BRANCH  31  32
ATOM     32  C   UNL A   1      36.904  34.100  32.831  1.00  0.00     0.338 C 
ATOM     33  O   UNL A   1      37.061  34.580  33.927  1.00  0.00    -0.246 OA
BRANCH  32  34
ATOM     34  C   UNL A   1      37.956  33.397  32.036  1.00  0.00     0.060 A 
ATOM     35  C   UNL A   1      38.775  32.472  32.686  1.00  0.00     0.016 A 
ATOM     36  C   UNL A   1      38.136  33.633  30.666  1.00  0.00     0.016 A 
ATOM     37  C   UNL A   1      39.746  31.763  31.967  1.00  0.00     0.010 A 
ATOM     38  C   UNL A   1      39.132  32.948  29.953  1.00  0.00     0.010 A 
ATOM     39  C   UNL A   1      39.946  32.006  30.600  1.00  0.00    -0.014 A 
BRANCH  39  40
ATOM     40  C   UNL A   1      41.125  31.401  29.919  1.00  0.00     0.031 A 
ATOM     41  C   UNL A   1      42.351  32.257  29.755  1.00  0.00     0.074 A 
ATOM     42  C   UNL A   1      41.121  30.135  29.454  1.00  0.00     0.049 A 
ATOM     43  N   UNL A   1      43.550  31.919  29.362  1.00  0.00    -0.248 NA
ATOM     44  C   UNL A   1      42.208  33.684  30.097  1.00  0.00     0.031 C 
ATOM     45  C   UNL A   1      39.983  29.223  29.516  1.00  0.00     0.029 A 
ATOM     46  N   UNL A   1      42.098  29.399  28.819  1.00  0.00    -0.354 N 
ATOM     47  C   UNL A   1      44.308  33.083  29.426  1.00  0.00     0.074 A 
ATOM     48  C   UNL A   1      43.434  34.139  29.887  1.00  0.00     0.031 C 
ATOM     49  C   UNL A   1      40.312  28.064  28.917  1.00  0.00     0.029 A 
ATOM     50  C   UNL A   1      41.681  28.147  28.412  1.00  0.00     0.049 A 
ATOM     51  H   UNL A   1      43.011  29.736  28.671  1.00  0.00     0.167 HD
ATOM     52  C   UNL A   1      45.618  33.257  29.135  1.00  0.00     0.034 A 
ATOM     53  C   UNL A   1      42.333  27.190  27.710  1.00  0.00     0.034 A 
ATOM     54  C   UNL A   1      46.467  32.220  28.619  1.00  0.00     0.049 A 
ATOM     55  C   UNL A   1      43.804  27.425  27.400  1.00  0.00     0.074 A 
ATOM     56  C   UNL A   1      47.806  32.290  28.284  1.00  0.00     0.029 A 
ATOM     57  N   UNL A   1      46.045  30.932  28.322  1.00  0.00    -0.354 N 
ATOM     58  N   UNL A   1      44.576  28.430  27.750  1.00  0.00    -0.248 NA
ATOM     59  C   UNL A   1      44.518  26.368  26.666  1.00  0.00     0.031 C 
ATOM     60  C   UNL A   1      48.189  31.051  27.760  1.00  0.00     0.029 A 
ATOM     61  C   UNL A   1      47.093  30.202  27.794  1.00  0.00     0.049 A 
ATOM     62  H   UNL A   1      45.133  30.589  28.467  1.00  0.00     0.167 HD
ATOM     63  C   UNL A   1      45.862  28.101  27.321  1.00  0.00     0.074 A 
ATOM     64  C   UNL A   1      45.777  26.772  26.756  1.00  0.00     0.031 C 
ATOM     65  C   UNL A   1      47.004  28.836  27.344  1.00  0.00     0.034 A 
BRANCH  52  66
ATOM     66  C   UNL A   1      46.209  34.616  29.385  1.00  0.00     0.023 A 
ATOM     67  C   UNL A   1      46.817  34.885  30.630  1.00  0.00     0.012 A 
ATOM     68  C   UNL A   1      46.205  35.609  28.387  1.00  0.00     0.148 A 
ATOM     69  C   UNL A   1      47.392  36.129  30.885  1.00  0.00     0.002 A 
ATOM     70  C   UNL A   1      46.811  36.834  28.637  1.00  0.00     0.091 A 
ATOM     71  F   UNL A   1      45.601  35.338  27.222  1.00  0.00    -0.205 F 
ATOM     72  C   UNL A   1      47.397  37.099  29.887  1.00  0.00     0.022 A 
BRANCH  70  73
ATOM     73  S   UNL A   1      46.922  38.133  27.401  1.00  0.00     0.127 S 
ATOM     74  O   UNL A   1      45.514  38.482  27.213  1.00  0.00    -0.237 OA
ATOM     75  O   UNL A   1      47.715  39.148  28.096  1.00  0.00    -0.237 OA
ATOM     76  O   UNL A   1      47.574  37.535  26.245  1.00  0.00    -0.744 OA
ENDBRANCH  70  73
ENDBRANCH  52  66
BRANCH  53  77
ATOM     77  C   UNL A   1      41.653  25.900  27.318  1.00  0.00     0.023 A 
ATOM     78  C   UNL A   1      40.558  25.917  26.430  1.00  0.00     0.012 A 
ATOM     79  C   UNL A   1      42.054  24.645  27.823  1.00  0.00     0.148 A 
ATOM     80  C   UNL A   1      39.879  24.756  26.054  1.00  0.00     0.002 A 
ATOM     81  C   UNL A   1      41.409  23.477  27.407  1.00  0.00     0.091 A 
ATOM     82  F   UNL A   1      43.060  24.608  28.708  1.00  0.00    -0.205 F 
ATOM     83  C   UNL A   1      40.315  23.532  26.532  1.00  0.00     0.022 A 
BRANCH  81  84
ATOM     84  S   UNL A   1      41.941  21.835  27.905  1.00  0.00     0.127 S 
ATOM     85  O   UNL A   1      42.578  21.344  26.686  1.00  0.00    -0.237 OA
ATOM     86  O   UNL A   1      42.862  22.141  28.999  1.00  0.00    -0.237 OA
ATOM     87  O   UNL A   1      40.730  21.130  28.305  1.00  0.00    -0.744 OA
ENDBRANCH  81  84
ENDBRANCH  53  77
BRANCH  65  88
ATOM     88  C   UNL A   1      48.262  28.205  26.790  1.00  0.00     0.023 A 
ATOM     89  C   UNL A   1      49.207  27.638  27.670  1.00  0.00     0.012 A 
ATOM     90  C   UNL A   1      48.476  28.106  25.400  1.00  0.00     0.148 A 
ATOM     91  C   UNL A   1      50.366  27.036  27.183  1.00  0.00     0.002 A 
ATOM     92  C   UNL A   1      49.605  27.450  24.919  1.00  0.00     0.091 A 
ATOM     93  F   UNL A   1      47.575  28.653  24.571  1.00  0.00    -0.205 F 
ATOM     94  C   UNL A   1      50.560  26.933  25.808  1.00  0.00     0.022 A 
BRANCH  92  95
ATOM     95  S   UNL A   1      49.871  27.155  23.166  1.00  0.00     0.127 S 
ATOM     96  O   UNL A   1      48.625  26.493  22.779  1.00  0.00    -0.237 OA
ATOM     97  O   UNL A   1      50.027  28.512  22.639  1.00  0.00    -0.237 OA
ATOM     98  O   UNL A   1      51.073  26.336  23.080  1.00  0.00    -0.744 OA
ENDBRANCH  92  95
ENDBRANCH  65  88
ENDBRANCH  39  40
ENDBRANCH  32  34
ENDBRANCH  31  32
ENDBRANCH  30  31
ENDBRANCH  29  30
ENDBRANCH  28  29
ENDBRANCH  27  28
ENDBRANCH   1  27
TORSDOF 23
ENDMDL
