MODEL 1
REMARK VINA RESULT:      -6.8      0.000      0.000
REMARK SMILES CC/C=C/C/C=C/C/C=C/C/C=C/CC/C=C/COCC(=O)OCCOCCOCCOC(=O)c1ccc(-c2c3nc(c(-c4cccc(S(=O)(=O)[O-])c4F)c4ccc([nH]4)c(-c4cccc(S(=O)(=O)[O-])c4F)c4nc(c(-c5cccc(S(=O)(=O)[O-])c5F)c5ccc2[nH]5)C=C4)C=C3)cc1
REMARK SMILES IDX 21 1 22 2 20 3 19 4 18 5 17 6 16 7 15 8 14 9 13 10 12 11
REMARK SMILES IDX 11 12 10 13 9 14 8 15 7 16 6 17 5 18 4 19 3 20 2 21 1 22
REMARK SMILES IDX 23 23 24 24 25 25 26 26 27 27 28 28 29 29 30 30 31 31 32 32
REMARK SMILES IDX 33 33 34 34 35 35 36 36 97 37 37 38 96 39 38 40 39 41 40 42
REMARK SMILES IDX 90 43 41 44 95 45 89 46 91 47 42 48 94 49 88 50 87 51 43 53
REMARK SMILES IDX 75 54 55 55 74 56 56 57 59 58 73 59 92 60 57 61 58 62 72 64
REMARK SMILES IDX 93 65 60 66 44 67 45 68 53 69 46 70 48 71 54 72 47 73 49 74
REMARK SMILES IDX 50 75 51 76 52 77 76 78 77 79 85 80 78 81 80 82 86 83 79 84
REMARK SMILES IDX 81 85 82 86 83 87 84 88 61 89 62 90 70 91 63 92 65 93 71 94
REMARK SMILES IDX 64 95 66 96 67 97 68 98 69 99
REMARK H PARENT 91 52 59 63
REMARK Flexibility Score: inf
ROOT
ATOM      1  C   UNL A   1      36.298  30.339  28.195  1.00  0.00     0.332 C 
ATOM      2  O   UNL A   1      36.152  31.320  28.919  1.00  0.00    -0.250 OA
ENDROOT
BRANCH   1   3
ATOM      3  C   UNL A   1      35.112  29.429  27.846  1.00  0.00     0.283 C 
BRANCH   3   4
ATOM      4  O   UNL A   1      34.439  29.395  26.602  1.00  0.00    -0.366 OA
BRANCH   4   5
ATOM      5  C   UNL A   1      33.137  29.980  26.568  1.00  0.00     0.188 C 
BRANCH   5   6
ATOM      6  C   UNL A   1      32.218  29.273  25.611  1.00  0.00    -0.003 C 
ATOM      7  C   UNL A   1      31.361  29.923  24.807  1.00  0.00    -0.029 C 
BRANCH   7   8
ATOM      8  C   UNL A   1      30.298  29.288  23.953  1.00  0.00     0.031 C 
BRANCH   8   9
ATOM      9  C   UNL A   1      30.800  28.743  22.582  1.00  0.00     0.031 C 
BRANCH   9  10
ATOM     10  C   UNL A   1      31.199  27.278  22.533  1.00  0.00    -0.031 C 
ATOM     11  C   UNL A   1      32.353  26.733  22.100  1.00  0.00    -0.027 C 
BRANCH  11  12
ATOM     12  C   UNL A   1      32.679  25.263  21.987  1.00  0.00     0.054 C 
BRANCH  12  13
ATOM     13  C   UNL A   1      33.457  24.719  23.171  1.00  0.00    -0.027 C 
ATOM     14  C   UNL A   1      34.017  25.475  24.140  1.00  0.00    -0.027 C 
BRANCH  14  15
ATOM     15  C   UNL A   1      34.644  24.948  25.409  1.00  0.00     0.054 C 
BRANCH  15  16
ATOM     16  C   UNL A   1      34.160  23.576  25.801  1.00  0.00    -0.027 C 
ATOM     17  C   UNL A   1      34.712  22.814  26.765  1.00  0.00    -0.027 C 
BRANCH  17  18
ATOM     18  C   UNL A   1      34.187  21.470  27.197  1.00  0.00     0.054 C 
BRANCH  18  19
ATOM     19  C   UNL A   1      33.281  20.864  26.161  1.00  0.00    -0.027 C 
ATOM     20  C   UNL A   1      33.681  20.054  25.165  1.00  0.00    -0.031 C 
BRANCH  20  21
ATOM     21  C   UNL A   1      32.739  19.426  24.177  1.00  0.00     0.023 C 
ATOM     22  C   UNL A   1      33.242  18.074  23.698  1.00  0.00     0.008 C 
ENDBRANCH  20  21
ENDBRANCH  18  19
ENDBRANCH  17  18
ENDBRANCH  15  16
ENDBRANCH  14  15
ENDBRANCH  12  13
ENDBRANCH  11  12
ENDBRANCH   9  10
ENDBRANCH   8   9
ENDBRANCH   7   8
ENDBRANCH   5   6
ENDBRANCH   4   5
ENDBRANCH   3   4
ENDBRANCH   1   3
BRANCH   1  23
ATOM     23  O   UNL A   1      37.499  29.904  27.717  1.00  0.00    -0.462 OA
BRANCH  23  24
ATOM     24  C   UNL A   1      38.043  28.748  28.394  1.00  0.00     0.261 C 
BRANCH  24  25
ATOM     25  C   UNL A   1      39.552  28.790  28.657  1.00  0.00     0.202 C 
BRANCH  25  26
ATOM     26  O   UNL A   1      40.386  28.461  27.556  1.00  0.00    -0.376 OA
BRANCH  26  27
ATOM     27  C   UNL A   1      40.078  27.243  26.901  1.00  0.00     0.188 C 
BRANCH  27  28
ATOM     28  C   UNL A   1      40.620  25.977  27.536  1.00  0.00     0.188 C 
BRANCH  28  29
ATOM     29  O   UNL A   1      39.927  24.801  27.164  1.00  0.00    -0.376 OA
BRANCH  29  30
ATOM     30  C   UNL A   1      40.357  23.589  27.790  1.00  0.00     0.202 C 
BRANCH  30  31
ATOM     31  C   UNL A   1      40.289  22.255  27.010  1.00  0.00     0.261 C 
BRANCH  31  32
ATOM     32  O   UNL A   1      41.030  22.197  25.769  1.00  0.00    -0.460 OA
BRANCH  32  33
ATOM     33  C   UNL A   1      42.327  21.792  25.823  1.00  0.00     0.338 C 
ATOM     34  O   UNL A   1      42.719  20.668  25.629  1.00  0.00    -0.246 OA
BRANCH  33  35
ATOM     35  C   UNL A   1      43.223  22.991  25.969  1.00  0.00     0.060 A 
ATOM     36  C   UNL A   1      44.198  22.960  26.975  1.00  0.00     0.016 A 
ATOM     37  C   UNL A   1      43.153  24.115  25.134  1.00  0.00     0.016 A 
ATOM     38  C   UNL A   1      45.064  24.049  27.171  1.00  0.00     0.010 A 
ATOM     39  C   UNL A   1      44.013  25.212  25.343  1.00  0.00     0.010 A 
ATOM     40  C   UNL A   1      44.966  25.201  26.376  1.00  0.00    -0.014 A 
BRANCH  40  41
ATOM     41  C   UNL A   1      45.752  26.428  26.728  1.00  0.00     0.031 A 
ATOM     42  C   UNL A   1      47.140  26.578  26.206  1.00  0.00     0.074 A 
ATOM     43  C   UNL A   1      45.261  27.445  27.463  1.00  0.00     0.049 A 
ATOM     44  N   UNL A   1      47.955  27.589  26.346  1.00  0.00    -0.248 NA
ATOM     45  C   UNL A   1      47.674  25.458  25.420  1.00  0.00     0.031 C 
ATOM     46  C   UNL A   1      43.924  27.460  27.999  1.00  0.00     0.029 A 
ATOM     47  N   UNL A   1      45.788  28.649  27.878  1.00  0.00    -0.354 N 
ATOM     48  C   UNL A   1      49.107  27.233  25.671  1.00  0.00     0.074 A 
ATOM     49  C   UNL A   1      48.885  25.907  25.126  1.00  0.00     0.031 C 
ATOM     50  C   UNL A   1      43.701  28.621  28.633  1.00  0.00     0.029 A 
ATOM     51  C   UNL A   1      44.922  29.398  28.648  1.00  0.00     0.049 A 
ATOM     52  H   UNL A   1      46.698  28.948  27.648  1.00  0.00     0.167 HD
ATOM     53  C   UNL A   1      50.245  27.944  25.519  1.00  0.00     0.034 A 
ATOM     54  C   UNL A   1      45.066  30.556  29.325  1.00  0.00     0.034 A 
ATOM     55  C   UNL A   1      50.497  29.237  26.094  1.00  0.00     0.049 A 
ATOM     56  C   UNL A   1      46.379  31.268  29.233  1.00  0.00     0.074 A 
ATOM     57  C   UNL A   1      51.643  30.007  25.991  1.00  0.00     0.029 A 
ATOM     58  N   UNL A   1      49.621  29.938  26.908  1.00  0.00    -0.354 N 
ATOM     59  N   UNL A   1      47.422  30.957  28.507  1.00  0.00    -0.248 NA
ATOM     60  C   UNL A   1      46.536  32.502  30.019  1.00  0.00     0.031 C 
ATOM     61  C   UNL A   1      51.475  31.155  26.772  1.00  0.00     0.029 A 
ATOM     62  C   UNL A   1      50.209  31.121  27.331  1.00  0.00     0.049 A 
ATOM     63  H   UNL A   1      48.714  29.641  27.149  1.00  0.00     0.167 HD
ATOM     64  C   UNL A   1      48.344  31.971  28.715  1.00  0.00     0.074 A 
ATOM     65  C   UNL A   1      47.730  32.919  29.621  1.00  0.00     0.031 C 
ATOM     66  C   UNL A   1      49.590  32.090  28.201  1.00  0.00     0.034 A 
BRANCH  53  67
ATOM     67  C   UNL A   1      51.319  27.295  24.703  1.00  0.00     0.023 A 
ATOM     68  C   UNL A   1      52.312  26.525  25.342  1.00  0.00     0.012 A 
ATOM     69  C   UNL A   1      51.353  27.467  23.309  1.00  0.00     0.148 A 
ATOM     70  C   UNL A   1      53.348  25.961  24.602  1.00  0.00     0.002 A 
ATOM     71  C   UNL A   1      52.366  26.868  22.574  1.00  0.00     0.091 A 
ATOM     72  F   UNL A   1      50.415  28.235  22.737  1.00  0.00    -0.205 F 
ATOM     73  C   UNL A   1      53.370  26.127  23.219  1.00  0.00     0.022 A 
BRANCH  71  74
ATOM     74  S   UNL A   1      52.448  26.979  20.786  1.00  0.00     0.127 S 
ATOM     75  O   UNL A   1      51.384  26.059  20.386  1.00  0.00    -0.237 OA
ATOM     76  O   UNL A   1      52.153  28.393  20.555  1.00  0.00    -0.237 OA
ATOM     77  O   UNL A   1      53.796  26.569  20.417  1.00  0.00    -0.744 OA
ENDBRANCH  71  74
ENDBRANCH  53  67
BRANCH  54  78
ATOM     78  C   UNL A   1      43.953  31.126  30.151  1.00  0.00     0.023 A 
ATOM     79  C   UNL A   1      43.113  32.117  29.604  1.00  0.00     0.012 A 
ATOM     80  C   UNL A   1      43.746  30.725  31.489  1.00  0.00     0.148 A 
ATOM     81  C   UNL A   1      42.122  32.726  30.379  1.00  0.00     0.002 A 
ATOM     82  C   UNL A   1      42.726  31.300  32.240  1.00  0.00     0.091 A 
ATOM     83  F   UNL A   1      44.560  29.794  32.006  1.00  0.00    -0.205 F 
ATOM     84  C   UNL A   1      41.925  32.314  31.693  1.00  0.00     0.022 A 
BRANCH  82  85
ATOM     85  S   UNL A   1      42.334  30.767  33.912  1.00  0.00     0.127 S 
ATOM     86  O   UNL A   1      42.671  29.347  33.859  1.00  0.00    -0.237 OA
ATOM     87  O   UNL A   1      43.244  31.586  34.713  1.00  0.00    -0.237 OA
ATOM     88  O   UNL A   1      40.923  31.077  34.102  1.00  0.00    -0.744 OA
ENDBRANCH  82  85
ENDBRANCH  54  78
BRANCH  66  89
ATOM     89  C   UNL A   1      50.376  33.318  28.571  1.00  0.00     0.023 A 
ATOM     90  C   UNL A   1      50.140  34.534  27.900  1.00  0.00     0.012 A 
ATOM     91  C   UNL A   1      51.307  33.276  29.625  1.00  0.00     0.148 A 
ATOM     92  C   UNL A   1      50.842  35.686  28.257  1.00  0.00     0.002 A 
ATOM     93  C   UNL A   1      51.963  34.439  30.011  1.00  0.00     0.091 A 
ATOM     94  F   UNL A   1      51.536  32.102  30.231  1.00  0.00    -0.205 F 
ATOM     95  C   UNL A   1      51.742  35.641  29.320  1.00  0.00     0.022 A 
BRANCH  93  96
ATOM     96  S   UNL A   1      53.064  34.496  31.428  1.00  0.00     0.127 S 
ATOM     97  O   UNL A   1      53.486  35.895  31.422  1.00  0.00    -0.237 OA
ATOM     98  O   UNL A   1      52.168  34.134  32.528  1.00  0.00    -0.237 OA
ATOM     99  O   UNL A   1      54.117  33.525  31.161  1.00  0.00    -0.744 OA
ENDBRANCH  93  96
ENDBRANCH  66  89
ENDBRANCH  40  41
ENDBRANCH  33  35
ENDBRANCH  32  33
ENDBRANCH  31  32
ENDBRANCH  30  31
ENDBRANCH  29  30
ENDBRANCH  28  29
ENDBRANCH  27  28
ENDBRANCH  26  27
ENDBRANCH  25  26
ENDBRANCH  24  25
ENDBRANCH  23  24
ENDBRANCH   1  23
TORSDOF 33
ENDMDL
MODEL 2
REMARK VINA RESULT:      -6.5      5.276     11.922
REMARK SMILES CC/C=C/C/C=C/C/C=C/C/C=C/CC/C=C/COCC(=O)OCCOCCOCCOC(=O)c1ccc(-c2c3nc(c(-c4cccc(S(=O)(=O)[O-])c4F)c4ccc([nH]4)c(-c4cccc(S(=O)(=O)[O-])c4F)c4nc(c(-c5cccc(S(=O)(=O)[O-])c5F)c5ccc2[nH]5)C=C4)C=C3)cc1
REMARK SMILES IDX 21 1 22 2 20 3 19 4 18 5 17 6 16 7 15 8 14 9 13 10 12 11
REMARK SMILES IDX 11 12 10 13 9 14 8 15 7 16 6 17 5 18 4 19 3 20 2 21 1 22
REMARK SMILES IDX 23 23 24 24 25 25 26 26 27 27 28 28 29 29 30 30 31 31 32 32
REMARK SMILES IDX 33 33 34 34 35 35 36 36 97 37 37 38 96 39 38 40 39 41 40 42
REMARK SMILES IDX 90 43 41 44 95 45 89 46 91 47 42 48 94 49 88 50 87 51 43 53
REMARK SMILES IDX 75 54 55 55 74 56 56 57 59 58 73 59 92 60 57 61 58 62 72 64
REMARK SMILES IDX 93 65 60 66 44 67 45 68 53 69 46 70 48 71 54 72 47 73 49 74
REMARK SMILES IDX 50 75 51 76 52 77 76 78 77 79 85 80 78 81 80 82 86 83 79 84
REMARK SMILES IDX 81 85 82 86 83 87 84 88 61 89 62 90 70 91 63 92 65 93 71 94
REMARK SMILES IDX 64 95 66 96 67 97 68 98 69 99
REMARK H PARENT 91 52 59 63
REMARK Flexibility Score: inf
ROOT
ATOM      1  C   UNL A   1      43.111  23.061  24.917  1.00  0.00     0.332 C 
ATOM      2  O   UNL A   1      42.935  24.253  25.157  1.00  0.00    -0.250 OA
ENDROOT
BRANCH   1   3
ATOM      3  C   UNL A   1      42.666  21.980  25.912  1.00  0.00     0.283 C 
BRANCH   3   4
ATOM      4  O   UNL A   1      41.670  21.003  25.676  1.00  0.00    -0.366 OA
BRANCH   4   5
ATOM      5  C   UNL A   1      40.627  20.912  26.647  1.00  0.00     0.188 C 
BRANCH   5   6
ATOM      6  C   UNL A   1      40.257  22.254  27.214  1.00  0.00    -0.003 C 
ATOM      7  C   UNL A   1      39.363  23.071  26.633  1.00  0.00    -0.029 C 
BRANCH   7   8
ATOM      8  C   UNL A   1      39.068  24.488  27.040  1.00  0.00     0.031 C 
BRANCH   8   9
ATOM      9  C   UNL A   1      40.054  25.551  26.469  1.00  0.00     0.031 C 
BRANCH   9  10
ATOM     10  C   UNL A   1      40.383  26.730  27.368  1.00  0.00    -0.031 C 
ATOM     11  C   UNL A   1      40.482  28.035  27.045  1.00  0.00    -0.027 C 
BRANCH  11  12
ATOM     12  C   UNL A   1      40.898  29.169  27.953  1.00  0.00     0.054 C 
BRANCH  12  13
ATOM     13  C   UNL A   1      42.322  29.048  28.464  1.00  0.00    -0.027 C 
ATOM     14  C   UNL A   1      43.224  28.141  28.030  1.00  0.00    -0.027 C 
BRANCH  14  15
ATOM     15  C   UNL A   1      44.688  28.116  28.403  1.00  0.00     0.054 C 
BRANCH  15  16
ATOM     16  C   UNL A   1      45.604  27.829  27.242  1.00  0.00    -0.027 C 
ATOM     17  C   UNL A   1      45.191  27.570  25.985  1.00  0.00    -0.027 C 
BRANCH  17  18
ATOM     18  C   UNL A   1      46.111  27.346  24.813  1.00  0.00     0.054 C 
BRANCH  18  19
ATOM     19  C   UNL A   1      47.528  27.096  25.254  1.00  0.00    -0.027 C 
ATOM     20  C   UNL A   1      48.471  26.489  24.512  1.00  0.00    -0.031 C 
BRANCH  20  21
ATOM     21  C   UNL A   1      49.891  26.302  24.968  1.00  0.00     0.023 C 
ATOM     22  C   UNL A   1      50.025  26.455  26.475  1.00  0.00     0.008 C 
ENDBRANCH  20  21
ENDBRANCH  18  19
ENDBRANCH  17  18
ENDBRANCH  15  16
ENDBRANCH  14  15
ENDBRANCH  12  13
ENDBRANCH  11  12
ENDBRANCH   9  10
ENDBRANCH   8   9
ENDBRANCH   7   8
ENDBRANCH   5   6
ENDBRANCH   4   5
ENDBRANCH   3   4
ENDBRANCH   1   3
BRANCH   1  23
ATOM     23  O   UNL A   1      43.784  22.582  23.832  1.00  0.00    -0.462 OA
BRANCH  23  24
ATOM     24  C   UNL A   1      44.951  21.786  24.139  1.00  0.00     0.261 C 
BRANCH  24  25
ATOM     25  C   UNL A   1      46.217  22.580  24.480  1.00  0.00     0.202 C 
BRANCH  25  26
ATOM     26  O   UNL A   1      46.526  22.697  25.861  1.00  0.00    -0.376 OA
BRANCH  26  27
ATOM     27  C   UNL A   1      46.178  23.933  26.461  1.00  0.00     0.188 C 
BRANCH  27  28
ATOM     28  C   UNL A   1      45.757  23.883  27.918  1.00  0.00     0.188 C 
BRANCH  28  29
ATOM     29  O   UNL A   1      44.788  22.894  28.207  1.00  0.00    -0.376 OA
BRANCH  29  30
ATOM     30  C   UNL A   1      43.736  23.279  29.095  1.00  0.00     0.202 C 
BRANCH  30  31
ATOM     31  C   UNL A   1      44.061  23.632  30.565  1.00  0.00     0.261 C 
BRANCH  31  32
ATOM     32  O   UNL A   1      44.123  25.040  30.890  1.00  0.00    -0.460 OA
BRANCH  32  33
ATOM     33  C   UNL A   1      44.450  25.382  32.166  1.00  0.00     0.338 C 
ATOM     34  O   UNL A   1      44.865  24.627  33.010  1.00  0.00    -0.246 OA
BRANCH  33  35
ATOM     35  C   UNL A   1      44.401  26.878  32.313  1.00  0.00     0.060 A 
ATOM     36  C   UNL A   1      43.282  27.549  31.804  1.00  0.00     0.016 A 
ATOM     37  C   UNL A   1      45.396  27.624  32.960  1.00  0.00     0.016 A 
ATOM     38  C   UNL A   1      43.174  28.946  31.903  1.00  0.00     0.010 A 
ATOM     39  C   UNL A   1      45.293  29.028  33.045  1.00  0.00     0.010 A 
ATOM     40  C   UNL A   1      44.191  29.708  32.500  1.00  0.00    -0.014 A 
BRANCH  40  41
ATOM     41  C   UNL A   1      44.161  31.204  32.414  1.00  0.00     0.031 A 
ATOM     42  C   UNL A   1      43.558  31.986  33.530  1.00  0.00     0.074 A 
ATOM     43  C   UNL A   1      44.693  31.905  31.393  1.00  0.00     0.049 A 
ATOM     44  N   UNL A   1      43.492  33.283  33.671  1.00  0.00    -0.248 NA
ATOM     45  C   UNL A   1      42.964  31.215  34.630  1.00  0.00     0.031 C 
ATOM     46  C   UNL A   1      45.345  31.290  30.266  1.00  0.00     0.029 A 
ATOM     47  N   UNL A   1      44.795  33.254  31.127  1.00  0.00    -0.354 N 
ATOM     48  C   UNL A   1      42.846  33.493  34.873  1.00  0.00     0.074 A 
ATOM     49  C   UNL A   1      42.534  32.186  35.421  1.00  0.00     0.031 C 
ATOM     50  C   UNL A   1      45.825  32.236  29.445  1.00  0.00     0.029 A 
ATOM     51  C   UNL A   1      45.417  33.538  29.929  1.00  0.00     0.049 A 
ATOM     52  H   UNL A   1      44.454  33.950  31.734  1.00  0.00     0.167 HD
ATOM     53  C   UNL A   1      42.540  34.666  35.469  1.00  0.00     0.034 A 
ATOM     54  C   UNL A   1      45.624  34.687  29.255  1.00  0.00     0.034 A 
ATOM     55  C   UNL A   1      42.798  35.968  34.916  1.00  0.00     0.049 A 
ATOM     56  C   UNL A   1      45.171  35.967  29.886  1.00  0.00     0.074 A 
ATOM     57  C   UNL A   1      42.495  37.202  35.464  1.00  0.00     0.029 A 
ATOM     58  N   UNL A   1      43.379  36.215  33.682  1.00  0.00    -0.354 N 
ATOM     59  N   UNL A   1      44.648  36.147  31.072  1.00  0.00    -0.248 NA
ATOM     60  C   UNL A   1      45.358  37.205  29.114  1.00  0.00     0.031 C 
ATOM     61  C   UNL A   1      42.859  38.194  34.547  1.00  0.00     0.029 A 
ATOM     62  C   UNL A   1      43.424  37.580  33.442  1.00  0.00     0.049 A 
ATOM     63  H   UNL A   1      43.713  35.523  33.067  1.00  0.00     0.167 HD
ATOM     64  C   UNL A   1      44.479  37.516  31.207  1.00  0.00     0.074 A 
ATOM     65  C   UNL A   1      44.973  38.124  29.989  1.00  0.00     0.031 C 
ATOM     66  C   UNL A   1      43.950  38.196  32.250  1.00  0.00     0.034 A 
BRANCH  53  67
ATOM     67  C   UNL A   1      41.853  34.569  36.796  1.00  0.00     0.023 A 
ATOM     68  C   UNL A   1      40.446  34.535  36.853  1.00  0.00     0.012 A 
ATOM     69  C   UNL A   1      42.606  34.532  37.983  1.00  0.00     0.148 A 
ATOM     70  C   UNL A   1      39.794  34.500  38.083  1.00  0.00     0.002 A 
ATOM     71  C   UNL A   1      41.949  34.456  39.201  1.00  0.00     0.091 A 
ATOM     72  F   UNL A   1      43.941  34.603  37.894  1.00  0.00    -0.205 F 
ATOM     73  C   UNL A   1      40.545  34.453  39.255  1.00  0.00     0.022 A 
BRANCH  71  74
ATOM     74  S   UNL A   1      42.829  34.337  40.759  1.00  0.00     0.127 S 
ATOM     75  O   UNL A   1      43.527  35.622  40.801  1.00  0.00    -0.237 OA
ATOM     76  O   UNL A   1      41.732  34.207  41.719  1.00  0.00    -0.237 OA
ATOM     77  O   UNL A   1      43.687  33.166  40.651  1.00  0.00    -0.744 OA
ENDBRANCH  71  74
ENDBRANCH  53  67
BRANCH  54  78
ATOM     78  C   UNL A   1      46.288  34.702  27.911  1.00  0.00     0.023 A 
ATOM     79  C   UNL A   1      45.501  34.674  26.742  1.00  0.00     0.012 A 
ATOM     80  C   UNL A   1      47.694  34.702  27.782  1.00  0.00     0.148 A 
ATOM     81  C   UNL A   1      46.095  34.602  25.479  1.00  0.00     0.002 A 
ATOM     82  C   UNL A   1      48.279  34.681  26.520  1.00  0.00     0.091 A 
ATOM     83  F   UNL A   1      48.434  34.713  28.900  1.00  0.00    -0.205 F 
ATOM     84  C   UNL A   1      47.482  34.612  25.368  1.00  0.00     0.022 A 
BRANCH  82  85
ATOM     85  S   UNL A   1      50.057  34.786  26.274  1.00  0.00     0.127 S 
ATOM     86  O   UNL A   1      50.162  34.719  24.819  1.00  0.00    -0.237 OA
ATOM     87  O   UNL A   1      50.366  36.094  26.852  1.00  0.00    -0.237 OA
ATOM     88  O   UNL A   1      50.621  33.659  27.004  1.00  0.00    -0.744 OA
ENDBRANCH  82  85
ENDBRANCH  54  78
BRANCH  66  89
ATOM     89  C   UNL A   1      43.912  39.696  32.149  1.00  0.00     0.023 A 
ATOM     90  C   UNL A   1      42.871  40.329  31.440  1.00  0.00     0.012 A 
ATOM     91  C   UNL A   1      44.879  40.479  32.807  1.00  0.00     0.148 A 
ATOM     92  C   UNL A   1      42.810  41.720  31.367  1.00  0.00     0.002 A 
ATOM     93  C   UNL A   1      44.781  41.865  32.774  1.00  0.00     0.091 A 
ATOM     94  F   UNL A   1      45.876  39.856  33.451  1.00  0.00    -0.205 F 
ATOM     95  C   UNL A   1      43.756  42.487  32.045  1.00  0.00     0.022 A 
BRANCH  93  96
ATOM     96  S   UNL A   1      45.896  42.928  33.696  1.00  0.00     0.127 S 
ATOM     97  O   UNL A   1      45.455  42.703  35.071  1.00  0.00    -0.237 OA
ATOM     98  O   UNL A   1      47.204  42.355  33.373  1.00  0.00    -0.237 OA
ATOM     99  O   UNL A   1      45.683  44.276  33.185  1.00  0.00    -0.744 OA
ENDBRANCH  93  96
ENDBRANCH  66  89
ENDBRANCH  40  41
ENDBRANCH  33  35
ENDBRANCH  32  33
ENDBRANCH  31  32
ENDBRANCH  30  31
ENDBRANCH  29  30
ENDBRANCH  28  29
ENDBRANCH  27  28
ENDBRANCH  26  27
ENDBRANCH  25  26
ENDBRANCH  24  25
ENDBRANCH  23  24
ENDBRANCH   1  23
TORSDOF 33
ENDMDL
MODEL 3
REMARK VINA RESULT:      -6.4      5.821     11.994
REMARK SMILES CC/C=C/C/C=C/C/C=C/C/C=C/CC/C=C/COCC(=O)OCCOCCOCCOC(=O)c1ccc(-c2c3nc(c(-c4cccc(S(=O)(=O)[O-])c4F)c4ccc([nH]4)c(-c4cccc(S(=O)(=O)[O-])c4F)c4nc(c(-c5cccc(S(=O)(=O)[O-])c5F)c5ccc2[nH]5)C=C4)C=C3)cc1
REMARK SMILES IDX 21 1 22 2 20 3 19 4 18 5 17 6 16 7 15 8 14 9 13 10 12 11
REMARK SMILES IDX 11 12 10 13 9 14 8 15 7 16 6 17 5 18 4 19 3 20 2 21 1 22
REMARK SMILES IDX 23 23 24 24 25 25 26 26 27 27 28 28 29 29 30 30 31 31 32 32
REMARK SMILES IDX 33 33 34 34 35 35 36 36 97 37 37 38 96 39 38 40 39 41 40 42
REMARK SMILES IDX 90 43 41 44 95 45 89 46 91 47 42 48 94 49 88 50 87 51 43 53
REMARK SMILES IDX 75 54 55 55 74 56 56 57 59 58 73 59 92 60 57 61 58 62 72 64
REMARK SMILES IDX 93 65 60 66 44 67 45 68 53 69 46 70 48 71 54 72 47 73 49 74
REMARK SMILES IDX 50 75 51 76 52 77 76 78 77 79 85 80 78 81 80 82 86 83 79 84
REMARK SMILES IDX 81 85 82 86 83 87 84 88 61 89 62 90 70 91 63 92 65 93 71 94
REMARK SMILES IDX 64 95 66 96 67 97 68 98 69 99
REMARK H PARENT 91 52 59 63
REMARK Flexibility Score: inf
ROOT
ATOM      1  C   UNL A   1      38.368  33.547  30.704  1.00  0.00     0.332 C 
ATOM      2  O   UNL A   1      39.250  33.795  29.886  1.00  0.00    -0.250 OA
ENDROOT
BRANCH   1   3
ATOM      3  C   UNL A   1      38.627  33.676  32.211  1.00  0.00     0.283 C 
BRANCH   3   4
ATOM      4  O   UNL A   1      37.690  33.401  33.235  1.00  0.00    -0.366 OA
BRANCH   4   5
ATOM      5  C   UNL A   1      37.787  34.197  34.416  1.00  0.00     0.188 C 
BRANCH   5   6
ATOM      6  C   UNL A   1      38.841  33.691  35.360  1.00  0.00    -0.003 C 
ATOM      7  C   UNL A   1      40.059  34.248  35.462  1.00  0.00    -0.029 C 
BRANCH   7   8
ATOM      8  C   UNL A   1      41.216  33.700  36.251  1.00  0.00     0.031 C 
BRANCH   8   9
ATOM      9  C   UNL A   1      41.949  32.497  35.585  1.00  0.00     0.031 C 
BRANCH   9  10
ATOM     10  C   UNL A   1      42.549  32.739  34.210  1.00  0.00    -0.031 C 
ATOM     11  C   UNL A   1      41.980  32.569  33.000  1.00  0.00    -0.027 C 
BRANCH  11  12
ATOM     12  C   UNL A   1      42.639  32.738  31.652  1.00  0.00     0.054 C 
BRANCH  12  13
ATOM     13  C   UNL A   1      42.853  34.188  31.257  1.00  0.00    -0.027 C 
ATOM     14  C   UNL A   1      44.056  34.758  31.033  1.00  0.00    -0.027 C 
BRANCH  14  15
ATOM     15  C   UNL A   1      44.278  36.145  30.477  1.00  0.00     0.054 C 
BRANCH  15  16
ATOM     16  C   UNL A   1      43.316  36.520  29.381  1.00  0.00    -0.027 C 
ATOM     17  C   UNL A   1      43.571  36.401  28.063  1.00  0.00    -0.027 C 
BRANCH  17  18
ATOM     18  C   UNL A   1      42.584  36.717  26.970  1.00  0.00     0.054 C 
BRANCH  18  19
ATOM     19  C   UNL A   1      42.078  38.130  27.065  1.00  0.00    -0.027 C 
ATOM     20  C   UNL A   1      42.772  39.224  26.704  1.00  0.00    -0.031 C 
BRANCH  20  21
ATOM     21  C   UNL A   1      42.213  40.618  26.766  1.00  0.00     0.023 C 
ATOM     22  C   UNL A   1      41.429  40.969  25.511  1.00  0.00     0.008 C 
ENDBRANCH  20  21
ENDBRANCH  18  19
ENDBRANCH  17  18
ENDBRANCH  15  16
ENDBRANCH  14  15
ENDBRANCH  12  13
ENDBRANCH  11  12
ENDBRANCH   9  10
ENDBRANCH   8   9
ENDBRANCH   7   8
ENDBRANCH   5   6
ENDBRANCH   4   5
ENDBRANCH   3   4
ENDBRANCH   1   3
BRANCH   1  23
ATOM     23  O   UNL A   1      37.137  33.054  30.387  1.00  0.00    -0.462 OA
BRANCH  23  24
ATOM     24  C   UNL A   1      36.396  33.836  29.422  1.00  0.00     0.261 C 
BRANCH  24  25
ATOM     25  C   UNL A   1      34.870  33.743  29.534  1.00  0.00     0.202 C 
BRANCH  25  26
ATOM     26  O   UNL A   1      34.217  32.986  28.524  1.00  0.00    -0.376 OA
BRANCH  26  27
ATOM     27  C   UNL A   1      34.991  31.955  27.938  1.00  0.00     0.188 C 
BRANCH  27  28
ATOM     28  C   UNL A   1      34.310  30.611  27.768  1.00  0.00     0.188 C 
BRANCH  28  29
ATOM     29  O   UNL A   1      35.189  29.504  27.827  1.00  0.00    -0.376 OA
BRANCH  29  30
ATOM     30  C   UNL A   1      36.551  29.795  28.152  1.00  0.00     0.202 C 
BRANCH  30  31
ATOM     31  C   UNL A   1      37.152  29.280  29.480  1.00  0.00     0.261 C 
BRANCH  31  32
ATOM     32  O   UNL A   1      36.394  29.560  30.680  1.00  0.00    -0.460 OA
BRANCH  32  33
ATOM     33  C   UNL A   1      37.087  29.849  31.815  1.00  0.00     0.338 C 
ATOM     34  O   UNL A   1      36.609  30.256  32.844  1.00  0.00    -0.246 OA
BRANCH  33  35
ATOM     35  C   UNL A   1      38.515  29.403  31.659  1.00  0.00     0.060 A 
ATOM     36  C   UNL A   1      38.860  28.134  32.142  1.00  0.00     0.016 A 
ATOM     37  C   UNL A   1      39.502  30.174  31.030  1.00  0.00     0.016 A 
ATOM     38  C   UNL A   1      40.177  27.656  32.034  1.00  0.00     0.010 A 
ATOM     39  C   UNL A   1      40.826  29.699  30.937  1.00  0.00     0.010 A 
ATOM     40  C   UNL A   1      41.185  28.444  31.455  1.00  0.00    -0.014 A 
BRANCH  40  41
ATOM     41  C   UNL A   1      42.617  28.011  31.533  1.00  0.00     0.031 A 
ATOM     42  C   UNL A   1      43.385  28.255  32.788  1.00  0.00     0.074 A 
ATOM     43  C   UNL A   1      43.258  27.362  30.541  1.00  0.00     0.049 A 
ATOM     44  N   UNL A   1      44.609  27.901  33.073  1.00  0.00    -0.248 NA
ATOM     45  C   UNL A   1      42.685  28.978  33.858  1.00  0.00     0.031 C 
ATOM     46  C   UNL A   1      42.635  27.020  29.289  1.00  0.00     0.029 A 
ATOM     47  N   UNL A   1      44.536  26.863  30.411  1.00  0.00    -0.354 N 
ATOM     48  C   UNL A   1      44.837  28.359  34.356  1.00  0.00     0.074 A 
ATOM     49  C   UNL A   1      43.624  29.023  34.792  1.00  0.00     0.031 C 
ATOM     50  C   UNL A   1      43.495  26.330  28.525  1.00  0.00     0.029 A 
ATOM     51  C   UNL A   1      44.780  26.273  29.188  1.00  0.00     0.049 A 
ATOM     52  H   UNL A   1      45.213  26.923  31.124  1.00  0.00     0.167 HD
ATOM     53  C   UNL A   1      45.956  28.237  35.105  1.00  0.00     0.034 A 
ATOM     54  C   UNL A   1      45.894  25.766  28.622  1.00  0.00     0.034 A 
ATOM     55  C   UNL A   1      47.182  27.626  34.669  1.00  0.00     0.049 A 
ATOM     56  C   UNL A   1      47.153  25.749  29.433  1.00  0.00     0.074 A 
ATOM     57  C   UNL A   1      48.362  27.486  35.377  1.00  0.00     0.029 A 
ATOM     58  N   UNL A   1      47.408  27.089  33.411  1.00  0.00    -0.354 N 
ATOM     59  N   UNL A   1      47.318  26.100  30.683  1.00  0.00    -0.248 NA
ATOM     60  C   UNL A   1      48.370  25.240  28.782  1.00  0.00     0.031 C 
ATOM     61  C   UNL A   1      49.314  26.899  34.536  1.00  0.00     0.029 A 
ATOM     62  C   UNL A   1      48.716  26.636  33.315  1.00  0.00     0.049 A 
ATOM     63  H   UNL A   1      46.738  27.034  32.691  1.00  0.00     0.167 HD
ATOM     64  C   UNL A   1      48.642  25.822  30.982  1.00  0.00     0.074 A 
ATOM     65  C   UNL A   1      49.234  25.253  29.788  1.00  0.00     0.031 C 
ATOM     66  C   UNL A   1      49.301  26.033  32.145  1.00  0.00     0.034 A 
BRANCH  53  67
ATOM     67  C   UNL A   1      45.890  28.820  36.482  1.00  0.00     0.023 A 
ATOM     68  C   UNL A   1      45.518  28.004  37.569  1.00  0.00     0.012 A 
ATOM     69  C   UNL A   1      46.177  30.180  36.691  1.00  0.00     0.148 A 
ATOM     70  C   UNL A   1      45.399  28.546  38.846  1.00  0.00     0.002 A 
ATOM     71  C   UNL A   1      46.096  30.703  37.973  1.00  0.00     0.091 A 
ATOM     72  F   UNL A   1      46.493  30.936  35.631  1.00  0.00    -0.205 F 
ATOM     73  C   UNL A   1      45.696  29.892  39.048  1.00  0.00     0.022 A 
BRANCH  71  74
ATOM     74  S   UNL A   1      46.511  32.408  38.342  1.00  0.00     0.127 S 
ATOM     75  O   UNL A   1      46.210  32.480  39.772  1.00  0.00    -0.237 OA
ATOM     76  O   UNL A   1      47.936  32.452  38.014  1.00  0.00    -0.237 OA
ATOM     77  O   UNL A   1      45.662  33.225  37.486  1.00  0.00    -0.744 OA
ENDBRANCH  71  74
ENDBRANCH  53  67
BRANCH  54  78
ATOM     78  C   UNL A   1      45.892  25.232  27.222  1.00  0.00     0.023 A 
ATOM     79  C   UNL A   1      46.297  26.061  26.156  1.00  0.00     0.012 A 
ATOM     80  C   UNL A   1      45.452  23.922  26.933  1.00  0.00     0.148 A 
ATOM     81  C   UNL A   1      46.224  25.616  24.833  1.00  0.00     0.002 A 
ATOM     82  C   UNL A   1      45.429  23.468  25.617  1.00  0.00     0.091 A 
ATOM     83  F   UNL A   1      45.054  23.147  27.951  1.00  0.00    -0.205 F 
ATOM     84  C   UNL A   1      45.797  24.319  24.565  1.00  0.00     0.022 A 
BRANCH  82  85
ATOM     85  S   UNL A   1      44.984  21.781  25.182  1.00  0.00     0.127 S 
ATOM     86  O   UNL A   1      46.159  21.037  25.627  1.00  0.00    -0.237 OA
ATOM     87  O   UNL A   1      43.781  21.567  25.986  1.00  0.00    -0.237 OA
ATOM     88  O   UNL A   1      44.749  21.796  23.744  1.00  0.00    -0.744 OA
ENDBRANCH  82  85
ENDBRANCH  54  78
BRANCH  66  89
ATOM     89  C   UNL A   1      50.742  25.607  32.209  1.00  0.00     0.023 A 
ATOM     90  C   UNL A   1      51.767  26.559  32.039  1.00  0.00     0.012 A 
ATOM     91  C   UNL A   1      51.077  24.271  32.498  1.00  0.00     0.148 A 
ATOM     92  C   UNL A   1      53.106  26.179  32.128  1.00  0.00     0.002 A 
ATOM     93  C   UNL A   1      52.412  23.911  32.638  1.00  0.00     0.091 A 
ATOM     94  F   UNL A   1      50.086  23.377  32.628  1.00  0.00    -0.205 F 
ATOM     95  C   UNL A   1      53.427  24.860  32.441  1.00  0.00     0.022 A 
BRANCH  93  96
ATOM     96  S   UNL A   1      52.914  22.260  33.134  1.00  0.00     0.127 S 
ATOM     97  O   UNL A   1      52.502  22.232  34.537  1.00  0.00    -0.237 OA
ATOM     98  O   UNL A   1      52.113  21.415  32.246  1.00  0.00    -0.237 OA
ATOM     99  O   UNL A   1      54.351  22.189  32.904  1.00  0.00    -0.744 OA
ENDBRANCH  93  96
ENDBRANCH  66  89
ENDBRANCH  40  41
ENDBRANCH  33  35
ENDBRANCH  32  33
ENDBRANCH  31  32
ENDBRANCH  30  31
ENDBRANCH  29  30
ENDBRANCH  28  29
ENDBRANCH  27  28
ENDBRANCH  26  27
ENDBRANCH  25  26
ENDBRANCH  24  25
ENDBRANCH  23  24
ENDBRANCH   1  23
TORSDOF 33
ENDMDL
