MODEL 1
REMARK VINA RESULT:     -11.1      0.000      0.000
REMARK SMILES O=C(OCCOCCOCCOC(=O)[C@H]1CS[C@]2(c3ccccc3)CCC(=O)N12)c1ccc(-c2c3nc(c(-c4cccc(S(=O)(=O)[O-])c4F)c4ccc([nH]4)c(-c4cccc(S(=O)(=O)[O-])c4F)c4nc(c(-c5cccc(S(=O)(=O)[O-])c5F)c5ccc2[nH]5)C=C4)C=C3)cc1
REMARK SMILES IDX 7 1 6 2 5 3 4 4 3 5 2 6 1 7 30 8 31 9 92 10 32 11 91 12
REMARK SMILES IDX 33 13 34 14 35 15 85 16 36 17 90 18 84 19 86 20 37 21 89 22
REMARK SMILES IDX 83 23 82 24 38 26 70 27 50 28 69 29 51 30 54 31 68 32 87 33
REMARK SMILES IDX 52 34 53 35 67 37 88 38 55 39 39 40 40 41 48 42 41 43 43 44
REMARK SMILES IDX 49 45 42 46 44 47 45 48 46 49 47 50 71 51 72 52 80 53 73 54
REMARK SMILES IDX 75 55 81 56 74 57 76 58 77 59 78 60 79 61 56 62 57 63 65 64
REMARK SMILES IDX 58 65 60 66 66 67 59 68 61 69 62 70 63 71 64 72 8 73 9 74
REMARK SMILES IDX 10 75 11 76 12 77 13 78 14 79 15 80 16 81 29 82 17 83 18 84
REMARK SMILES IDX 27 85 25 86 26 87 28 88 19 89 20 90 24 91 21 92 23 93 22 94
REMARK H PARENT 86 25 54 36
REMARK Flexibility Score: inf
ROOT
ATOM      1  C   UNL A   1      33.095  28.500  23.863  1.00  0.00     0.188 C 
ENDROOT
BRANCH   1   2
ATOM      2  O   UNL A   1      31.845  29.213  23.886  1.00  0.00    -0.376 OA
BRANCH   2   3
ATOM      3  C   UNL A   1      31.550  29.767  25.168  1.00  0.00     0.202 C 
BRANCH   3   4
ATOM      4  C   UNL A   1      32.806  30.101  25.986  1.00  0.00     0.261 C 
BRANCH   4   5
ATOM      5  O   UNL A   1      32.537  31.083  27.006  1.00  0.00    -0.460 OA
BRANCH   5   6
ATOM      6  C   UNL A   1      33.427  31.924  27.575  1.00  0.00     0.338 C 
ATOM      7  O   UNL A   1      33.200  33.131  27.586  1.00  0.00    -0.246 OA
BRANCH   6   8
ATOM      8  C   UNL A   1      34.770  31.424  28.001  1.00  0.00     0.060 A 
ATOM      9  C   UNL A   1      35.079  30.088  28.257  1.00  0.00     0.016 A 
ATOM     10  C   UNL A   1      35.797  32.377  28.146  1.00  0.00     0.016 A 
ATOM     11  C   UNL A   1      36.346  29.709  28.691  1.00  0.00     0.010 A 
ATOM     12  C   UNL A   1      37.080  32.003  28.563  1.00  0.00     0.010 A 
ATOM     13  C   UNL A   1      37.343  30.666  28.874  1.00  0.00    -0.014 A 
BRANCH  13  14
ATOM     14  C   UNL A   1      38.581  30.240  29.558  1.00  0.00     0.031 A 
ATOM     15  C   UNL A   1      38.778  30.654  30.987  1.00  0.00     0.074 A 
ATOM     16  C   UNL A   1      39.424  29.379  28.962  1.00  0.00     0.049 A 
ATOM     17  N   UNL A   1      39.692  30.270  31.836  1.00  0.00    -0.248 NA
ATOM     18  C   UNL A   1      37.796  31.602  31.544  1.00  0.00     0.031 C 
ATOM     19  C   UNL A   1      39.288  28.880  27.593  1.00  0.00     0.029 A 
ATOM     20  N   UNL A   1      40.546  28.753  29.438  1.00  0.00    -0.354 N 
ATOM     21  C   UNL A   1      39.397  30.926  33.024  1.00  0.00     0.074 A 
ATOM     22  C   UNL A   1      38.232  31.747  32.785  1.00  0.00     0.031 C 
ATOM     23  C   UNL A   1      40.288  28.020  27.340  1.00  0.00     0.029 A 
ATOM     24  C   UNL A   1      41.143  27.919  28.522  1.00  0.00     0.049 A 
ATOM     25  H   UNL A   1      40.891  28.887  30.351  1.00  0.00     0.167 HD
ATOM     26  C   UNL A   1      40.029  30.837  34.216  1.00  0.00     0.034 A 
ATOM     27  C   UNL A   1      42.257  27.168  28.633  1.00  0.00     0.034 A 
ATOM     28  C   UNL A   1      41.191  30.028  34.446  1.00  0.00     0.049 A 
ATOM     29  C   UNL A   1      42.979  27.144  29.955  1.00  0.00     0.074 A 
ATOM     30  C   UNL A   1      41.938  29.900  35.601  1.00  0.00     0.029 A 
ATOM     31  N   UNL A   1      41.783  29.217  33.489  1.00  0.00    -0.354 N 
ATOM     32  N   UNL A   1      42.643  27.707  31.092  1.00  0.00    -0.248 NA
ATOM     33  C   UNL A   1      44.223  26.361  30.019  1.00  0.00     0.031 C 
ATOM     34  C   UNL A   1      42.993  29.019  35.339  1.00  0.00     0.029 A 
ATOM     35  C   UNL A   1      42.892  28.589  34.024  1.00  0.00     0.049 A 
ATOM     36  H   UNL A   1      41.461  29.104  32.566  1.00  0.00     0.167 HD
ATOM     37  C   UNL A   1      43.616  27.330  32.008  1.00  0.00     0.074 A 
ATOM     38  C   UNL A   1      44.537  26.461  31.304  1.00  0.00     0.031 C 
ATOM     39  C   UNL A   1      43.757  27.687  33.309  1.00  0.00     0.034 A 
BRANCH  26  40
ATOM     40  C   UNL A   1      39.453  31.629  35.354  1.00  0.00     0.023 A 
ATOM     41  C   UNL A   1      38.458  31.049  36.166  1.00  0.00     0.012 A 
ATOM     42  C   UNL A   1      39.891  32.939  35.619  1.00  0.00     0.148 A 
ATOM     43  C   UNL A   1      37.888  31.772  37.213  1.00  0.00     0.002 A 
ATOM     44  C   UNL A   1      39.340  33.644  36.682  1.00  0.00     0.091 A 
ATOM     45  F   UNL A   1      40.817  33.478  34.813  1.00  0.00    -0.205 F 
ATOM     46  C   UNL A   1      38.334  33.065  37.475  1.00  0.00     0.022 A 
BRANCH  44  47
ATOM     47  S   UNL A   1      39.869  35.301  37.127  1.00  0.00     0.127 S 
ATOM     48  O   UNL A   1      39.588  36.040  35.896  1.00  0.00    -0.237 OA
ATOM     49  O   UNL A   1      38.979  35.615  38.244  1.00  0.00    -0.237 OA
ATOM     50  O   UNL A   1      41.277  35.193  37.479  1.00  0.00    -0.744 OA
ENDBRANCH  44  47
ENDBRANCH  26  40
BRANCH  27  51
ATOM     51  C   UNL A   1      42.745  26.362  27.478  1.00  0.00     0.023 A 
ATOM     52  C   UNL A   1      43.621  26.936  26.536  1.00  0.00     0.012 A 
ATOM     53  C   UNL A   1      42.337  25.026  27.301  1.00  0.00     0.148 A 
ATOM     54  C   UNL A   1      44.052  26.205  25.425  1.00  0.00     0.002 A 
ATOM     55  C   UNL A   1      42.817  24.286  26.227  1.00  0.00     0.091 A 
ATOM     56  F   UNL A   1      41.479  24.498  28.187  1.00  0.00    -0.205 F 
ATOM     57  C   UNL A   1      43.659  24.878  25.276  1.00  0.00     0.022 A 
BRANCH  55  58
ATOM     58  S   UNL A   1      42.465  22.532  26.075  1.00  0.00     0.127 S 
ATOM     59  O   UNL A   1      41.007  22.513  26.098  1.00  0.00    -0.237 OA
ATOM     60  O   UNL A   1      43.068  22.206  24.781  1.00  0.00    -0.237 OA
ATOM     61  O   UNL A   1      43.143  21.922  27.212  1.00  0.00    -0.744 OA
ENDBRANCH  55  58
ENDBRANCH  27  51
BRANCH  39  62
ATOM     62  C   UNL A   1      44.940  27.132  34.055  1.00  0.00     0.023 A 
ATOM     63  C   UNL A   1      46.188  27.778  33.950  1.00  0.00     0.012 A 
ATOM     64  C   UNL A   1      44.798  26.033  34.921  1.00  0.00     0.148 A 
ATOM     65  C   UNL A   1      47.285  27.319  34.676  1.00  0.00     0.002 A 
ATOM     66  C   UNL A   1      45.884  25.609  35.677  1.00  0.00     0.091 A 
ATOM     67  F   UNL A   1      43.607  25.418  34.989  1.00  0.00    -0.205 F 
ATOM     68  C   UNL A   1      47.130  26.245  35.549  1.00  0.00     0.022 A 
BRANCH  66  69
ATOM     69  S   UNL A   1      45.738  24.296  36.894  1.00  0.00     0.127 S 
ATOM     70  O   UNL A   1      44.466  24.623  37.535  1.00  0.00    -0.237 OA
ATOM     71  O   UNL A   1      45.711  23.094  36.061  1.00  0.00    -0.237 OA
ATOM     72  O   UNL A   1      46.920  24.412  37.738  1.00  0.00    -0.744 OA
ENDBRANCH  66  69
ENDBRANCH  39  62
ENDBRANCH  13  14
ENDBRANCH   6   8
ENDBRANCH   5   6
ENDBRANCH   4   5
ENDBRANCH   3   4
ENDBRANCH   2   3
ENDBRANCH   1   2
BRANCH   1  73
ATOM     73  C   UNL A   1      33.718  28.612  22.473  1.00  0.00     0.188 C 
BRANCH  73  74
ATOM     74  O   UNL A   1      33.999  27.312  21.943  1.00  0.00    -0.376 OA
BRANCH  74  75
ATOM     75  C   UNL A   1      32.871  26.596  21.439  1.00  0.00     0.202 C 
BRANCH  75  76
ATOM     76  C   UNL A   1      32.505  25.343  22.242  1.00  0.00     0.261 C 
BRANCH  76  77
ATOM     77  O   UNL A   1      33.090  24.139  21.708  1.00  0.00    -0.462 OA
BRANCH  77  78
ATOM     78  C   UNL A   1      33.812  23.369  22.574  1.00  0.00     0.329 C 
ATOM     79  O   UNL A   1      35.010  23.154  22.453  1.00  0.00    -0.250 OA
BRANCH  78  80
ATOM     80  C   UNL A   1      32.910  22.888  23.714  1.00  0.00     0.206 C 
ATOM     81  C   UNL A   1      32.323  21.493  23.484  1.00  0.00     0.109 C 
ATOM     82  N   UNL A   1      33.494  22.939  25.059  1.00  0.00    -0.309 N 
ATOM     83  S   UNL A   1      32.886  20.413  24.843  1.00  0.00    -0.126 SA
ATOM     84  C   UNL A   1      33.916  21.683  25.667  1.00  0.00     0.116 C 
ATOM     85  C   UNL A   1      32.810  23.752  25.960  1.00  0.00     0.224 C 
ATOM     86  C   UNL A   1      33.470  21.838  27.142  1.00  0.00     0.055 C 
ATOM     87  C   UNL A   1      32.409  22.921  27.142  1.00  0.00     0.104 C 
ATOM     88  O   UNL A   1      32.430  24.888  25.730  1.00  0.00    -0.275 OA
BRANCH  84  89
ATOM     89  C   UNL A   1      35.422  21.387  25.490  1.00  0.00    -0.012 A 
ATOM     90  C   UNL A   1      36.396  22.362  25.784  1.00  0.00     0.007 A 
ATOM     91  C   UNL A   1      35.920  20.158  25.006  1.00  0.00     0.007 A 
ATOM     92  C   UNL A   1      37.769  22.121  25.645  1.00  0.00     0.000 A 
ATOM     93  C   UNL A   1      37.293  19.913  24.856  1.00  0.00     0.000 A 
ATOM     94  C   UNL A   1      38.219  20.892  25.183  1.00  0.00     0.000 A 
ENDBRANCH  84  89
ENDBRANCH  78  80
ENDBRANCH  77  78
ENDBRANCH  76  77
ENDBRANCH  75  76
ENDBRANCH  74  75
ENDBRANCH  73  74
ENDBRANCH   1  73
TORSDOF 21
ENDMDL
MODEL 2
REMARK VINA RESULT:     -10.7      3.475      9.232
REMARK SMILES O=C(OCCOCCOCCOC(=O)[C@H]1CS[C@]2(c3ccccc3)CCC(=O)N12)c1ccc(-c2c3nc(c(-c4cccc(S(=O)(=O)[O-])c4F)c4ccc([nH]4)c(-c4cccc(S(=O)(=O)[O-])c4F)c4nc(c(-c5cccc(S(=O)(=O)[O-])c5F)c5ccc2[nH]5)C=C4)C=C3)cc1
REMARK SMILES IDX 7 1 6 2 5 3 4 4 3 5 2 6 1 7 30 8 31 9 92 10 32 11 91 12
REMARK SMILES IDX 33 13 34 14 35 15 85 16 36 17 90 18 84 19 86 20 37 21 89 22
REMARK SMILES IDX 83 23 82 24 38 26 70 27 50 28 69 29 51 30 54 31 68 32 87 33
REMARK SMILES IDX 52 34 53 35 67 37 88 38 55 39 39 40 40 41 48 42 41 43 43 44
REMARK SMILES IDX 49 45 42 46 44 47 45 48 46 49 47 50 71 51 72 52 80 53 73 54
REMARK SMILES IDX 75 55 81 56 74 57 76 58 77 59 78 60 79 61 56 62 57 63 65 64
REMARK SMILES IDX 58 65 60 66 66 67 59 68 61 69 62 70 63 71 64 72 8 73 9 74
REMARK SMILES IDX 10 75 11 76 12 77 13 78 14 79 15 80 16 81 29 82 17 83 18 84
REMARK SMILES IDX 27 85 25 86 26 87 28 88 19 89 20 90 24 91 21 92 23 93 22 94
REMARK H PARENT 86 25 54 36
REMARK Flexibility Score: inf
ROOT
ATOM      1  C   UNL A   1      33.852  33.602  28.269  1.00  0.00     0.188 C 
ENDROOT
BRANCH   1   2
ATOM      2  O   UNL A   1      34.728  34.744  28.255  1.00  0.00    -0.376 OA
BRANCH   2   3
ATOM      3  C   UNL A   1      34.021  35.981  28.323  1.00  0.00     0.202 C 
BRANCH   3   4
ATOM      4  C   UNL A   1      32.677  35.871  29.059  1.00  0.00     0.261 C 
BRANCH   4   5
ATOM      5  O   UNL A   1      32.733  36.467  30.370  1.00  0.00    -0.460 OA
BRANCH   5   6
ATOM      6  C   UNL A   1      32.716  35.819  31.555  1.00  0.00     0.338 C 
ATOM      7  O   UNL A   1      31.854  36.094  32.385  1.00  0.00    -0.246 OA
BRANCH   6   8
ATOM      8  C   UNL A   1      33.853  34.927  31.942  1.00  0.00     0.060 A 
ATOM      9  C   UNL A   1      33.715  33.635  32.449  1.00  0.00     0.016 A 
ATOM     10  C   UNL A   1      35.156  35.434  31.773  1.00  0.00     0.016 A 
ATOM     11  C   UNL A   1      34.825  32.884  32.825  1.00  0.00     0.010 A 
ATOM     12  C   UNL A   1      36.279  34.678  32.130  1.00  0.00     0.010 A 
ATOM     13  C   UNL A   1      36.109  33.411  32.695  1.00  0.00    -0.014 A 
BRANCH  13  14
ATOM     14  C   UNL A   1      37.220  32.670  33.328  1.00  0.00     0.031 A 
ATOM     15  C   UNL A   1      37.812  31.511  32.582  1.00  0.00     0.074 A 
ATOM     16  C   UNL A   1      37.778  33.124  34.464  1.00  0.00     0.049 A 
ATOM     17  N   UNL A   1      38.886  30.820  32.854  1.00  0.00    -0.248 NA
ATOM     18  C   UNL A   1      37.122  31.095  31.348  1.00  0.00     0.031 C 
ATOM     19  C   UNL A   1      37.303  34.274  35.234  1.00  0.00     0.029 A 
ATOM     20  N   UNL A   1      38.878  32.689  35.154  1.00  0.00    -0.354 N 
ATOM     21  C   UNL A   1      39.000  29.890  31.829  1.00  0.00     0.074 A 
ATOM     22  C   UNL A   1      37.880  30.090  30.938  1.00  0.00     0.031 C 
ATOM     23  C   UNL A   1      38.112  34.456  36.291  1.00  0.00     0.029 A 
ATOM     24  C   UNL A   1      39.151  33.428  36.281  1.00  0.00     0.049 A 
ATOM     25  H   UNL A   1      39.424  31.919  34.869  1.00  0.00     0.167 HD
ATOM     26  C   UNL A   1      39.966  28.964  31.635  1.00  0.00     0.034 A 
ATOM     27  C   UNL A   1      40.128  33.280  37.198  1.00  0.00     0.034 A 
ATOM     28  C   UNL A   1      41.071  28.763  32.527  1.00  0.00     0.049 A 
ATOM     29  C   UNL A   1      41.151  32.192  36.990  1.00  0.00     0.074 A 
ATOM     30  C   UNL A   1      42.081  27.823  32.451  1.00  0.00     0.029 A 
ATOM     31  N   UNL A   1      41.302  29.512  33.671  1.00  0.00    -0.354 N 
ATOM     32  N   UNL A   1      41.292  31.373  35.974  1.00  0.00    -0.248 NA
ATOM     33  C   UNL A   1      42.164  32.023  38.041  1.00  0.00     0.031 C 
ATOM     34  C   UNL A   1      42.917  27.995  33.559  1.00  0.00     0.029 A 
ATOM     35  C   UNL A   1      42.434  29.053  34.316  1.00  0.00     0.049 A 
ATOM     36  H   UNL A   1      40.742  30.262  33.978  1.00  0.00     0.167 HD
ATOM     37  C   UNL A   1      42.418  30.610  36.253  1.00  0.00     0.074 A 
ATOM     38  C   UNL A   1      42.944  31.087  37.516  1.00  0.00     0.031 C 
ATOM     39  C   UNL A   1      42.960  29.587  35.545  1.00  0.00     0.034 A 
BRANCH  26  40
ATOM     40  C   UNL A   1      39.862  28.119  30.399  1.00  0.00     0.023 A 
ATOM     41  C   UNL A   1      38.932  27.059  30.362  1.00  0.00     0.012 A 
ATOM     42  C   UNL A   1      40.678  28.366  29.280  1.00  0.00     0.148 A 
ATOM     43  C   UNL A   1      38.833  26.243  29.236  1.00  0.00     0.002 A 
ATOM     44  C   UNL A   1      40.554  27.567  28.151  1.00  0.00     0.091 A 
ATOM     45  F   UNL A   1      41.574  29.361  29.352  1.00  0.00    -0.205 F 
ATOM     46  C   UNL A   1      39.638  26.501  28.130  1.00  0.00     0.022 A 
BRANCH  44  47
ATOM     47  S   UNL A   1      41.517  27.837  26.660  1.00  0.00     0.127 S 
ATOM     48  O   UNL A   1      42.883  27.674  27.157  1.00  0.00    -0.237 OA
ATOM     49  O   UNL A   1      41.049  26.756  25.794  1.00  0.00    -0.237 OA
ATOM     50  O   UNL A   1      41.180  29.176  26.200  1.00  0.00    -0.744 OA
ENDBRANCH  44  47
ENDBRANCH  26  40
BRANCH  27  51
ATOM     51  C   UNL A   1      40.205  34.188  38.377  1.00  0.00     0.023 A 
ATOM     52  C   UNL A   1      41.043  35.320  38.343  1.00  0.00     0.012 A 
ATOM     53  C   UNL A   1      39.458  33.930  39.541  1.00  0.00     0.148 A 
ATOM     54  C   UNL A   1      41.158  36.156  39.457  1.00  0.00     0.002 A 
ATOM     55  C   UNL A   1      39.531  34.799  40.624  1.00  0.00     0.091 A 
ATOM     56  F   UNL A   1      38.686  32.834  39.575  1.00  0.00    -0.205 F 
ATOM     57  C   UNL A   1      40.395  35.902  40.593  1.00  0.00     0.022 A 
BRANCH  55  58
ATOM     58  S   UNL A   1      38.455  34.603  42.048  1.00  0.00     0.127 S 
ATOM     59  O   UNL A   1      38.855  33.294  42.552  1.00  0.00    -0.237 OA
ATOM     60  O   UNL A   1      38.844  35.736  42.890  1.00  0.00    -0.237 OA
ATOM     61  O   UNL A   1      37.106  34.706  41.505  1.00  0.00    -0.744 OA
ENDBRANCH  55  58
ENDBRANCH  27  51
BRANCH  39  62
ATOM     62  C   UNL A   1      44.185  28.924  36.115  1.00  0.00     0.023 A 
ATOM     63  C   UNL A   1      45.457  29.446  35.810  1.00  0.00     0.012 A 
ATOM     64  C   UNL A   1      44.073  27.848  37.014  1.00  0.00     0.148 A 
ATOM     65  C   UNL A   1      46.604  28.887  36.371  1.00  0.00     0.002 A 
ATOM     66  C   UNL A   1      45.216  27.326  37.606  1.00  0.00     0.091 A 
ATOM     67  F   UNL A   1      42.854  27.351  37.272  1.00  0.00    -0.205 F 
ATOM     68  C   UNL A   1      46.483  27.837  37.278  1.00  0.00     0.022 A 
BRANCH  66  69
ATOM     69  S   UNL A   1      45.134  26.039  38.857  1.00  0.00     0.127 S 
ATOM     70  O   UNL A   1      46.545  25.862  39.195  1.00  0.00    -0.237 OA
ATOM     71  O   UNL A   1      44.329  26.667  39.904  1.00  0.00    -0.237 OA
ATOM     72  O   UNL A   1      44.491  24.903  38.208  1.00  0.00    -0.744 OA
ENDBRANCH  66  69
ENDBRANCH  39  62
ENDBRANCH  13  14
ENDBRANCH   6   8
ENDBRANCH   5   6
ENDBRANCH   4   5
ENDBRANCH   3   4
ENDBRANCH   2   3
ENDBRANCH   1   2
BRANCH   1  73
ATOM     73  C   UNL A   1      34.522  32.458  29.027  1.00  0.00     0.188 C 
BRANCH  73  74
ATOM     74  O   UNL A   1      34.401  31.233  28.297  1.00  0.00    -0.376 OA
BRANCH  74  75
ATOM     75  C   UNL A   1      33.299  31.161  27.393  1.00  0.00     0.202 C 
BRANCH  75  76
ATOM     76  C   UNL A   1      33.313  29.937  26.471  1.00  0.00     0.261 C 
BRANCH  76  77
ATOM     77  O   UNL A   1      31.994  29.439  26.173  1.00  0.00    -0.462 OA
BRANCH  77  78
ATOM     78  C   UNL A   1      31.664  28.220  26.693  1.00  0.00     0.329 C 
ATOM     79  O   UNL A   1      31.191  28.064  27.810  1.00  0.00    -0.250 OA
BRANCH  78  80
ATOM     80  C   UNL A   1      31.921  27.128  25.652  1.00  0.00     0.206 C 
ATOM     81  C   UNL A   1      31.025  25.898  25.818  1.00  0.00     0.109 C 
ATOM     82  N   UNL A   1      31.880  27.556  24.249  1.00  0.00    -0.309 N 
ATOM     83  S   UNL A   1      30.050  25.700  24.288  1.00  0.00    -0.126 SA
ATOM     84  C   UNL A   1      30.710  27.194  23.459  1.00  0.00     0.116 C 
ATOM     85  C   UNL A   1      33.066  27.360  23.545  1.00  0.00     0.224 C 
ATOM     86  C   UNL A   1      31.315  26.805  22.089  1.00  0.00     0.055 C 
ATOM     87  C   UNL A   1      32.776  26.498  22.354  1.00  0.00     0.104 C 
ATOM     88  O   UNL A   1      34.177  27.668  23.944  1.00  0.00    -0.275 OA
BRANCH  84  89
ATOM     89  C   UNL A   1      29.645  28.312  23.386  1.00  0.00    -0.012 A 
ATOM     90  C   UNL A   1      30.004  29.669  23.503  1.00  0.00     0.007 A 
ATOM     91  C   UNL A   1      28.266  28.060  23.227  1.00  0.00     0.007 A 
ATOM     92  C   UNL A   1      29.064  30.706  23.430  1.00  0.00     0.000 A 
ATOM     93  C   UNL A   1      27.319  29.092  23.161  1.00  0.00     0.000 A 
ATOM     94  C   UNL A   1      27.719  30.418  23.255  1.00  0.00     0.000 A 
ENDBRANCH  84  89
ENDBRANCH  78  80
ENDBRANCH  77  78
ENDBRANCH  76  77
ENDBRANCH  75  76
ENDBRANCH  74  75
ENDBRANCH  73  74
ENDBRANCH   1  73
TORSDOF 21
ENDMDL
MODEL 3
REMARK VINA RESULT:     -10.7      1.973      3.170
REMARK SMILES O=C(OCCOCCOCCOC(=O)[C@H]1CS[C@]2(c3ccccc3)CCC(=O)N12)c1ccc(-c2c3nc(c(-c4cccc(S(=O)(=O)[O-])c4F)c4ccc([nH]4)c(-c4cccc(S(=O)(=O)[O-])c4F)c4nc(c(-c5cccc(S(=O)(=O)[O-])c5F)c5ccc2[nH]5)C=C4)C=C3)cc1
REMARK SMILES IDX 7 1 6 2 5 3 4 4 3 5 2 6 1 7 30 8 31 9 92 10 32 11 91 12
REMARK SMILES IDX 33 13 34 14 35 15 85 16 36 17 90 18 84 19 86 20 37 21 89 22
REMARK SMILES IDX 83 23 82 24 38 26 70 27 50 28 69 29 51 30 54 31 68 32 87 33
REMARK SMILES IDX 52 34 53 35 67 37 88 38 55 39 39 40 40 41 48 42 41 43 43 44
REMARK SMILES IDX 49 45 42 46 44 47 45 48 46 49 47 50 71 51 72 52 80 53 73 54
REMARK SMILES IDX 75 55 81 56 74 57 76 58 77 59 78 60 79 61 56 62 57 63 65 64
REMARK SMILES IDX 58 65 60 66 66 67 59 68 61 69 62 70 63 71 64 72 8 73 9 74
REMARK SMILES IDX 10 75 11 76 12 77 13 78 14 79 15 80 16 81 29 82 17 83 18 84
REMARK SMILES IDX 27 85 25 86 26 87 28 88 19 89 20 90 24 91 21 92 23 93 22 94
REMARK H PARENT 86 25 54 36
REMARK Flexibility Score: inf
ROOT
ATOM      1  C   UNL A   1      32.271  28.350  27.166  1.00  0.00     0.188 C 
ENDROOT
BRANCH   1   2
ATOM      2  O   UNL A   1      31.621  29.623  27.324  1.00  0.00    -0.376 OA
BRANCH   2   3
ATOM      3  C   UNL A   1      32.442  30.716  26.916  1.00  0.00     0.202 C 
BRANCH   3   4
ATOM      4  C   UNL A   1      31.726  32.073  26.992  1.00  0.00     0.261 C 
BRANCH   4   5
ATOM      5  O   UNL A   1      32.659  33.172  27.009  1.00  0.00    -0.460 OA
BRANCH   5   6
ATOM      6  C   UNL A   1      33.087  33.853  28.094  1.00  0.00     0.338 C 
ATOM      7  O   UNL A   1      32.548  34.915  28.395  1.00  0.00    -0.246 OA
BRANCH   6   8
ATOM      8  C   UNL A   1      34.336  33.435  28.802  1.00  0.00     0.060 A 
ATOM      9  C   UNL A   1      35.603  33.967  28.564  1.00  0.00     0.016 A 
ATOM     10  C   UNL A   1      34.215  32.434  29.785  1.00  0.00     0.016 A 
ATOM     11  C   UNL A   1      36.724  33.493  29.238  1.00  0.00     0.010 A 
ATOM     12  C   UNL A   1      35.335  31.965  30.483  1.00  0.00     0.010 A 
ATOM     13  C   UNL A   1      36.601  32.471  30.178  1.00  0.00    -0.014 A 
BRANCH  13  14
ATOM     14  C   UNL A   1      37.844  31.850  30.680  1.00  0.00     0.031 A 
ATOM     15  C   UNL A   1      38.291  32.187  32.073  1.00  0.00     0.074 A 
ATOM     16  C   UNL A   1      38.463  30.895  29.964  1.00  0.00     0.049 A 
ATOM     17  N   UNL A   1      39.244  31.649  32.783  1.00  0.00    -0.248 NA
ATOM     18  C   UNL A   1      37.543  33.248  32.770  1.00  0.00     0.031 C 
ATOM     19  C   UNL A   1      38.071  30.464  28.621  1.00  0.00     0.029 A 
ATOM     20  N   UNL A   1      39.534  30.100  30.273  1.00  0.00    -0.354 N 
ATOM     21  C   UNL A   1      39.213  32.304  34.007  1.00  0.00     0.074 A 
ATOM     22  C   UNL A   1      38.160  33.291  33.941  1.00  0.00     0.031 C 
ATOM     23  C   UNL A   1      38.891  29.476  28.224  1.00  0.00     0.029 A 
ATOM     24  C   UNL A   1      39.873  29.218  29.275  1.00  0.00     0.049 A 
ATOM     25  H   UNL A   1      40.016  30.154  31.131  1.00  0.00     0.167 HD
ATOM     26  C   UNL A   1      39.980  32.087  35.099  1.00  0.00     0.034 A 
ATOM     27  C   UNL A   1      40.869  28.310  29.222  1.00  0.00     0.034 A 
ATOM     28  C   UNL A   1      41.031  31.113  35.157  1.00  0.00     0.049 A 
ATOM     29  C   UNL A   1      41.753  28.142  30.432  1.00  0.00     0.074 A 
ATOM     30  C   UNL A   1      41.900  30.843  36.197  1.00  0.00     0.029 A 
ATOM     31  N   UNL A   1      41.363  30.255  34.120  1.00  0.00    -0.354 N 
ATOM     32  N   UNL A   1      41.659  28.712  31.610  1.00  0.00    -0.248 NA
ATOM     33  C   UNL A   1      42.865  27.187  30.315  1.00  0.00     0.031 C 
ATOM     34  C   UNL A   1      42.769  29.828  35.782  1.00  0.00     0.029 A 
ATOM     35  C   UNL A   1      42.429  29.458  34.489  1.00  0.00     0.049 A 
ATOM     36  H   UNL A   1      40.905  30.219  33.248  1.00  0.00     0.167 HD
ATOM     37  C   UNL A   1      42.682  28.170  32.379  1.00  0.00     0.074 A 
ATOM     38  C   UNL A   1      43.361  27.200  31.545  1.00  0.00     0.031 C 
ATOM     39  C   UNL A   1      43.047  28.463  33.652  1.00  0.00     0.034 A 
BRANCH  26  40
ATOM     40  C   UNL A   1      39.686  32.919  36.315  1.00  0.00     0.023 A 
ATOM     41  C   UNL A   1      40.303  34.179  36.456  1.00  0.00     0.012 A 
ATOM     42  C   UNL A   1      38.807  32.459  37.312  1.00  0.00     0.148 A 
ATOM     43  C   UNL A   1      40.068  34.959  37.587  1.00  0.00     0.002 A 
ATOM     44  C   UNL A   1      38.555  33.254  38.423  1.00  0.00     0.091 A 
ATOM     45  F   UNL A   1      38.257  31.245  37.167  1.00  0.00    -0.205 F 
ATOM     46  C   UNL A   1      39.189  34.500  38.566  1.00  0.00     0.022 A 
BRANCH  44  47
ATOM     47  S   UNL A   1      37.413  32.773  39.722  1.00  0.00     0.127 S 
ATOM     48  O   UNL A   1      38.034  31.547  40.221  1.00  0.00    -0.237 OA
ATOM     49  O   UNL A   1      37.491  33.913  40.635  1.00  0.00    -0.237 OA
ATOM     50  O   UNL A   1      36.121  32.596  39.076  1.00  0.00    -0.744 OA
ENDBRANCH  44  47
ENDBRANCH  26  40
BRANCH  27  51
ATOM     51  C   UNL A   1      41.074  27.479  28.002  1.00  0.00     0.023 A 
ATOM     52  C   UNL A   1      41.749  28.013  26.888  1.00  0.00     0.012 A 
ATOM     53  C   UNL A   1      40.591  26.158  27.936  1.00  0.00     0.148 A 
ATOM     54  C   UNL A   1      41.909  27.259  25.722  1.00  0.00     0.002 A 
ATOM     55  C   UNL A   1      40.806  25.393  26.795  1.00  0.00     0.091 A 
ATOM     56  F   UNL A   1      39.923  25.668  28.992  1.00  0.00    -0.205 F 
ATOM     57  C   UNL A   1      41.448  25.946  25.679  1.00  0.00     0.022 A 
BRANCH  55  58
ATOM     58  S   UNL A   1      40.370  23.652  26.747  1.00  0.00     0.127 S 
ATOM     59  O   UNL A   1      39.124  23.673  25.989  1.00  0.00    -0.237 OA
ATOM     60  O   UNL A   1      41.513  23.065  26.046  1.00  0.00    -0.237 OA
ATOM     61  O   UNL A   1      40.272  23.259  28.148  1.00  0.00    -0.744 OA
ENDBRANCH  55  58
ENDBRANCH  27  51
BRANCH  39  62
ATOM     62  C   UNL A   1      44.226  27.721  34.221  1.00  0.00     0.023 A 
ATOM     63  C   UNL A   1      45.512  28.290  34.126  1.00  0.00     0.012 A 
ATOM     64  C   UNL A   1      44.051  26.513  34.920  1.00  0.00     0.148 A 
ATOM     65  C   UNL A   1      46.611  27.651  34.697  1.00  0.00     0.002 A 
ATOM     66  C   UNL A   1      45.143  25.905  35.525  1.00  0.00     0.091 A 
ATOM     67  F   UNL A   1      42.822  25.977  34.978  1.00  0.00    -0.205 F 
ATOM     68  C   UNL A   1      46.426  26.467  35.407  1.00  0.00     0.022 A 
BRANCH  66  69
ATOM     69  S   UNL A   1      44.969  24.432  36.539  1.00  0.00     0.127 S 
ATOM     70  O   UNL A   1      46.347  24.201  36.969  1.00  0.00    -0.237 OA
ATOM     71  O   UNL A   1      44.066  24.882  37.598  1.00  0.00    -0.237 OA
ATOM     72  O   UNL A   1      44.403  23.417  35.660  1.00  0.00    -0.744 OA
ENDBRANCH  66  69
ENDBRANCH  39  62
ENDBRANCH  13  14
ENDBRANCH   6   8
ENDBRANCH   5   6
ENDBRANCH   4   5
ENDBRANCH   3   4
ENDBRANCH   2   3
ENDBRANCH   1   2
BRANCH   1  73
ATOM     73  C   UNL A   1      32.137  27.888  25.716  1.00  0.00     0.188 C 
BRANCH  73  74
ATOM     74  O   UNL A   1      30.760  27.846  25.328  1.00  0.00    -0.376 OA
BRANCH  74  75
ATOM     75  C   UNL A   1      30.323  26.621  24.741  1.00  0.00     0.202 C 
BRANCH  75  76
ATOM     76  C   UNL A   1      30.116  25.477  25.740  1.00  0.00     0.261 C 
BRANCH  76  77
ATOM     77  O   UNL A   1      30.825  24.276  25.378  1.00  0.00    -0.462 OA
BRANCH  77  78
ATOM     78  C   UNL A   1      31.499  23.634  26.377  1.00  0.00     0.329 C 
ATOM     79  O   UNL A   1      31.337  23.872  27.565  1.00  0.00    -0.250 OA
BRANCH  78  80
ATOM     80  C   UNL A   1      32.416  22.564  25.778  1.00  0.00     0.206 C 
ATOM     81  C   UNL A   1      31.715  21.652  24.768  1.00  0.00     0.109 C 
ATOM     82  N   UNL A   1      33.668  23.050  25.187  1.00  0.00    -0.309 N 
ATOM     83  S   UNL A   1      32.570  21.825  23.165  1.00  0.00    -0.126 SA
ATOM     84  C   UNL A   1      33.765  23.090  23.733  1.00  0.00     0.116 C 
ATOM     85  C   UNL A   1      34.824  22.540  25.774  1.00  0.00     0.224 C 
ATOM     86  C   UNL A   1      35.209  22.601  23.462  1.00  0.00     0.055 C 
ATOM     87  C   UNL A   1      35.637  21.860  24.713  1.00  0.00     0.104 C 
ATOM     88  O   UNL A   1      35.034  22.484  26.974  1.00  0.00    -0.275 OA
BRANCH  84  89
ATOM     89  C   UNL A   1      33.443  24.477  23.132  1.00  0.00    -0.012 A 
ATOM     90  C   UNL A   1      34.134  25.631  23.551  1.00  0.00     0.007 A 
ATOM     91  C   UNL A   1      32.440  24.689  22.162  1.00  0.00     0.007 A 
ATOM     92  C   UNL A   1      33.875  26.900  23.017  1.00  0.00     0.000 A 
ATOM     93  C   UNL A   1      32.168  25.957  21.630  1.00  0.00     0.000 A 
ATOM     94  C   UNL A   1      32.892  27.064  22.052  1.00  0.00     0.000 A 
ENDBRANCH  84  89
ENDBRANCH  78  80
ENDBRANCH  77  78
ENDBRANCH  76  77
ENDBRANCH  75  76
ENDBRANCH  74  75
ENDBRANCH  73  74
ENDBRANCH   1  73
TORSDOF 21
ENDMDL
