MODEL 1
REMARK VINA RESULT:     -10.8      0.000      0.000
REMARK SMILES O=C(C[C@H]1CN(S(=O)(=O)N2CCCCC2)CCO1)OCCOCCOCCOC(=O)c1ccc(-c2c3nc(c(-c4cccc(S(=O)(=O)[O-])c4F)c4ccc([nH]4)c(-c4cccc(S(=O)(=O)[O-])c4F)c4nc(c(-c5cccc(S(=O)(=O)[O-])c5F)c5ccc2[nH]5)C=C4)C=C3)cc1
REMARK SMILES IDX 23 1 22 2 21 3 20 4 19 5 2 6 1 7 3 8 4 9 5 10 18 11 6 12
REMARK SMILES IDX 17 13 16 14 7 15 8 16 9 17 10 18 11 19 15 20 12 21 14 22
REMARK SMILES IDX 13 23 24 24 25 25 26 26 27 27 28 28 29 29 30 30 31 31 32 32
REMARK SMILES IDX 93 33 33 34 92 35 34 36 35 37 36 38 86 39 37 40 91 41 85 42
REMARK SMILES IDX 87 43 38 44 90 45 84 46 83 47 39 49 71 50 51 51 70 52 52 53
REMARK SMILES IDX 55 54 69 55 88 56 53 57 54 58 68 60 89 61 56 62 40 63 41 64
REMARK SMILES IDX 49 65 42 66 44 67 50 68 43 69 45 70 46 71 47 72 48 73 72 74
REMARK SMILES IDX 73 75 81 76 74 77 76 78 82 79 75 80 77 81 78 82 79 83 80 84
REMARK SMILES IDX 57 85 58 86 66 87 59 88 61 89 67 90 60 91 62 92 63 93 64 94
REMARK SMILES IDX 65 95
REMARK H PARENT 87 48 55 59
REMARK Flexibility Score: inf
ROOT
ATOM      1  C   UNL A   1      33.087  22.295  27.250  1.00  0.00     0.188 C 
ENDROOT
BRANCH   1   2
ATOM      2  O   UNL A   1      32.100  23.308  27.451  1.00  0.00    -0.376 OA
BRANCH   2   3
ATOM      3  C   UNL A   1      30.901  23.218  26.697  1.00  0.00     0.202 C 
BRANCH   3   4
ATOM      4  C   UNL A   1      30.649  24.349  25.719  1.00  0.00     0.261 C 
BRANCH   4   5
ATOM      5  O   UNL A   1      31.782  25.194  25.520  1.00  0.00    -0.463 OA
BRANCH   5   6
ATOM      6  C   UNL A   1      31.964  26.340  26.206  1.00  0.00     0.308 C 
ATOM      7  O   UNL A   1      31.061  26.797  26.906  1.00  0.00    -0.252 OA
BRANCH   6   8
ATOM      8  C   UNL A   1      33.333  26.954  26.224  1.00  0.00     0.156 C 
BRANCH   8   9
ATOM      9  C   UNL A   1      33.563  28.088  25.207  1.00  0.00     0.144 C 
ATOM     10  C   UNL A   1      32.724  28.103  23.903  1.00  0.00     0.136 C 
ATOM     11  O   UNL A   1      33.559  29.389  25.826  1.00  0.00    -0.375 OA
ATOM     12  N   UNL A   1      31.322  28.444  24.227  1.00  0.00    -0.184 NA
ATOM     13  C   UNL A   1      32.268  29.960  26.028  1.00  0.00     0.177 C 
ATOM     14  C   UNL A   1      31.318  29.833  24.833  1.00  0.00     0.132 C 
BRANCH  12  15
ATOM     15  S   UNL A   1      30.052  28.288  23.129  1.00  0.00     0.282 S 
ATOM     16  O   UNL A   1      30.627  27.707  21.933  1.00  0.00    -0.195 OA
ATOM     17  O   UNL A   1      29.002  27.563  23.814  1.00  0.00    -0.195 OA
BRANCH  15  18
ATOM     18  N   UNL A   1      29.386  29.753  22.679  1.00  0.00    -0.189 NA
ATOM     19  C   UNL A   1      28.569  30.402  23.732  1.00  0.00     0.103 C 
ATOM     20  C   UNL A   1      29.492  30.343  21.348  1.00  0.00     0.103 C 
ATOM     21  C   UNL A   1      27.555  31.425  23.240  1.00  0.00     0.017 C 
ATOM     22  C   UNL A   1      28.433  31.366  20.972  1.00  0.00     0.017 C 
ATOM     23  C   UNL A   1      28.114  32.288  22.129  1.00  0.00     0.003 C 
ENDBRANCH  15  18
ENDBRANCH  12  15
ENDBRANCH   8   9
ENDBRANCH   6   8
ENDBRANCH   5   6
ENDBRANCH   4   5
ENDBRANCH   3   4
ENDBRANCH   2   3
ENDBRANCH   1   2
BRANCH   1  24
ATOM     24  C   UNL A   1      34.229  22.580  26.270  1.00  0.00     0.188 C 
BRANCH  24  25
ATOM     25  O   UNL A   1      35.234  21.572  26.252  1.00  0.00    -0.376 OA
BRANCH  25  26
ATOM     26  C   UNL A   1      35.819  21.376  24.966  1.00  0.00     0.202 C 
BRANCH  26  27
ATOM     27  C   UNL A   1      37.364  21.345  24.917  1.00  0.00     0.261 C 
BRANCH  27  28
ATOM     28  O   UNL A   1      38.046  21.075  26.152  1.00  0.00    -0.460 OA
BRANCH  28  29
ATOM     29  C   UNL A   1      39.400  21.161  26.165  1.00  0.00     0.338 C 
ATOM     30  O   UNL A   1      40.168  20.386  25.639  1.00  0.00    -0.246 OA
BRANCH  29  31
ATOM     31  C   UNL A   1      39.787  22.476  26.750  1.00  0.00     0.060 A 
ATOM     32  C   UNL A   1      39.043  23.607  26.385  1.00  0.00     0.016 A 
ATOM     33  C   UNL A   1      40.827  22.600  27.678  1.00  0.00     0.016 A 
ATOM     34  C   UNL A   1      39.318  24.851  26.961  1.00  0.00     0.010 A 
ATOM     35  C   UNL A   1      41.138  23.858  28.216  1.00  0.00     0.010 A 
ATOM     36  C   UNL A   1      40.397  24.994  27.845  1.00  0.00    -0.014 A 
BRANCH  36  37
ATOM     37  C   UNL A   1      40.937  26.356  28.109  1.00  0.00     0.031 A 
ATOM     38  C   UNL A   1      42.335  26.636  27.618  1.00  0.00     0.074 A 
ATOM     39  C   UNL A   1      40.251  27.314  28.758  1.00  0.00     0.049 A 
ATOM     40  N   UNL A   1      43.046  27.728  27.701  1.00  0.00    -0.248 NA
ATOM     41  C   UNL A   1      43.020  25.523  26.934  1.00  0.00     0.031 C 
ATOM     42  C   UNL A   1      38.889  27.190  29.273  1.00  0.00     0.029 A 
ATOM     43  N   UNL A   1      40.626  28.590  29.112  1.00  0.00    -0.354 N 
ATOM     44  C   UNL A   1      44.257  27.434  27.086  1.00  0.00     0.074 A 
ATOM     45  C   UNL A   1      44.191  26.061  26.643  1.00  0.00     0.031 C 
ATOM     46  C   UNL A   1      38.556  28.332  29.905  1.00  0.00     0.029 A 
ATOM     47  C   UNL A   1      39.684  29.264  29.855  1.00  0.00     0.049 A 
ATOM     48  H   UNL A   1      41.492  28.985  28.856  1.00  0.00     0.167 HD
ATOM     49  C   UNL A   1      45.332  28.231  26.897  1.00  0.00     0.034 A 
ATOM     50  C   UNL A   1      39.737  30.481  30.437  1.00  0.00     0.034 A 
ATOM     51  C   UNL A   1      45.424  29.583  27.363  1.00  0.00     0.049 A 
ATOM     52  C   UNL A   1      40.978  31.331  30.268  1.00  0.00     0.074 A 
ATOM     53  C   UNL A   1      46.471  30.474  27.215  1.00  0.00     0.029 A 
ATOM     54  N   UNL A   1      44.442  30.232  28.094  1.00  0.00    -0.354 N 
ATOM     55  N   UNL A   1      42.066  31.085  29.576  1.00  0.00    -0.248 NA
ATOM     56  C   UNL A   1      40.985  32.644  30.936  1.00  0.00     0.031 C 
ATOM     57  C   UNL A   1      46.134  31.654  27.886  1.00  0.00     0.029 A 
ATOM     58  C   UNL A   1      44.862  31.509  28.417  1.00  0.00     0.049 A 
ATOM     59  H   UNL A   1      43.574  29.842  28.346  1.00  0.00     0.167 HD
ATOM     60  C   UNL A   1      42.861  32.222  29.691  1.00  0.00     0.074 A 
ATOM     61  C   UNL A   1      42.126  33.165  30.505  1.00  0.00     0.031 C 
ATOM     62  C   UNL A   1      44.094  32.461  29.177  1.00  0.00     0.034 A 
BRANCH  49  63
ATOM     63  C   UNL A   1      46.496  27.645  26.146  1.00  0.00     0.023 A 
ATOM     64  C   UNL A   1      46.565  27.792  24.745  1.00  0.00     0.012 A 
ATOM     65  C   UNL A   1      47.522  26.963  26.825  1.00  0.00     0.148 A 
ATOM     66  C   UNL A   1      47.624  27.240  24.027  1.00  0.00     0.002 A 
ATOM     67  C   UNL A   1      48.598  26.457  26.107  1.00  0.00     0.091 A 
ATOM     68  F   UNL A   1      47.418  26.808  28.152  1.00  0.00    -0.205 F 
ATOM     69  C   UNL A   1      48.644  26.582  24.709  1.00  0.00     0.022 A 
BRANCH  67  70
ATOM     70  S   UNL A   1      49.996  25.656  26.898  1.00  0.00     0.127 S 
ATOM     71  O   UNL A   1      50.925  25.509  25.778  1.00  0.00    -0.237 OA
ATOM     72  O   UNL A   1      50.394  26.650  27.894  1.00  0.00    -0.237 OA
ATOM     73  O   UNL A   1      49.487  24.409  27.452  1.00  0.00    -0.744 OA
ENDBRANCH  67  70
ENDBRANCH  49  63
BRANCH  50  74
ATOM     74  C   UNL A   1      38.576  31.003  31.219  1.00  0.00     0.023 A 
ATOM     75  C   UNL A   1      38.562  30.862  32.622  1.00  0.00     0.012 A 
ATOM     76  C   UNL A   1      37.475  31.610  30.584  1.00  0.00     0.148 A 
ATOM     77  C   UNL A   1      37.461  31.281  33.371  1.00  0.00     0.002 A 
ATOM     78  C   UNL A   1      36.405  32.075  31.342  1.00  0.00     0.091 A 
ATOM     79  F   UNL A   1      37.492  31.716  29.248  1.00  0.00    -0.205 F 
ATOM     80  C   UNL A   1      36.386  31.894  32.734  1.00  0.00     0.022 A 
BRANCH  78  81
ATOM     81  S   UNL A   1      35.029  32.980  30.623  1.00  0.00     0.127 S 
ATOM     82  O   UNL A   1      35.688  34.187  30.131  1.00  0.00    -0.237 OA
ATOM     83  O   UNL A   1      34.575  32.058  29.582  1.00  0.00    -0.237 OA
ATOM     84  O   UNL A   1      34.077  33.179  31.708  1.00  0.00    -0.744 OA
ENDBRANCH  78  81
ENDBRANCH  50  74
BRANCH  62  85
ATOM     85  C   UNL A   1      44.723  33.809  29.428  1.00  0.00     0.023 A 
ATOM     86  C   UNL A   1      45.450  34.039  30.612  1.00  0.00     0.012 A 
ATOM     87  C   UNL A   1      44.679  34.812  28.438  1.00  0.00     0.148 A 
ATOM     88  C   UNL A   1      46.097  35.257  30.821  1.00  0.00     0.002 A 
ATOM     89  C   UNL A   1      45.368  36.004  28.632  1.00  0.00     0.091 A 
ATOM     90  F   UNL A   1      43.972  34.580  27.323  1.00  0.00    -0.205 F 
ATOM     91  C   UNL A   1      46.068  36.232  29.827  1.00  0.00     0.022 A 
BRANCH  89  92
ATOM     92  S   UNL A   1      45.472  37.273  27.363  1.00  0.00     0.127 S 
ATOM     93  O   UNL A   1      46.178  36.567  26.295  1.00  0.00    -0.237 OA
ATOM     94  O   UNL A   1      44.063  37.549  27.083  1.00  0.00    -0.237 OA
ATOM     95  O   UNL A   1      46.198  38.383  27.964  1.00  0.00    -0.744 OA
ENDBRANCH  89  92
ENDBRANCH  62  85
ENDBRANCH  36  37
ENDBRANCH  29  31
ENDBRANCH  28  29
ENDBRANCH  27  28
ENDBRANCH  26  27
ENDBRANCH  25  26
ENDBRANCH  24  25
ENDBRANCH   1  24
TORSDOF 23
ENDMDL
MODEL 2
REMARK VINA RESULT:     -10.3      4.879     10.328
REMARK SMILES O=C(C[C@H]1CN(S(=O)(=O)N2CCCCC2)CCO1)OCCOCCOCCOC(=O)c1ccc(-c2c3nc(c(-c4cccc(S(=O)(=O)[O-])c4F)c4ccc([nH]4)c(-c4cccc(S(=O)(=O)[O-])c4F)c4nc(c(-c5cccc(S(=O)(=O)[O-])c5F)c5ccc2[nH]5)C=C4)C=C3)cc1
REMARK SMILES IDX 23 1 22 2 21 3 20 4 19 5 2 6 1 7 3 8 4 9 5 10 18 11 6 12
REMARK SMILES IDX 17 13 16 14 7 15 8 16 9 17 10 18 11 19 15 20 12 21 14 22
REMARK SMILES IDX 13 23 24 24 25 25 26 26 27 27 28 28 29 29 30 30 31 31 32 32
REMARK SMILES IDX 93 33 33 34 92 35 34 36 35 37 36 38 86 39 37 40 91 41 85 42
REMARK SMILES IDX 87 43 38 44 90 45 84 46 83 47 39 49 71 50 51 51 70 52 52 53
REMARK SMILES IDX 55 54 69 55 88 56 53 57 54 58 68 60 89 61 56 62 40 63 41 64
REMARK SMILES IDX 49 65 42 66 44 67 50 68 43 69 45 70 46 71 47 72 48 73 72 74
REMARK SMILES IDX 73 75 81 76 74 77 76 78 82 79 75 80 77 81 78 82 79 83 80 84
REMARK SMILES IDX 57 85 58 86 66 87 59 88 61 89 67 90 60 91 62 92 63 93 64 94
REMARK SMILES IDX 65 95
REMARK H PARENT 87 48 55 59
REMARK Flexibility Score: inf
ROOT
ATOM      1  C   UNL A   1      33.654  29.802  26.854  1.00  0.00     0.188 C 
ENDROOT
BRANCH   1   2
ATOM      2  O   UNL A   1      33.564  28.504  27.443  1.00  0.00    -0.376 OA
BRANCH   2   3
ATOM      3  C   UNL A   1      32.872  27.498  26.720  1.00  0.00     0.202 C 
BRANCH   3   4
ATOM      4  C   UNL A   1      33.687  26.751  25.683  1.00  0.00     0.261 C 
BRANCH   4   5
ATOM      5  O   UNL A   1      33.402  27.146  24.341  1.00  0.00    -0.463 OA
BRANCH   5   6
ATOM      6  C   UNL A   1      33.092  26.262  23.373  1.00  0.00     0.308 C 
ATOM      7  O   UNL A   1      33.823  25.297  23.154  1.00  0.00    -0.252 OA
BRANCH   6   8
ATOM      8  C   UNL A   1      31.767  26.393  22.681  1.00  0.00     0.156 C 
BRANCH   8   9
ATOM      9  C   UNL A   1      30.726  25.314  23.033  1.00  0.00     0.144 C 
ATOM     10  C   UNL A   1      31.221  23.945  23.568  1.00  0.00     0.136 C 
ATOM     11  O   UNL A   1      29.663  25.825  23.860  1.00  0.00    -0.375 OA
ATOM     12  N   UNL A   1      31.758  24.120  24.935  1.00  0.00    -0.184 NA
ATOM     13  C   UNL A   1      29.949  25.869  25.256  1.00  0.00     0.177 C 
ATOM     14  C   UNL A   1      30.623  24.611  25.812  1.00  0.00     0.132 C 
BRANCH  12  15
ATOM     15  S   UNL A   1      32.641  22.933  25.744  1.00  0.00     0.282 S 
ATOM     16  O   UNL A   1      32.673  23.338  27.135  1.00  0.00    -0.195 OA
ATOM     17  O   UNL A   1      32.031  21.663  25.407  1.00  0.00    -0.195 OA
BRANCH  15  18
ATOM     18  N   UNL A   1      34.230  22.834  25.235  1.00  0.00    -0.189 NA
ATOM     19  C   UNL A   1      35.197  23.542  26.109  1.00  0.00     0.103 C 
ATOM     20  C   UNL A   1      34.672  22.197  23.999  1.00  0.00     0.103 C 
ATOM     21  C   UNL A   1      36.519  23.918  25.457  1.00  0.00     0.017 C 
ATOM     22  C   UNL A   1      36.017  22.641  23.448  1.00  0.00     0.017 C 
ATOM     23  C   UNL A   1      37.037  22.821  24.552  1.00  0.00     0.003 C 
ENDBRANCH  15  18
ENDBRANCH  12  15
ENDBRANCH   8   9
ENDBRANCH   6   8
ENDBRANCH   5   6
ENDBRANCH   4   5
ENDBRANCH   3   4
ENDBRANCH   2   3
ENDBRANCH   1   2
BRANCH   1  24
ATOM     24  C   UNL A   1      32.443  30.331  26.080  1.00  0.00     0.188 C 
BRANCH  24  25
ATOM     25  O   UNL A   1      31.516  31.049  26.886  1.00  0.00    -0.376 OA
BRANCH  25  26
ATOM     26  C   UNL A   1      31.561  32.461  26.684  1.00  0.00     0.202 C 
BRANCH  26  27
ATOM     27  C   UNL A   1      32.775  33.198  27.293  1.00  0.00     0.261 C 
BRANCH  27  28
ATOM     28  O   UNL A   1      32.499  34.164  28.320  1.00  0.00    -0.460 OA
BRANCH  28  29
ATOM     29  C   UNL A   1      33.539  34.880  28.818  1.00  0.00     0.338 C 
ATOM     30  O   UNL A   1      33.511  36.048  29.140  1.00  0.00    -0.246 OA
BRANCH  29  31
ATOM     31  C   UNL A   1      34.665  33.946  29.103  1.00  0.00     0.060 A 
ATOM     32  C   UNL A   1      34.406  32.821  29.898  1.00  0.00     0.016 A 
ATOM     33  C   UNL A   1      35.942  34.135  28.564  1.00  0.00     0.016 A 
ATOM     34  C   UNL A   1      35.408  31.875  30.135  1.00  0.00     0.010 A 
ATOM     35  C   UNL A   1      36.963  33.215  28.846  1.00  0.00     0.010 A 
ATOM     36  C   UNL A   1      36.706  32.089  29.650  1.00  0.00    -0.014 A 
BRANCH  36  37
ATOM     37  C   UNL A   1      37.836  31.327  30.250  1.00  0.00     0.031 A 
ATOM     38  C   UNL A   1      38.216  31.685  31.664  1.00  0.00     0.074 A 
ATOM     39  C   UNL A   1      38.515  30.368  29.595  1.00  0.00     0.049 A 
ATOM     40  N   UNL A   1      39.146  31.181  32.431  1.00  0.00    -0.248 NA
ATOM     41  C   UNL A   1      37.431  32.760  32.298  1.00  0.00     0.031 C 
ATOM     42  C   UNL A   1      38.247  29.908  28.234  1.00  0.00     0.029 A 
ATOM     43  N   UNL A   1      39.595  29.615  29.995  1.00  0.00    -0.354 N 
ATOM     44  C   UNL A   1      39.059  31.877  33.630  1.00  0.00     0.074 A 
ATOM     45  C   UNL A   1      37.995  32.844  33.490  1.00  0.00     0.031 C 
ATOM     46  C   UNL A   1      39.160  28.976  27.900  1.00  0.00     0.029 A 
ATOM     47  C   UNL A   1      40.088  28.782  29.017  1.00  0.00     0.049 A 
ATOM     48  H   UNL A   1      39.982  29.669  30.899  1.00  0.00     0.167 HD
ATOM     49  C   UNL A   1      39.791  31.728  34.756  1.00  0.00     0.034 A 
ATOM     50  C   UNL A   1      41.169  27.973  29.021  1.00  0.00     0.034 A 
ATOM     51  C   UNL A   1      40.873  30.798  34.897  1.00  0.00     0.049 A 
ATOM     52  C   UNL A   1      42.015  27.871  30.272  1.00  0.00     0.074 A 
ATOM     53  C   UNL A   1      41.672  30.570  36.002  1.00  0.00     0.029 A 
ATOM     54  N   UNL A   1      41.326  29.961  33.890  1.00  0.00    -0.354 N 
ATOM     55  N   UNL A   1      41.843  28.444  31.440  1.00  0.00    -0.248 NA
ATOM     56  C   UNL A   1      43.189  26.984  30.215  1.00  0.00     0.031 C 
ATOM     57  C   UNL A   1      42.632  29.614  35.652  1.00  0.00     0.029 A 
ATOM     58  C   UNL A   1      42.404  29.222  34.343  1.00  0.00     0.049 A 
ATOM     59  H   UNL A   1      40.939  29.901  32.987  1.00  0.00     0.167 HD
ATOM     60  C   UNL A   1      42.855  27.956  32.262  1.00  0.00     0.074 A 
ATOM     61  C   UNL A   1      43.629  27.029  31.465  1.00  0.00     0.031 C 
ATOM     62  C   UNL A   1      43.128  28.256  33.557  1.00  0.00     0.034 A 
BRANCH  49  63
ATOM     63  C   UNL A   1      39.433  32.602  35.927  1.00  0.00     0.023 A 
ATOM     64  C   UNL A   1      39.986  33.896  36.024  1.00  0.00     0.012 A 
ATOM     65  C   UNL A   1      38.544  32.150  36.919  1.00  0.00     0.148 A 
ATOM     66  C   UNL A   1      39.684  34.715  37.110  1.00  0.00     0.002 A 
ATOM     67  C   UNL A   1      38.212  32.990  37.974  1.00  0.00     0.091 A 
ATOM     68  F   UNL A   1      38.058  30.905  36.823  1.00  0.00    -0.205 F 
ATOM     69  C   UNL A   1      38.789  34.266  38.078  1.00  0.00     0.022 A 
BRANCH  67  70
ATOM     70  S   UNL A   1      37.017  32.533  39.233  1.00  0.00     0.127 S 
ATOM     71  O   UNL A   1      35.755  32.681  38.510  1.00  0.00    -0.237 OA
ATOM     72  O   UNL A   1      37.394  31.151  39.526  1.00  0.00    -0.237 OA
ATOM     73  O   UNL A   1      37.216  33.465  40.335  1.00  0.00    -0.744 OA
ENDBRANCH  67  70
ENDBRANCH  49  63
BRANCH  50  74
ATOM     74  C   UNL A   1      41.519  27.161  27.816  1.00  0.00     0.023 A 
ATOM     75  C   UNL A   1      42.048  27.800  26.676  1.00  0.00     0.012 A 
ATOM     76  C   UNL A   1      41.304  25.770  27.779  1.00  0.00     0.148 A 
ATOM     77  C   UNL A   1      42.322  27.077  25.514  1.00  0.00     0.002 A 
ATOM     78  C   UNL A   1      41.630  25.046  26.637  1.00  0.00     0.091 A 
ATOM     79  F   UNL A   1      40.778  25.180  28.862  1.00  0.00    -0.205 F 
ATOM     80  C   UNL A   1      42.121  25.700  25.495  1.00  0.00     0.022 A 
BRANCH  78  81
ATOM     81  S   UNL A   1      41.514  23.255  26.558  1.00  0.00     0.127 S 
ATOM     82  O   UNL A   1      40.070  23.051  26.473  1.00  0.00    -0.237 OA
ATOM     83  O   UNL A   1      42.251  22.960  25.329  1.00  0.00    -0.237 OA
ATOM     84  O   UNL A   1      42.150  22.764  27.773  1.00  0.00    -0.744 OA
ENDBRANCH  78  81
ENDBRANCH  50  74
BRANCH  62  85
ATOM     85  C   UNL A   1      44.278  27.547  34.227  1.00  0.00     0.023 A 
ATOM     86  C   UNL A   1      44.069  26.307  34.860  1.00  0.00     0.012 A 
ATOM     87  C   UNL A   1      45.587  28.065  34.134  1.00  0.00     0.148 A 
ATOM     88  C   UNL A   1      45.140  25.607  35.418  1.00  0.00     0.002 A 
ATOM     89  C   UNL A   1      46.654  27.337  34.647  1.00  0.00     0.091 A 
ATOM     90  F   UNL A   1      45.764  29.252  33.538  1.00  0.00    -0.205 F 
ATOM     91  C   UNL A   1      46.432  26.115  35.300  1.00  0.00     0.022 A 
BRANCH  89  92
ATOM     92  S   UNL A   1      48.362  27.863  34.449  1.00  0.00     0.127 S 
ATOM     93  O   UNL A   1      48.380  29.106  35.219  1.00  0.00    -0.237 OA
ATOM     94  O   UNL A   1      49.101  26.757  35.059  1.00  0.00    -0.237 OA
ATOM     95  O   UNL A   1      48.573  28.013  33.016  1.00  0.00    -0.744 OA
ENDBRANCH  89  92
ENDBRANCH  62  85
ENDBRANCH  36  37
ENDBRANCH  29  31
ENDBRANCH  28  29
ENDBRANCH  27  28
ENDBRANCH  26  27
ENDBRANCH  25  26
ENDBRANCH  24  25
ENDBRANCH   1  24
TORSDOF 23
ENDMDL
MODEL 3
REMARK VINA RESULT:     -10.2      1.902      2.442
REMARK SMILES O=C(C[C@H]1CN(S(=O)(=O)N2CCCCC2)CCO1)OCCOCCOCCOC(=O)c1ccc(-c2c3nc(c(-c4cccc(S(=O)(=O)[O-])c4F)c4ccc([nH]4)c(-c4cccc(S(=O)(=O)[O-])c4F)c4nc(c(-c5cccc(S(=O)(=O)[O-])c5F)c5ccc2[nH]5)C=C4)C=C3)cc1
REMARK SMILES IDX 23 1 22 2 21 3 20 4 19 5 2 6 1 7 3 8 4 9 5 10 18 11 6 12
REMARK SMILES IDX 17 13 16 14 7 15 8 16 9 17 10 18 11 19 15 20 12 21 14 22
REMARK SMILES IDX 13 23 24 24 25 25 26 26 27 27 28 28 29 29 30 30 31 31 32 32
REMARK SMILES IDX 93 33 33 34 92 35 34 36 35 37 36 38 86 39 37 40 91 41 85 42
REMARK SMILES IDX 87 43 38 44 90 45 84 46 83 47 39 49 71 50 51 51 70 52 52 53
REMARK SMILES IDX 55 54 69 55 88 56 53 57 54 58 68 60 89 61 56 62 40 63 41 64
REMARK SMILES IDX 49 65 42 66 44 67 50 68 43 69 45 70 46 71 47 72 48 73 72 74
REMARK SMILES IDX 73 75 81 76 74 77 76 78 82 79 75 80 77 81 78 82 79 83 80 84
REMARK SMILES IDX 57 85 58 86 66 87 59 88 61 89 67 90 60 91 62 92 63 93 64 94
REMARK SMILES IDX 65 95
REMARK H PARENT 87 48 55 59
REMARK Flexibility Score: inf
ROOT
ATOM      1  C   UNL A   1      33.321  22.313  26.848  1.00  0.00     0.188 C 
ENDROOT
BRANCH   1   2
ATOM      2  O   UNL A   1      32.410  23.360  27.190  1.00  0.00    -0.376 OA
BRANCH   2   3
ATOM      3  C   UNL A   1      31.479  23.771  26.202  1.00  0.00     0.202 C 
BRANCH   3   4
ATOM      4  C   UNL A   1      31.145  25.250  26.182  1.00  0.00     0.261 C 
BRANCH   4   5
ATOM      5  O   UNL A   1      32.280  26.093  26.380  1.00  0.00    -0.463 OA
BRANCH   5   6
ATOM      6  C   UNL A   1      32.209  27.267  27.038  1.00  0.00     0.308 C 
ATOM      7  O   UNL A   1      31.150  27.631  27.549  1.00  0.00    -0.252 OA
BRANCH   6   8
ATOM      8  C   UNL A   1      33.476  28.037  27.267  1.00  0.00     0.156 C 
BRANCH   8   9
ATOM      9  C   UNL A   1      33.787  29.127  26.224  1.00  0.00     0.144 C 
ATOM     10  C   UNL A   1      33.409  28.872  24.742  1.00  0.00     0.136 C 
ATOM     11  O   UNL A   1      33.339  30.431  26.643  1.00  0.00    -0.375 OA
ATOM     12  N   UNL A   1      31.937  28.911  24.599  1.00  0.00    -0.184 NA
ATOM     13  C   UNL A   1      31.965  30.711  26.387  1.00  0.00     0.177 C 
ATOM     14  C   UNL A   1      31.477  30.300  24.994  1.00  0.00     0.132 C 
BRANCH  12  15
ATOM     15  S   UNL A   1      31.127  28.406  23.210  1.00  0.00     0.282 S 
ATOM     16  O   UNL A   1      31.403  29.408  22.200  1.00  0.00    -0.195 OA
ATOM     17  O   UNL A   1      31.543  27.041  22.963  1.00  0.00    -0.195 OA
BRANCH  15  18
ATOM     18  N   UNL A   1      29.466  28.358  23.397  1.00  0.00    -0.189 NA
ATOM     19  C   UNL A   1      28.956  27.109  24.011  1.00  0.00     0.103 C 
ATOM     20  C   UNL A   1      28.545  29.388  22.928  1.00  0.00     0.103 C 
ATOM     21  C   UNL A   1      27.493  26.793  23.742  1.00  0.00     0.017 C 
ATOM     22  C   UNL A   1      27.103  28.961  22.709  1.00  0.00     0.017 C 
ATOM     23  C   UNL A   1      26.625  28.032  23.804  1.00  0.00     0.003 C 
ENDBRANCH  15  18
ENDBRANCH  12  15
ENDBRANCH   8   9
ENDBRANCH   6   8
ENDBRANCH   5   6
ENDBRANCH   4   5
ENDBRANCH   3   4
ENDBRANCH   2   3
ENDBRANCH   1   2
BRANCH   1  24
ATOM     24  C   UNL A   1      34.802  22.668  26.684  1.00  0.00     0.188 C 
BRANCH  24  25
ATOM     25  O   UNL A   1      35.622  21.556  26.339  1.00  0.00    -0.376 OA
BRANCH  25  26
ATOM     26  C   UNL A   1      36.330  21.730  25.113  1.00  0.00     0.202 C 
BRANCH  26  27
ATOM     27  C   UNL A   1      37.740  22.356  25.222  1.00  0.00     0.261 C 
BRANCH  27  28
ATOM     28  O   UNL A   1      38.527  21.985  26.365  1.00  0.00    -0.460 OA
BRANCH  28  29
ATOM     29  C   UNL A   1      39.821  22.389  26.406  1.00  0.00     0.338 C 
ATOM     30  O   UNL A   1      40.774  21.772  25.983  1.00  0.00    -0.246 OA
BRANCH  29  31
ATOM     31  C   UNL A   1      39.862  23.805  26.867  1.00  0.00     0.060 A 
ATOM     32  C   UNL A   1      40.298  24.783  25.961  1.00  0.00     0.016 A 
ATOM     33  C   UNL A   1      39.435  24.186  28.144  1.00  0.00     0.016 A 
ATOM     34  C   UNL A   1      40.286  26.135  26.317  1.00  0.00     0.010 A 
ATOM     35  C   UNL A   1      39.474  25.537  28.521  1.00  0.00     0.010 A 
ATOM     36  C   UNL A   1      39.919  26.517  27.615  1.00  0.00    -0.014 A 
BRANCH  36  37
ATOM     37  C   UNL A   1      40.310  27.866  28.108  1.00  0.00     0.031 A 
ATOM     38  C   UNL A   1      41.786  28.172  28.140  1.00  0.00     0.074 A 
ATOM     39  C   UNL A   1      39.425  28.790  28.523  1.00  0.00     0.049 A 
ATOM     40  N   UNL A   1      42.405  29.261  28.510  1.00  0.00    -0.248 NA
ATOM     41  C   UNL A   1      42.684  27.094  27.685  1.00  0.00     0.031 C 
ATOM     42  C   UNL A   1      37.972  28.639  28.532  1.00  0.00     0.029 A 
ATOM     43  N   UNL A   1      39.633  30.049  29.040  1.00  0.00    -0.354 N 
ATOM     44  C   UNL A   1      43.758  28.999  28.336  1.00  0.00     0.074 A 
ATOM     45  C   UNL A   1      43.874  27.648  27.838  1.00  0.00     0.031 C 
ATOM     46  C   UNL A   1      37.420  29.749  29.061  1.00  0.00     0.029 A 
ATOM     47  C   UNL A   1      38.480  30.684  29.442  1.00  0.00     0.049 A 
ATOM     48  H   UNL A   1      40.526  30.457  29.115  1.00  0.00     0.167 HD
ATOM     49  C   UNL A   1      44.818  29.806  28.563  1.00  0.00     0.034 A 
ATOM     50  C   UNL A   1      38.308  31.873  30.060  1.00  0.00     0.034 A 
ATOM     51  C   UNL A   1      44.719  31.135  29.091  1.00  0.00     0.049 A 
ATOM     52  C   UNL A   1      39.515  32.733  30.365  1.00  0.00     0.074 A 
ATOM     53  C   UNL A   1      45.737  32.034  29.351  1.00  0.00     0.029 A 
ATOM     54  N   UNL A   1      43.534  31.746  29.468  1.00  0.00    -0.354 N 
ATOM     55  N   UNL A   1      40.778  32.523  30.079  1.00  0.00    -0.248 NA
ATOM     56  C   UNL A   1      39.269  34.013  31.051  1.00  0.00     0.031 C 
ATOM     57  C   UNL A   1      45.169  33.181  29.916  1.00  0.00     0.029 A 
ATOM     58  C   UNL A   1      43.795  33.008  29.971  1.00  0.00     0.049 A 
ATOM     59  H   UNL A   1      42.641  31.343  29.389  1.00  0.00     0.167 HD
ATOM     60  C   UNL A   1      41.465  33.655  30.509  1.00  0.00     0.074 A 
ATOM     61  C   UNL A   1      40.478  34.556  31.062  1.00  0.00     0.031 C 
ATOM     62  C   UNL A   1      42.795  33.921  30.462  1.00  0.00     0.034 A 
BRANCH  49  63
ATOM     63  C   UNL A   1      46.179  29.259  28.233  1.00  0.00     0.023 A 
ATOM     64  C   UNL A   1      46.732  29.492  26.956  1.00  0.00     0.012 A 
ATOM     65  C   UNL A   1      46.914  28.529  29.186  1.00  0.00     0.148 A 
ATOM     66  C   UNL A   1      47.983  28.978  26.622  1.00  0.00     0.002 A 
ATOM     67  C   UNL A   1      48.180  28.060  28.860  1.00  0.00     0.091 A 
ATOM     68  F   UNL A   1      46.354  28.292  30.380  1.00  0.00    -0.205 F 
ATOM     69  C   UNL A   1      48.710  28.272  27.577  1.00  0.00     0.022 A 
BRANCH  67  70
ATOM     70  S   UNL A   1      49.225  27.201  30.040  1.00  0.00     0.127 S 
ATOM     71  O   UNL A   1      50.523  27.241  29.368  1.00  0.00    -0.237 OA
ATOM     72  O   UNL A   1      49.122  28.059  31.220  1.00  0.00    -0.237 OA
ATOM     73  O   UNL A   1      48.646  25.874  30.200  1.00  0.00    -0.744 OA
ENDBRANCH  67  70
ENDBRANCH  49  63
BRANCH  50  74
ATOM     74  C   UNL A   1      36.939  32.355  30.418  1.00  0.00     0.023 A 
ATOM     75  C   UNL A   1      36.412  32.069  31.694  1.00  0.00     0.012 A 
ATOM     76  C   UNL A   1      36.146  33.066  29.497  1.00  0.00     0.148 A 
ATOM     77  C   UNL A   1      35.112  32.449  32.032  1.00  0.00     0.002 A 
ATOM     78  C   UNL A   1      34.871  33.490  29.858  1.00  0.00     0.091 A 
ATOM     79  F   UNL A   1      36.651  33.309  28.279  1.00  0.00    -0.205 F 
ATOM     80  C   UNL A   1      34.344  33.166  31.118  1.00  0.00     0.022 A 
BRANCH  78  81
ATOM     81  S   UNL A   1      33.852  34.516  28.792  1.00  0.00     0.127 S 
ATOM     82  O   UNL A   1      33.527  33.592  27.708  1.00  0.00    -0.237 OA
ATOM     83  O   UNL A   1      32.733  34.847  29.675  1.00  0.00    -0.237 OA
ATOM     84  O   UNL A   1      34.685  35.652  28.425  1.00  0.00    -0.744 OA
ENDBRANCH  78  81
ENDBRANCH  50  74
BRANCH  62  85
ATOM     85  C   UNL A   1      43.274  35.257  30.972  1.00  0.00     0.023 A 
ATOM     86  C   UNL A   1      43.672  35.397  32.316  1.00  0.00     0.012 A 
ATOM     87  C   UNL A   1      43.428  36.345  30.088  1.00  0.00     0.148 A 
ATOM     88  C   UNL A   1      44.186  36.608  32.780  1.00  0.00     0.002 A 
ATOM     89  C   UNL A   1      43.988  37.532  30.546  1.00  0.00     0.091 A 
ATOM     90  F   UNL A   1      43.032  36.196  28.816  1.00  0.00    -0.205 F 
ATOM     91  C   UNL A   1      44.357  37.669  31.893  1.00  0.00     0.022 A 
BRANCH  89  92
ATOM     92  S   UNL A   1      44.341  38.914  29.453  1.00  0.00     0.127 S 
ATOM     93  O   UNL A   1      44.616  39.986  30.409  1.00  0.00    -0.237 OA
ATOM     94  O   UNL A   1      45.514  38.438  28.718  1.00  0.00    -0.237 OA
ATOM     95  O   UNL A   1      43.150  39.096  28.636  1.00  0.00    -0.744 OA
ENDBRANCH  89  92
ENDBRANCH  62  85
ENDBRANCH  36  37
ENDBRANCH  29  31
ENDBRANCH  28  29
ENDBRANCH  27  28
ENDBRANCH  26  27
ENDBRANCH  25  26
ENDBRANCH  24  25
ENDBRANCH   1  24
TORSDOF 23
ENDMDL
