MODEL 1
REMARK VINA RESULT:     -11.3      0.000      0.000
REMARK SMILES C[C@@H](C(=O)OCCOCCOCCOC(=O)c1ccc(-c2c3nc(c(-c4cccc(S(=O)(=O)[O-])c4F)c4ccc([nH]4)c(-c4cccc(S(=O)(=O)[O-])c4F)c4nc(c(-c5cccc(S(=O)(=O)[O-])c5F)c5ccc2[nH]5)C=C4)C=C3)cc1)c1ccc(C(=O)c2cccs2)cc1
REMARK SMILES IDX 9 1 8 2 7 3 6 4 5 5 3 6 4 7 2 8 1 9 80 10 81 11 92 12 82 13
REMARK SMILES IDX 91 14 83 15 84 16 85 17 86 18 87 19 90 20 88 21 89 22 10 23
REMARK SMILES IDX 11 24 12 25 13 26 14 27 15 28 16 29 17 30 18 31 79 32 19 33
REMARK SMILES IDX 78 34 20 35 21 36 22 37 72 38 23 39 77 40 71 41 73 42 24 43
REMARK SMILES IDX 76 44 70 45 69 46 25 48 57 49 37 50 56 51 38 52 41 53 55 54
REMARK SMILES IDX 74 55 39 56 40 57 54 59 75 60 42 61 26 62 27 63 35 64 28 65
REMARK SMILES IDX 30 66 36 67 29 68 31 69 32 70 33 71 34 72 58 73 59 74 67 75
REMARK SMILES IDX 60 76 62 77 68 78 61 79 63 80 64 81 65 82 66 83 43 84 44 85
REMARK SMILES IDX 52 86 45 87 47 88 53 89 46 90 48 91 49 92 50 93 51 94
REMARK H PARENT 73 47 41 58
REMARK Flexibility Score: inf
ROOT
ATOM      1  C   UNL A   1      32.400  19.634  24.591  1.00  0.00     0.188 C 
ENDROOT
BRANCH   1   2
ATOM      2  O   UNL A   1      32.452  20.079  23.237  1.00  0.00    -0.376 OA
BRANCH   2   3
ATOM      3  C   UNL A   1      32.095  21.430  22.945  1.00  0.00     0.202 C 
BRANCH   3   4
ATOM      4  C   UNL A   1      33.089  22.511  23.378  1.00  0.00     0.261 C 
BRANCH   4   5
ATOM      5  O   UNL A   1      32.518  23.381  24.372  1.00  0.00    -0.463 OA
BRANCH   5   6
ATOM      6  C   UNL A   1      32.727  24.708  24.172  1.00  0.00     0.313 C 
ATOM      7  O   UNL A   1      33.422  25.407  24.900  1.00  0.00    -0.252 OA
BRANCH   6   8
ATOM      8  C   UNL A   1      32.106  25.213  22.864  1.00  0.00     0.126 C 
ATOM      9  C   UNL A   1      33.168  25.613  21.834  1.00  0.00     0.025 C 
BRANCH   8  10
ATOM     10  C   UNL A   1      30.988  26.241  23.052  1.00  0.00    -0.034 A 
ATOM     11  C   UNL A   1      31.066  27.527  22.487  1.00  0.00     0.005 A 
ATOM     12  C   UNL A   1      29.790  25.888  23.686  1.00  0.00     0.005 A 
ATOM     13  C   UNL A   1      29.977  28.412  22.537  1.00  0.00     0.012 A 
ATOM     14  C   UNL A   1      28.703  26.762  23.725  1.00  0.00     0.012 A 
ATOM     15  C   UNL A   1      28.771  28.028  23.135  1.00  0.00     0.023 A 
BRANCH  15  16
ATOM     16  C   UNL A   1      27.577  28.938  23.014  1.00  0.00     0.202 C 
ATOM     17  O   UNL A   1      26.509  28.554  23.490  1.00  0.00    -0.288 OA
BRANCH  16  18
ATOM     18  C   UNL A   1      27.781  30.258  22.447  1.00  0.00     0.075 A 
ATOM     19  C   UNL A   1      27.946  30.625  21.127  1.00  0.00     0.024 A 
ATOM     20  S   UNL A   1      27.923  31.607  23.491  1.00  0.00    -0.140 S 
ATOM     21  C   UNL A   1      28.345  31.980  20.985  1.00  0.00     0.012 A 
ATOM     22  C   UNL A   1      28.386  32.628  22.199  1.00  0.00     0.065 A 
ENDBRANCH  16  18
ENDBRANCH  15  16
ENDBRANCH   8  10
ENDBRANCH   6   8
ENDBRANCH   5   6
ENDBRANCH   4   5
ENDBRANCH   3   4
ENDBRANCH   2   3
ENDBRANCH   1   2
BRANCH   1  23
ATOM     23  C   UNL A   1      33.563  20.016  25.520  1.00  0.00     0.188 C 
BRANCH  23  24
ATOM     24  O   UNL A   1      34.843  19.777  24.960  1.00  0.00    -0.376 OA
BRANCH  24  25
ATOM     25  C   UNL A   1      35.837  20.759  25.214  1.00  0.00     0.202 C 
BRANCH  25  26
ATOM     26  C   UNL A   1      37.273  20.330  24.893  1.00  0.00     0.261 C 
BRANCH  26  27
ATOM     27  O   UNL A   1      38.279  21.337  25.093  1.00  0.00    -0.460 OA
BRANCH  27  28
ATOM     28  C   UNL A   1      39.219  21.105  26.038  1.00  0.00     0.338 C 
ATOM     29  O   UNL A   1      39.750  20.041  26.304  1.00  0.00    -0.246 OA
BRANCH  28  30
ATOM     30  C   UNL A   1      39.636  22.417  26.574  1.00  0.00     0.060 A 
ATOM     31  C   UNL A   1      38.972  23.577  26.155  1.00  0.00     0.016 A 
ATOM     32  C   UNL A   1      40.682  22.490  27.498  1.00  0.00     0.016 A 
ATOM     33  C   UNL A   1      39.373  24.821  26.649  1.00  0.00     0.010 A 
ATOM     34  C   UNL A   1      41.094  23.735  27.973  1.00  0.00     0.010 A 
ATOM     35  C   UNL A   1      40.460  24.908  27.534  1.00  0.00    -0.014 A 
BRANCH  35  36
ATOM     36  C   UNL A   1      41.048  26.228  27.866  1.00  0.00     0.031 A 
ATOM     37  C   UNL A   1      42.360  26.602  27.240  1.00  0.00     0.074 A 
ATOM     38  C   UNL A   1      40.470  27.052  28.759  1.00  0.00     0.049 A 
ATOM     39  N   UNL A   1      43.048  27.706  27.356  1.00  0.00    -0.248 NA
ATOM     40  C   UNL A   1      43.004  25.573  26.406  1.00  0.00     0.031 C 
ATOM     41  C   UNL A   1      39.257  26.752  29.511  1.00  0.00     0.029 A 
ATOM     42  N   UNL A   1      40.823  28.312  29.180  1.00  0.00    -0.354 N 
ATOM     43  C   UNL A   1      44.247  27.472  26.695  1.00  0.00     0.074 A 
ATOM     44  C   UNL A   1      44.168  26.144  26.129  1.00  0.00     0.031 C 
ATOM     45  C   UNL A   1      38.930  27.826  30.251  1.00  0.00     0.029 A 
ATOM     46  C   UNL A   1      39.898  28.894  30.020  1.00  0.00     0.049 A 
ATOM     47  H   UNL A   1      41.658  28.757  28.907  1.00  0.00     0.167 HD
ATOM     48  C   UNL A   1      45.327  28.279  26.598  1.00  0.00     0.034 A 
ATOM     49  C   UNL A   1      39.830  30.156  30.496  1.00  0.00     0.034 A 
ATOM     50  C   UNL A   1      45.392  29.612  27.129  1.00  0.00     0.049 A 
ATOM     51  C   UNL A   1      40.962  31.110  30.184  1.00  0.00     0.074 A 
ATOM     52  C   UNL A   1      46.434  30.519  27.058  1.00  0.00     0.029 A 
ATOM     53  N   UNL A   1      44.370  30.230  27.831  1.00  0.00    -0.354 N 
ATOM     54  N   UNL A   1      42.010  30.935  29.415  1.00  0.00    -0.248 NA
ATOM     55  C   UNL A   1      40.899  32.441  30.812  1.00  0.00     0.031 C 
ATOM     56  C   UNL A   1      46.046  31.684  27.730  1.00  0.00     0.029 A 
ATOM     57  C   UNL A   1      44.758  31.504  28.206  1.00  0.00     0.049 A 
ATOM     58  H   UNL A   1      43.497  29.824  28.032  1.00  0.00     0.167 HD
ATOM     59  C   UNL A   1      42.724  32.128  29.469  1.00  0.00     0.074 A 
ATOM     60  C   UNL A   1      41.949  33.045  30.277  1.00  0.00     0.031 C 
ATOM     61  C   UNL A   1      43.944  32.423  28.956  1.00  0.00     0.034 A 
BRANCH  48  62
ATOM     62  C   UNL A   1      46.544  27.724  25.915  1.00  0.00     0.023 A 
ATOM     63  C   UNL A   1      46.750  27.951  24.541  1.00  0.00     0.012 A 
ATOM     64  C   UNL A   1      47.504  27.002  26.653  1.00  0.00     0.148 A 
ATOM     65  C   UNL A   1      47.881  27.444  23.904  1.00  0.00     0.002 A 
ATOM     66  C   UNL A   1      48.649  26.537  26.021  1.00  0.00     0.091 A 
ATOM     67  F   UNL A   1      47.270  26.768  27.952  1.00  0.00    -0.205 F 
ATOM     68  C   UNL A   1      48.836  26.749  24.645  1.00  0.00     0.022 A 
BRANCH  66  69
ATOM     69  S   UNL A   1      49.962  25.694  26.909  1.00  0.00     0.127 S 
ATOM     70  O   UNL A   1      50.450  26.753  27.790  1.00  0.00    -0.237 OA
ATOM     71  O   UNL A   1      49.238  24.620  27.588  1.00  0.00    -0.237 OA
ATOM     72  O   UNL A   1      50.902  25.239  25.893  1.00  0.00    -0.744 OA
ENDBRANCH  66  69
ENDBRANCH  48  62
BRANCH  49  73
ATOM     73  C   UNL A   1      38.606  30.665  31.195  1.00  0.00     0.023 A 
ATOM     74  C   UNL A   1      38.566  30.595  32.606  1.00  0.00     0.012 A 
ATOM     75  C   UNL A   1      37.503  31.220  30.524  1.00  0.00     0.148 A 
ATOM     76  C   UNL A   1      37.445  31.013  33.324  1.00  0.00     0.002 A 
ATOM     77  C   UNL A   1      36.433  31.735  31.253  1.00  0.00     0.091 A 
ATOM     78  F   UNL A   1      37.510  31.245  29.184  1.00  0.00    -0.205 F 
ATOM     79  C   UNL A   1      36.387  31.607  32.649  1.00  0.00     0.022 A 
BRANCH  77  80
ATOM     80  S   UNL A   1      35.168  32.746  30.472  1.00  0.00     0.127 S 
ATOM     81  O   UNL A   1      35.950  33.852  29.933  1.00  0.00    -0.237 OA
ATOM     82  O   UNL A   1      34.618  31.828  29.473  1.00  0.00    -0.237 OA
ATOM     83  O   UNL A   1      34.237  33.070  31.546  1.00  0.00    -0.744 OA
ENDBRANCH  77  80
ENDBRANCH  49  73
BRANCH  61  84
ATOM     84  C   UNL A   1      44.526  33.774  29.281  1.00  0.00     0.023 A 
ATOM     85  C   UNL A   1      45.214  33.946  30.500  1.00  0.00     0.012 A 
ATOM     86  C   UNL A   1      44.459  34.844  28.369  1.00  0.00     0.148 A 
ATOM     87  C   UNL A   1      45.792  35.171  30.825  1.00  0.00     0.002 A 
ATOM     88  C   UNL A   1      45.076  36.050  28.681  1.00  0.00     0.091 A 
ATOM     89  F   UNL A   1      43.789  34.668  27.221  1.00  0.00    -0.205 F 
ATOM     90  C   UNL A   1      45.733  36.219  29.911  1.00  0.00     0.022 A 
BRANCH  88  91
ATOM     91  S   UNL A   1      45.131  37.430  27.530  1.00  0.00     0.127 S 
ATOM     92  O   UNL A   1      46.081  36.947  26.530  1.00  0.00    -0.237 OA
ATOM     93  O   UNL A   1      43.744  37.506  27.068  1.00  0.00    -0.237 OA
ATOM     94  O   UNL A   1      45.569  38.581  28.308  1.00  0.00    -0.744 OA
ENDBRANCH  88  91
ENDBRANCH  61  84
ENDBRANCH  35  36
ENDBRANCH  28  30
ENDBRANCH  27  28
ENDBRANCH  26  27
ENDBRANCH  25  26
ENDBRANCH  24  25
ENDBRANCH  23  24
ENDBRANCH   1  23
TORSDOF 23
ENDMDL
MODEL 2
REMARK VINA RESULT:     -10.3      1.889      2.470
REMARK SMILES C[C@@H](C(=O)OCCOCCOCCOC(=O)c1ccc(-c2c3nc(c(-c4cccc(S(=O)(=O)[O-])c4F)c4ccc([nH]4)c(-c4cccc(S(=O)(=O)[O-])c4F)c4nc(c(-c5cccc(S(=O)(=O)[O-])c5F)c5ccc2[nH]5)C=C4)C=C3)cc1)c1ccc(C(=O)c2cccs2)cc1
REMARK SMILES IDX 9 1 8 2 7 3 6 4 5 5 3 6 4 7 2 8 1 9 80 10 81 11 92 12 82 13
REMARK SMILES IDX 91 14 83 15 84 16 85 17 86 18 87 19 90 20 88 21 89 22 10 23
REMARK SMILES IDX 11 24 12 25 13 26 14 27 15 28 16 29 17 30 18 31 79 32 19 33
REMARK SMILES IDX 78 34 20 35 21 36 22 37 72 38 23 39 77 40 71 41 73 42 24 43
REMARK SMILES IDX 76 44 70 45 69 46 25 48 57 49 37 50 56 51 38 52 41 53 55 54
REMARK SMILES IDX 74 55 39 56 40 57 54 59 75 60 42 61 26 62 27 63 35 64 28 65
REMARK SMILES IDX 30 66 36 67 29 68 31 69 32 70 33 71 34 72 58 73 59 74 67 75
REMARK SMILES IDX 60 76 62 77 68 78 61 79 63 80 64 81 65 82 66 83 43 84 44 85
REMARK SMILES IDX 52 86 45 87 47 88 53 89 46 90 48 91 49 92 50 93 51 94
REMARK H PARENT 73 47 41 58
REMARK Flexibility Score: inf
ROOT
ATOM      1  C   UNL A   1      35.587  21.510  25.114  1.00  0.00     0.188 C 
ENDROOT
BRANCH   1   2
ATOM      2  O   UNL A   1      34.732  21.458  26.254  1.00  0.00    -0.376 OA
BRANCH   2   3
ATOM      3  C   UNL A   1      34.353  22.681  26.884  1.00  0.00     0.202 C 
BRANCH   3   4
ATOM      4  C   UNL A   1      32.851  22.937  27.040  1.00  0.00     0.261 C 
BRANCH   4   5
ATOM      5  O   UNL A   1      32.291  23.512  25.846  1.00  0.00    -0.463 OA
BRANCH   5   6
ATOM      6  C   UNL A   1      31.718  24.733  26.003  1.00  0.00     0.313 C 
ATOM      7  O   UNL A   1      30.988  25.029  26.943  1.00  0.00    -0.252 OA
BRANCH   6   8
ATOM      8  C   UNL A   1      32.186  25.745  24.950  1.00  0.00     0.126 C 
ATOM      9  C   UNL A   1      33.370  26.587  25.440  1.00  0.00     0.025 C 
BRANCH   8  10
ATOM     10  C   UNL A   1      31.057  26.554  24.309  1.00  0.00    -0.034 A 
ATOM     11  C   UNL A   1      29.823  25.965  23.976  1.00  0.00     0.005 A 
ATOM     12  C   UNL A   1      31.170  27.941  24.153  1.00  0.00     0.005 A 
ATOM     13  C   UNL A   1      28.743  26.741  23.527  1.00  0.00     0.012 A 
ATOM     14  C   UNL A   1      30.092  28.715  23.719  1.00  0.00     0.012 A 
ATOM     15  C   UNL A   1      28.858  28.132  23.419  1.00  0.00     0.023 A 
BRANCH  15  16
ATOM     16  C   UNL A   1      27.628  28.941  23.102  1.00  0.00     0.202 C 
ATOM     17  O   UNL A   1      26.545  28.530  23.517  1.00  0.00    -0.288 OA
BRANCH  16  18
ATOM     18  C   UNL A   1      27.803  30.212  22.426  1.00  0.00     0.075 A 
ATOM     19  C   UNL A   1      28.026  30.466  21.087  1.00  0.00     0.024 A 
ATOM     20  S   UNL A   1      27.826  31.655  23.345  1.00  0.00    -0.140 S 
ATOM     21  C   UNL A   1      28.371  31.821  20.841  1.00  0.00     0.012 A 
ATOM     22  C   UNL A   1      28.315  32.577  21.990  1.00  0.00     0.065 A 
ENDBRANCH  16  18
ENDBRANCH  15  16
ENDBRANCH   8  10
ENDBRANCH   6   8
ENDBRANCH   5   6
ENDBRANCH   4   5
ENDBRANCH   3   4
ENDBRANCH   2   3
ENDBRANCH   1   2
BRANCH   1  23
ATOM     23  C   UNL A   1      36.870  22.350  25.214  1.00  0.00     0.188 C 
BRANCH  23  24
ATOM     24  O   UNL A   1      38.061  21.583  25.167  1.00  0.00    -0.376 OA
BRANCH  24  25
ATOM     25  C   UNL A   1      37.906  20.189  24.945  1.00  0.00     0.202 C 
BRANCH  25  26
ATOM     26  C   UNL A   1      39.068  19.318  25.437  1.00  0.00     0.261 C 
BRANCH  26  27
ATOM     27  O   UNL A   1      39.912  19.919  26.433  1.00  0.00    -0.460 OA
BRANCH  27  28
ATOM     28  C   UNL A   1      41.249  19.891  26.221  1.00  0.00     0.338 C 
ATOM     29  O   UNL A   1      41.895  18.997  25.705  1.00  0.00    -0.246 OA
BRANCH  28  30
ATOM     30  C   UNL A   1      41.773  21.231  26.557  1.00  0.00     0.060 A 
ATOM     31  C   UNL A   1      42.241  21.486  27.853  1.00  0.00     0.016 A 
ATOM     32  C   UNL A   1      41.804  22.230  25.580  1.00  0.00     0.016 A 
ATOM     33  C   UNL A   1      42.724  22.756  28.177  1.00  0.00     0.010 A 
ATOM     34  C   UNL A   1      42.267  23.503  25.912  1.00  0.00     0.010 A 
ATOM     35  C   UNL A   1      42.706  23.780  27.217  1.00  0.00    -0.014 A 
BRANCH  35  36
ATOM     36  C   UNL A   1      42.979  25.182  27.617  1.00  0.00     0.031 A 
ATOM     37  C   UNL A   1      44.343  25.748  27.349  1.00  0.00     0.074 A 
ATOM     38  C   UNL A   1      42.062  25.918  28.271  1.00  0.00     0.049 A 
ATOM     39  N   UNL A   1      44.801  26.949  27.583  1.00  0.00    -0.248 NA
ATOM     40  C   UNL A   1      45.337  24.821  26.782  1.00  0.00     0.031 C 
ATOM     41  C   UNL A   1      40.747  25.442  28.683  1.00  0.00     0.029 A 
ATOM     42  N   UNL A   1      42.095  27.224  28.698  1.00  0.00    -0.354 N 
ATOM     43  C   UNL A   1      46.157  26.897  27.286  1.00  0.00     0.074 A 
ATOM     44  C   UNL A   1      46.434  25.564  26.797  1.00  0.00     0.031 C 
ATOM     45  C   UNL A   1      40.073  26.463  29.244  1.00  0.00     0.029 A 
ATOM     46  C   UNL A   1      40.899  27.666  29.221  1.00  0.00     0.049 A 
ATOM     47  H   UNL A   1      42.898  27.791  28.636  1.00  0.00     0.167 HD
ATOM     48  C   UNL A   1      47.091  27.862  27.437  1.00  0.00     0.034 A 
ATOM     49  C   UNL A   1      40.517  28.909  29.586  1.00  0.00     0.034 A 
ATOM     50  C   UNL A   1      46.809  29.197  27.887  1.00  0.00     0.049 A 
ATOM     51  C   UNL A   1      41.537  30.024  29.537  1.00  0.00     0.074 A 
ATOM     52  C   UNL A   1      47.685  30.256  28.048  1.00  0.00     0.029 A 
ATOM     53  N   UNL A   1      45.553  29.657  28.250  1.00  0.00    -0.354 N 
ATOM     54  N   UNL A   1      42.770  30.005  29.092  1.00  0.00    -0.248 NA
ATOM     55  C   UNL A   1      41.108  31.338  30.047  1.00  0.00     0.031 C 
ATOM     56  C   UNL A   1      46.959  31.355  28.521  1.00  0.00     0.029 A 
ATOM     57  C   UNL A   1      45.631  30.982  28.641  1.00  0.00     0.049 A 
ATOM     58  H   UNL A   1      44.729  29.121  28.231  1.00  0.00     0.167 HD
ATOM     59  C   UNL A   1      43.258  31.296  29.268  1.00  0.00     0.074 A 
ATOM     60  C   UNL A   1      42.163  32.092  29.782  1.00  0.00     0.031 C 
ATOM     61  C   UNL A   1      44.515  31.772  29.088  1.00  0.00     0.034 A 
BRANCH  48  62
ATOM     62  C   UNL A   1      48.517  27.496  27.143  1.00  0.00     0.023 A 
ATOM     63  C   UNL A   1      49.311  26.887  28.133  1.00  0.00     0.012 A 
ATOM     64  C   UNL A   1      49.059  27.730  25.863  1.00  0.00     0.148 A 
ATOM     65  C   UNL A   1      50.633  26.539  27.862  1.00  0.00     0.002 A 
ATOM     66  C   UNL A   1      50.363  27.342  25.588  1.00  0.00     0.091 A 
ATOM     67  F   UNL A   1      48.296  28.343  24.946  1.00  0.00    -0.205 F 
ATOM     68  C   UNL A   1      51.155  26.754  26.588  1.00  0.00     0.022 A 
BRANCH  66  69
ATOM     69  S   UNL A   1      51.094  27.516  23.957  1.00  0.00     0.127 S 
ATOM     70  O   UNL A   1      52.375  26.835  24.132  1.00  0.00    -0.237 OA
ATOM     71  O   UNL A   1      50.136  26.806  23.110  1.00  0.00    -0.237 OA
ATOM     72  O   UNL A   1      51.174  28.949  23.707  1.00  0.00    -0.744 OA
ENDBRANCH  66  69
ENDBRANCH  48  62
BRANCH  49  73
ATOM     73  C   UNL A   1      39.086  29.229  29.897  1.00  0.00     0.023 A 
ATOM     74  C   UNL A   1      38.577  28.850  31.160  1.00  0.00     0.012 A 
ATOM     75  C   UNL A   1      38.228  29.896  29.006  1.00  0.00     0.148 A 
ATOM     76  C   UNL A   1      37.245  29.080  31.507  1.00  0.00     0.002 A 
ATOM     77  C   UNL A   1      36.931  30.219  29.401  1.00  0.00     0.091 A 
ATOM     78  F   UNL A   1      38.686  30.215  27.787  1.00  0.00    -0.205 F 
ATOM     79  C   UNL A   1      36.427  29.787  30.636  1.00  0.00     0.022 A 
BRANCH  77  80
ATOM     80  S   UNL A   1      35.917  31.352  28.443  1.00  0.00     0.127 S 
ATOM     81  O   UNL A   1      36.727  32.564  28.444  1.00  0.00    -0.237 OA
ATOM     82  O   UNL A   1      35.827  30.665  27.152  1.00  0.00    -0.237 OA
ATOM     83  O   UNL A   1      34.650  31.415  29.163  1.00  0.00    -0.744 OA
ENDBRANCH  77  80
ENDBRANCH  49  73
BRANCH  61  84
ATOM     84  C   UNL A   1      44.779  33.203  29.479  1.00  0.00     0.023 A 
ATOM     85  C   UNL A   1      45.114  33.494  30.817  1.00  0.00     0.012 A 
ATOM     86  C   UNL A   1      44.766  34.241  28.528  1.00  0.00     0.148 A 
ATOM     87  C   UNL A   1      45.394  34.800  31.213  1.00  0.00     0.002 A 
ATOM     88  C   UNL A   1      45.090  35.535  28.922  1.00  0.00     0.091 A 
ATOM     89  F   UNL A   1      44.432  33.949  27.263  1.00  0.00    -0.205 F 
ATOM     90  C   UNL A   1      45.393  35.818  30.264  1.00  0.00     0.022 A 
BRANCH  88  91
ATOM     91  S   UNL A   1      45.203  36.897  27.755  1.00  0.00     0.127 S 
ATOM     92  O   UNL A   1      45.552  38.013  28.633  1.00  0.00    -0.237 OA
ATOM     93  O   UNL A   1      46.281  36.459  26.867  1.00  0.00    -0.237 OA
ATOM     94  O   UNL A   1      43.897  36.984  27.116  1.00  0.00    -0.744 OA
ENDBRANCH  88  91
ENDBRANCH  61  84
ENDBRANCH  35  36
ENDBRANCH  28  30
ENDBRANCH  27  28
ENDBRANCH  26  27
ENDBRANCH  25  26
ENDBRANCH  24  25
ENDBRANCH  23  24
ENDBRANCH   1  23
TORSDOF 23
ENDMDL
MODEL 3
REMARK VINA RESULT:      -9.5      1.538      2.176
REMARK SMILES C[C@@H](C(=O)OCCOCCOCCOC(=O)c1ccc(-c2c3nc(c(-c4cccc(S(=O)(=O)[O-])c4F)c4ccc([nH]4)c(-c4cccc(S(=O)(=O)[O-])c4F)c4nc(c(-c5cccc(S(=O)(=O)[O-])c5F)c5ccc2[nH]5)C=C4)C=C3)cc1)c1ccc(C(=O)c2cccs2)cc1
REMARK SMILES IDX 9 1 8 2 7 3 6 4 5 5 3 6 4 7 2 8 1 9 80 10 81 11 92 12 82 13
REMARK SMILES IDX 91 14 83 15 84 16 85 17 86 18 87 19 90 20 88 21 89 22 10 23
REMARK SMILES IDX 11 24 12 25 13 26 14 27 15 28 16 29 17 30 18 31 79 32 19 33
REMARK SMILES IDX 78 34 20 35 21 36 22 37 72 38 23 39 77 40 71 41 73 42 24 43
REMARK SMILES IDX 76 44 70 45 69 46 25 48 57 49 37 50 56 51 38 52 41 53 55 54
REMARK SMILES IDX 74 55 39 56 40 57 54 59 75 60 42 61 26 62 27 63 35 64 28 65
REMARK SMILES IDX 30 66 36 67 29 68 31 69 32 70 33 71 34 72 58 73 59 74 67 75
REMARK SMILES IDX 60 76 62 77 68 78 61 79 63 80 64 81 65 82 66 83 43 84 44 85
REMARK SMILES IDX 52 86 45 87 47 88 53 89 46 90 48 91 49 92 50 93 51 94
REMARK H PARENT 73 47 41 58
REMARK Flexibility Score: inf
ROOT
ATOM      1  C   UNL A   1      35.826  21.743  24.407  1.00  0.00     0.188 C 
ENDROOT
BRANCH   1   2
ATOM      2  O   UNL A   1      34.810  21.702  25.407  1.00  0.00    -0.376 OA
BRANCH   2   3
ATOM      3  C   UNL A   1      34.911  22.584  26.524  1.00  0.00     0.202 C 
BRANCH   3   4
ATOM      4  C   UNL A   1      33.595  23.069  27.138  1.00  0.00     0.261 C 
BRANCH   4   5
ATOM      5  O   UNL A   1      32.483  22.270  26.694  1.00  0.00    -0.463 OA
BRANCH   5   6
ATOM      6  C   UNL A   1      31.336  22.955  26.449  1.00  0.00     0.313 C 
ATOM      7  O   UNL A   1      30.706  23.559  27.310  1.00  0.00    -0.252 OA
BRANCH   6   8
ATOM      8  C   UNL A   1      30.983  23.003  24.958  1.00  0.00     0.126 C 
ATOM      9  C   UNL A   1      31.886  22.092  24.119  1.00  0.00     0.025 C 
BRANCH   8  10
ATOM     10  C   UNL A   1      30.813  24.416  24.396  1.00  0.00    -0.034 A 
ATOM     11  C   UNL A   1      29.903  25.330  24.959  1.00  0.00     0.005 A 
ATOM     12  C   UNL A   1      31.656  24.890  23.383  1.00  0.00     0.005 A 
ATOM     13  C   UNL A   1      29.857  26.667  24.536  1.00  0.00     0.012 A 
ATOM     14  C   UNL A   1      31.620  26.223  22.971  1.00  0.00     0.012 A 
ATOM     15  C   UNL A   1      30.737  27.136  23.552  1.00  0.00     0.023 A 
BRANCH  15  16
ATOM     16  C   UNL A   1      30.773  28.612  23.253  1.00  0.00     0.202 C 
ATOM     17  O   UNL A   1      31.848  29.105  22.914  1.00  0.00    -0.288 OA
BRANCH  16  18
ATOM     18  C   UNL A   1      29.520  29.343  23.272  1.00  0.00     0.075 A 
ATOM     19  C   UNL A   1      28.246  28.899  22.979  1.00  0.00     0.024 A 
ATOM     20  S   UNL A   1      29.530  31.017  23.625  1.00  0.00    -0.140 S 
ATOM     21  C   UNL A   1      27.308  29.961  22.889  1.00  0.00     0.012 A 
ATOM     22  C   UNL A   1      27.879  31.173  23.204  1.00  0.00     0.065 A 
ENDBRANCH  16  18
ENDBRANCH  15  16
ENDBRANCH   8  10
ENDBRANCH   6   8
ENDBRANCH   5   6
ENDBRANCH   4   5
ENDBRANCH   3   4
ENDBRANCH   2   3
ENDBRANCH   1   2
BRANCH   1  23
ATOM     23  C   UNL A   1      37.062  22.616  24.672  1.00  0.00     0.188 C 
BRANCH  23  24
ATOM     24  O   UNL A   1      38.209  21.881  25.064  1.00  0.00    -0.376 OA
BRANCH  24  25
ATOM     25  C   UNL A   1      38.047  20.476  25.186  1.00  0.00     0.202 C 
BRANCH  25  26
ATOM     26  C   UNL A   1      39.336  19.693  25.458  1.00  0.00     0.261 C 
BRANCH  26  27
ATOM     27  O   UNL A   1      40.041  20.059  26.655  1.00  0.00    -0.460 OA
BRANCH  27  28
ATOM     28  C   UNL A   1      41.346  20.398  26.536  1.00  0.00     0.338 C 
ATOM     29  O   UNL A   1      42.236  19.739  26.027  1.00  0.00    -0.246 OA
BRANCH  28  30
ATOM     30  C   UNL A   1      41.474  21.806  26.965  1.00  0.00     0.060 A 
ATOM     31  C   UNL A   1      41.079  22.833  26.097  1.00  0.00     0.016 A 
ATOM     32  C   UNL A   1      41.981  22.103  28.233  1.00  0.00     0.016 A 
ATOM     33  C   UNL A   1      41.212  24.165  26.495  1.00  0.00     0.010 A 
ATOM     34  C   UNL A   1      42.132  23.435  28.619  1.00  0.00     0.010 A 
ATOM     35  C   UNL A   1      41.772  24.472  27.745  1.00  0.00    -0.014 A 
BRANCH  35  36
ATOM     36  C   UNL A   1      42.146  25.870  28.071  1.00  0.00     0.031 A 
ATOM     37  C   UNL A   1      43.514  26.351  27.683  1.00  0.00     0.074 A 
ATOM     38  C   UNL A   1      41.320  26.677  28.762  1.00  0.00     0.049 A 
ATOM     39  N   UNL A   1      44.050  27.533  27.837  1.00  0.00    -0.248 NA
ATOM     40  C   UNL A   1      44.413  25.352  27.080  1.00  0.00     0.031 C 
ATOM     41  C   UNL A   1      40.017  26.287  29.287  1.00  0.00     0.029 A 
ATOM     42  N   UNL A   1      41.453  27.992  29.136  1.00  0.00    -0.354 N 
ATOM     43  C   UNL A   1      45.375  27.396  27.443  1.00  0.00     0.074 A 
ATOM     44  C   UNL A   1      45.545  26.034  26.987  1.00  0.00     0.031 C 
ATOM     45  C   UNL A   1      39.441  27.361  29.857  1.00  0.00     0.029 A 
ATOM     46  C   UNL A   1      40.324  28.516  29.728  1.00  0.00     0.049 A 
ATOM     47  H   UNL A   1      42.278  28.513  28.994  1.00  0.00     0.167 HD
ATOM     48  C   UNL A   1      46.367  28.314  27.490  1.00  0.00     0.034 A 
ATOM     49  C   UNL A   1      40.036  29.790  30.073  1.00  0.00     0.034 A 
ATOM     50  C   UNL A   1      46.189  29.677  27.908  1.00  0.00     0.049 A 
ATOM     51  C   UNL A   1      41.106  30.846  29.907  1.00  0.00     0.074 A 
ATOM     52  C   UNL A   1      47.128  30.691  27.965  1.00  0.00     0.029 A 
ATOM     53  N   UNL A   1      44.989  30.216  28.344  1.00  0.00    -0.354 N 
ATOM     54  N   UNL A   1      42.300  30.744  29.374  1.00  0.00    -0.248 NA
ATOM     55  C   UNL A   1      40.785  32.197  30.397  1.00  0.00     0.031 C 
ATOM     56  C   UNL A   1      46.498  31.843  28.447  1.00  0.00     0.029 A 
ATOM     57  C   UNL A   1      45.165  31.547  28.678  1.00  0.00     0.049 A 
ATOM     58  H   UNL A   1      44.139  29.726  28.406  1.00  0.00     0.167 HD
ATOM     59  C   UNL A   1      42.866  32.012  29.465  1.00  0.00     0.074 A 
ATOM     60  C   UNL A   1      41.855  32.883  30.027  1.00  0.00     0.031 C 
ATOM     61  C   UNL A   1      44.129  32.412  29.176  1.00  0.00     0.034 A 
BRANCH  48  62
ATOM     62  C   UNL A   1      47.746  27.861  27.106  1.00  0.00     0.023 A 
ATOM     63  C   UNL A   1      48.173  27.951  25.767  1.00  0.00     0.012 A 
ATOM     64  C   UNL A   1      48.631  27.374  28.088  1.00  0.00     0.148 A 
ATOM     65  C   UNL A   1      49.455  27.538  25.407  1.00  0.00     0.002 A 
ATOM     66  C   UNL A   1      49.920  27.004  27.729  1.00  0.00     0.091 A 
ATOM     67  F   UNL A   1      48.191  27.263  29.350  1.00  0.00    -0.205 F 
ATOM     68  C   UNL A   1      50.332  27.077  26.387  1.00  0.00     0.022 A 
BRANCH  66  69
ATOM     69  S   UNL A   1      51.138  26.466  28.934  1.00  0.00     0.127 S 
ATOM     70  O   UNL A   1      51.281  27.660  29.763  1.00  0.00    -0.237 OA
ATOM     71  O   UNL A   1      50.455  25.348  29.587  1.00  0.00    -0.237 OA
ATOM     72  O   UNL A   1      52.317  26.087  28.168  1.00  0.00    -0.744 OA
ENDBRANCH  66  69
ENDBRANCH  48  62
BRANCH  49  73
ATOM     73  C   UNL A   1      38.651  30.198  30.476  1.00  0.00     0.023 A 
ATOM     74  C   UNL A   1      38.291  30.084  31.838  1.00  0.00     0.012 A 
ATOM     75  C   UNL A   1      37.696  30.699  29.575  1.00  0.00     0.148 A 
ATOM     76  C   UNL A   1      37.009  30.408  32.281  1.00  0.00     0.002 A 
ATOM     77  C   UNL A   1      36.454  31.123  30.043  1.00  0.00     0.091 A 
ATOM     78  F   UNL A   1      38.010  30.764  28.273  1.00  0.00    -0.205 F 
ATOM     79  C   UNL A   1      36.096  30.951  31.388  1.00  0.00     0.022 A 
BRANCH  77  80
ATOM     80  S   UNL A   1      35.336  32.072  29.003  1.00  0.00     0.127 S 
ATOM     81  O   UNL A   1      34.903  31.076  28.030  1.00  0.00    -0.237 OA
ATOM     82  O   UNL A   1      34.311  32.492  29.961  1.00  0.00    -0.237 OA
ATOM     83  O   UNL A   1      36.147  33.171  28.493  1.00  0.00    -0.744 OA
ENDBRANCH  77  80
ENDBRANCH  49  73
BRANCH  61  84
ATOM     84  C   UNL A   1      44.495  33.838  29.492  1.00  0.00     0.023 A 
ATOM     85  C   UNL A   1      44.910  34.163  30.800  1.00  0.00     0.012 A 
ATOM     86  C   UNL A   1      44.499  34.836  28.498  1.00  0.00     0.148 A 
ATOM     87  C   UNL A   1      45.285  35.465  31.126  1.00  0.00     0.002 A 
ATOM     88  C   UNL A   1      44.917  36.122  28.821  1.00  0.00     0.091 A 
ATOM     89  F   UNL A   1      44.089  34.514  27.264  1.00  0.00    -0.205 F 
ATOM     90  C   UNL A   1      45.299  36.441  30.135  1.00  0.00     0.022 A 
BRANCH  88  91
ATOM     91  S   UNL A   1      45.055  37.426  27.592  1.00  0.00     0.127 S 
ATOM     92  O   UNL A   1      45.953  36.818  26.611  1.00  0.00    -0.237 OA
ATOM     93  O   UNL A   1      43.671  37.578  27.140  1.00  0.00    -0.237 OA
ATOM     94  O   UNL A   1      45.588  38.584  28.296  1.00  0.00    -0.744 OA
ENDBRANCH  88  91
ENDBRANCH  61  84
ENDBRANCH  35  36
ENDBRANCH  28  30
ENDBRANCH  27  28
ENDBRANCH  26  27
ENDBRANCH  25  26
ENDBRANCH  24  25
ENDBRANCH  23  24
ENDBRANCH   1  23
TORSDOF 23
ENDMDL
