MODEL 1
REMARK VINA RESULT:      -9.6      0.000      0.000
REMARK SMILES O=C(Cn1cnc(-c2ccccc2)c1-c1ccccc1)OCCOCCOCCOC(=O)c1ccc(-c2c3nc(c(-c4cccc(S(=O)(=O)[O-])c4F)c4ccc([nH]4)c(-c4cccc(S(=O)(=O)[O-])c4F)c4nc(c(-c5cccc(S(=O)(=O)[O-])c5F)c5ccc2[nH]5)C=C4)C=C3)cc1
REMARK SMILES IDX 26 1 25 2 24 3 23 4 22 5 21 6 2 7 1 8 3 9 4 10 5 11 14 12
REMARK SMILES IDX 6 13 7 14 15 15 16 16 20 17 17 18 19 19 18 20 8 21 9 22
REMARK SMILES IDX 13 23 10 24 12 25 11 26 27 27 28 28 29 29 30 30 31 31 32 32
REMARK SMILES IDX 33 33 34 34 95 35 35 36 94 37 36 38 37 39 38 40 88 41 39 42
REMARK SMILES IDX 93 43 87 44 89 45 40 46 92 47 86 48 85 49 41 51 73 52 53 53
REMARK SMILES IDX 72 54 54 55 57 56 71 57 90 58 55 59 56 60 70 62 91 63 58 64
REMARK SMILES IDX 42 65 43 66 51 67 44 68 46 69 52 70 45 71 47 72 48 73 49 74
REMARK SMILES IDX 50 75 74 76 75 77 83 78 76 79 78 80 84 81 77 82 79 83 80 84
REMARK SMILES IDX 81 85 82 86 59 87 60 88 68 89 61 90 63 91 69 92 62 93 64 94
REMARK SMILES IDX 65 95 66 96 67 97
REMARK H PARENT 89 50 57 61
REMARK Flexibility Score: inf
ROOT
ATOM      1  C   UNL A   1      44.517  40.471  26.652  1.00  0.00     0.188 C 
ENDROOT
BRANCH   1   2
ATOM      2  C   UNL A   1      43.091  40.723  26.117  1.00  0.00     0.188 C 
BRANCH   2   3
ATOM      3  O   UNL A   1      42.903  41.963  25.454  1.00  0.00    -0.376 OA
BRANCH   3   4
ATOM      4  C   UNL A   1      44.086  42.576  24.956  1.00  0.00     0.202 C 
BRANCH   4   5
ATOM      5  C   UNL A   1      44.111  42.786  23.443  1.00  0.00     0.261 C 
BRANCH   5   6
ATOM      6  O   UNL A   1      42.922  43.395  22.882  1.00  0.00    -0.462 OA
BRANCH   6   7
ATOM      7  C   UNL A   1      42.151  42.976  21.857  1.00  0.00     0.326 C 
ATOM      8  O   UNL A   1      40.943  42.811  22.028  1.00  0.00    -0.250 OA
BRANCH   7   9
ATOM      9  C   UNL A   1      42.776  42.606  20.548  1.00  0.00     0.246 C 
BRANCH   9  10
ATOM     10  N   UNL A   1      42.738  43.612  19.509  1.00  0.00    -0.319 N 
ATOM     11  C   UNL A   1      41.682  43.775  18.654  1.00  0.00     0.201 A 
ATOM     12  C   UNL A   1      43.667  44.597  19.243  1.00  0.00     0.076 A 
ATOM     13  N   UNL A   1      41.852  44.816  17.877  1.00  0.00    -0.236 NA
ATOM     14  C   UNL A   1      43.076  45.331  18.228  1.00  0.00     0.096 A 
BRANCH  12  15
ATOM     15  C   UNL A   1      44.947  44.739  19.934  1.00  0.00     0.000 A 
ATOM     16  C   UNL A   1      45.040  45.494  21.106  1.00  0.00     0.010 A 
ATOM     17  C   UNL A   1      46.063  44.011  19.497  1.00  0.00     0.010 A 
ATOM     18  C   UNL A   1      46.220  45.481  21.854  1.00  0.00     0.001 A 
ATOM     19  C   UNL A   1      47.236  43.989  20.252  1.00  0.00     0.001 A 
ATOM     20  C   UNL A   1      47.310  44.718  21.435  1.00  0.00     0.000 A 
ENDBRANCH  12  15
BRANCH  14  21
ATOM     21  C   UNL A   1      43.599  46.559  17.685  1.00  0.00     0.002 A 
ATOM     22  C   UNL A   1      42.904  47.750  17.923  1.00  0.00     0.010 A 
ATOM     23  C   UNL A   1      44.809  46.586  16.987  1.00  0.00     0.010 A 
ATOM     24  C   UNL A   1      43.444  48.966  17.510  1.00  0.00     0.001 A 
ATOM     25  C   UNL A   1      45.348  47.803  16.574  1.00  0.00     0.001 A 
ATOM     26  C   UNL A   1      44.671  48.992  16.846  1.00  0.00     0.000 A 
ENDBRANCH  14  21
ENDBRANCH   9  10
ENDBRANCH   7   9
ENDBRANCH   6   7
ENDBRANCH   5   6
ENDBRANCH   4   5
ENDBRANCH   3   4
ENDBRANCH   2   3
ENDBRANCH   1   2
BRANCH   1  27
ATOM     27  O   UNL A   1      45.383  39.547  26.002  1.00  0.00    -0.376 OA
BRANCH  27  28
ATOM     28  C   UNL A   1      46.742  39.399  26.407  1.00  0.00     0.202 C 
BRANCH  28  29
ATOM     29  C   UNL A   1      47.431  38.054  26.218  1.00  0.00     0.261 C 
BRANCH  29  30
ATOM     30  O   UNL A   1      46.464  37.012  26.137  1.00  0.00    -0.460 OA
BRANCH  30  31
ATOM     31  C   UNL A   1      46.743  35.907  26.855  1.00  0.00     0.338 C 
ATOM     32  O   UNL A   1      47.815  35.332  26.930  1.00  0.00    -0.246 OA
BRANCH  31  33
ATOM     33  C   UNL A   1      45.543  35.491  27.599  1.00  0.00     0.060 A 
ATOM     34  C   UNL A   1      45.670  35.422  28.988  1.00  0.00     0.016 A 
ATOM     35  C   UNL A   1      44.374  35.064  26.946  1.00  0.00     0.016 A 
ATOM     36  C   UNL A   1      44.752  34.681  29.694  1.00  0.00     0.010 A 
ATOM     37  C   UNL A   1      43.443  34.334  27.656  1.00  0.00     0.010 A 
ATOM     38  C   UNL A   1      43.729  34.041  28.988  1.00  0.00    -0.014 A 
BRANCH  38  39
ATOM     39  C   UNL A   1      43.192  32.847  29.615  1.00  0.00     0.031 A 
ATOM     40  C   UNL A   1      43.692  31.550  29.134  1.00  0.00     0.074 A 
ATOM     41  C   UNL A   1      42.238  32.959  30.562  1.00  0.00     0.049 A 
ATOM     42  N   UNL A   1      43.023  30.617  28.538  1.00  0.00    -0.248 NA
ATOM     43  C   UNL A   1      45.128  31.289  29.268  1.00  0.00     0.031 C 
ATOM     44  C   UNL A   1      41.847  34.175  31.286  1.00  0.00     0.029 A 
ATOM     45  N   UNL A   1      41.509  31.982  31.173  1.00  0.00    -0.354 N 
ATOM     46  C   UNL A   1      43.905  29.549  28.444  1.00  0.00     0.074 A 
ATOM     47  C   UNL A   1      45.214  30.060  28.759  1.00  0.00     0.031 C 
ATOM     48  C   UNL A   1      41.162  33.827  32.393  1.00  0.00     0.029 A 
ATOM     49  C   UNL A   1      40.954  32.391  32.377  1.00  0.00     0.049 A 
ATOM     50  H   UNL A   1      41.388  31.079  30.798  1.00  0.00     0.167 HD
ATOM     51  C   UNL A   1      43.463  28.266  28.367  1.00  0.00     0.034 A 
ATOM     52  C   UNL A   1      40.441  31.598  33.343  1.00  0.00     0.034 A 
ATOM     53  C   UNL A   1      42.093  28.171  27.943  1.00  0.00     0.049 A 
ATOM     54  C   UNL A   1      40.093  30.299  32.732  1.00  0.00     0.074 A 
ATOM     55  C   UNL A   1      41.374  28.564  26.833  1.00  0.00     0.029 A 
ATOM     56  N   UNL A   1      41.167  27.818  28.891  1.00  0.00    -0.354 N 
ATOM     57  N   UNL A   1      39.114  30.119  31.889  1.00  0.00    -0.248 NA
ATOM     58  C   UNL A   1      41.053  29.209  32.813  1.00  0.00     0.031 C 
ATOM     59  C   UNL A   1      40.050  28.802  27.298  1.00  0.00     0.029 A 
ATOM     60  C   UNL A   1      40.032  28.551  28.673  1.00  0.00     0.049 A 
ATOM     61  H   UNL A   1      41.296  27.152  29.605  1.00  0.00     0.167 HD
ATOM     62  C   UNL A   1      39.556  29.108  31.046  1.00  0.00     0.074 A 
ATOM     63  C   UNL A   1      40.665  28.487  31.761  1.00  0.00     0.031 C 
ATOM     64  C   UNL A   1      39.184  29.067  29.732  1.00  0.00     0.034 A 
BRANCH  51  65
ATOM     65  C   UNL A   1      44.178  27.108  29.012  1.00  0.00     0.023 A 
ATOM     66  C   UNL A   1      44.524  26.006  28.201  1.00  0.00     0.012 A 
ATOM     67  C   UNL A   1      44.296  26.938  30.411  1.00  0.00     0.148 A 
ATOM     68  C   UNL A   1      44.948  24.794  28.757  1.00  0.00     0.002 A 
ATOM     69  C   UNL A   1      44.808  25.765  30.952  1.00  0.00     0.091 A 
ATOM     70  F   UNL A   1      43.791  27.853  31.247  1.00  0.00    -0.205 F 
ATOM     71  C   UNL A   1      45.110  24.678  30.133  1.00  0.00     0.022 A 
BRANCH  69  72
ATOM     72  S   UNL A   1      45.109  25.653  32.718  1.00  0.00     0.127 S 
ATOM     73  O   UNL A   1      46.176  26.629  32.902  1.00  0.00    -0.237 OA
ATOM     74  O   UNL A   1      43.814  26.034  33.283  1.00  0.00    -0.237 OA
ATOM     75  O   UNL A   1      45.457  24.251  32.931  1.00  0.00    -0.744 OA
ENDBRANCH  69  72
ENDBRANCH  51  65
BRANCH  52  76
ATOM     76  C   UNL A   1      40.418  31.835  34.802  1.00  0.00     0.023 A 
ATOM     77  C   UNL A   1      41.589  32.257  35.458  1.00  0.00     0.012 A 
ATOM     78  C   UNL A   1      39.201  31.863  35.524  1.00  0.00     0.148 A 
ATOM     79  C   UNL A   1      41.547  32.705  36.784  1.00  0.00     0.002 A 
ATOM     80  C   UNL A   1      39.170  32.282  36.849  1.00  0.00     0.091 A 
ATOM     81  F   UNL A   1      38.059  31.568  34.887  1.00  0.00    -0.205 F 
ATOM     82  C   UNL A   1      40.341  32.717  37.480  1.00  0.00     0.022 A 
BRANCH  80  83
ATOM     83  S   UNL A   1      37.643  32.287  37.798  1.00  0.00     0.127 S 
ATOM     84  O   UNL A   1      36.775  33.139  36.984  1.00  0.00    -0.237 OA
ATOM     85  O   UNL A   1      37.281  30.873  37.803  1.00  0.00    -0.237 OA
ATOM     86  O   UNL A   1      37.992  32.865  39.091  1.00  0.00    -0.744 OA
ENDBRANCH  80  83
ENDBRANCH  52  76
BRANCH  64  87
ATOM     87  C   UNL A   1      38.006  29.906  29.293  1.00  0.00     0.023 A 
ATOM     88  C   UNL A   1      36.781  29.316  28.921  1.00  0.00     0.012 A 
ATOM     89  C   UNL A   1      38.069  31.306  29.427  1.00  0.00     0.148 A 
ATOM     90  C   UNL A   1      35.657  30.101  28.656  1.00  0.00     0.002 A 
ATOM     91  C   UNL A   1      36.934  32.081  29.207  1.00  0.00     0.091 A 
ATOM     92  F   UNL A   1      39.236  31.861  29.792  1.00  0.00    -0.205 F 
ATOM     93  C   UNL A   1      35.729  31.483  28.811  1.00  0.00     0.022 A 
BRANCH  91  94
ATOM     94  S   UNL A   1      36.932  33.848  29.531  1.00  0.00     0.127 S 
ATOM     95  O   UNL A   1      37.030  33.897  30.988  1.00  0.00    -0.237 OA
ATOM     96  O   UNL A   1      38.129  34.308  28.824  1.00  0.00    -0.237 OA
ATOM     97  O   UNL A   1      35.686  34.346  28.962  1.00  0.00    -0.744 OA
ENDBRANCH  91  94
ENDBRANCH  64  87
ENDBRANCH  38  39
ENDBRANCH  31  33
ENDBRANCH  30  31
ENDBRANCH  29  30
ENDBRANCH  28  29
ENDBRANCH  27  28
ENDBRANCH   1  27
TORSDOF 23
ENDMDL
MODEL 2
REMARK VINA RESULT:      -9.5      4.854      7.012
REMARK SMILES O=C(Cn1cnc(-c2ccccc2)c1-c1ccccc1)OCCOCCOCCOC(=O)c1ccc(-c2c3nc(c(-c4cccc(S(=O)(=O)[O-])c4F)c4ccc([nH]4)c(-c4cccc(S(=O)(=O)[O-])c4F)c4nc(c(-c5cccc(S(=O)(=O)[O-])c5F)c5ccc2[nH]5)C=C4)C=C3)cc1
REMARK SMILES IDX 26 1 25 2 24 3 23 4 22 5 21 6 2 7 1 8 3 9 4 10 5 11 14 12
REMARK SMILES IDX 6 13 7 14 15 15 16 16 20 17 17 18 19 19 18 20 8 21 9 22
REMARK SMILES IDX 13 23 10 24 12 25 11 26 27 27 28 28 29 29 30 30 31 31 32 32
REMARK SMILES IDX 33 33 34 34 95 35 35 36 94 37 36 38 37 39 38 40 88 41 39 42
REMARK SMILES IDX 93 43 87 44 89 45 40 46 92 47 86 48 85 49 41 51 73 52 53 53
REMARK SMILES IDX 72 54 54 55 57 56 71 57 90 58 55 59 56 60 70 62 91 63 58 64
REMARK SMILES IDX 42 65 43 66 51 67 44 68 46 69 52 70 45 71 47 72 48 73 49 74
REMARK SMILES IDX 50 75 74 76 75 77 83 78 76 79 78 80 84 81 77 82 79 83 80 84
REMARK SMILES IDX 81 85 82 86 59 87 60 88 68 89 61 90 63 91 69 92 62 93 64 94
REMARK SMILES IDX 65 95 66 96 67 97
REMARK H PARENT 89 50 57 61
REMARK Flexibility Score: inf
ROOT
ATOM      1  C   UNL A   1      43.614  39.685  27.117  1.00  0.00     0.188 C 
ENDROOT
BRANCH   1   2
ATOM      2  C   UNL A   1      44.192  40.733  26.143  1.00  0.00     0.188 C 
BRANCH   2   3
ATOM      3  O   UNL A   1      43.817  42.076  26.402  1.00  0.00    -0.376 OA
BRANCH   3   4
ATOM      4  C   UNL A   1      43.981  42.978  25.314  1.00  0.00     0.202 C 
BRANCH   4   5
ATOM      5  C   UNL A   1      44.090  42.313  23.942  1.00  0.00     0.261 C 
BRANCH   5   6
ATOM      6  O   UNL A   1      42.831  42.088  23.262  1.00  0.00    -0.462 OA
BRANCH   6   7
ATOM      7  C   UNL A   1      42.300  42.746  22.211  1.00  0.00     0.326 C 
ATOM      8  O   UNL A   1      41.504  43.666  22.403  1.00  0.00    -0.250 OA
BRANCH   7   9
ATOM      9  C   UNL A   1      42.587  42.289  20.814  1.00  0.00     0.246 C 
BRANCH   9  10
ATOM     10  N   UNL A   1      42.380  43.262  19.764  1.00  0.00    -0.319 N 
ATOM     11  C   UNL A   1      41.196  43.411  19.094  1.00  0.00     0.201 A 
ATOM     12  C   UNL A   1      43.258  44.227  19.313  1.00  0.00     0.076 A 
ATOM     13  N   UNL A   1      41.239  44.424  18.265  1.00  0.00    -0.236 NA
ATOM     14  C   UNL A   1      42.507  44.936  18.388  1.00  0.00     0.096 A 
BRANCH  12  15
ATOM     15  C   UNL A   1      44.636  44.376  19.772  1.00  0.00     0.000 A 
ATOM     16  C   UNL A   1      44.950  45.279  20.792  1.00  0.00     0.010 A 
ATOM     17  C   UNL A   1      45.634  43.520  19.284  1.00  0.00     0.010 A 
ATOM     18  C   UNL A   1      46.233  45.289  21.346  1.00  0.00     0.001 A 
ATOM     19  C   UNL A   1      46.910  43.522  19.848  1.00  0.00     0.001 A 
ATOM     20  C   UNL A   1      47.206  44.402  20.884  1.00  0.00     0.000 A 
ENDBRANCH  12  15
BRANCH  14  21
ATOM     21  C   UNL A   1      42.939  46.140  17.724  1.00  0.00     0.002 A 
ATOM     22  C   UNL A   1      42.000  47.147  17.478  1.00  0.00     0.010 A 
ATOM     23  C   UNL A   1      44.280  46.340  17.383  1.00  0.00     0.010 A 
ATOM     24  C   UNL A   1      42.409  48.366  16.944  1.00  0.00     0.001 A 
ATOM     25  C   UNL A   1      44.688  47.560  16.848  1.00  0.00     0.001 A 
ATOM     26  C   UNL A   1      43.754  48.575  16.639  1.00  0.00     0.000 A 
ENDBRANCH  14  21
ENDBRANCH   9  10
ENDBRANCH   7   9
ENDBRANCH   6   7
ENDBRANCH   5   6
ENDBRANCH   4   5
ENDBRANCH   3   4
ENDBRANCH   2   3
ENDBRANCH   1   2
BRANCH   1  27
ATOM     27  O   UNL A   1      42.455  38.934  26.770  1.00  0.00    -0.376 OA
BRANCH  27  28
ATOM     28  C   UNL A   1      42.238  37.628  27.299  1.00  0.00     0.202 C 
BRANCH  28  29
ATOM     29  C   UNL A   1      42.786  36.421  26.547  1.00  0.00     0.261 C 
BRANCH  29  30
ATOM     30  O   UNL A   1      43.911  35.882  27.233  1.00  0.00    -0.460 OA
BRANCH  30  31
ATOM     31  C   UNL A   1      43.723  34.671  27.789  1.00  0.00     0.338 C 
ATOM     32  O   UNL A   1      42.771  34.311  28.459  1.00  0.00    -0.246 OA
BRANCH  31  33
ATOM     33  C   UNL A   1      44.847  33.789  27.434  1.00  0.00     0.060 A 
ATOM     34  C   UNL A   1      44.572  32.778  26.511  1.00  0.00     0.016 A 
ATOM     35  C   UNL A   1      46.092  33.875  28.080  1.00  0.00     0.016 A 
ATOM     36  C   UNL A   1      45.429  31.707  26.437  1.00  0.00     0.010 A 
ATOM     37  C   UNL A   1      46.962  32.807  27.994  1.00  0.00     0.010 A 
ATOM     38  C   UNL A   1      46.542  31.685  27.283  1.00  0.00    -0.014 A 
BRANCH  38  39
ATOM     39  C   UNL A   1      47.043  30.365  27.620  1.00  0.00     0.031 A 
ATOM     40  C   UNL A   1      48.381  30.004  27.126  1.00  0.00     0.074 A 
ATOM     41  C   UNL A   1      46.266  29.511  28.318  1.00  0.00     0.049 A 
ATOM     42  N   UNL A   1      48.687  29.072  26.283  1.00  0.00    -0.248 NA
ATOM     43  C   UNL A   1      49.508  30.831  27.568  1.00  0.00     0.031 C 
ATOM     44  C   UNL A   1      45.042  29.835  29.063  1.00  0.00     0.029 A 
ATOM     45  N   UNL A   1      46.479  28.198  28.619  1.00  0.00    -0.354 N 
ATOM     46  C   UNL A   1      50.075  29.035  26.280  1.00  0.00     0.074 A 
ATOM     47  C   UNL A   1      50.526  30.225  26.956  1.00  0.00     0.031 C 
ATOM     48  C   UNL A   1      44.775  28.835  29.927  1.00  0.00     0.029 A 
ATOM     49  C   UNL A   1      45.721  27.758  29.695  1.00  0.00     0.049 A 
ATOM     50  H   UNL A   1      47.105  27.622  28.125  1.00  0.00     0.167 HD
ATOM     51  C   UNL A   1      50.756  27.906  25.951  1.00  0.00     0.034 A 
ATOM     52  C   UNL A   1      45.911  26.629  30.412  1.00  0.00     0.034 A 
ATOM     53  C   UNL A   1      49.960  26.971  25.204  1.00  0.00     0.049 A 
ATOM     54  C   UNL A   1      46.705  25.693  29.589  1.00  0.00     0.074 A 
ATOM     55  C   UNL A   1      49.274  26.995  24.008  1.00  0.00     0.029 A 
ATOM     56  N   UNL A   1      49.551  25.836  25.855  1.00  0.00    -0.354 N 
ATOM     57  N   UNL A   1      46.259  25.090  28.522  1.00  0.00    -0.248 NA
ATOM     58  C   UNL A   1      48.148  25.653  29.771  1.00  0.00     0.031 C 
ATOM     59  C   UNL A   1      48.194  26.081  24.167  1.00  0.00     0.029 A 
ATOM     60  C   UNL A   1      48.272  25.553  25.458  1.00  0.00     0.049 A 
ATOM     61  H   UNL A   1      50.085  25.314  26.498  1.00  0.00     0.167 HD
ATOM     62  C   UNL A   1      47.370  24.967  27.698  1.00  0.00     0.074 A 
ATOM     63  C   UNL A   1      48.512  25.176  28.580  1.00  0.00     0.031 C 
ATOM     64  C   UNL A   1      47.253  25.010  26.337  1.00  0.00     0.034 A 
BRANCH  51  65
ATOM     65  C   UNL A   1      52.049  27.502  26.610  1.00  0.00     0.023 A 
ATOM     66  C   UNL A   1      53.121  27.109  25.782  1.00  0.00     0.012 A 
ATOM     67  C   UNL A   1      52.178  27.246  27.995  1.00  0.00     0.148 A 
ATOM     68  C   UNL A   1      54.255  26.477  26.306  1.00  0.00     0.002 A 
ATOM     69  C   UNL A   1      53.346  26.706  28.519  1.00  0.00     0.091 A 
ATOM     70  F   UNL A   1      51.127  27.394  28.811  1.00  0.00    -0.205 F 
ATOM     71  C   UNL A   1      54.378  26.292  27.678  1.00  0.00     0.022 A 
BRANCH  69  72
ATOM     72  S   UNL A   1      53.543  26.560  30.298  1.00  0.00     0.127 S 
ATOM     73  O   UNL A   1      53.576  27.958  30.711  1.00  0.00    -0.237 OA
ATOM     74  O   UNL A   1      52.338  25.825  30.688  1.00  0.00    -0.237 OA
ATOM     75  O   UNL A   1      54.777  25.797  30.458  1.00  0.00    -0.744 OA
ENDBRANCH  69  72
ENDBRANCH  51  65
BRANCH  52  76
ATOM     76  C   UNL A   1      45.613  26.393  31.841  1.00  0.00     0.023 A 
ATOM     77  C   UNL A   1      45.666  27.465  32.749  1.00  0.00     0.012 A 
ATOM     78  C   UNL A   1      45.061  25.168  32.284  1.00  0.00     0.148 A 
ATOM     79  C   UNL A   1      45.174  27.326  34.053  1.00  0.00     0.002 A 
ATOM     80  C   UNL A   1      44.599  25.027  33.588  1.00  0.00     0.091 A 
ATOM     81  F   UNL A   1      44.902  24.169  31.404  1.00  0.00    -0.205 F 
ATOM     82  C   UNL A   1      44.642  26.109  34.473  1.00  0.00     0.022 A 
BRANCH  80  83
ATOM     83  S   UNL A   1      43.932  23.468  34.186  1.00  0.00     0.127 S 
ATOM     84  O   UNL A   1      43.299  22.920  32.985  1.00  0.00    -0.237 OA
ATOM     85  O   UNL A   1      45.137  22.764  34.616  1.00  0.00    -0.237 OA
ATOM     86  O   UNL A   1      42.989  23.828  35.238  1.00  0.00    -0.744 OA
ENDBRANCH  80  83
ENDBRANCH  52  76
BRANCH  64  87
ATOM     87  C   UNL A   1      45.881  24.822  25.729  1.00  0.00     0.023 A 
ATOM     88  C   UNL A   1      45.438  23.558  25.290  1.00  0.00     0.012 A 
ATOM     89  C   UNL A   1      44.960  25.886  25.764  1.00  0.00     0.148 A 
ATOM     90  C   UNL A   1      44.122  23.365  24.864  1.00  0.00     0.002 A 
ATOM     91  C   UNL A   1      43.637  25.679  25.383  1.00  0.00     0.091 A 
ATOM     92  F   UNL A   1      45.384  27.085  26.194  1.00  0.00    -0.205 F 
ATOM     93  C   UNL A   1      43.217  24.422  24.922  1.00  0.00     0.022 A 
BRANCH  91  94
ATOM     94  S   UNL A   1      42.397  26.964  25.574  1.00  0.00     0.127 S 
ATOM     95  O   UNL A   1      42.626  27.415  26.944  1.00  0.00    -0.237 OA
ATOM     96  O   UNL A   1      42.774  27.933  24.542  1.00  0.00    -0.237 OA
ATOM     97  O   UNL A   1      41.118  26.310  25.325  1.00  0.00    -0.744 OA
ENDBRANCH  91  94
ENDBRANCH  64  87
ENDBRANCH  38  39
ENDBRANCH  31  33
ENDBRANCH  30  31
ENDBRANCH  29  30
ENDBRANCH  28  29
ENDBRANCH  27  28
ENDBRANCH   1  27
TORSDOF 23
ENDMDL
MODEL 3
REMARK VINA RESULT:      -9.4      8.774     12.939
REMARK SMILES O=C(Cn1cnc(-c2ccccc2)c1-c1ccccc1)OCCOCCOCCOC(=O)c1ccc(-c2c3nc(c(-c4cccc(S(=O)(=O)[O-])c4F)c4ccc([nH]4)c(-c4cccc(S(=O)(=O)[O-])c4F)c4nc(c(-c5cccc(S(=O)(=O)[O-])c5F)c5ccc2[nH]5)C=C4)C=C3)cc1
REMARK SMILES IDX 26 1 25 2 24 3 23 4 22 5 21 6 2 7 1 8 3 9 4 10 5 11 14 12
REMARK SMILES IDX 6 13 7 14 15 15 16 16 20 17 17 18 19 19 18 20 8 21 9 22
REMARK SMILES IDX 13 23 10 24 12 25 11 26 27 27 28 28 29 29 30 30 31 31 32 32
REMARK SMILES IDX 33 33 34 34 95 35 35 36 94 37 36 38 37 39 38 40 88 41 39 42
REMARK SMILES IDX 93 43 87 44 89 45 40 46 92 47 86 48 85 49 41 51 73 52 53 53
REMARK SMILES IDX 72 54 54 55 57 56 71 57 90 58 55 59 56 60 70 62 91 63 58 64
REMARK SMILES IDX 42 65 43 66 51 67 44 68 46 69 52 70 45 71 47 72 48 73 49 74
REMARK SMILES IDX 50 75 74 76 75 77 83 78 76 79 78 80 84 81 77 82 79 83 80 84
REMARK SMILES IDX 81 85 82 86 59 87 60 88 68 89 61 90 63 91 69 92 62 93 64 94
REMARK SMILES IDX 65 95 66 96 67 97
REMARK H PARENT 89 50 57 61
REMARK Flexibility Score: inf
ROOT
ATOM      1  C   UNL A   1      34.524  34.556  31.266  1.00  0.00     0.188 C 
ENDROOT
BRANCH   1   2
ATOM      2  C   UNL A   1      35.553  34.785  32.393  1.00  0.00     0.188 C 
BRANCH   2   3
ATOM      3  O   UNL A   1      35.172  34.303  33.672  1.00  0.00    -0.376 OA
BRANCH   3   4
ATOM      4  C   UNL A   1      36.084  33.397  34.280  1.00  0.00     0.202 C 
BRANCH   4   5
ATOM      5  C   UNL A   1      36.476  33.749  35.714  1.00  0.00     0.261 C 
BRANCH   5   6
ATOM      6  O   UNL A   1      37.793  33.304  36.123  1.00  0.00    -0.462 OA
BRANCH   6   7
ATOM      7  C   UNL A   1      38.204  32.071  36.482  1.00  0.00     0.326 C 
ATOM      8  O   UNL A   1      37.401  31.278  36.975  1.00  0.00    -0.250 OA
BRANCH   7   9
ATOM      9  C   UNL A   1      39.652  31.704  36.387  1.00  0.00     0.246 C 
BRANCH   9  10
ATOM     10  N   UNL A   1      40.291  31.928  35.109  1.00  0.00    -0.319 N 
ATOM     11  C   UNL A   1      39.615  31.943  33.919  1.00  0.00     0.201 A 
ATOM     12  C   UNL A   1      41.614  32.232  34.859  1.00  0.00     0.076 A 
ATOM     13  N   UNL A   1      40.404  32.267  32.924  1.00  0.00    -0.236 NA
ATOM     14  C   UNL A   1      41.642  32.445  33.490  1.00  0.00     0.096 A 
BRANCH  12  15
ATOM     15  C   UNL A   1      42.659  32.287  35.878  1.00  0.00     0.000 A 
ATOM     16  C   UNL A   1      42.771  33.397  36.720  1.00  0.00     0.010 A 
ATOM     17  C   UNL A   1      43.477  31.170  36.106  1.00  0.00     0.010 A 
ATOM     18  C   UNL A   1      43.654  33.368  37.803  1.00  0.00     0.001 A 
ATOM     19  C   UNL A   1      44.348  31.137  37.194  1.00  0.00     0.001 A 
ATOM     20  C   UNL A   1      44.430  32.234  38.047  1.00  0.00     0.000 A 
ENDBRANCH  12  15
BRANCH  14  21
ATOM     21  C   UNL A   1      42.785  32.921  32.752  1.00  0.00     0.002 A 
ATOM     22  C   UNL A   1      43.634  33.855  33.356  1.00  0.00     0.010 A 
ATOM     23  C   UNL A   1      43.090  32.421  31.483  1.00  0.00     0.010 A 
ATOM     24  C   UNL A   1      44.807  34.246  32.714  1.00  0.00     0.001 A 
ATOM     25  C   UNL A   1      44.263  32.814  30.843  1.00  0.00     0.001 A 
ATOM     26  C   UNL A   1      45.125  33.717  31.464  1.00  0.00     0.000 A 
ENDBRANCH  14  21
ENDBRANCH   9  10
ENDBRANCH   7   9
ENDBRANCH   6   7
ENDBRANCH   5   6
ENDBRANCH   4   5
ENDBRANCH   3   4
ENDBRANCH   2   3
ENDBRANCH   1   2
BRANCH   1  27
ATOM     27  O   UNL A   1      34.953  34.320  29.929  1.00  0.00    -0.376 OA
BRANCH  27  28
ATOM     28  C   UNL A   1      34.139  33.594  29.011  1.00  0.00     0.202 C 
BRANCH  28  29
ATOM     29  C   UNL A   1      34.653  32.276  28.445  1.00  0.00     0.261 C 
BRANCH  29  30
ATOM     30  O   UNL A   1      35.621  31.708  29.320  1.00  0.00    -0.460 OA
BRANCH  30  31
ATOM     31  C   UNL A   1      36.523  30.896  28.736  1.00  0.00     0.338 C 
ATOM     32  O   UNL A   1      36.518  30.504  27.582  1.00  0.00    -0.246 OA
BRANCH  31  33
ATOM     33  C   UNL A   1      37.582  30.565  29.703  1.00  0.00     0.060 A 
ATOM     34  C   UNL A   1      38.812  31.199  29.514  1.00  0.00     0.016 A 
ATOM     35  C   UNL A   1      37.411  29.572  30.682  1.00  0.00     0.016 A 
ATOM     36  C   UNL A   1      39.927  30.657  30.108  1.00  0.00     0.010 A 
ATOM     37  C   UNL A   1      38.527  29.037  31.292  1.00  0.00     0.010 A 
ATOM     38  C   UNL A   1      39.775  29.502  30.881  1.00  0.00    -0.014 A 
BRANCH  38  39
ATOM     39  C   UNL A   1      40.946  28.650  30.967  1.00  0.00     0.031 A 
ATOM     40  C   UNL A   1      41.640  28.586  32.262  1.00  0.00     0.074 A 
ATOM     41  C   UNL A   1      41.382  27.998  29.869  1.00  0.00     0.049 A 
ATOM     42  N   UNL A   1      42.843  28.976  32.534  1.00  0.00    -0.248 NA
ATOM     43  C   UNL A   1      40.876  28.092  33.412  1.00  0.00     0.031 C 
ATOM     44  C   UNL A   1      40.650  27.790  28.613  1.00  0.00     0.029 A 
ATOM     45  N   UNL A   1      42.521  27.267  29.693  1.00  0.00    -0.354 N 
ATOM     46  C   UNL A   1      43.071  28.549  33.836  1.00  0.00     0.074 A 
ATOM     47  C   UNL A   1      41.794  28.156  34.376  1.00  0.00     0.031 C 
ATOM     48  C   UNL A   1      41.234  26.790  27.923  1.00  0.00     0.029 A 
ATOM     49  C   UNL A   1      42.443  26.392  28.620  1.00  0.00     0.049 A 
ATOM     50  H   UNL A   1      43.315  27.353  30.268  1.00  0.00     0.167 HD
ATOM     51  C   UNL A   1      44.326  28.302  34.294  1.00  0.00     0.034 A 
ATOM     52  C   UNL A   1      43.262  25.347  28.367  1.00  0.00     0.034 A 
ATOM     53  C   UNL A   1      45.345  28.939  33.505  1.00  0.00     0.049 A 
ATOM     54  C   UNL A   1      44.528  25.571  29.094  1.00  0.00     0.074 A 
ATOM     55  C   UNL A   1      45.649  30.236  33.148  1.00  0.00     0.029 A 
ATOM     56  N   UNL A   1      46.109  28.132  32.701  1.00  0.00    -0.354 N 
ATOM     57  N   UNL A   1      45.401  26.491  28.788  1.00  0.00    -0.248 NA
ATOM     58  C   UNL A   1      44.701  24.959  30.402  1.00  0.00     0.031 C 
ATOM     59  C   UNL A   1      46.289  30.144  31.879  1.00  0.00     0.029 A 
ATOM     60  C   UNL A   1      46.332  28.794  31.523  1.00  0.00     0.049 A 
ATOM     61  H   UNL A   1      46.439  27.233  32.930  1.00  0.00     0.167 HD
ATOM     62  C   UNL A   1      45.960  26.864  30.003  1.00  0.00     0.074 A 
ATOM     63  C   UNL A   1      45.614  25.784  30.918  1.00  0.00     0.031 C 
ATOM     64  C   UNL A   1      46.384  28.144  30.226  1.00  0.00     0.034 A 
BRANCH  51  65
ATOM     65  C   UNL A   1      44.647  27.194  35.263  1.00  0.00     0.023 A 
ATOM     66  C   UNL A   1      45.280  27.536  36.477  1.00  0.00     0.012 A 
ATOM     67  C   UNL A   1      44.591  25.820  34.932  1.00  0.00     0.148 A 
ATOM     68  C   UNL A   1      45.843  26.560  37.307  1.00  0.00     0.002 A 
ATOM     69  C   UNL A   1      45.068  24.851  35.806  1.00  0.00     0.091 A 
ATOM     70  F   UNL A   1      44.201  25.435  33.711  1.00  0.00    -0.205 F 
ATOM     71  C   UNL A   1      45.721  25.214  36.983  1.00  0.00     0.022 A 
BRANCH  69  72
ATOM     72  S   UNL A   1      44.820  23.112  35.432  1.00  0.00     0.127 S 
ATOM     73  O   UNL A   1      45.723  22.918  34.304  1.00  0.00    -0.237 OA
ATOM     74  O   UNL A   1      45.233  22.461  36.677  1.00  0.00    -0.237 OA
ATOM     75  O   UNL A   1      43.391  23.007  35.156  1.00  0.00    -0.744 OA
ENDBRANCH  69  72
ENDBRANCH  51  65
BRANCH  52  76
ATOM     76  C   UNL A   1      42.935  24.073  27.691  1.00  0.00     0.023 A 
ATOM     77  C   UNL A   1      41.631  23.553  27.778  1.00  0.00     0.012 A 
ATOM     78  C   UNL A   1      43.834  23.475  26.776  1.00  0.00     0.148 A 
ATOM     79  C   UNL A   1      41.231  22.480  26.972  1.00  0.00     0.002 A 
ATOM     80  C   UNL A   1      43.440  22.392  25.998  1.00  0.00     0.091 A 
ATOM     81  F   UNL A   1      45.044  24.022  26.599  1.00  0.00    -0.205 F 
ATOM     82  C   UNL A   1      42.133  21.899  26.084  1.00  0.00     0.022 A 
BRANCH  80  83
ATOM     83  S   UNL A   1      44.576  21.589  24.859  1.00  0.00     0.127 S 
ATOM     84  O   UNL A   1      44.020  20.238  24.767  1.00  0.00    -0.237 OA
ATOM     85  O   UNL A   1      44.421  22.397  23.652  1.00  0.00    -0.237 OA
ATOM     86  O   UNL A   1      45.880  21.649  25.507  1.00  0.00    -0.744 OA
ENDBRANCH  80  83
ENDBRANCH  52  76
BRANCH  64  87
ATOM     87  C   UNL A   1      46.582  29.052  29.034  1.00  0.00     0.023 A 
ATOM     88  C   UNL A   1      47.773  29.027  28.280  1.00  0.00     0.012 A 
ATOM     89  C   UNL A   1      45.496  29.809  28.556  1.00  0.00     0.148 A 
ATOM     90  C   UNL A   1      47.891  29.763  27.099  1.00  0.00     0.002 A 
ATOM     91  C   UNL A   1      45.601  30.504  27.354  1.00  0.00     0.091 A 
ATOM     92  F   UNL A   1      44.359  29.821  29.273  1.00  0.00    -0.205 F 
ATOM     93  C   UNL A   1      46.802  30.492  26.628  1.00  0.00     0.022 A 
BRANCH  91  94
ATOM     94  S   UNL A   1      44.186  31.340  26.629  1.00  0.00     0.127 S 
ATOM     95  O   UNL A   1      43.309  30.225  26.287  1.00  0.00    -0.237 OA
ATOM     96  O   UNL A   1      43.706  32.177  27.732  1.00  0.00    -0.237 OA
ATOM     97  O   UNL A   1      44.718  32.100  25.505  1.00  0.00    -0.744 OA
ENDBRANCH  91  94
ENDBRANCH  64  87
ENDBRANCH  38  39
ENDBRANCH  31  33
ENDBRANCH  30  31
ENDBRANCH  29  30
ENDBRANCH  28  29
ENDBRANCH  27  28
ENDBRANCH   1  27
TORSDOF 23
ENDMDL
