MODEL 1
REMARK VINA RESULT:     -10.4      0.000      0.000
REMARK SMILES CC(C)C[C@@H]([NH2+][C@H]1CCOC2(CCOCC2)C1)C(=O)OCCOCCOCCOC(=O)c1ccc(-c2c3nc(c(-c4cccc(S(=O)(=O)[O-])c4F)c4ccc([nH]4)c(-c4cccc(S(=O)(=O)[O-])c4F)c4nc(c(-c5cccc(S(=O)(=O)[O-])c5F)c5ccc2[nH]5)C=C4)C=C3)cc1
REMARK SMILES IDX 25 1 24 2 23 3 22 4 21 5 20 6 18 7 19 8 5 9 4 10 2 11 1 12
REMARK SMILES IDX 3 13 6 14 7 17 8 18 17 19 9 20 11 21 10 22 12 23 16 24 13 25
REMARK SMILES IDX 15 26 14 27 26 28 27 29 28 30 29 31 30 32 31 33 32 34 33 35
REMARK SMILES IDX 94 36 34 37 93 38 35 39 36 40 37 41 87 42 38 43 92 44 86 45
REMARK SMILES IDX 88 46 39 47 91 48 85 49 84 50 40 52 72 53 52 54 71 55 53 56
REMARK SMILES IDX 56 57 70 58 89 59 54 60 55 61 69 63 90 64 57 65 41 66 42 67
REMARK SMILES IDX 50 68 43 69 45 70 51 71 44 72 46 73 47 74 48 75 49 76 73 77
REMARK SMILES IDX 74 78 82 79 75 80 77 81 83 82 76 83 78 84 79 85 80 86 81 87
REMARK SMILES IDX 58 88 59 89 67 90 60 91 62 92 68 93 61 94 63 95 64 96 65 97
REMARK SMILES IDX 66 98
REMARK H PARENT 6 15 6 16 88 51 56 62
REMARK Flexibility Score: inf
ROOT
ATOM      1  C   UNL A   1      32.244  28.606  26.800  1.00  0.00     0.188 C 
ENDROOT
BRANCH   1   2
ATOM      2  C   UNL A   1      33.209  28.445  25.626  1.00  0.00     0.188 C 
BRANCH   2   3
ATOM      3  O   UNL A   1      33.421  27.140  25.155  1.00  0.00    -0.376 OA
BRANCH   3   4
ATOM      4  C   UNL A   1      32.929  26.768  23.882  1.00  0.00     0.202 C 
BRANCH   4   5
ATOM      5  C   UNL A   1      33.698  25.920  22.844  1.00  0.00     0.261 C 
BRANCH   5   6
ATOM      6  O   UNL A   1      34.375  24.728  23.303  1.00  0.00    -0.459 OA
BRANCH   6   7
ATOM      7  C   UNL A   1      33.671  23.580  23.089  1.00  0.00     0.364 C 
ATOM      8  O   UNL A   1      33.343  23.272  21.946  1.00  0.00    -0.245 OA
BRANCH   7   9
ATOM      9  C   UNL A   1      33.569  22.603  24.332  1.00  0.00     0.293 C 
BRANCH   9  10
ATOM     10  C   UNL A   1      33.851  23.209  25.725  1.00  0.00     0.080 C 
BRANCH  10  11
ATOM     11  C   UNL A   1      35.245  22.870  26.344  1.00  0.00    -0.011 C 
ATOM     12  C   UNL A   1      35.784  21.469  26.020  1.00  0.00     0.007 C 
ATOM     13  C   UNL A   1      36.301  23.895  25.914  1.00  0.00     0.007 C 
ENDBRANCH  10  11
ENDBRANCH   9  10
BRANCH   9  14
ATOM     14  N   UNL A   1      32.260  21.864  24.346  1.00  0.00    -0.332 N 
ATOM     15  H   UNL A   1      31.653  22.266  23.632  1.00  0.00     0.347 HD
ATOM     16  H   UNL A   1      31.866  21.963  25.282  1.00  0.00     0.347 HD
BRANCH  14  17
ATOM     17  C   UNL A   1      32.403  20.424  24.082  1.00  0.00     0.188 C 
ATOM     18  C   UNL A   1      32.109  19.988  22.641  1.00  0.00     0.093 C 
ATOM     19  C   UNL A   1      33.759  19.855  24.505  1.00  0.00     0.100 C 
ATOM     20  C   UNL A   1      32.137  18.473  22.547  1.00  0.00     0.167 C 
ATOM     21  C   UNL A   1      33.694  18.310  24.397  1.00  0.00     0.078 C 
ATOM     22  O   UNL A   1      33.362  17.949  23.045  1.00  0.00    -0.374 OA
ATOM     23  C   UNL A   1      32.706  17.684  25.416  1.00  0.00     0.064 C 
ATOM     24  C   UNL A   1      35.082  17.710  24.657  1.00  0.00     0.064 C 
ATOM     25  C   UNL A   1      32.770  16.165  25.385  1.00  0.00     0.163 C 
ATOM     26  C   UNL A   1      35.007  16.186  24.647  1.00  0.00     0.163 C 
ATOM     27  O   UNL A   1      34.100  15.725  25.651  1.00  0.00    -0.381 OA
ENDBRANCH  14  17
ENDBRANCH   9  14
ENDBRANCH   7   9
ENDBRANCH   6   7
ENDBRANCH   5   6
ENDBRANCH   4   5
ENDBRANCH   3   4
ENDBRANCH   2   3
ENDBRANCH   1   2
BRANCH   1  28
ATOM     28  O   UNL A   1      31.581  29.814  27.110  1.00  0.00    -0.376 OA
BRANCH  28  29
ATOM     29  C   UNL A   1      31.594  30.930  26.234  1.00  0.00     0.202 C 
BRANCH  29  30
ATOM     30  C   UNL A   1      32.025  32.358  26.637  1.00  0.00     0.261 C 
BRANCH  30  31
ATOM     31  O   UNL A   1      32.795  32.514  27.827  1.00  0.00    -0.460 OA
BRANCH  31  32
ATOM     32  C   UNL A   1      33.855  33.358  27.726  1.00  0.00     0.338 C 
ATOM     33  O   UNL A   1      33.810  34.561  27.525  1.00  0.00    -0.246 OA
BRANCH  32  34
ATOM     34  C   UNL A   1      35.064  32.629  28.183  1.00  0.00     0.060 A 
ATOM     35  C   UNL A   1      34.955  31.244  28.393  1.00  0.00     0.016 A 
ATOM     36  C   UNL A   1      36.301  33.263  28.309  1.00  0.00     0.016 A 
ATOM     37  C   UNL A   1      36.071  30.497  28.770  1.00  0.00     0.010 A 
ATOM     38  C   UNL A   1      37.413  32.519  28.719  1.00  0.00     0.010 A 
ATOM     39  C   UNL A   1      37.294  31.142  28.989  1.00  0.00    -0.014 A 
BRANCH  39  40
ATOM     40  C   UNL A   1      38.377  30.438  29.720  1.00  0.00     0.031 A 
ATOM     41  C   UNL A   1      38.598  30.802  31.164  1.00  0.00     0.074 A 
ATOM     42  C   UNL A   1      39.153  29.507  29.135  1.00  0.00     0.049 A 
ATOM     43  N   UNL A   1      39.516  30.388  31.995  1.00  0.00    -0.248 NA
ATOM     44  C   UNL A   1      37.651  31.770  31.745  1.00  0.00     0.031 C 
ATOM     45  C   UNL A   1      39.034  29.045  27.754  1.00  0.00     0.029 A 
ATOM     46  N   UNL A   1      40.224  28.805  29.635  1.00  0.00    -0.354 N 
ATOM     47  C   UNL A   1      39.284  31.071  33.182  1.00  0.00     0.074 A 
ATOM     48  C   UNL A   1      38.143  31.931  32.964  1.00  0.00     0.031 C 
ATOM     49  C   UNL A   1      40.019  28.162  27.506  1.00  0.00     0.029 A 
ATOM     50  C   UNL A   1      40.854  28.019  28.698  1.00  0.00     0.049 A 
ATOM     51  H   UNL A   1      40.512  28.860  30.575  1.00  0.00     0.167 HD
ATOM     52  C   UNL A   1      39.953  30.986  34.356  1.00  0.00     0.034 A 
ATOM     53  C   UNL A   1      41.990  27.297  28.786  1.00  0.00     0.034 A 
ATOM     54  C   UNL A   1      41.080  30.125  34.582  1.00  0.00     0.049 A 
ATOM     55  C   UNL A   1      42.744  27.250  30.093  1.00  0.00     0.074 A 
ATOM     56  C   UNL A   1      41.797  29.939  35.751  1.00  0.00     0.029 A 
ATOM     57  N   UNL A   1      41.667  29.319  33.619  1.00  0.00    -0.354 N 
ATOM     58  N   UNL A   1      42.453  27.820  31.238  1.00  0.00    -0.248 NA
ATOM     59  C   UNL A   1      43.968  26.436  30.128  1.00  0.00     0.031 C 
ATOM     60  C   UNL A   1      42.843  29.050  35.484  1.00  0.00     0.029 A 
ATOM     61  C   UNL A   1      42.748  28.646  34.162  1.00  0.00     0.049 A 
ATOM     62  H   UNL A   1      41.360  29.239  32.688  1.00  0.00     0.167 HD
ATOM     63  C   UNL A   1      43.431  27.400  32.135  1.00  0.00     0.074 A 
ATOM     64  C   UNL A   1      44.314  26.514  31.405  1.00  0.00     0.031 C 
ATOM     65  C   UNL A   1      43.590  27.725  33.443  1.00  0.00     0.034 A 
BRANCH  52  66
ATOM     66  C   UNL A   1      39.475  31.850  35.493  1.00  0.00     0.023 A 
ATOM     67  C   UNL A   1      38.512  31.355  36.395  1.00  0.00     0.012 A 
ATOM     68  C   UNL A   1      40.017  33.134  35.693  1.00  0.00     0.148 A 
ATOM     69  C   UNL A   1      38.070  32.139  37.460  1.00  0.00     0.002 A 
ATOM     70  C   UNL A   1      39.607  33.890  36.785  1.00  0.00     0.091 A 
ATOM     71  F   UNL A   1      40.914  33.596  34.809  1.00  0.00    -0.205 F 
ATOM     72  C   UNL A   1      38.625  33.400  37.661  1.00  0.00     0.022 A 
BRANCH  70  73
ATOM     73  S   UNL A   1      40.321  35.490  37.176  1.00  0.00     0.127 S 
ATOM     74  O   UNL A   1      39.616  36.364  36.240  1.00  0.00    -0.237 OA
ATOM     75  O   UNL A   1      39.938  35.661  38.577  1.00  0.00    -0.237 OA
ATOM     76  O   UNL A   1      41.753  35.359  36.949  1.00  0.00    -0.744 OA
ENDBRANCH  70  73
ENDBRANCH  52  66
BRANCH  53  77
ATOM     77  C   UNL A   1      42.491  26.541  27.602  1.00  0.00     0.023 A 
ATOM     78  C   UNL A   1      43.277  27.198  26.635  1.00  0.00     0.012 A 
ATOM     79  C   UNL A   1      42.184  25.178  27.425  1.00  0.00     0.148 A 
ATOM     80  C   UNL A   1      43.719  26.520  25.498  1.00  0.00     0.002 A 
ATOM     81  C   UNL A   1      42.674  24.494  26.319  1.00  0.00     0.091 A 
ATOM     82  F   UNL A   1      41.417  24.576  28.346  1.00  0.00    -0.205 F 
ATOM     83  C   UNL A   1      43.426  25.168  25.344  1.00  0.00     0.022 A 
BRANCH  81  84
ATOM     84  S   UNL A   1      42.450  22.726  26.099  1.00  0.00     0.127 S 
ATOM     85  O   UNL A   1      43.186  22.186  27.238  1.00  0.00    -0.237 OA
ATOM     86  O   UNL A   1      40.995  22.597  26.185  1.00  0.00    -0.237 OA
ATOM     87  O   UNL A   1      43.004  22.419  24.787  1.00  0.00    -0.744 OA
ENDBRANCH  81  84
ENDBRANCH  53  77
BRANCH  65  88
ATOM     88  C   UNL A   1      44.726  27.083  34.200  1.00  0.00     0.023 A 
ATOM     89  C   UNL A   1      45.973  27.731  34.291  1.00  0.00     0.012 A 
ATOM     90  C   UNL A   1      44.528  25.869  34.890  1.00  0.00     0.148 A 
ATOM     91  C   UNL A   1      47.016  27.165  35.026  1.00  0.00     0.002 A 
ATOM     92  C   UNL A   1      45.554  25.338  35.663  1.00  0.00     0.091 A 
ATOM     93  F   UNL A   1      43.339  25.259  34.781  1.00  0.00    -0.205 F 
ATOM     94  C   UNL A   1      46.802  25.976  35.721  1.00  0.00     0.022 A 
BRANCH  92  95
ATOM     95  S   UNL A   1      45.339  23.866  36.672  1.00  0.00     0.127 S 
ATOM     96  O   UNL A   1      44.513  23.029  35.803  1.00  0.00    -0.237 OA
ATOM     97  O   UNL A   1      46.716  23.401  36.837  1.00  0.00    -0.237 OA
ATOM     98  O   UNL A   1      44.698  24.311  37.902  1.00  0.00    -0.744 OA
ENDBRANCH  92  95
ENDBRANCH  65  88
ENDBRANCH  39  40
ENDBRANCH  32  34
ENDBRANCH  31  32
ENDBRANCH  30  31
ENDBRANCH  29  30
ENDBRANCH  28  29
ENDBRANCH   1  28
TORSDOF 24
ENDMDL
MODEL 2
REMARK VINA RESULT:     -10.2      2.751      3.906
REMARK SMILES CC(C)C[C@@H]([NH2+][C@H]1CCOC2(CCOCC2)C1)C(=O)OCCOCCOCCOC(=O)c1ccc(-c2c3nc(c(-c4cccc(S(=O)(=O)[O-])c4F)c4ccc([nH]4)c(-c4cccc(S(=O)(=O)[O-])c4F)c4nc(c(-c5cccc(S(=O)(=O)[O-])c5F)c5ccc2[nH]5)C=C4)C=C3)cc1
REMARK SMILES IDX 25 1 24 2 23 3 22 4 21 5 20 6 18 7 19 8 5 9 4 10 2 11 1 12
REMARK SMILES IDX 3 13 6 14 7 17 8 18 17 19 9 20 11 21 10 22 12 23 16 24 13 25
REMARK SMILES IDX 15 26 14 27 26 28 27 29 28 30 29 31 30 32 31 33 32 34 33 35
REMARK SMILES IDX 94 36 34 37 93 38 35 39 36 40 37 41 87 42 38 43 92 44 86 45
REMARK SMILES IDX 88 46 39 47 91 48 85 49 84 50 40 52 72 53 52 54 71 55 53 56
REMARK SMILES IDX 56 57 70 58 89 59 54 60 55 61 69 63 90 64 57 65 41 66 42 67
REMARK SMILES IDX 50 68 43 69 45 70 51 71 44 72 46 73 47 74 48 75 49 76 73 77
REMARK SMILES IDX 74 78 82 79 75 80 77 81 83 82 76 83 78 84 79 85 80 86 81 87
REMARK SMILES IDX 58 88 59 89 67 90 60 91 62 92 68 93 61 94 63 95 64 96 65 97
REMARK SMILES IDX 66 98
REMARK H PARENT 6 15 6 16 88 51 56 62
REMARK Flexibility Score: inf
ROOT
ATOM      1  C   UNL A   1      31.218  31.266  26.193  1.00  0.00     0.188 C 
ENDROOT
BRANCH   1   2
ATOM      2  C   UNL A   1      30.897  30.434  24.951  1.00  0.00     0.188 C 
BRANCH   2   3
ATOM      3  O   UNL A   1      29.758  30.802  24.218  1.00  0.00    -0.376 OA
BRANCH   3   4
ATOM      4  C   UNL A   1      29.494  30.176  22.977  1.00  0.00     0.202 C 
BRANCH   4   5
ATOM      5  C   UNL A   1      30.477  29.257  22.217  1.00  0.00     0.261 C 
BRANCH   5   6
ATOM      6  O   UNL A   1      30.163  27.848  22.128  1.00  0.00    -0.459 OA
BRANCH   6   7
ATOM      7  C   UNL A   1      30.135  27.215  23.335  1.00  0.00     0.364 C 
ATOM      8  O   UNL A   1      29.069  26.786  23.772  1.00  0.00    -0.245 OA
BRANCH   7   9
ATOM      9  C   UNL A   1      31.550  26.855  23.948  1.00  0.00     0.293 C 
BRANCH   9  10
ATOM     10  C   UNL A   1      31.563  26.220  25.357  1.00  0.00     0.080 C 
BRANCH  10  11
ATOM     11  C   UNL A   1      32.462  26.934  26.417  1.00  0.00    -0.011 C 
ATOM     12  C   UNL A   1      33.545  27.859  25.842  1.00  0.00     0.007 C 
ATOM     13  C   UNL A   1      31.611  27.753  27.396  1.00  0.00     0.007 C 
ENDBRANCH  10  11
ENDBRANCH   9  10
BRANCH   9  14
ATOM     14  N   UNL A   1      32.366  26.021  22.999  1.00  0.00    -0.332 N 
ATOM     15  H   UNL A   1      33.229  26.522  22.788  1.00  0.00     0.347 HD
ATOM     16  H   UNL A   1      31.798  25.870  22.165  1.00  0.00     0.347 HD
BRANCH  14  17
ATOM     17  C   UNL A   1      32.712  24.697  23.540  1.00  0.00     0.188 C 
ATOM     18  C   UNL A   1      31.839  23.538  23.045  1.00  0.00     0.093 C 
ATOM     19  C   UNL A   1      34.184  24.325  23.354  1.00  0.00     0.100 C 
ATOM     20  C   UNL A   1      32.196  22.268  23.798  1.00  0.00     0.167 C 
ATOM     21  C   UNL A   1      34.466  23.035  24.167  1.00  0.00     0.078 C 
ATOM     22  O   UNL A   1      33.588  21.992  23.708  1.00  0.00    -0.374 OA
ATOM     23  C   UNL A   1      34.340  23.257  25.696  1.00  0.00     0.064 C 
ATOM     24  C   UNL A   1      35.888  22.537  23.877  1.00  0.00     0.064 C 
ATOM     25  C   UNL A   1      34.760  22.018  26.470  1.00  0.00     0.163 C 
ATOM     26  C   UNL A   1      36.207  21.323  24.745  1.00  0.00     0.163 C 
ATOM     27  O   UNL A   1      36.098  21.658  26.131  1.00  0.00    -0.381 OA
ENDBRANCH  14  17
ENDBRANCH   9  14
ENDBRANCH   7   9
ENDBRANCH   6   7
ENDBRANCH   5   6
ENDBRANCH   4   5
ENDBRANCH   3   4
ENDBRANCH   2   3
ENDBRANCH   1   2
BRANCH   1  28
ATOM     28  O   UNL A   1      32.273  30.970  27.083  1.00  0.00    -0.376 OA
BRANCH  28  29
ATOM     29  C   UNL A   1      33.221  31.947  27.483  1.00  0.00     0.202 C 
BRANCH  29  30
ATOM     30  C   UNL A   1      32.977  33.473  27.446  1.00  0.00     0.261 C 
BRANCH  30  31
ATOM     31  O   UNL A   1      32.393  34.085  28.594  1.00  0.00    -0.460 OA
BRANCH  31  32
ATOM     32  C   UNL A   1      33.113  35.099  29.140  1.00  0.00     0.338 C 
ATOM     33  O   UNL A   1      32.792  36.276  29.189  1.00  0.00    -0.246 OA
BRANCH  32  34
ATOM     34  C   UNL A   1      34.224  34.500  29.920  1.00  0.00     0.060 A 
ATOM     35  C   UNL A   1      35.534  34.693  29.450  1.00  0.00     0.016 A 
ATOM     36  C   UNL A   1      34.003  33.850  31.136  1.00  0.00     0.016 A 
ATOM     37  C   UNL A   1      36.623  34.199  30.171  1.00  0.00     0.010 A 
ATOM     38  C   UNL A   1      35.092  33.327  31.841  1.00  0.00     0.010 A 
ATOM     39  C   UNL A   1      36.402  33.465  31.343  1.00  0.00    -0.014 A 
BRANCH  39  40
ATOM     40  C   UNL A   1      37.499  32.645  31.916  1.00  0.00     0.031 A 
ATOM     41  C   UNL A   1      38.058  33.059  33.251  1.00  0.00     0.074 A 
ATOM     42  C   UNL A   1      37.998  31.568  31.282  1.00  0.00     0.049 A 
ATOM     43  N   UNL A   1      39.057  32.557  33.926  1.00  0.00    -0.248 NA
ATOM     44  C   UNL A   1      37.397  34.199  33.910  1.00  0.00     0.031 C 
ATOM     45  C   UNL A   1      37.536  31.046  29.998  1.00  0.00     0.029 A 
ATOM     46  N   UNL A   1      39.036  30.738  31.631  1.00  0.00    -0.354 N 
ATOM     47  C   UNL A   1      39.171  33.341  35.067  1.00  0.00     0.074 A 
ATOM     48  C   UNL A   1      38.144  34.356  34.992  1.00  0.00     0.031 C 
ATOM     49  C   UNL A   1      38.313  30.004  29.649  1.00  0.00     0.029 A 
ATOM     50  C   UNL A   1      39.344  29.806  30.668  1.00  0.00     0.049 A 
ATOM     51  H   UNL A   1      39.514  30.805  32.489  1.00  0.00     0.167 HD
ATOM     52  C   UNL A   1      40.045  33.225  36.094  1.00  0.00     0.034 A 
ATOM     53  C   UNL A   1      40.359  28.918  30.603  1.00  0.00     0.034 A 
ATOM     54  C   UNL A   1      41.060  32.212  36.179  1.00  0.00     0.049 A 
ATOM     55  C   UNL A   1      41.347  28.835  31.741  1.00  0.00     0.074 A 
ATOM     56  C   UNL A   1      41.965  31.988  37.201  1.00  0.00     0.029 A 
ATOM     57  N   UNL A   1      41.317  31.265  35.201  1.00  0.00    -0.354 N 
ATOM     58  N   UNL A   1      41.380  29.514  32.862  1.00  0.00    -0.248 NA
ATOM     59  C   UNL A   1      42.424  27.840  31.616  1.00  0.00     0.031 C 
ATOM     60  C   UNL A   1      42.797  30.929  36.823  1.00  0.00     0.029 A 
ATOM     61  C   UNL A   1      42.378  30.464  35.587  1.00  0.00     0.049 A 
ATOM     62  H   UNL A   1      40.819  31.176  34.356  1.00  0.00     0.167 HD
ATOM     63  C   UNL A   1      42.450  29.001  33.591  1.00  0.00     0.074 A 
ATOM     64  C   UNL A   1      43.029  27.942  32.791  1.00  0.00     0.031 C 
ATOM     65  C   UNL A   1      42.915  29.377  34.808  1.00  0.00     0.034 A 
BRANCH  52  66
ATOM     66  C   UNL A   1      39.937  34.223  37.216  1.00  0.00     0.023 A 
ATOM     67  C   UNL A   1      40.391  35.544  37.029  1.00  0.00     0.012 A 
ATOM     68  C   UNL A   1      39.341  33.862  38.440  1.00  0.00     0.148 A 
ATOM     69  C   UNL A   1      40.285  36.482  38.055  1.00  0.00     0.002 A 
ATOM     70  C   UNL A   1      39.194  34.815  39.440  1.00  0.00     0.091 A 
ATOM     71  F   UNL A   1      38.939  32.593  38.607  1.00  0.00    -0.205 F 
ATOM     72  C   UNL A   1      39.677  36.121  39.254  1.00  0.00     0.022 A 
BRANCH  70  73
ATOM     73  S   UNL A   1      38.353  34.472  40.989  1.00  0.00     0.127 S 
ATOM     74  O   UNL A   1      37.264  33.603  40.545  1.00  0.00    -0.237 OA
ATOM     75  O   UNL A   1      39.396  33.797  41.760  1.00  0.00    -0.237 OA
ATOM     76  O   UNL A   1      37.943  35.764  41.520  1.00  0.00    -0.744 OA
ENDBRANCH  70  73
ENDBRANCH  52  66
BRANCH  53  77
ATOM     77  C   UNL A   1      40.495  28.020  29.420  1.00  0.00     0.023 A 
ATOM     78  C   UNL A   1      39.735  26.837  29.351  1.00  0.00     0.012 A 
ATOM     79  C   UNL A   1      41.381  28.329  28.370  1.00  0.00     0.148 A 
ATOM     80  C   UNL A   1      39.879  25.961  28.274  1.00  0.00     0.002 A 
ATOM     81  C   UNL A   1      41.478  27.481  27.273  1.00  0.00     0.091 A 
ATOM     82  F   UNL A   1      42.110  29.451  28.464  1.00  0.00    -0.205 F 
ATOM     83  C   UNL A   1      40.743  26.287  27.232  1.00  0.00     0.022 A 
BRANCH  81  84
ATOM     84  S   UNL A   1      42.473  27.878  25.831  1.00  0.00     0.127 S 
ATOM     85  O   UNL A   1      42.111  26.802  24.913  1.00  0.00    -0.237 OA
ATOM     86  O   UNL A   1      41.960  29.199  25.469  1.00  0.00    -0.237 OA
ATOM     87  O   UNL A   1      43.855  27.874  26.293  1.00  0.00    -0.744 OA
ENDBRANCH  81  84
ENDBRANCH  53  77
BRANCH  65  88
ATOM     88  C   UNL A   1      44.078  28.612  35.390  1.00  0.00     0.023 A 
ATOM     89  C   UNL A   1      45.400  28.972  35.064  1.00  0.00     0.012 A 
ATOM     90  C   UNL A   1      43.856  27.582  36.328  1.00  0.00     0.148 A 
ATOM     91  C   UNL A   1      46.481  28.297  35.631  1.00  0.00     0.002 A 
ATOM     92  C   UNL A   1      44.938  26.950  36.930  1.00  0.00     0.091 A 
ATOM     93  F   UNL A   1      42.592  27.243  36.617  1.00  0.00    -0.205 F 
ATOM     94  C   UNL A   1      46.250  27.296  36.572  1.00  0.00     0.022 A 
BRANCH  92  95
ATOM     95  S   UNL A   1      44.740  25.720  38.225  1.00  0.00     0.127 S 
ATOM     96  O   UNL A   1      44.079  26.497  39.273  1.00  0.00    -0.237 OA
ATOM     97  O   UNL A   1      43.889  24.723  37.577  1.00  0.00    -0.237 OA
ATOM     98  O   UNL A   1      46.082  25.254  38.547  1.00  0.00    -0.744 OA
ENDBRANCH  92  95
ENDBRANCH  65  88
ENDBRANCH  39  40
ENDBRANCH  32  34
ENDBRANCH  31  32
ENDBRANCH  30  31
ENDBRANCH  29  30
ENDBRANCH  28  29
ENDBRANCH   1  28
TORSDOF 24
ENDMDL
MODEL 3
REMARK VINA RESULT:      -9.5      1.439      3.569
REMARK SMILES CC(C)C[C@@H]([NH2+][C@H]1CCOC2(CCOCC2)C1)C(=O)OCCOCCOCCOC(=O)c1ccc(-c2c3nc(c(-c4cccc(S(=O)(=O)[O-])c4F)c4ccc([nH]4)c(-c4cccc(S(=O)(=O)[O-])c4F)c4nc(c(-c5cccc(S(=O)(=O)[O-])c5F)c5ccc2[nH]5)C=C4)C=C3)cc1
REMARK SMILES IDX 25 1 24 2 23 3 22 4 21 5 20 6 18 7 19 8 5 9 4 10 2 11 1 12
REMARK SMILES IDX 3 13 6 14 7 17 8 18 17 19 9 20 11 21 10 22 12 23 16 24 13 25
REMARK SMILES IDX 15 26 14 27 26 28 27 29 28 30 29 31 30 32 31 33 32 34 33 35
REMARK SMILES IDX 94 36 34 37 93 38 35 39 36 40 37 41 87 42 38 43 92 44 86 45
REMARK SMILES IDX 88 46 39 47 91 48 85 49 84 50 40 52 72 53 52 54 71 55 53 56
REMARK SMILES IDX 56 57 70 58 89 59 54 60 55 61 69 63 90 64 57 65 41 66 42 67
REMARK SMILES IDX 50 68 43 69 45 70 51 71 44 72 46 73 47 74 48 75 49 76 73 77
REMARK SMILES IDX 74 78 82 79 75 80 77 81 83 82 76 83 78 84 79 85 80 86 81 87
REMARK SMILES IDX 58 88 59 89 67 90 60 91 62 92 68 93 61 94 63 95 64 96 65 97
REMARK SMILES IDX 66 98
REMARK H PARENT 6 15 6 16 88 51 56 62
REMARK Flexibility Score: inf
ROOT
ATOM      1  C   UNL A   1      32.297  28.093  27.419  1.00  0.00     0.188 C 
ENDROOT
BRANCH   1   2
ATOM      2  C   UNL A   1      33.461  27.738  26.494  1.00  0.00     0.188 C 
BRANCH   2   3
ATOM      3  O   UNL A   1      33.630  26.381  26.179  1.00  0.00    -0.376 OA
BRANCH   3   4
ATOM      4  C   UNL A   1      34.327  26.018  25.003  1.00  0.00     0.202 C 
BRANCH   4   5
ATOM      5  C   UNL A   1      35.015  24.655  24.762  1.00  0.00     0.261 C 
BRANCH   5   6
ATOM      6  O   UNL A   1      34.186  23.471  24.719  1.00  0.00    -0.459 OA
BRANCH   6   7
ATOM      7  C   UNL A   1      33.723  23.171  23.472  1.00  0.00     0.364 C 
ATOM      8  O   UNL A   1      34.357  23.531  22.483  1.00  0.00    -0.245 OA
BRANCH   7   9
ATOM      9  C   UNL A   1      32.523  22.137  23.423  1.00  0.00     0.293 C 
BRANCH   9  10
ATOM     10  C   UNL A   1      32.117  21.471  24.757  1.00  0.00     0.080 C 
BRANCH  10  11
ATOM     11  C   UNL A   1      32.324  19.925  24.836  1.00  0.00    -0.011 C 
ATOM     12  C   UNL A   1      32.429  19.207  23.482  1.00  0.00     0.007 C 
ATOM     13  C   UNL A   1      33.574  19.579  25.653  1.00  0.00     0.007 C 
ENDBRANCH  10  11
ENDBRANCH   9  10
BRANCH   9  14
ATOM     14  N   UNL A   1      31.314  22.728  22.752  1.00  0.00    -0.332 N 
ATOM     15  H   UNL A   1      30.581  22.020  22.723  1.00  0.00     0.347 HD
ATOM     16  H   UNL A   1      31.599  23.022  21.818  1.00  0.00     0.347 HD
BRANCH  14  17
ATOM     17  C   UNL A   1      30.789  23.916  23.444  1.00  0.00     0.188 C 
ATOM     18  C   UNL A   1      30.994  23.935  24.964  1.00  0.00     0.093 C 
ATOM     19  C   UNL A   1      31.291  25.238  22.859  1.00  0.00     0.100 C 
ATOM     20  C   UNL A   1      30.269  25.127  25.565  1.00  0.00     0.167 C 
ATOM     21  C   UNL A   1      30.489  26.393  23.511  1.00  0.00     0.078 C 
ATOM     22  O   UNL A   1      30.666  26.339  24.937  1.00  0.00    -0.374 OA
ATOM     23  C   UNL A   1      28.989  26.372  23.118  1.00  0.00     0.064 C 
ATOM     24  C   UNL A   1      31.072  27.744  23.073  1.00  0.00     0.064 C 
ATOM     25  C   UNL A   1      28.261  27.595  23.654  1.00  0.00     0.163 C 
ATOM     26  C   UNL A   1      30.231  28.887  23.633  1.00  0.00     0.163 C 
ATOM     27  O   UNL A   1      28.881  28.785  23.172  1.00  0.00    -0.381 OA
ENDBRANCH  14  17
ENDBRANCH   9  14
ENDBRANCH   7   9
ENDBRANCH   6   7
ENDBRANCH   5   6
ENDBRANCH   4   5
ENDBRANCH   3   4
ENDBRANCH   2   3
ENDBRANCH   1   2
BRANCH   1  28
ATOM     28  O   UNL A   1      31.680  29.363  27.450  1.00  0.00    -0.376 OA
BRANCH  28  29
ATOM     29  C   UNL A   1      31.850  30.312  26.409  1.00  0.00     0.202 C 
BRANCH  29  30
ATOM     30  C   UNL A   1      32.253  31.789  26.625  1.00  0.00     0.261 C 
BRANCH  30  31
ATOM     31  O   UNL A   1      32.858  32.143  27.867  1.00  0.00    -0.460 OA
BRANCH  31  32
ATOM     32  C   UNL A   1      33.885  33.028  27.780  1.00  0.00     0.338 C 
ATOM     33  O   UNL A   1      33.795  34.228  27.576  1.00  0.00    -0.246 OA
BRANCH  32  34
ATOM     34  C   UNL A   1      35.115  32.349  28.257  1.00  0.00     0.060 A 
ATOM     35  C   UNL A   1      35.047  30.968  28.506  1.00  0.00     0.016 A 
ATOM     36  C   UNL A   1      36.333  33.022  28.364  1.00  0.00     0.016 A 
ATOM     37  C   UNL A   1      36.185  30.265  28.905  1.00  0.00     0.010 A 
ATOM     38  C   UNL A   1      37.466  32.324  28.795  1.00  0.00     0.010 A 
ATOM     39  C   UNL A   1      37.388  30.952  29.104  1.00  0.00    -0.014 A 
BRANCH  39  40
ATOM     40  C   UNL A   1      38.491  30.302  29.855  1.00  0.00     0.031 A 
ATOM     41  C   UNL A   1      38.724  30.741  31.276  1.00  0.00     0.074 A 
ATOM     42  C   UNL A   1      39.274  29.355  29.306  1.00  0.00     0.049 A 
ATOM     43  N   UNL A   1      39.660  30.383  32.114  1.00  0.00    -0.248 NA
ATOM     44  C   UNL A   1      37.770  31.723  31.821  1.00  0.00     0.031 C 
ATOM     45  C   UNL A   1      39.145  28.823  27.952  1.00  0.00     0.029 A 
ATOM     46  N   UNL A   1      40.362  28.695  29.826  1.00  0.00    -0.354 N 
ATOM     47  C   UNL A   1      39.432  31.121  33.269  1.00  0.00     0.074 A 
ATOM     48  C   UNL A   1      38.275  31.952  33.023  1.00  0.00     0.031 C 
ATOM     49  C   UNL A   1      40.140  27.943  27.734  1.00  0.00     0.029 A 
ATOM     50  C   UNL A   1      40.992  27.873  28.921  1.00  0.00     0.049 A 
ATOM     51  H   UNL A   1      40.662  28.801  30.758  1.00  0.00     0.167 HD
ATOM     52  C   UNL A   1      40.117  31.105  34.436  1.00  0.00     0.034 A 
ATOM     53  C   UNL A   1      42.141  27.173  29.029  1.00  0.00     0.034 A 
ATOM     54  C   UNL A   1      41.261  30.273  34.689  1.00  0.00     0.049 A 
ATOM     55  C   UNL A   1      42.911  27.203  30.326  1.00  0.00     0.074 A 
ATOM     56  C   UNL A   1      41.995  30.157  35.856  1.00  0.00     0.029 A 
ATOM     57  N   UNL A   1      41.848  29.429  33.760  1.00  0.00    -0.354 N 
ATOM     58  N   UNL A   1      42.627  27.825  31.445  1.00  0.00    -0.248 NA
ATOM     59  C   UNL A   1      44.149  26.410  30.385  1.00  0.00     0.031 C 
ATOM     60  C   UNL A   1      43.052  29.271  35.620  1.00  0.00     0.029 A 
ATOM     61  C   UNL A   1      42.946  28.800  34.321  1.00  0.00     0.049 A 
ATOM     62  H   UNL A   1      41.530  29.298  32.838  1.00  0.00     0.167 HD
ATOM     63  C   UNL A   1      43.622  27.466  32.349  1.00  0.00     0.074 A 
ATOM     64  C   UNL A   1      44.509  26.557  31.652  1.00  0.00     0.031 C 
ATOM     65  C   UNL A   1      43.793  27.857  33.637  1.00  0.00     0.034 A 
BRANCH  52  66
ATOM     66  C   UNL A   1      39.640  32.017  35.535  1.00  0.00     0.023 A 
ATOM     67  C   UNL A   1      38.781  31.522  36.537  1.00  0.00     0.012 A 
ATOM     68  C   UNL A   1      40.083  33.352  35.600  1.00  0.00     0.148 A 
ATOM     69  C   UNL A   1      38.342  32.352  37.568  1.00  0.00     0.002 A 
ATOM     70  C   UNL A   1      39.680  34.159  36.657  1.00  0.00     0.091 A 
ATOM     71  F   UNL A   1      40.880  33.811  34.623  1.00  0.00    -0.205 F 
ATOM     72  C   UNL A   1      38.800  33.665  37.633  1.00  0.00     0.022 A 
BRANCH  70  73
ATOM     73  S   UNL A   1      40.279  35.838  36.876  1.00  0.00     0.127 S 
ATOM     74  O   UNL A   1      41.723  35.656  36.734  1.00  0.00    -0.237 OA
ATOM     75  O   UNL A   1      39.639  36.538  35.763  1.00  0.00    -0.237 OA
ATOM     76  O   UNL A   1      39.831  36.256  38.197  1.00  0.00    -0.744 OA
ENDBRANCH  70  73
ENDBRANCH  52  66
BRANCH  53  77
ATOM     77  C   UNL A   1      42.638  26.367  27.877  1.00  0.00     0.023 A 
ATOM     78  C   UNL A   1      43.556  26.934  26.972  1.00  0.00     0.012 A 
ATOM     79  C   UNL A   1      42.199  25.045  27.670  1.00  0.00     0.148 A 
ATOM     80  C   UNL A   1      44.001  26.212  25.864  1.00  0.00     0.002 A 
ATOM     81  C   UNL A   1      42.688  24.311  26.596  1.00  0.00     0.091 A 
ATOM     82  F   UNL A   1      41.309  24.530  28.532  1.00  0.00    -0.205 F 
ATOM     83  C   UNL A   1      43.575  24.899  25.681  1.00  0.00     0.022 A 
BRANCH  81  84
ATOM     84  S   UNL A   1      42.290  22.578  26.349  1.00  0.00     0.127 S 
ATOM     85  O   UNL A   1      42.741  22.360  24.977  1.00  0.00    -0.237 OA
ATOM     86  O   UNL A   1      43.105  21.934  27.378  1.00  0.00    -0.237 OA
ATOM     87  O   UNL A   1      40.853  22.469  26.564  1.00  0.00    -0.744 OA
ENDBRANCH  81  84
ENDBRANCH  53  77
BRANCH  65  88
ATOM     88  C   UNL A   1      44.948  27.271  34.409  1.00  0.00     0.023 A 
ATOM     89  C   UNL A   1      46.200  27.917  34.413  1.00  0.00     0.012 A 
ATOM     90  C   UNL A   1      44.766  26.117  35.200  1.00  0.00     0.148 A 
ATOM     91  C   UNL A   1      47.262  27.405  35.159  1.00  0.00     0.002 A 
ATOM     92  C   UNL A   1      45.813  25.643  35.983  1.00  0.00     0.091 A 
ATOM     93  F   UNL A   1      43.573  25.508  35.174  1.00  0.00    -0.205 F 
ATOM     94  C   UNL A   1      47.064  26.277  35.953  1.00  0.00     0.022 A 
BRANCH  92  95
ATOM     95  S   UNL A   1      45.622  24.258  37.112  1.00  0.00     0.127 S 
ATOM     96  O   UNL A   1      45.250  23.180  36.198  1.00  0.00    -0.237 OA
ATOM     97  O   UNL A   1      46.964  24.138  37.683  1.00  0.00    -0.237 OA
ATOM     98  O   UNL A   1      44.592  24.653  38.063  1.00  0.00    -0.744 OA
ENDBRANCH  92  95
ENDBRANCH  65  88
ENDBRANCH  39  40
ENDBRANCH  32  34
ENDBRANCH  31  32
ENDBRANCH  30  31
ENDBRANCH  29  30
ENDBRANCH  28  29
ENDBRANCH   1  28
TORSDOF 24
ENDMDL
