MODEL 1
REMARK VINA RESULT:      -9.3      0.000      0.000
REMARK SMILES Cc1ccc2nc(Cl)c([C@@H]3CC(c4cccs4)=NN3C(=O)CCCC(=O)OCCOCCOCCOC(=O)c3ccc(-c4c5nc(c(-c6cccc(S(=O)(=O)[O-])c6F)c6ccc([nH]6)c(-c6cccc(S(=O)(=O)[O-])c6F)c6nc(c(-c7cccc(S(=O)(=O)[O-])c7F)c7ccc4[nH]7)C=C6)C=C5)cc3)cc2c1
REMARK SMILES IDX 31 1 30 2 29 3 28 4 27 5 25 6 26 7 24 8 23 9 22 10 20 11
REMARK SMILES IDX 21 12 19 13 10 14 11 15 12 16 18 17 9 18 1 19 2 20 3 21
REMARK SMILES IDX 104 22 4 23 103 24 5 25 102 26 6 27 7 28 8 29 13 30 14 31
REMARK SMILES IDX 17 32 15 33 16 34 32 35 33 36 34 37 35 38 36 39 37 40 38 41
REMARK SMILES IDX 39 42 40 43 101 44 41 45 100 46 42 47 43 48 44 49 94 50
REMARK SMILES IDX 45 51 99 52 93 53 95 54 46 55 98 56 92 57 91 58 47 60 79 61
REMARK SMILES IDX 59 62 78 63 60 64 63 65 77 66 96 67 61 68 62 69 76 71 97 72
REMARK SMILES IDX 64 73 48 74 49 75 57 76 50 77 52 78 58 79 51 80 53 81 54 82
REMARK SMILES IDX 55 83 56 84 80 85 81 86 89 87 82 88 84 89 90 90 83 91 85 92
REMARK SMILES IDX 86 93 87 94 88 95 65 96 66 97 74 98 67 99 69 100 75 101
REMARK SMILES IDX 68 102 70 103 71 104 72 105 73 106
REMARK H PARENT 95 59 63 70
REMARK Flexibility Score: inf
ROOT
ATOM      1  C   UNL A   1      37.969  34.393  33.524  1.00  0.00     0.188 C 
ENDROOT
BRANCH   1   2
ATOM      2  O   UNL A   1      38.068  34.230  32.037  1.00  0.00    -0.376 OA
BRANCH   2   3
ATOM      3  C   UNL A   1      37.048  33.826  31.009  1.00  0.00     0.202 C 
BRANCH   3   4
ATOM      4  C   UNL A   1      37.326  33.166  29.246  1.00  0.00     0.261 C 
BRANCH   4   5
ATOM      5  O   UNL A   1      36.324  31.511  28.543  1.00  0.00    -0.463 OA
BRANCH   5   6
ATOM      6  C   UNL A   1      34.984  31.107  27.807  1.00  0.00     0.305 C 
ATOM      7  O   UNL A   1      33.987  31.845  27.662  1.00  0.00    -0.252 OA
BRANCH   6   8
ATOM      8  C   UNL A   1      34.536  29.717  27.530  1.00  0.00     0.123 C 
BRANCH   8   9
ATOM      9  C   UNL A   1      33.145  29.344  27.230  1.00  0.00     0.022 C 
BRANCH   9  10
ATOM     10  C   UNL A   1      33.134  28.325  26.130  1.00  0.00     0.103 C 
BRANCH  10  11
ATOM     11  C   UNL A   1      32.079  27.229  26.273  1.00  0.00     0.243 C 
ATOM     12  O   UNL A   1      31.988  26.724  27.404  1.00  0.00    -0.273 OA
BRANCH  11  13
ATOM     13  N   UNL A   1      31.152  26.928  25.269  1.00  0.00    -0.225 N 
ATOM     14  C   UNL A   1      30.371  25.696  24.731  1.00  0.00     0.150 C 
ATOM     15  C   UNL A   1      29.436  26.316  23.681  1.00  0.00     0.092 C 
ATOM     16  C   UNL A   1      29.799  27.765  23.780  1.00  0.00     0.081 C 
ATOM     17  N   UNL A   1      30.681  28.071  24.668  1.00  0.00    -0.173 NA
BRANCH  14  18
ATOM     18  C   UNL A   1      31.210  24.567  24.128  1.00  0.00     0.015 A 
ATOM     19  C   UNL A   1      34.697  18.337  24.713  1.00  0.00     0.044 C 
ATOM     20  C   UNL A   1      34.524  19.839  24.748  1.00  0.00    -0.050 A 
ATOM     21  C   UNL A   1      35.616  20.686  24.710  1.00  0.00     0.005 A 
ATOM     22  C   UNL A   1      33.202  20.365  24.788  1.00  0.00     0.013 A 
ATOM     23  C   UNL A   1      35.438  22.054  24.553  1.00  0.00     0.029 A 
ATOM     24  C   UNL A   1      32.697  21.767  24.754  1.00  0.00     0.001 A 
ATOM     25  C   UNL A   1      34.191  22.651  24.457  1.00  0.00     0.072 A 
ATOM     26  C   UNL A   1      31.080  22.809  24.602  1.00  0.00     0.019 A 
ATOM     27  N   UNL A   1      34.177  24.210  23.887  1.00  0.00    -0.236 NA
ATOM     28  C   UNL A   1      32.793  25.110  23.718  1.00  0.00     0.135 A 
ATOM     29  Cl  UNL A   1      33.075  26.581  22.863  1.00  0.00    -0.062 Cl
ENDBRANCH  14  18
BRANCH  16  30
ATOM     30  C   UNL A   1      29.251  28.796  22.943  1.00  0.00     0.050 A 
ATOM     31  C   UNL A   1      27.942  29.180  22.755  1.00  0.00     0.022 A 
ATOM     32  S   UNL A   1      30.338  29.797  22.066  1.00  0.00    -0.142 S 
ATOM     33  C   UNL A   1      27.839  30.332  21.914  1.00  0.00     0.012 A 
ATOM     34  C   UNL A   1      29.068  30.762  21.464  1.00  0.00     0.065 A 
ENDBRANCH  16  30
ENDBRANCH  11  13
ENDBRANCH  10  11
ENDBRANCH   9  10
ENDBRANCH   8   9
ENDBRANCH   6   8
ENDBRANCH   5   6
ENDBRANCH   4   5
ENDBRANCH   3   4
ENDBRANCH   2   3
ENDBRANCH   1   2
BRANCH   1  35
ATOM     35  C   UNL A   1      36.777  33.676  34.468  1.00  0.00     0.188 C 
BRANCH  35  36
ATOM     36  O   UNL A   1      36.896  32.324  34.931  1.00  0.00    -0.376 OA
BRANCH  36  37
ATOM     37  C   UNL A   1      38.045  31.662  35.498  1.00  0.00     0.202 C 
BRANCH  37  38
ATOM     38  C   UNL A   1      39.059  30.919  34.623  1.00  0.00     0.261 C 
BRANCH  38  39
ATOM     39  O   UNL A   1      38.449  30.239  33.541  1.00  0.00    -0.460 OA
BRANCH  39  40
ATOM     40  C   UNL A   1      39.219  30.244  32.428  1.00  0.00     0.338 C 
ATOM     41  O   UNL A   1      38.977  30.821  31.382  1.00  0.00    -0.246 OA
BRANCH  40  42
ATOM     42  C   UNL A   1      40.520  29.687  32.833  1.00  0.00     0.060 A 
ATOM     43  C   UNL A   1      41.615  30.552  32.896  1.00  0.00     0.016 A 
ATOM     44  C   UNL A   1      40.625  28.350  33.247  1.00  0.00     0.016 A 
ATOM     45  C   UNL A   1      42.852  30.053  33.278  1.00  0.00     0.010 A 
ATOM     46  C   UNL A   1      41.851  27.859  33.662  1.00  0.00     0.010 A 
ATOM     47  C   UNL A   1      42.975  28.694  33.602  1.00  0.00    -0.014 A 
BRANCH  47  48
ATOM     48  C   UNL A   1      44.306  28.070  33.568  1.00  0.00     0.031 A 
ATOM     49  C   UNL A   1      44.798  27.594  32.231  1.00  0.00     0.074 A 
ATOM     50  C   UNL A   1      45.038  27.934  34.682  1.00  0.00     0.049 A 
ATOM     51  N   UNL A   1      45.934  27.033  31.922  1.00  0.00    -0.248 NA
ATOM     52  C   UNL A   1      43.881  27.766  31.086  1.00  0.00     0.031 C 
ATOM     53  C   UNL A   1      44.628  28.343  36.025  1.00  0.00     0.029 A 
ATOM     54  N   UNL A   1      46.281  27.389  34.854  1.00  0.00    -0.354 N 
ATOM     55  C   UNL A   1      45.865  26.783  30.558  1.00  0.00     0.074 A 
ATOM     56  C   UNL A   1      44.564  27.209  30.101  1.00  0.00     0.031 C 
ATOM     57  C   UNL A   1      45.601  28.010  36.892  1.00  0.00     0.029 A 
ATOM     58  C   UNL A   1      46.691  27.364  36.164  1.00  0.00     0.049 A 
ATOM     59  H   UNL A   1      46.829  27.049  34.111  1.00  0.00     0.167 HD
ATOM     60  C   UNL A   1      46.819  26.277  29.748  1.00  0.00     0.034 A 
ATOM     61  C   UNL A   1      47.822  26.866  36.697  1.00  0.00     0.034 A 
ATOM     62  C   UNL A   1      48.112  25.870  30.208  1.00  0.00     0.049 A 
ATOM     63  C   UNL A   1      48.866  26.291  35.774  1.00  0.00     0.074 A 
ATOM     64  C   UNL A   1      49.170  25.371  29.474  1.00  0.00     0.029 A 
ATOM     65  N   UNL A   1      48.519  25.911  31.534  1.00  0.00    -0.354 N 
ATOM     66  N   UNL A   1      48.847  26.189  34.465  1.00  0.00    -0.248 NA
ATOM     67  C   UNL A   1      50.105  25.802  36.395  1.00  0.00     0.031 C 
ATOM     68  C   UNL A   1      50.214  25.092  30.362  1.00  0.00     0.029 A 
ATOM     69  C   UNL A   1      49.811  25.438  31.644  1.00  0.00     0.049 A 
ATOM     70  H   UNL A   1      47.968  26.230  32.284  1.00  0.00     0.167 HD
ATOM     71  C   UNL A   1      50.081  25.658  34.105  1.00  0.00     0.074 A 
ATOM     72  C   UNL A   1      50.830  25.480  35.331  1.00  0.00     0.031 C 
ATOM     73  C   UNL A   1      50.549  25.328  32.875  1.00  0.00     0.034 A 
BRANCH  60  74
ATOM     74  C   UNL A   1      46.500  26.184  28.283  1.00  0.00     0.023 A 
ATOM     75  C   UNL A   1      45.742  25.094  27.808  1.00  0.00     0.012 A 
ATOM     76  C   UNL A   1      46.930  27.176  27.383  1.00  0.00     0.148 A 
ATOM     77  C   UNL A   1      45.437  24.979  26.453  1.00  0.00     0.002 A 
ATOM     78  C   UNL A   1      46.587  27.077  26.041  1.00  0.00     0.091 A 
ATOM     79  F   UNL A   1      47.682  28.182  27.851  1.00  0.00    -0.205 F 
ATOM     80  C   UNL A   1      45.849  25.976  25.573  1.00  0.00     0.022 A 
BRANCH  78  81
ATOM     81  S   UNL A   1      47.015  28.340  24.838  1.00  0.00     0.127 S 
ATOM     82  O   UNL A   1      46.327  27.855  23.643  1.00  0.00    -0.237 OA
ATOM     83  O   UNL A   1      46.430  29.542  25.434  1.00  0.00    -0.237 OA
ATOM     84  O   UNL A   1      48.469  28.346  24.764  1.00  0.00    -0.744 OA
ENDBRANCH  78  81
ENDBRANCH  60  74
BRANCH  61  85
ATOM     85  C   UNL A   1      48.046  26.938  38.168  1.00  0.00     0.023 A 
ATOM     86  C   UNL A   1      47.619  25.879  38.990  1.00  0.00     0.012 A 
ATOM     87  C   UNL A   1      48.694  28.044  38.752  1.00  0.00     0.148 A 
ATOM     88  C   UNL A   1      47.802  25.935  40.373  1.00  0.00     0.002 A 
ATOM     89  C   UNL A   1      48.921  28.070  40.122  1.00  0.00     0.091 A 
ATOM     90  F   UNL A   1      49.080  29.050  37.953  1.00  0.00    -0.205 F 
ATOM     91  C   UNL A   1      48.460  27.024  40.937  1.00  0.00     0.022 A 
BRANCH  89  92
ATOM     92  S   UNL A   1      49.875  29.371  40.912  1.00  0.00     0.127 S 
ATOM     93  O   UNL A   1      49.017  29.729  42.039  1.00  0.00    -0.237 OA
ATOM     94  O   UNL A   1      51.107  28.669  41.272  1.00  0.00    -0.237 OA
ATOM     95  O   UNL A   1      50.051  30.397  39.893  1.00  0.00    -0.744 OA
ENDBRANCH  89  92
ENDBRANCH  61  85
BRANCH  73  96
ATOM     96  C   UNL A   1      51.942  24.768  32.786  1.00  0.00     0.023 A 
ATOM     97  C   UNL A   1      52.147  23.385  32.954  1.00  0.00     0.012 A 
ATOM     98  C   UNL A   1      53.029  25.594  32.438  1.00  0.00     0.148 A 
ATOM     99  C   UNL A   1      53.420  22.836  32.805  1.00  0.00     0.002 A 
ATOM    100  C   UNL A   1      54.284  25.033  32.243  1.00  0.00     0.091 A 
ATOM    101  F   UNL A   1      52.813  26.911  32.297  1.00  0.00    -0.205 F 
ATOM    102  C   UNL A   1      54.484  23.656  32.436  1.00  0.00     0.022 A 
BRANCH 100 103
ATOM    103  S   UNL A   1      55.687  25.998  31.671  1.00  0.00     0.127 S 
ATOM    104  O   UNL A   1      56.698  24.961  31.468  1.00  0.00    -0.237 OA
ATOM    105  O   UNL A   1      55.173  26.597  30.439  1.00  0.00    -0.237 OA
ATOM    106  O   UNL A   1      55.972  26.954  32.732  1.00  0.00    -0.744 OA
ENDBRANCH 100 103
ENDBRANCH  73  96
ENDBRANCH  47  48
ENDBRANCH  40  42
ENDBRANCH  39  40
ENDBRANCH  38  39
ENDBRANCH  37  38
ENDBRANCH  36  37
ENDBRANCH  35  36
ENDBRANCH   1  35
TORSDOF 26
ENDMDL
MODEL 2
REMARK VINA RESULT:      -9.3      6.218     11.259
REMARK SMILES Cc1ccc2nc(Cl)c([C@@H]3CC(c4cccs4)=NN3C(=O)CCCC(=O)OCCOCCOCCOC(=O)c3ccc(-c4c5nc(c(-c6cccc(S(=O)(=O)[O-])c6F)c6ccc([nH]6)c(-c6cccc(S(=O)(=O)[O-])c6F)c6nc(c(-c7cccc(S(=O)(=O)[O-])c7F)c7ccc4[nH]7)C=C6)C=C5)cc3)cc2c1
REMARK SMILES IDX 31 1 30 2 29 3 28 4 27 5 25 6 26 7 24 8 23 9 22 10 20 11
REMARK SMILES IDX 21 12 19 13 10 14 11 15 12 16 18 17 9 18 1 19 2 20 3 21
REMARK SMILES IDX 104 22 4 23 103 24 5 25 102 26 6 27 7 28 8 29 13 30 14 31
REMARK SMILES IDX 17 32 15 33 16 34 32 35 33 36 34 37 35 38 36 39 37 40 38 41
REMARK SMILES IDX 39 42 40 43 101 44 41 45 100 46 42 47 43 48 44 49 94 50
REMARK SMILES IDX 45 51 99 52 93 53 95 54 46 55 98 56 92 57 91 58 47 60 79 61
REMARK SMILES IDX 59 62 78 63 60 64 63 65 77 66 96 67 61 68 62 69 76 71 97 72
REMARK SMILES IDX 64 73 48 74 49 75 57 76 50 77 52 78 58 79 51 80 53 81 54 82
REMARK SMILES IDX 55 83 56 84 80 85 81 86 89 87 82 88 84 89 90 90 83 91 85 92
REMARK SMILES IDX 86 93 87 94 88 95 65 96 66 97 74 98 67 99 69 100 75 101
REMARK SMILES IDX 68 102 70 103 71 104 72 105 73 106
REMARK H PARENT 95 59 63 70
REMARK Flexibility Score: inf
ROOT
ATOM      1  C   UNL A   1      35.998  33.957  34.711  1.00  0.00     0.188 C 
ENDROOT
BRANCH   1   2
ATOM      2  O   UNL A   1      36.580  32.600  34.460  1.00  0.00    -0.376 OA
BRANCH   2   3
ATOM      3  C   UNL A   1      37.941  32.030  34.748  1.00  0.00     0.202 C 
BRANCH   3   4
ATOM      4  C   UNL A   1      39.604  32.939  34.924  1.00  0.00     0.261 C 
BRANCH   4   5
ATOM      5  O   UNL A   1      39.892  34.395  36.350  1.00  0.00    -0.463 OA
BRANCH   5   6
ATOM      6  C   UNL A   1      40.338  35.906  36.492  1.00  0.00     0.305 C 
ATOM      7  O   UNL A   1      39.769  36.765  37.197  1.00  0.00    -0.252 OA
BRANCH   6   8
ATOM      8  C   UNL A   1      41.219  36.639  35.546  1.00  0.00     0.123 C 
BRANCH   8   9
ATOM      9  C   UNL A   1      42.629  36.302  35.302  1.00  0.00     0.022 C 
BRANCH   9  10
ATOM     10  C   UNL A   1      42.716  35.330  34.165  1.00  0.00     0.103 C 
BRANCH  10  11
ATOM     11  C   UNL A   1      44.029  35.361  33.384  1.00  0.00     0.243 C 
ATOM     12  O   UNL A   1      44.815  34.430  33.628  1.00  0.00    -0.273 OA
BRANCH  11  13
ATOM     13  N   UNL A   1      44.272  36.256  32.337  1.00  0.00    -0.225 N 
ATOM     14  C   UNL A   1      45.167  37.492  32.040  1.00  0.00     0.150 C 
ATOM     15  C   UNL A   1      44.892  37.764  30.552  1.00  0.00     0.092 C 
ATOM     16  C   UNL A   1      43.923  36.672  30.226  1.00  0.00     0.081 C 
ATOM     17  N   UNL A   1      43.646  35.852  31.181  1.00  0.00    -0.173 NA
BRANCH  14  18
ATOM     18  C   UNL A   1      44.910  38.740  32.888  1.00  0.00     0.015 A 
ATOM     19  C   UNL A   1      41.838  45.135  33.875  1.00  0.00     0.044 C 
ATOM     20  C   UNL A   1      42.909  44.164  33.432  1.00  0.00    -0.050 A 
ATOM     21  C   UNL A   1      44.199  44.590  33.175  1.00  0.00     0.005 A 
ATOM     22  C   UNL A   1      42.566  42.787  33.318  1.00  0.00     0.013 A 
ATOM     23  C   UNL A   1      45.212  43.667  32.953  1.00  0.00     0.029 A 
ATOM     24  C   UNL A   1      43.390  41.590  32.988  1.00  0.00     0.001 A 
ATOM     25  C   UNL A   1      45.002  42.297  32.946  1.00  0.00     0.072 A 
ATOM     26  C   UNL A   1      43.335  39.662  32.930  1.00  0.00     0.019 A 
ATOM     27  N   UNL A   1      46.365  41.356  33.059  1.00  0.00    -0.236 NA
ATOM     28  C   UNL A   1      46.335  39.697  33.045  1.00  0.00     0.135 A 
ATOM     29  Cl  UNL A   1      47.869  39.015  33.439  1.00  0.00    -0.062 Cl
ENDBRANCH  14  18
BRANCH  16  30
ATOM     30  C   UNL A   1      43.283  36.510  28.949  1.00  0.00     0.050 A 
ATOM     31  C   UNL A   1      42.293  35.637  28.560  1.00  0.00     0.022 A 
ATOM     32  S   UNL A   1      43.715  37.586  27.681  1.00  0.00    -0.142 S 
ATOM     33  C   UNL A   1      41.859  35.882  27.220  1.00  0.00     0.012 A 
ATOM     34  C   UNL A   1      42.559  36.909  26.625  1.00  0.00     0.065 A 
ENDBRANCH  16  30
ENDBRANCH  11  13
ENDBRANCH  10  11
ENDBRANCH   9  10
ENDBRANCH   8   9
ENDBRANCH   6   8
ENDBRANCH   5   6
ENDBRANCH   4   5
ENDBRANCH   3   4
ENDBRANCH   2   3
ENDBRANCH   1   2
BRANCH   1  35
ATOM     35  C   UNL A   1      35.268  34.898  33.525  1.00  0.00     0.188 C 
BRANCH  35  36
ATOM     36  O   UNL A   1      34.492  34.310  32.471  1.00  0.00    -0.376 OA
BRANCH  36  37
ATOM     37  C   UNL A   1      34.368  32.920  32.108  1.00  0.00     0.202 C 
BRANCH  37  38
ATOM     38  C   UNL A   1      35.119  32.331  30.910  1.00  0.00     0.261 C 
BRANCH  38  39
ATOM     39  O   UNL A   1      36.437  32.835  30.792  1.00  0.00    -0.460 OA
BRANCH  39  40
ATOM     40  C   UNL A   1      37.122  32.255  29.779  1.00  0.00     0.338 C 
ATOM     41  O   UNL A   1      36.868  32.341  28.590  1.00  0.00    -0.246 OA
BRANCH  40  42
ATOM     42  C   UNL A   1      38.382  31.772  30.367  1.00  0.00     0.060 A 
ATOM     43  C   UNL A   1      39.544  32.512  30.130  1.00  0.00     0.016 A 
ATOM     44  C   UNL A   1      38.389  30.663  31.226  1.00  0.00     0.016 A 
ATOM     45  C   UNL A   1      40.744  32.080  30.675  1.00  0.00     0.010 A 
ATOM     46  C   UNL A   1      39.580  30.252  31.799  1.00  0.00     0.010 A 
ATOM     47  C   UNL A   1      40.765  30.917  31.459  1.00  0.00    -0.014 A 
BRANCH  47  48
ATOM     48  C   UNL A   1      42.041  30.215  31.660  1.00  0.00     0.031 A 
ATOM     49  C   UNL A   1      42.392  29.147  30.663  1.00  0.00     0.074 A 
ATOM     50  C   UNL A   1      42.847  30.517  32.687  1.00  0.00     0.049 A 
ATOM     51  N   UNL A   1      43.457  28.398  30.597  1.00  0.00    -0.248 NA
ATOM     52  C   UNL A   1      41.403  28.881  29.598  1.00  0.00     0.031 C 
ATOM     53  C   UNL A   1      42.574  31.520  33.716  1.00  0.00     0.029 A 
ATOM     54  N   UNL A   1      44.057  29.986  33.039  1.00  0.00    -0.354 N 
ATOM     55  C   UNL A   1      43.264  27.575  29.496  1.00  0.00     0.074 A 
ATOM     56  C   UNL A   1      41.965  27.879  28.945  1.00  0.00     0.031 C 
ATOM     57  C   UNL A   1      43.585  31.513  34.603  1.00  0.00     0.029 A 
ATOM     58  C   UNL A   1      44.565  30.506  34.203  1.00  0.00     0.049 A 
ATOM     59  H   UNL A   1      44.519  29.298  32.508  1.00  0.00     0.167 HD
ATOM     60  C   UNL A   1      44.113  26.669  28.965  1.00  0.00     0.034 A 
ATOM     61  C   UNL A   1      45.696  30.188  34.861  1.00  0.00     0.034 A 
ATOM     62  C   UNL A   1      45.406  26.383  29.510  1.00  0.00     0.049 A 
ATOM     63  C   UNL A   1      46.621  29.162  34.256  1.00  0.00     0.074 A 
ATOM     64  C   UNL A   1      46.364  25.507  29.041  1.00  0.00     0.029 A 
ATOM     65  N   UNL A   1      45.916  26.969  30.659  1.00  0.00    -0.354 N 
ATOM     66  N   UNL A   1      46.493  28.490  33.136  1.00  0.00    -0.248 NA
ATOM     67  C   UNL A   1      47.866  28.880  34.984  1.00  0.00     0.031 C 
ATOM     68  C   UNL A   1      47.452  25.551  29.919  1.00  0.00     0.029 A 
ATOM     69  C   UNL A   1      47.176  26.469  30.921  1.00  0.00     0.049 A 
ATOM     70  H   UNL A   1      45.450  27.642  31.205  1.00  0.00     0.167 HD
ATOM     71  C   UNL A   1      47.653  27.734  33.007  1.00  0.00     0.074 A 
ATOM     72  C   UNL A   1      48.481  28.048  34.153  1.00  0.00     0.031 C 
ATOM     73  C   UNL A   1      47.999  26.847  32.042  1.00  0.00     0.034 A 
BRANCH  60  74
ATOM     74  C   UNL A   1      43.675  25.965  27.712  1.00  0.00     0.023 A 
ATOM     75  C   UNL A   1      43.952  26.550  26.458  1.00  0.00     0.012 A 
ATOM     76  C   UNL A   1      43.009  24.728  27.770  1.00  0.00     0.148 A 
ATOM     77  C   UNL A   1      43.552  25.923  25.280  1.00  0.00     0.002 A 
ATOM     78  C   UNL A   1      42.649  24.089  26.590  1.00  0.00     0.091 A 
ATOM     79  F   UNL A   1      42.721  24.212  28.973  1.00  0.00    -0.205 F 
ATOM     80  C   UNL A   1      42.912  24.689  25.346  1.00  0.00     0.022 A 
BRANCH  78  81
ATOM     81  S   UNL A   1      41.878  22.468  26.566  1.00  0.00     0.127 S 
ATOM     82  O   UNL A   1      40.467  22.811  26.739  1.00  0.00    -0.237 OA
ATOM     83  O   UNL A   1      42.228  21.981  25.232  1.00  0.00    -0.237 OA
ATOM     84  O   UNL A   1      42.479  21.722  27.662  1.00  0.00    -0.744 OA
ENDBRANCH  78  81
ENDBRANCH  60  74
BRANCH  61  85
ATOM     85  C   UNL A   1      46.039  30.885  36.131  1.00  0.00     0.023 A 
ATOM     86  C   UNL A   1      46.961  31.949  36.115  1.00  0.00     0.012 A 
ATOM     87  C   UNL A   1      45.446  30.508  37.352  1.00  0.00     0.148 A 
ATOM     88  C   UNL A   1      47.311  32.603  37.297  1.00  0.00     0.002 A 
ATOM     89  C   UNL A   1      45.759  31.198  38.516  1.00  0.00     0.091 A 
ATOM     90  F   UNL A   1      44.582  29.482  37.349  1.00  0.00    -0.205 F 
ATOM     91  C   UNL A   1      46.705  32.235  38.494  1.00  0.00     0.022 A 
BRANCH  89  92
ATOM     92  S   UNL A   1      44.927  30.875  40.076  1.00  0.00     0.127 S 
ATOM     93  O   UNL A   1      43.576  31.356  39.800  1.00  0.00    -0.237 OA
ATOM     94  O   UNL A   1      45.054  29.422  40.193  1.00  0.00    -0.237 OA
ATOM     95  O   UNL A   1      45.677  31.621  41.078  1.00  0.00    -0.744 OA
ENDBRANCH  89  92
ENDBRANCH  61  85
BRANCH  73  96
ATOM     96  C   UNL A   1      49.337  26.170  32.162  1.00  0.00     0.023 A 
ATOM     97  C   UNL A   1      49.438  24.947  32.851  1.00  0.00     0.012 A 
ATOM     98  C   UNL A   1      50.469  26.696  31.509  1.00  0.00     0.148 A 
ATOM     99  C   UNL A   1      50.654  24.269  32.913  1.00  0.00     0.002 A 
ATOM    100  C   UNL A   1      51.665  25.990  31.534  1.00  0.00     0.091 A 
ATOM    101  F   UNL A   1      50.354  27.870  30.871  1.00  0.00    -0.205 F 
ATOM    102  C   UNL A   1      51.762  24.782  32.244  1.00  0.00     0.022 A 
BRANCH 100 103
ATOM    103  S   UNL A   1      53.114  26.527  30.618  1.00  0.00     0.127 S 
ATOM    104  O   UNL A   1      54.110  25.540  31.032  1.00  0.00    -0.237 OA
ATOM    105  O   UNL A   1      52.671  26.401  29.229  1.00  0.00    -0.237 OA
ATOM    106  O   UNL A   1      53.371  27.896  31.045  1.00  0.00    -0.744 OA
ENDBRANCH 100 103
ENDBRANCH  73  96
ENDBRANCH  47  48
ENDBRANCH  40  42
ENDBRANCH  39  40
ENDBRANCH  38  39
ENDBRANCH  37  38
ENDBRANCH  36  37
ENDBRANCH  35  36
ENDBRANCH   1  35
TORSDOF 26
ENDMDL
MODEL 3
REMARK VINA RESULT:      -9.0      5.194     10.748
REMARK SMILES Cc1ccc2nc(Cl)c([C@@H]3CC(c4cccs4)=NN3C(=O)CCCC(=O)OCCOCCOCCOC(=O)c3ccc(-c4c5nc(c(-c6cccc(S(=O)(=O)[O-])c6F)c6ccc([nH]6)c(-c6cccc(S(=O)(=O)[O-])c6F)c6nc(c(-c7cccc(S(=O)(=O)[O-])c7F)c7ccc4[nH]7)C=C6)C=C5)cc3)cc2c1
REMARK SMILES IDX 31 1 30 2 29 3 28 4 27 5 25 6 26 7 24 8 23 9 22 10 20 11
REMARK SMILES IDX 21 12 19 13 10 14 11 15 12 16 18 17 9 18 1 19 2 20 3 21
REMARK SMILES IDX 104 22 4 23 103 24 5 25 102 26 6 27 7 28 8 29 13 30 14 31
REMARK SMILES IDX 17 32 15 33 16 34 32 35 33 36 34 37 35 38 36 39 37 40 38 41
REMARK SMILES IDX 39 42 40 43 101 44 41 45 100 46 42 47 43 48 44 49 94 50
REMARK SMILES IDX 45 51 99 52 93 53 95 54 46 55 98 56 92 57 91 58 47 60 79 61
REMARK SMILES IDX 59 62 78 63 60 64 63 65 77 66 96 67 61 68 62 69 76 71 97 72
REMARK SMILES IDX 64 73 48 74 49 75 57 76 50 77 52 78 58 79 51 80 53 81 54 82
REMARK SMILES IDX 55 83 56 84 80 85 81 86 89 87 82 88 84 89 90 90 83 91 85 92
REMARK SMILES IDX 86 93 87 94 88 95 65 96 66 97 74 98 67 99 69 100 75 101
REMARK SMILES IDX 68 102 70 103 71 104 72 105 73 106
REMARK H PARENT 95 59 63 70
REMARK Flexibility Score: inf
ROOT
ATOM      1  C   UNL A   1      39.843  29.172  30.456  1.00  0.00     0.188 C 
ENDROOT
BRANCH   1   2
ATOM      2  O   UNL A   1      40.866  28.784  31.479  1.00  0.00    -0.376 OA
BRANCH   2   3
ATOM      3  C   UNL A   1      40.934  29.023  32.961  1.00  0.00     0.202 C 
BRANCH   3   4
ATOM      4  C   UNL A   1      40.346  30.535  33.955  1.00  0.00     0.261 C 
BRANCH   4   5
ATOM      5  O   UNL A   1      38.870  30.380  35.383  1.00  0.00    -0.463 OA
BRANCH   5   6
ATOM      6  C   UNL A   1      38.207  31.204  36.559  1.00  0.00     0.305 C 
ATOM      7  O   UNL A   1      37.491  30.724  37.463  1.00  0.00    -0.252 OA
BRANCH   6   8
ATOM      8  C   UNL A   1      37.986  32.673  36.568  1.00  0.00     0.123 C 
BRANCH   8   9
ATOM      9  C   UNL A   1      36.860  33.342  35.899  1.00  0.00     0.022 C 
BRANCH   9  10
ATOM     10  C   UNL A   1      36.707  32.786  34.515  1.00  0.00     0.103 C 
BRANCH  10  11
ATOM     11  C   UNL A   1      37.087  33.743  33.386  1.00  0.00     0.243 C 
ATOM     12  O   UNL A   1      37.204  34.935  33.717  1.00  0.00    -0.273 OA
BRANCH  11  13
ATOM     13  N   UNL A   1      37.459  33.307  32.110  1.00  0.00    -0.225 N 
ATOM     14  C   UNL A   1      38.756  33.059  31.291  1.00  0.00     0.150 C 
ATOM     15  C   UNL A   1      38.228  32.421  29.997  1.00  0.00     0.092 C 
ATOM     16  C   UNL A   1      36.756  32.386  30.263  1.00  0.00     0.081 C 
ATOM     17  N   UNL A   1      36.376  32.819  31.416  1.00  0.00    -0.173 NA
BRANCH  14  18
ATOM     18  C   UNL A   1      39.618  34.288  30.990  1.00  0.00     0.015 A 
ATOM     19  C   UNL A   1      44.326  37.802  26.892  1.00  0.00     0.044 C 
ATOM     20  C   UNL A   1      43.868  36.879  27.998  1.00  0.00    -0.050 A 
ATOM     21  C   UNL A   1      44.715  36.522  29.030  1.00  0.00     0.005 A 
ATOM     22  C   UNL A   1      42.524  36.409  27.971  1.00  0.00     0.013 A 
ATOM     23  C   UNL A   1      44.228  35.830  30.132  1.00  0.00     0.029 A 
ATOM     24  C   UNL A   1      41.754  35.567  28.930  1.00  0.00     0.001 A 
ATOM     25  C   UNL A   1      42.906  35.437  30.256  1.00  0.00     0.072 A 
ATOM     26  C   UNL A   1      39.977  34.921  29.316  1.00  0.00     0.019 A 
ATOM     27  N   UNL A   1      42.426  34.983  31.779  1.00  0.00    -0.236 NA
ATOM     28  C   UNL A   1      40.894  34.456  32.137  1.00  0.00     0.135 A 
ATOM     29  Cl  UNL A   1      40.636  34.312  33.836  1.00  0.00    -0.062 Cl
ENDBRANCH  14  18
BRANCH  16  30
ATOM     30  C   UNL A   1      35.771  31.935  29.319  1.00  0.00     0.050 A 
ATOM     31  C   UNL A   1      34.619  32.549  28.881  1.00  0.00     0.022 A 
ATOM     32  S   UNL A   1      36.040  30.441  28.515  1.00  0.00    -0.142 S 
ATOM     33  C   UNL A   1      33.975  31.800  27.847  1.00  0.00     0.012 A 
ATOM     34  C   UNL A   1      34.640  30.628  27.559  1.00  0.00     0.065 A 
ENDBRANCH  16  30
ENDBRANCH  11  13
ENDBRANCH  10  11
ENDBRANCH   9  10
ENDBRANCH   8   9
ENDBRANCH   6   8
ENDBRANCH   5   6
ENDBRANCH   4   5
ENDBRANCH   3   4
ENDBRANCH   2   3
ENDBRANCH   1   2
BRANCH   1  35
ATOM     35  C   UNL A   1      38.585  28.172  29.961  1.00  0.00     0.188 C 
BRANCH  35  36
ATOM     36  O   UNL A   1      38.715  27.306  28.826  1.00  0.00    -0.376 OA
BRANCH  36  37
ATOM     37  C   UNL A   1      39.577  26.162  28.658  1.00  0.00     0.202 C 
BRANCH  37  38
ATOM     38  C   UNL A   1      39.119  24.913  27.898  1.00  0.00     0.261 C 
BRANCH  38  39
ATOM     39  O   UNL A   1      40.101  24.432  26.999  1.00  0.00    -0.460 OA
BRANCH  39  40
ATOM     40  C   UNL A   1      40.773  23.366  27.492  1.00  0.00     0.338 C 
ATOM     41  O   UNL A   1      40.392  22.208  27.495  1.00  0.00    -0.246 OA
BRANCH  40  42
ATOM     42  C   UNL A   1      42.149  23.829  27.732  1.00  0.00     0.060 A 
ATOM     43  C   UNL A   1      42.995  23.013  28.487  1.00  0.00     0.016 A 
ATOM     44  C   UNL A   1      42.622  25.003  27.127  1.00  0.00     0.016 A 
ATOM     45  C   UNL A   1      44.299  23.425  28.726  1.00  0.00     0.010 A 
ATOM     46  C   UNL A   1      43.932  25.398  27.335  1.00  0.00     0.010 A 
ATOM     47  C   UNL A   1      44.741  24.645  28.197  1.00  0.00    -0.014 A 
BRANCH  47  48
ATOM     48  C   UNL A   1      45.920  25.294  28.790  1.00  0.00     0.031 A 
ATOM     49  C   UNL A   1      45.746  25.903  30.153  1.00  0.00     0.074 A 
ATOM     50  C   UNL A   1      47.090  25.338  28.138  1.00  0.00     0.049 A 
ATOM     51  N   UNL A   1      46.623  26.511  30.902  1.00  0.00    -0.248 NA
ATOM     52  C   UNL A   1      44.397  25.822  30.748  1.00  0.00     0.031 C 
ATOM     53  C   UNL A   1      47.342  24.798  26.804  1.00  0.00     0.029 A 
ATOM     54  N   UNL A   1      48.285  25.887  28.517  1.00  0.00    -0.354 N 
ATOM     55  C   UNL A   1      45.933  26.886  32.048  1.00  0.00     0.074 A 
ATOM     56  C   UNL A   1      44.558  26.482  31.882  1.00  0.00     0.031 C 
ATOM     57  C   UNL A   1      48.615  25.066  26.463  1.00  0.00     0.029 A 
ATOM     58  C   UNL A   1      49.258  25.797  27.553  1.00  0.00     0.049 A 
ATOM     59  H   UNL A   1      48.433  26.306  29.395  1.00  0.00     0.167 HD
ATOM     60  C   UNL A   1      46.414  27.484  33.159  1.00  0.00     0.034 A 
ATOM     61  C   UNL A   1      50.521  26.264  27.565  1.00  0.00     0.034 A 
ATOM     62  C   UNL A   1      47.783  27.870  33.319  1.00  0.00     0.049 A 
ATOM     63  C   UNL A   1      51.030  26.941  28.812  1.00  0.00     0.074 A 
ATOM     64  C   UNL A   1      48.390  28.455  34.412  1.00  0.00     0.029 A 
ATOM     65  N   UNL A   1      48.759  27.712  32.346  1.00  0.00    -0.354 N 
ATOM     66  N   UNL A   1      50.407  27.166  29.945  1.00  0.00    -0.248 NA
ATOM     67  C   UNL A   1      52.429  27.393  28.799  1.00  0.00     0.031 C 
ATOM     68  C   UNL A   1      49.736  28.668  34.092  1.00  0.00     0.029 A 
ATOM     69  C   UNL A   1      49.966  28.196  32.809  1.00  0.00     0.049 A 
ATOM     70  H   UNL A   1      48.612  27.314  31.458  1.00  0.00     0.167 HD
ATOM     71  C   UNL A   1      51.345  27.751  30.789  1.00  0.00     0.074 A 
ATOM     72  C   UNL A   1      52.583  27.827  30.042  1.00  0.00     0.031 C 
ATOM     73  C   UNL A   1      51.196  28.204  32.059  1.00  0.00     0.034 A 
BRANCH  60  74
ATOM     74  C   UNL A   1      45.452  27.708  34.291  1.00  0.00     0.023 A 
ATOM     75  C   UNL A   1      44.804  28.955  34.411  1.00  0.00     0.012 A 
ATOM     76  C   UNL A   1      45.175  26.689  35.220  1.00  0.00     0.148 A 
ATOM     77  C   UNL A   1      43.912  29.193  35.455  1.00  0.00     0.002 A 
ATOM     78  C   UNL A   1      44.253  26.919  36.233  1.00  0.00     0.091 A 
ATOM     79  F   UNL A   1      45.832  25.526  35.108  1.00  0.00    -0.205 F 
ATOM     80  C   UNL A   1      43.628  28.172  36.358  1.00  0.00     0.022 A 
BRANCH  78  81
ATOM     81  S   UNL A   1      43.773  25.649  37.408  1.00  0.00     0.127 S 
ATOM     82  O   UNL A   1      43.541  26.438  38.616  1.00  0.00    -0.237 OA
ATOM     83  O   UNL A   1      42.561  25.105  36.793  1.00  0.00    -0.237 OA
ATOM     84  O   UNL A   1      44.891  24.719  37.473  1.00  0.00    -0.744 OA
ENDBRANCH  78  81
ENDBRANCH  60  74
BRANCH  61  85
ATOM     85  C   UNL A   1      51.402  26.058  26.383  1.00  0.00     0.023 A 
ATOM     86  C   UNL A   1      52.302  24.976  26.365  1.00  0.00     0.012 A 
ATOM     87  C   UNL A   1      51.341  26.920  25.270  1.00  0.00     0.148 A 
ATOM     88  C   UNL A   1      53.151  24.776  25.275  1.00  0.00     0.002 A 
ATOM     89  C   UNL A   1      52.151  26.683  24.166  1.00  0.00     0.091 A 
ATOM     90  F   UNL A   1      50.488  27.953  25.312  1.00  0.00    -0.205 F 
ATOM     91  C   UNL A   1      53.069  25.622  24.173  1.00  0.00     0.022 A 
BRANCH  89  92
ATOM     92  S   UNL A   1      52.016  27.646  22.655  1.00  0.00     0.127 S 
ATOM     93  O   UNL A   1      52.288  28.998  23.136  1.00  0.00    -0.237 OA
ATOM     94  O   UNL A   1      53.071  27.061  21.826  1.00  0.00    -0.237 OA
ATOM     95  O   UNL A   1      50.668  27.405  22.159  1.00  0.00    -0.744 OA
ENDBRANCH  89  92
ENDBRANCH  61  85
BRANCH  73  96
ATOM     96  C   UNL A   1      52.402  28.795  32.736  1.00  0.00     0.023 A 
ATOM     97  C   UNL A   1      53.261  27.962  33.477  1.00  0.00     0.012 A 
ATOM     98  C   UNL A   1      52.734  30.152  32.555  1.00  0.00     0.148 A 
ATOM     99  C   UNL A   1      54.421  28.478  34.053  1.00  0.00     0.002 A 
ATOM    100  C   UNL A   1      53.917  30.647  33.090  1.00  0.00     0.091 A 
ATOM    101  F   UNL A   1      51.893  30.931  31.858  1.00  0.00    -0.205 F 
ATOM    102  C   UNL A   1      54.756  29.814  33.848  1.00  0.00     0.022 A 
BRANCH 100 103
ATOM    103  S   UNL A   1      54.474  32.329  32.792  1.00  0.00     0.127 S 
ATOM    104  O   UNL A   1      55.742  32.355  33.518  1.00  0.00    -0.237 OA
ATOM    105  O   UNL A   1      54.605  32.360  31.334  1.00  0.00    -0.237 OA
ATOM    106  O   UNL A   1      53.429  33.194  33.321  1.00  0.00    -0.744 OA
ENDBRANCH 100 103
ENDBRANCH  73  96
ENDBRANCH  47  48
ENDBRANCH  40  42
ENDBRANCH  39  40
ENDBRANCH  38  39
ENDBRANCH  37  38
ENDBRANCH  36  37
ENDBRANCH  35  36
ENDBRANCH   1  35
TORSDOF 26
ENDMDL
