MODEL 1
REMARK VINA RESULT:     -10.1      0.000      0.000
REMARK SMILES CCc1nc(Oc2ccc(C(=O)OCCOCCOCCOC(=O)c3ccc(-c4c5nc(c(-c6cccc(S(=O)(=O)[O-])c6F)c6ccc([nH]6)c(-c6cccc(S(=O)(=O)[O-])c6F)c6nc(c(-c7cccc(S(=O)(=O)[O-])c7F)c7ccc4[nH]7)C=C6)C=C5)cc3)cc2)cc(C(C)C)n1
REMARK SMILES IDX 17 1 16 2 15 3 14 4 13 5 11 6 12 7 10 8 7 9 8 10 89 11 9 12
REMARK SMILES IDX 88 13 6 14 5 15 3 16 4 17 95 18 91 19 90 20 2 21 1 22 92 23
REMARK SMILES IDX 93 24 94 25 18 26 19 27 20 28 21 29 22 30 23 31 24 32 25 33
REMARK SMILES IDX 26 34 87 35 27 36 86 37 28 38 29 39 30 40 80 41 31 42 85 43
REMARK SMILES IDX 79 44 81 45 32 46 84 47 78 48 77 49 33 51 65 52 45 53 64 54
REMARK SMILES IDX 46 55 49 56 63 57 82 58 47 59 48 60 62 62 83 63 50 64 34 65
REMARK SMILES IDX 35 66 43 67 36 68 38 69 44 70 37 71 39 72 40 73 41 74 42 75
REMARK SMILES IDX 66 76 67 77 75 78 68 79 70 80 76 81 69 82 71 83 72 84 73 85
REMARK SMILES IDX 74 86 51 87 52 88 60 89 53 90 55 91 61 92 54 93 56 94 57 95
REMARK SMILES IDX 58 96 59 97
REMARK H PARENT 81 50 49 61
REMARK Flexibility Score: inf
ROOT
ATOM      1  C   UNL A   1      36.008  23.259  24.058  1.00  0.00     0.188 C 
ENDROOT
BRANCH   1   2
ATOM      2  O   UNL A   1      34.716  23.667  24.446  1.00  0.00    -0.376 OA
BRANCH   2   3
ATOM      3  C   UNL A   1      34.499  24.884  25.138  1.00  0.00     0.202 C 
BRANCH   3   4
ATOM      4  C   UNL A   1      33.274  25.801  24.987  1.00  0.00     0.261 C 
BRANCH   4   5
ATOM      5  O   UNL A   1      33.027  26.728  26.043  1.00  0.00    -0.460 OA
BRANCH   5   6
ATOM      6  C   UNL A   1      32.542  27.927  25.645  1.00  0.00     0.338 C 
ATOM      7  O   UNL A   1      31.645  28.127  24.832  1.00  0.00    -0.246 OA
BRANCH   6   8
ATOM      8  C   UNL A   1      33.155  29.015  26.429  1.00  0.00     0.060 A 
ATOM      9  C   UNL A   1      34.317  31.229  27.607  1.00  0.00     0.129 A 
ATOM     10  C   UNL A   1      32.970  31.281  27.254  1.00  0.00     0.048 A 
ATOM     11  C   UNL A   1      35.047  30.036  27.526  1.00  0.00     0.048 A 
ATOM     12  C   UNL A   1      32.391  30.170  26.650  1.00  0.00     0.019 A 
ATOM     13  C   UNL A   1      34.468  28.926  26.911  1.00  0.00     0.019 A 
BRANCH   9  14
ATOM     14  O   UNL A   1      34.966  32.415  27.873  1.00  0.00    -0.439 OA
BRANCH  14  15
ATOM     15  C   UNL A   1      34.577  33.068  29.041  1.00  0.00     0.222 A 
ATOM     16  C   UNL A   1      34.698  33.114  31.324  1.00  0.00     0.132 A 
ATOM     17  N   UNL A   1      35.004  32.485  30.174  1.00  0.00    -0.198 NA
ATOM     18  N   UNL A   1      34.071  34.306  31.409  1.00  0.00    -0.237 NA
ATOM     19  C   UNL A   1      33.651  34.861  30.259  1.00  0.00     0.050 A 
ATOM     20  C   UNL A   1      33.848  34.243  29.047  1.00  0.00     0.093 A 
BRANCH  16  21
ATOM     21  C   UNL A   1      35.123  32.467  32.613  1.00  0.00     0.074 C 
ATOM     22  C   UNL A   1      36.547  32.841  33.001  1.00  0.00     0.012 C 
ENDBRANCH  16  21
BRANCH  19  23
ATOM     23  C   UNL A   1      32.992  36.224  30.302  1.00  0.00     0.032 C 
ATOM     24  C   UNL A   1      33.475  37.035  31.499  1.00  0.00     0.014 C 
ATOM     25  C   UNL A   1      33.221  36.970  28.986  1.00  0.00     0.014 C 
ENDBRANCH  19  23
ENDBRANCH  14  15
ENDBRANCH   9  14
ENDBRANCH   6   8
ENDBRANCH   5   6
ENDBRANCH   4   5
ENDBRANCH   3   4
ENDBRANCH   2   3
ENDBRANCH   1   2
BRANCH   1  26
ATOM     26  C   UNL A   1      37.072  23.097  25.164  1.00  0.00     0.188 C 
BRANCH  26  27
ATOM     27  O   UNL A   1      37.473  21.813  25.603  1.00  0.00    -0.376 OA
BRANCH  27  28
ATOM     28  C   UNL A   1      38.852  21.534  25.781  1.00  0.00     0.202 C 
BRANCH  28  29
ATOM     29  C   UNL A   1      39.442  20.117  25.669  1.00  0.00     0.261 C 
BRANCH  29  30
ATOM     30  O   UNL A   1      40.429  19.756  26.641  1.00  0.00    -0.460 OA
BRANCH  30  31
ATOM     31  C   UNL A   1      41.695  19.668  26.169  1.00  0.00     0.338 C 
ATOM     32  O   UNL A   1      42.180  18.749  25.519  1.00  0.00    -0.246 OA
BRANCH  31  33
ATOM     33  C   UNL A   1      42.394  20.944  26.390  1.00  0.00     0.060 A 
ATOM     34  C   UNL A   1      42.563  21.396  27.706  1.00  0.00     0.016 A 
ATOM     35  C   UNL A   1      42.824  21.719  25.312  1.00  0.00     0.016 A 
ATOM     36  C   UNL A   1      43.141  22.640  27.949  1.00  0.00     0.010 A 
ATOM     37  C   UNL A   1      43.381  22.978  25.556  1.00  0.00     0.010 A 
ATOM     38  C   UNL A   1      43.512  23.456  26.873  1.00  0.00    -0.014 A 
BRANCH  38  39
ATOM     39  C   UNL A   1      43.857  24.877  27.114  1.00  0.00     0.031 A 
ATOM     40  C   UNL A   1      45.283  25.312  26.908  1.00  0.00     0.074 A 
ATOM     41  C   UNL A   1      42.926  25.765  27.508  1.00  0.00     0.049 A 
ATOM     42  N   UNL A   1      45.833  26.478  27.122  1.00  0.00    -0.248 NA
ATOM     43  C   UNL A   1      46.214  24.293  26.393  1.00  0.00     0.031 C 
ATOM     44  C   UNL A   1      41.512  25.467  27.730  1.00  0.00     0.029 A 
ATOM     45  N   UNL A   1      43.045  27.096  27.823  1.00  0.00    -0.354 N 
ATOM     46  C   UNL A   1      47.174  26.331  26.786  1.00  0.00     0.074 A 
ATOM     47  C   UNL A   1      47.360  24.957  26.372  1.00  0.00     0.031 C 
ATOM     48  C   UNL A   1      40.902  26.575  28.187  1.00  0.00     0.029 A 
ATOM     49  C   UNL A   1      41.885  27.649  28.312  1.00  0.00     0.049 A 
ATOM     50  H   UNL A   1      43.879  27.605  27.711  1.00  0.00     0.167 HD
ATOM     51  C   UNL A   1      48.159  27.259  26.800  1.00  0.00     0.034 A 
ATOM     52  C   UNL A   1      41.656  28.873  28.829  1.00  0.00     0.034 A 
ATOM     53  C   UNL A   1      47.972  28.626  27.205  1.00  0.00     0.049 A 
ATOM     54  C   UNL A   1      42.781  29.879  28.871  1.00  0.00     0.074 A 
ATOM     55  C   UNL A   1      48.907  29.644  27.250  1.00  0.00     0.029 A 
ATOM     56  N   UNL A   1      46.771  29.165  27.636  1.00  0.00    -0.354 N 
ATOM     57  N   UNL A   1      44.020  29.751  28.462  1.00  0.00    -0.248 NA
ATOM     58  C   UNL A   1      42.466  31.209  29.413  1.00  0.00     0.031 C 
ATOM     59  C   UNL A   1      48.274  30.797  27.724  1.00  0.00     0.029 A 
ATOM     60  C   UNL A   1      46.938  30.502  27.945  1.00  0.00     0.049 A 
ATOM     61  H   UNL A   1      45.923  28.669  27.711  1.00  0.00     0.167 HD
ATOM     62  C   UNL A   1      44.617  30.994  28.652  1.00  0.00     0.074 A 
ATOM     63  C   UNL A   1      43.598  31.866  29.197  1.00  0.00     0.031 C 
ATOM     64  C   UNL A   1      45.895  31.377  28.415  1.00  0.00     0.034 A 
BRANCH  51  65
ATOM     65  C   UNL A   1      49.523  26.839  26.324  1.00  0.00     0.023 A 
ATOM     66  C   UNL A   1      50.313  26.006  27.142  1.00  0.00     0.012 A 
ATOM     67  C   UNL A   1      49.994  27.206  25.048  1.00  0.00     0.148 A 
ATOM     68  C   UNL A   1      51.562  25.564  26.709  1.00  0.00     0.002 A 
ATOM     69  C   UNL A   1      51.221  26.725  24.606  1.00  0.00     0.091 A 
ATOM     70  F   UNL A   1      49.236  28.014  24.295  1.00  0.00    -0.205 F 
ATOM     71  C   UNL A   1      52.010  25.912  25.438  1.00  0.00     0.022 A 
BRANCH  69  72
ATOM     72  S   UNL A   1      51.857  27.054  22.959  1.00  0.00     0.127 S 
ATOM     73  O   UNL A   1      53.012  26.159  22.905  1.00  0.00    -0.237 OA
ATOM     74  O   UNL A   1      50.735  26.653  22.112  1.00  0.00    -0.237 OA
ATOM     75  O   UNL A   1      52.173  28.475  22.923  1.00  0.00    -0.744 OA
ENDBRANCH  69  72
ENDBRANCH  51  65
BRANCH  52  76
ATOM     76  C   UNL A   1      40.303  29.236  29.343  1.00  0.00     0.023 A 
ATOM     77  C   UNL A   1      39.396  29.917  28.506  1.00  0.00     0.012 A 
ATOM     78  C   UNL A   1      39.922  28.938  30.666  1.00  0.00     0.148 A 
ATOM     79  C   UNL A   1      38.156  30.336  28.992  1.00  0.00     0.002 A 
ATOM     80  C   UNL A   1      38.663  29.307  31.125  1.00  0.00     0.091 A 
ATOM     81  F   UNL A   1      40.804  28.308  31.455  1.00  0.00    -0.205 F 
ATOM     82  C   UNL A   1      37.787  30.026  30.298  1.00  0.00     0.022 A 
BRANCH  80  83
ATOM     83  S   UNL A   1      38.063  28.836  32.751  1.00  0.00     0.127 S 
ATOM     84  O   UNL A   1      36.693  29.344  32.723  1.00  0.00    -0.237 OA
ATOM     85  O   UNL A   1      38.180  27.379  32.709  1.00  0.00    -0.237 OA
ATOM     86  O   UNL A   1      38.963  29.481  33.699  1.00  0.00    -0.744 OA
ENDBRANCH  80  83
ENDBRANCH  52  76
BRANCH  64  87
ATOM     87  C   UNL A   1      46.261  32.816  28.677  1.00  0.00     0.023 A 
ATOM     88  C   UNL A   1      46.682  33.215  29.960  1.00  0.00     0.012 A 
ATOM     89  C   UNL A   1      46.261  33.754  27.626  1.00  0.00     0.148 A 
ATOM     90  C   UNL A   1      47.063  34.535  30.202  1.00  0.00     0.002 A 
ATOM     91  C   UNL A   1      46.689  35.055  27.862  1.00  0.00     0.091 A 
ATOM     92  F   UNL A   1      45.841  33.359  26.415  1.00  0.00    -0.205 F 
ATOM     93  C   UNL A   1      47.078  35.450  29.152  1.00  0.00     0.022 A 
BRANCH  91  94
ATOM     94  S   UNL A   1      46.836  36.275  26.551  1.00  0.00     0.127 S 
ATOM     95  O   UNL A   1      45.545  36.145  25.878  1.00  0.00    -0.237 OA
ATOM     96  O   UNL A   1      47.011  37.518  27.302  1.00  0.00    -0.237 OA
ATOM     97  O   UNL A   1      47.995  35.878  25.762  1.00  0.00    -0.744 OA
ENDBRANCH  91  94
ENDBRANCH  64  87
ENDBRANCH  38  39
ENDBRANCH  31  33
ENDBRANCH  30  31
ENDBRANCH  29  30
ENDBRANCH  28  29
ENDBRANCH  27  28
ENDBRANCH  26  27
ENDBRANCH   1  26
TORSDOF 24
ENDMDL
MODEL 2
REMARK VINA RESULT:     -10.1      5.853     12.270
REMARK SMILES CCc1nc(Oc2ccc(C(=O)OCCOCCOCCOC(=O)c3ccc(-c4c5nc(c(-c6cccc(S(=O)(=O)[O-])c6F)c6ccc([nH]6)c(-c6cccc(S(=O)(=O)[O-])c6F)c6nc(c(-c7cccc(S(=O)(=O)[O-])c7F)c7ccc4[nH]7)C=C6)C=C5)cc3)cc2)cc(C(C)C)n1
REMARK SMILES IDX 17 1 16 2 15 3 14 4 13 5 11 6 12 7 10 8 7 9 8 10 89 11 9 12
REMARK SMILES IDX 88 13 6 14 5 15 3 16 4 17 95 18 91 19 90 20 2 21 1 22 92 23
REMARK SMILES IDX 93 24 94 25 18 26 19 27 20 28 21 29 22 30 23 31 24 32 25 33
REMARK SMILES IDX 26 34 87 35 27 36 86 37 28 38 29 39 30 40 80 41 31 42 85 43
REMARK SMILES IDX 79 44 81 45 32 46 84 47 78 48 77 49 33 51 65 52 45 53 64 54
REMARK SMILES IDX 46 55 49 56 63 57 82 58 47 59 48 60 62 62 83 63 50 64 34 65
REMARK SMILES IDX 35 66 43 67 36 68 38 69 44 70 37 71 39 72 40 73 41 74 42 75
REMARK SMILES IDX 66 76 67 77 75 78 68 79 70 80 76 81 69 82 71 83 72 84 73 85
REMARK SMILES IDX 74 86 51 87 52 88 60 89 53 90 55 91 61 92 54 93 56 94 57 95
REMARK SMILES IDX 58 96 59 97
REMARK H PARENT 81 50 49 61
REMARK Flexibility Score: inf
ROOT
ATOM      1  C   UNL A   1      33.427  27.641  25.401  1.00  0.00     0.188 C 
ENDROOT
BRANCH   1   2
ATOM      2  O   UNL A   1      33.355  27.940  24.026  1.00  0.00    -0.376 OA
BRANCH   2   3
ATOM      3  C   UNL A   1      32.544  28.995  23.539  1.00  0.00     0.202 C 
BRANCH   3   4
ATOM      4  C   UNL A   1      31.227  28.834  22.762  1.00  0.00     0.261 C 
BRANCH   4   5
ATOM      5  O   UNL A   1      30.781  27.502  22.515  1.00  0.00    -0.460 OA
BRANCH   5   6
ATOM      6  C   UNL A   1      29.866  27.036  23.397  1.00  0.00     0.338 C 
ATOM      7  O   UNL A   1      28.721  27.444  23.557  1.00  0.00    -0.246 OA
BRANCH   6   8
ATOM      8  C   UNL A   1      30.384  25.843  24.092  1.00  0.00     0.060 A 
ATOM      9  C   UNL A   1      31.109  23.434  25.238  1.00  0.00     0.129 A 
ATOM     10  C   UNL A   1      31.420  23.666  23.899  1.00  0.00     0.048 A 
ATOM     11  C   UNL A   1      30.587  24.448  26.051  1.00  0.00     0.048 A 
ATOM     12  C   UNL A   1      31.043  24.874  23.322  1.00  0.00     0.019 A 
ATOM     13  C   UNL A   1      30.199  25.654  25.469  1.00  0.00     0.019 A 
BRANCH   9  14
ATOM     14  O   UNL A   1      31.163  22.139  25.703  1.00  0.00    -0.439 OA
BRANCH  14  15
ATOM     15  C   UNL A   1      32.274  21.399  25.304  1.00  0.00     0.222 A 
ATOM     16  C   UNL A   1      34.556  21.304  25.195  1.00  0.00     0.132 A 
ATOM     17  N   UNL A   1      33.454  22.007  25.515  1.00  0.00    -0.198 NA
ATOM     18  N   UNL A   1      34.559  20.027  24.759  1.00  0.00    -0.237 NA
ATOM     19  C   UNL A   1      33.364  19.448  24.553  1.00  0.00     0.050 A 
ATOM     20  C   UNL A   1      32.188  20.124  24.774  1.00  0.00     0.093 A 
BRANCH  16  21
ATOM     21  C   UNL A   1      35.892  21.972  25.377  1.00  0.00     0.074 C 
ATOM     22  C   UNL A   1      37.038  20.969  25.378  1.00  0.00     0.012 C 
ENDBRANCH  16  21
BRANCH  19  23
ATOM     23  C   UNL A   1      33.318  17.998  24.116  1.00  0.00     0.032 C 
ATOM     24  C   UNL A   1      32.610  17.848  22.774  1.00  0.00     0.014 C 
ATOM     25  C   UNL A   1      34.728  17.407  24.079  1.00  0.00     0.014 C 
ENDBRANCH  19  23
ENDBRANCH  14  15
ENDBRANCH   9  14
ENDBRANCH   6   8
ENDBRANCH   5   6
ENDBRANCH   4   5
ENDBRANCH   3   4
ENDBRANCH   2   3
ENDBRANCH   1   2
BRANCH   1  26
ATOM     26  C   UNL A   1      32.405  28.317  26.339  1.00  0.00     0.188 C 
BRANCH  26  27
ATOM     27  O   UNL A   1      32.822  29.254  27.313  1.00  0.00    -0.376 OA
BRANCH  27  28
ATOM     28  C   UNL A   1      33.289  30.529  26.903  1.00  0.00     0.202 C 
BRANCH  28  29
ATOM     29  C   UNL A   1      32.549  31.838  27.232  1.00  0.00     0.261 C 
BRANCH  29  30
ATOM     30  O   UNL A   1      33.256  33.055  26.970  1.00  0.00    -0.460 OA
BRANCH  30  31
ATOM     31  C   UNL A   1      33.399  33.878  28.037  1.00  0.00     0.338 C 
ATOM     32  O   UNL A   1      32.647  34.782  28.379  1.00  0.00    -0.246 OA
BRANCH  31  33
ATOM     33  C   UNL A   1      34.523  33.417  28.868  1.00  0.00     0.060 A 
ATOM     34  C   UNL A   1      35.829  33.698  28.444  1.00  0.00     0.016 A 
ATOM     35  C   UNL A   1      34.297  32.662  30.020  1.00  0.00     0.016 A 
ATOM     36  C   UNL A   1      36.918  33.202  29.158  1.00  0.00     0.010 A 
ATOM     37  C   UNL A   1      35.390  32.145  30.721  1.00  0.00     0.010 A 
ATOM     38  C   UNL A   1      36.703  32.386  30.274  1.00  0.00    -0.014 A 
BRANCH  38  39
ATOM     39  C   UNL A   1      37.835  31.630  30.861  1.00  0.00     0.031 A 
ATOM     40  C   UNL A   1      38.236  31.930  32.281  1.00  0.00     0.074 A 
ATOM     41  C   UNL A   1      38.495  30.698  30.150  1.00  0.00     0.049 A 
ATOM     42  N   UNL A   1      39.231  31.451  32.979  1.00  0.00    -0.248 NA
ATOM     43  C   UNL A   1      37.402  32.902  33.009  1.00  0.00     0.031 C 
ATOM     44  C   UNL A   1      38.194  30.313  28.773  1.00  0.00     0.029 A 
ATOM     45  N   UNL A   1      39.582  29.930  30.487  1.00  0.00    -0.354 N 
ATOM     46  C   UNL A   1      39.156  32.073  34.220  1.00  0.00     0.074 A 
ATOM     47  C   UNL A   1      38.029  32.979  34.174  1.00  0.00     0.031 C 
ATOM     48  C   UNL A   1      39.103  29.409  28.367  1.00  0.00     0.029 A 
ATOM     49  C   UNL A   1      40.061  29.172  29.445  1.00  0.00     0.049 A 
ATOM     50  H   UNL A   1      39.981  29.923  31.387  1.00  0.00     0.167 HD
ATOM     51  C   UNL A   1      39.940  31.893  35.309  1.00  0.00     0.034 A 
ATOM     52  C   UNL A   1      41.165  28.402  29.365  1.00  0.00     0.034 A 
ATOM     53  C   UNL A   1      41.056  30.987  35.357  1.00  0.00     0.049 A 
ATOM     54  C   UNL A   1      42.047  28.248  30.581  1.00  0.00     0.074 A 
ATOM     55  C   UNL A   1      41.909  30.731  36.414  1.00  0.00     0.029 A 
ATOM     56  N   UNL A   1      41.474  30.192  34.302  1.00  0.00    -0.354 N 
ATOM     57  N   UNL A   1      41.908  28.771  31.775  1.00  0.00    -0.248 NA
ATOM     58  C   UNL A   1      43.218  27.369  30.448  1.00  0.00     0.031 C 
ATOM     59  C   UNL A   1      42.855  29.791  35.994  1.00  0.00     0.029 A 
ATOM     60  C   UNL A   1      42.570  29.441  34.684  1.00  0.00     0.049 A 
ATOM     61  H   UNL A   1      41.053  30.167  33.412  1.00  0.00     0.167 HD
ATOM     62  C   UNL A   1      42.942  28.249  32.546  1.00  0.00     0.074 A 
ATOM     63  C   UNL A   1      43.689  27.354  31.688  1.00  0.00     0.031 C 
ATOM     64  C   UNL A   1      43.257  28.498  33.840  1.00  0.00     0.034 A 
BRANCH  51  65
ATOM     65  C   UNL A   1      39.594  32.662  36.555  1.00  0.00     0.023 A 
ATOM     66  C   UNL A   1      40.210  33.908  36.790  1.00  0.00     0.012 A 
ATOM     67  C   UNL A   1      38.616  32.191  37.454  1.00  0.00     0.148 A 
ATOM     68  C   UNL A   1      39.876  34.664  37.913  1.00  0.00     0.002 A 
ATOM     69  C   UNL A   1      38.258  32.970  38.547  1.00  0.00     0.091 A 
ATOM     70  F   UNL A   1      38.058  30.995  37.221  1.00  0.00    -0.205 F 
ATOM     71  C   UNL A   1      38.893  34.202  38.783  1.00  0.00     0.022 A 
BRANCH  69  72
ATOM     72  S   UNL A   1      36.953  32.502  39.687  1.00  0.00     0.127 S 
ATOM     73  O   UNL A   1      37.370  31.157  40.079  1.00  0.00    -0.237 OA
ATOM     74  O   UNL A   1      37.087  33.512  40.737  1.00  0.00    -0.237 OA
ATOM     75  O   UNL A   1      35.710  32.570  38.930  1.00  0.00    -0.744 OA
ENDBRANCH  69  72
ENDBRANCH  51  65
BRANCH  52  76
ATOM     76  C   UNL A   1      41.507  27.699  28.094  1.00  0.00     0.023 A 
ATOM     77  C   UNL A   1      41.941  28.442  26.978  1.00  0.00     0.012 A 
ATOM     78  C   UNL A   1      41.373  26.302  27.976  1.00  0.00     0.148 A 
ATOM     79  C   UNL A   1      42.189  27.813  25.757  1.00  0.00     0.002 A 
ATOM     80  C   UNL A   1      41.678  25.675  26.773  1.00  0.00     0.091 A 
ATOM     81  F   UNL A   1      40.939  25.612  29.041  1.00  0.00    -0.205 F 
ATOM     82  C   UNL A   1      42.065  26.430  25.656  1.00  0.00     0.022 A 
BRANCH  80  83
ATOM     83  S   UNL A   1      41.664  23.888  26.597  1.00  0.00     0.127 S 
ATOM     84  O   UNL A   1      42.306  23.460  27.838  1.00  0.00    -0.237 OA
ATOM     85  O   UNL A   1      40.231  23.601  26.514  1.00  0.00    -0.237 OA
ATOM     86  O   UNL A   1      42.400  23.613  25.370  1.00  0.00    -0.744 OA
ENDBRANCH  80  83
ENDBRANCH  52  76
BRANCH  64  87
ATOM     87  C   UNL A   1      44.420  27.749  34.440  1.00  0.00     0.023 A 
ATOM     88  C   UNL A   1      45.711  28.312  34.414  1.00  0.00     0.012 A 
ATOM     89  C   UNL A   1      44.215  26.521  35.099  1.00  0.00     0.148 A 
ATOM     90  C   UNL A   1      46.786  27.647  35.003  1.00  0.00     0.002 A 
ATOM     91  C   UNL A   1      45.281  25.888  35.728  1.00  0.00     0.091 A 
ATOM     92  F   UNL A   1      42.982  25.994  35.099  1.00  0.00    -0.205 F 
ATOM     93  C   UNL A   1      46.569  26.443  35.669  1.00  0.00     0.022 A 
BRANCH  91  94
ATOM     94  S   UNL A   1      45.077  24.386  36.693  1.00  0.00     0.127 S 
ATOM     95  O   UNL A   1      44.193  24.838  37.765  1.00  0.00    -0.237 OA
ATOM     96  O   UNL A   1      44.454  23.479  35.729  1.00  0.00    -0.237 OA
ATOM     97  O   UNL A   1      46.418  23.995  37.111  1.00  0.00    -0.744 OA
ENDBRANCH  91  94
ENDBRANCH  64  87
ENDBRANCH  38  39
ENDBRANCH  31  33
ENDBRANCH  30  31
ENDBRANCH  29  30
ENDBRANCH  28  29
ENDBRANCH  27  28
ENDBRANCH  26  27
ENDBRANCH   1  26
TORSDOF 24
ENDMDL
MODEL 3
REMARK VINA RESULT:      -9.9      1.269      7.404
REMARK SMILES CCc1nc(Oc2ccc(C(=O)OCCOCCOCCOC(=O)c3ccc(-c4c5nc(c(-c6cccc(S(=O)(=O)[O-])c6F)c6ccc([nH]6)c(-c6cccc(S(=O)(=O)[O-])c6F)c6nc(c(-c7cccc(S(=O)(=O)[O-])c7F)c7ccc4[nH]7)C=C6)C=C5)cc3)cc2)cc(C(C)C)n1
REMARK SMILES IDX 17 1 16 2 15 3 14 4 13 5 11 6 12 7 10 8 7 9 8 10 89 11 9 12
REMARK SMILES IDX 88 13 6 14 5 15 3 16 4 17 95 18 91 19 90 20 2 21 1 22 92 23
REMARK SMILES IDX 93 24 94 25 18 26 19 27 20 28 21 29 22 30 23 31 24 32 25 33
REMARK SMILES IDX 26 34 87 35 27 36 86 37 28 38 29 39 30 40 80 41 31 42 85 43
REMARK SMILES IDX 79 44 81 45 32 46 84 47 78 48 77 49 33 51 65 52 45 53 64 54
REMARK SMILES IDX 46 55 49 56 63 57 82 58 47 59 48 60 62 62 83 63 50 64 34 65
REMARK SMILES IDX 35 66 43 67 36 68 38 69 44 70 37 71 39 72 40 73 41 74 42 75
REMARK SMILES IDX 66 76 67 77 75 78 68 79 70 80 76 81 69 82 71 83 72 84 73 85
REMARK SMILES IDX 74 86 51 87 52 88 60 89 53 90 55 91 61 92 54 93 56 94 57 95
REMARK SMILES IDX 58 96 59 97
REMARK H PARENT 81 50 49 61
REMARK Flexibility Score: inf
ROOT
ATOM      1  C   UNL A   1      35.649  23.328  24.029  1.00  0.00     0.188 C 
ENDROOT
BRANCH   1   2
ATOM      2  O   UNL A   1      34.323  23.659  24.374  1.00  0.00    -0.376 OA
BRANCH   2   3
ATOM      3  C   UNL A   1      34.023  24.805  25.151  1.00  0.00     0.202 C 
BRANCH   3   4
ATOM      4  C   UNL A   1      32.863  25.783  24.903  1.00  0.00     0.261 C 
BRANCH   4   5
ATOM      5  O   UNL A   1      32.485  26.625  25.991  1.00  0.00    -0.460 OA
BRANCH   5   6
ATOM      6  C   UNL A   1      32.046  27.854  25.634  1.00  0.00     0.338 C 
ATOM      7  O   UNL A   1      31.129  28.114  24.862  1.00  0.00    -0.246 OA
BRANCH   6   8
ATOM      8  C   UNL A   1      32.746  28.896  26.408  1.00  0.00     0.060 A 
ATOM      9  C   UNL A   1      34.075  31.023  27.570  1.00  0.00     0.129 A 
ATOM     10  C   UNL A   1      32.726  31.164  27.247  1.00  0.00     0.048 A 
ATOM     11  C   UNL A   1      34.723  29.785  27.468  1.00  0.00     0.048 A 
ATOM     12  C   UNL A   1      32.063  30.097  26.652  1.00  0.00     0.019 A 
ATOM     13  C   UNL A   1      34.061  28.719  26.860  1.00  0.00     0.019 A 
BRANCH   9  14
ATOM     14  O   UNL A   1      34.805  32.162  27.827  1.00  0.00    -0.439 OA
BRANCH  14  15
ATOM     15  C   UNL A   1      34.447  32.862  28.977  1.00  0.00     0.222 A 
ATOM     16  C   UNL A   1      34.607  32.986  31.255  1.00  0.00     0.132 A 
ATOM     17  N   UNL A   1      34.882  32.312  30.124  1.00  0.00    -0.198 NA
ATOM     18  N   UNL A   1      34.003  34.191  31.308  1.00  0.00    -0.237 NA
ATOM     19  C   UNL A   1      33.574  34.714  30.147  1.00  0.00     0.050 A 
ATOM     20  C   UNL A   1      33.740  34.051  28.955  1.00  0.00     0.093 A 
BRANCH  16  21
ATOM     21  C   UNL A   1      35.042  32.375  32.560  1.00  0.00     0.074 C 
ATOM     22  C   UNL A   1      35.303  33.430  33.627  1.00  0.00     0.012 C 
ENDBRANCH  16  21
BRANCH  19  23
ATOM     23  C   UNL A   1      32.940  36.089  30.152  1.00  0.00     0.032 C 
ATOM     24  C   UNL A   1      33.518  36.959  31.263  1.00  0.00     0.014 C 
ATOM     25  C   UNL A   1      33.090  36.751  28.782  1.00  0.00     0.014 C 
ENDBRANCH  19  23
ENDBRANCH  14  15
ENDBRANCH   9  14
ENDBRANCH   6   8
ENDBRANCH   5   6
ENDBRANCH   4   5
ENDBRANCH   3   4
ENDBRANCH   2   3
ENDBRANCH   1   2
BRANCH   1  26
ATOM     26  C   UNL A   1      36.701  23.304  25.159  1.00  0.00     0.188 C 
BRANCH  26  27
ATOM     27  O   UNL A   1      37.205  22.079  25.655  1.00  0.00    -0.376 OA
BRANCH  27  28
ATOM     28  C   UNL A   1      38.606  21.900  25.779  1.00  0.00     0.202 C 
BRANCH  28  29
ATOM     29  C   UNL A   1      39.292  20.530  25.630  1.00  0.00     0.261 C 
BRANCH  29  30
ATOM     30  O   UNL A   1      40.245  20.178  26.639  1.00  0.00    -0.460 OA
BRANCH  30  31
ATOM     31  C   UNL A   1      41.504  19.959  26.191  1.00  0.00     0.338 C 
ATOM     32  O   UNL A   1      41.898  19.003  25.534  1.00  0.00    -0.246 OA
BRANCH  31  33
ATOM     33  C   UNL A   1      42.333  21.147  26.450  1.00  0.00     0.060 A 
ATOM     34  C   UNL A   1      42.588  21.509  27.780  1.00  0.00     0.016 A 
ATOM     35  C   UNL A   1      42.804  21.932  25.397  1.00  0.00     0.016 A 
ATOM     36  C   UNL A   1      43.295  22.676  28.063  1.00  0.00     0.010 A 
ATOM     37  C   UNL A   1      43.491  23.115  25.683  1.00  0.00     0.010 A 
ATOM     38  C   UNL A   1      43.711  23.507  27.017  1.00  0.00    -0.014 A 
BRANCH  38  39
ATOM     39  C   UNL A   1      44.204  24.873  27.316  1.00  0.00     0.031 A 
ATOM     40  C   UNL A   1      43.216  25.899  27.806  1.00  0.00     0.074 A 
ATOM     41  C   UNL A   1      45.499  25.199  27.155  1.00  0.00     0.049 A 
ATOM     42  N   UNL A   1      43.398  27.166  28.064  1.00  0.00    -0.248 NA
ATOM     43  C   UNL A   1      41.838  25.430  28.034  1.00  0.00     0.031 C 
ATOM     44  C   UNL A   1      46.550  24.292  26.698  1.00  0.00     0.029 A 
ATOM     45  N   UNL A   1      46.141  26.400  27.331  1.00  0.00    -0.354 N 
ATOM     46  C   UNL A   1      42.160  27.652  28.467  1.00  0.00     0.074 A 
ATOM     47  C   UNL A   1      41.228  26.547  28.401  1.00  0.00     0.031 C 
ATOM     48  C   UNL A   1      47.700  24.980  26.588  1.00  0.00     0.029 A 
ATOM     49  C   UNL A   1      47.460  26.377  26.943  1.00  0.00     0.049 A 
ATOM     50  H   UNL A   1      45.700  27.199  27.698  1.00  0.00     0.167 HD
ATOM     51  C   UNL A   1      41.829  28.899  28.876  1.00  0.00     0.034 A 
ATOM     52  C   UNL A   1      48.358  27.380  26.857  1.00  0.00     0.034 A 
ATOM     53  C   UNL A   1      42.756  29.996  28.948  1.00  0.00     0.049 A 
ATOM     54  C   UNL A   1      47.953  28.771  27.280  1.00  0.00     0.074 A 
ATOM     55  C   UNL A   1      42.518  31.296  29.352  1.00  0.00     0.029 A 
ATOM     56  N   UNL A   1      44.096  29.921  28.605  1.00  0.00    -0.354 N 
ATOM     57  N   UNL A   1      46.803  29.192  27.748  1.00  0.00    -0.248 NA
ATOM     58  C   UNL A   1      48.983  29.818  27.198  1.00  0.00     0.031 C 
ATOM     59  C   UNL A   1      43.714  32.014  29.240  1.00  0.00     0.029 A 
ATOM     60  C   UNL A   1      44.701  31.150  28.793  1.00  0.00     0.049 A 
ATOM     61  H   UNL A   1      44.551  29.111  28.276  1.00  0.00     0.167 HD
ATOM     62  C   UNL A   1      46.984  30.536  28.059  1.00  0.00     0.074 A 
ATOM     63  C   UNL A   1      48.360  30.855  27.744  1.00  0.00     0.031 C 
ATOM     64  C   UNL A   1      46.090  31.432  28.545  1.00  0.00     0.034 A 
BRANCH  51  65
ATOM     65  C   UNL A   1      40.411  29.137  29.318  1.00  0.00     0.023 A 
ATOM     66  C   UNL A   1      39.436  29.476  28.358  1.00  0.00     0.012 A 
ATOM     67  C   UNL A   1      40.027  28.960  30.663  1.00  0.00     0.148 A 
ATOM     68  C   UNL A   1      38.105  29.659  28.731  1.00  0.00     0.002 A 
ATOM     69  C   UNL A   1      38.691  29.101  31.018  1.00  0.00     0.091 A 
ATOM     70  F   UNL A   1      40.973  28.657  31.562  1.00  0.00    -0.205 F 
ATOM     71  C   UNL A   1      37.731  29.459  30.057  1.00  0.00     0.022 A 
BRANCH  69  72
ATOM     72  S   UNL A   1      38.092  28.794  32.683  1.00  0.00     0.127 S 
ATOM     73  O   UNL A   1      38.206  27.339  32.775  1.00  0.00    -0.237 OA
ATOM     74  O   UNL A   1      39.056  29.534  33.497  1.00  0.00    -0.237 OA
ATOM     75  O   UNL A   1      36.731  29.312  32.726  1.00  0.00    -0.744 OA
ENDBRANCH  69  72
ENDBRANCH  51  65
BRANCH  52  76
ATOM     76  C   UNL A   1      49.740  27.116  26.360  1.00  0.00     0.023 A 
ATOM     77  C   UNL A   1      49.986  27.063  24.973  1.00  0.00     0.012 A 
ATOM     78  C   UNL A   1      50.804  26.886  27.253  1.00  0.00     0.148 A 
ATOM     79  C   UNL A   1      51.255  26.740  24.488  1.00  0.00     0.002 A 
ATOM     80  C   UNL A   1      52.077  26.621  26.763  1.00  0.00     0.091 A 
ATOM     81  F   UNL A   1      50.547  26.919  28.569  1.00  0.00    -0.205 F 
ATOM     82  C   UNL A   1      52.301  26.526  25.381  1.00  0.00     0.022 A 
BRANCH  80  83
ATOM     83  S   UNL A   1      53.502  26.458  27.843  1.00  0.00     0.127 S 
ATOM     84  O   UNL A   1      54.177  25.294  27.273  1.00  0.00    -0.237 OA
ATOM     85  O   UNL A   1      54.191  27.732  27.634  1.00  0.00    -0.237 OA
ATOM     86  O   UNL A   1      52.957  26.286  29.182  1.00  0.00    -0.744 OA
ENDBRANCH  80  83
ENDBRANCH  52  76
BRANCH  64  87
ATOM     87  C   UNL A   1      46.577  32.829  28.833  1.00  0.00     0.023 A 
ATOM     88  C   UNL A   1      47.304  33.095  30.010  1.00  0.00     0.012 A 
ATOM     89  C   UNL A   1      46.378  33.862  27.896  1.00  0.00     0.148 A 
ATOM     90  C   UNL A   1      47.796  34.375  30.266  1.00  0.00     0.002 A 
ATOM     91  C   UNL A   1      46.914  35.122  28.133  1.00  0.00     0.091 A 
ATOM     92  F   UNL A   1      45.669  33.594  26.790  1.00  0.00    -0.205 F 
ATOM     93  C   UNL A   1      47.611  35.384  29.323  1.00  0.00     0.022 A 
BRANCH  91  94
ATOM     94  S   UNL A   1      46.811  36.456  26.933  1.00  0.00     0.127 S 
ATOM     95  O   UNL A   1      47.662  35.953  25.856  1.00  0.00    -0.237 OA
ATOM     96  O   UNL A   1      45.382  36.483  26.620  1.00  0.00    -0.237 OA
ATOM     97  O   UNL A   1      47.302  37.647  27.614  1.00  0.00    -0.744 OA
ENDBRANCH  91  94
ENDBRANCH  64  87
ENDBRANCH  38  39
ENDBRANCH  31  33
ENDBRANCH  30  31
ENDBRANCH  29  30
ENDBRANCH  28  29
ENDBRANCH  27  28
ENDBRANCH  26  27
ENDBRANCH   1  26
TORSDOF 24
ENDMDL
