MODEL 1
REMARK VINA RESULT:      -9.3      0.000      0.000
REMARK SMILES CC[N@@H+]([C@H]1C[C@H]2CC[C@@H](C1)[NH2+]2)[C@@H](C)[C@@H](C)C(=O)OCCOCCOCCOC(=O)c1ccc(-c2c3nc(c(-c4cccc(S(=O)(=O)[O-])c4F)c4ccc([nH]4)c(-c4cccc(S(=O)(=O)[O-])c4F)c4nc(c(-c5cccc(S(=O)(=O)[O-])c5F)c5ccc2[nH]5)C=C4)C=C3)cc1
REMARK SMILES IDX 22 1 21 2 20 3 19 4 18 5 16 6 17 7 14 8 15 9 12 10 13 11
REMARK SMILES IDX 3 12 2 14 1 15 4 16 5 17 10 18 6 19 9 20 7 21 11 22 8 23
REMARK SMILES IDX 23 26 24 27 25 28 26 29 27 30 28 31 29 32 30 33 31 34 92 35
REMARK SMILES IDX 32 36 91 37 33 38 34 39 35 40 85 41 36 42 90 43 84 44 86 45
REMARK SMILES IDX 37 46 89 47 83 48 82 49 38 51 70 52 50 53 69 54 51 55 54 56
REMARK SMILES IDX 68 57 87 58 52 59 53 60 67 62 88 63 55 64 39 65 40 66 48 67
REMARK SMILES IDX 41 68 43 69 49 70 42 71 44 72 45 73 46 74 47 75 71 76 72 77
REMARK SMILES IDX 80 78 73 79 75 80 81 81 74 82 76 83 77 84 78 85 79 86 56 87
REMARK SMILES IDX 57 88 65 89 58 90 60 91 66 92 59 93 61 94 62 95 63 96 64 97
REMARK H PARENT 3 13 11 24 11 25 86 50 54 61
REMARK Flexibility Score: inf
ROOT
ATOM      1  C   UNL A   1      35.687  21.509  25.091  1.00  0.00     0.188 C 
ENDROOT
BRANCH   1   2
ATOM      2  O   UNL A   1      34.704  21.066  26.023  1.00  0.00    -0.376 OA
BRANCH   2   3
ATOM      3  C   UNL A   1      33.599  20.331  25.496  1.00  0.00     0.202 C 
BRANCH   3   4
ATOM      4  C   UNL A   1      32.673  21.083  24.518  1.00  0.00     0.261 C 
BRANCH   4   5
ATOM      5  O   UNL A   1      31.963  22.228  25.083  1.00  0.00    -0.463 OA
BRANCH   5   6
ATOM      6  C   UNL A   1      32.032  23.355  24.339  1.00  0.00     0.314 C 
ATOM      7  O   UNL A   1      31.748  23.355  23.139  1.00  0.00    -0.252 OA
BRANCH   6   8
ATOM      8  C   UNL A   1      32.247  24.693  25.076  1.00  0.00     0.154 C 
ATOM      9  C   UNL A   1      33.405  24.377  26.053  1.00  0.00     0.026 C 
BRANCH   8  10
ATOM     10  C   UNL A   1      31.243  25.594  25.872  1.00  0.00     0.195 C 
ATOM     11  C   UNL A   1      29.845  25.042  26.149  1.00  0.00     0.076 C 
BRANCH  10  12
ATOM     12  N   UNL A   1      31.188  26.993  25.247  1.00  0.00    -0.329 N 
ATOM     13  H   UNL A   1      32.024  27.054  24.665  1.00  0.00     0.348 HD
BRANCH  12  14
ATOM     14  C   UNL A   1      30.124  27.179  24.247  1.00  0.00     0.259 C 
ATOM     15  C   UNL A   1      30.593  27.177  22.788  1.00  0.00     0.071 C 
ENDBRANCH  12  14
BRANCH  12  16
ATOM     16  C   UNL A   1      31.407  28.111  26.216  1.00  0.00     0.196 C 
ATOM     17  C   UNL A   1      32.666  27.811  27.079  1.00  0.00     0.130 C 
ATOM     18  C   UNL A   1      31.544  29.583  25.711  1.00  0.00     0.130 C 
ATOM     19  C   UNL A   1      33.978  28.369  26.493  1.00  0.00     0.188 C 
ATOM     20  C   UNL A   1      32.959  30.016  25.266  1.00  0.00     0.188 C 
ATOM     21  C   UNL A   1      34.234  27.983  25.036  1.00  0.00     0.071 C 
ATOM     22  N   UNL A   1      33.874  29.835  26.404  1.00  0.00    -0.341 N 
ATOM     23  C   UNL A   1      33.650  29.142  24.229  1.00  0.00     0.071 C 
ATOM     24  H   UNL A   1      34.783  30.260  26.219  1.00  0.00     0.346 HD
ATOM     25  H   UNL A   1      33.547  30.274  27.265  1.00  0.00     0.346 HD
ENDBRANCH  12  16
ENDBRANCH  10  12
ENDBRANCH   8  10
ENDBRANCH   6   8
ENDBRANCH   5   6
ENDBRANCH   4   5
ENDBRANCH   3   4
ENDBRANCH   2   3
ENDBRANCH   1   2
BRANCH   1  26
ATOM     26  C   UNL A   1      36.955  22.108  25.716  1.00  0.00     0.188 C 
BRANCH  26  27
ATOM     27  O   UNL A   1      38.126  21.412  25.315  1.00  0.00    -0.376 OA
BRANCH  27  28
ATOM     28  C   UNL A   1      38.090  20.026  25.017  1.00  0.00     0.202 C 
BRANCH  28  29
ATOM     29  C   UNL A   1      39.077  19.115  25.750  1.00  0.00     0.261 C 
BRANCH  29  30
ATOM     30  O   UNL A   1      40.455  19.521  25.664  1.00  0.00    -0.460 OA
BRANCH  30  31
ATOM     31  C   UNL A   1      41.117  19.760  26.818  1.00  0.00     0.338 C 
ATOM     32  O   UNL A   1      41.583  18.924  27.580  1.00  0.00    -0.246 OA
BRANCH  31  33
ATOM     33  C   UNL A   1      41.426  21.208  26.874  1.00  0.00     0.060 A 
ATOM     34  C   UNL A   1      41.930  21.724  28.075  1.00  0.00     0.016 A 
ATOM     35  C   UNL A   1      41.320  22.034  25.754  1.00  0.00     0.016 A 
ATOM     36  C   UNL A   1      42.356  23.052  28.158  1.00  0.00     0.010 A 
ATOM     37  C   UNL A   1      41.709  23.374  25.847  1.00  0.00     0.010 A 
ATOM     38  C   UNL A   1      42.226  23.894  27.049  1.00  0.00    -0.014 A 
BRANCH  38  39
ATOM     39  C   UNL A   1      42.501  25.349  27.163  1.00  0.00     0.031 A 
ATOM     40  C   UNL A   1      43.822  25.871  26.669  1.00  0.00     0.074 A 
ATOM     41  C   UNL A   1      41.622  26.191  27.739  1.00  0.00     0.049 A 
ATOM     42  N   UNL A   1      44.348  27.058  26.810  1.00  0.00    -0.248 NA
ATOM     43  C   UNL A   1      44.662  24.923  25.917  1.00  0.00     0.031 C 
ATOM     44  C   UNL A   1      40.295  25.827  28.231  1.00  0.00     0.029 A 
ATOM     45  N   UNL A   1      41.742  27.526  28.053  1.00  0.00    -0.354 N 
ATOM     46  C   UNL A   1      45.603  26.987  26.220  1.00  0.00     0.074 A 
ATOM     47  C   UNL A   1      45.751  25.647  25.694  1.00  0.00     0.031 C 
ATOM     48  C   UNL A   1      39.745  26.895  28.833  1.00  0.00     0.029 A 
ATOM     49  C   UNL A   1      40.699  28.003  28.814  1.00  0.00     0.049 A 
ATOM     50  H   UNL A   1      42.499  28.084  27.762  1.00  0.00     0.167 HD
ATOM     51  C   UNL A   1      46.550  27.949  26.132  1.00  0.00     0.034 A 
ATOM     52  C   UNL A   1      40.556  29.175  29.470  1.00  0.00     0.034 A 
ATOM     53  C   UNL A   1      46.396  29.289  26.626  1.00  0.00     0.049 A 
ATOM     54  C   UNL A   1      41.651  30.212  29.391  1.00  0.00     0.074 A 
ATOM     55  C   UNL A   1      47.277  30.350  26.510  1.00  0.00     0.029 A 
ATOM     56  N   UNL A   1      45.310  29.747  27.352  1.00  0.00    -0.354 N 
ATOM     57  N   UNL A   1      42.778  30.177  28.723  1.00  0.00    -0.248 NA
ATOM     58  C   UNL A   1      41.446  31.460  30.145  1.00  0.00     0.031 C 
ATOM     59  C   UNL A   1      46.749  31.435  27.213  1.00  0.00     0.029 A 
ATOM     60  C   UNL A   1      45.516  31.065  27.724  1.00  0.00     0.049 A 
ATOM     61  H   UNL A   1      44.511  29.216  27.571  1.00  0.00     0.167 HD
ATOM     62  C   UNL A   1      43.399  31.402  28.953  1.00  0.00     0.074 A 
ATOM     63  C   UNL A   1      42.511  32.170  29.797  1.00  0.00     0.031 C 
ATOM     64  C   UNL A   1      44.605  31.844  28.520  1.00  0.00     0.034 A 
BRANCH  51  65
ATOM     65  C   UNL A   1      47.863  27.597  25.487  1.00  0.00     0.023 A 
ATOM     66  C   UNL A   1      48.866  26.948  26.230  1.00  0.00     0.012 A 
ATOM     67  C   UNL A   1      48.049  27.816  24.108  1.00  0.00     0.148 A 
ATOM     68  C   UNL A   1      50.045  26.532  25.611  1.00  0.00     0.002 A 
ATOM     69  C   UNL A   1      49.204  27.358  23.489  1.00  0.00     0.091 A 
ATOM     70  F   UNL A   1      47.086  28.456  23.428  1.00  0.00    -0.205 F 
ATOM     71  C   UNL A   1      50.207  26.723  24.240  1.00  0.00     0.022 A 
BRANCH  69  72
ATOM     72  S   UNL A   1      49.469  27.483  21.717  1.00  0.00     0.127 S 
ATOM     73  O   UNL A   1      50.700  26.710  21.549  1.00  0.00    -0.237 OA
ATOM     74  O   UNL A   1      48.268  26.840  21.184  1.00  0.00    -0.237 OA
ATOM     75  O   UNL A   1      49.585  28.903  21.423  1.00  0.00    -0.744 OA
ENDBRANCH  69  72
ENDBRANCH  51  65
BRANCH  52  76
ATOM     76  C   UNL A   1      39.347  29.430  30.309  1.00  0.00     0.023 A 
ATOM     77  C   UNL A   1      39.209  28.791  31.557  1.00  0.00     0.012 A 
ATOM     78  C   UNL A   1      38.313  30.272  29.853  1.00  0.00     0.148 A 
ATOM     79  C   UNL A   1      38.046  28.950  32.313  1.00  0.00     0.002 A 
ATOM     80  C   UNL A   1      37.185  30.475  30.639  1.00  0.00     0.091 A 
ATOM     81  F   UNL A   1      38.447  30.851  28.652  1.00  0.00    -0.205 F 
ATOM     82  C   UNL A   1      37.039  29.798  31.859  1.00  0.00     0.022 A 
BRANCH  80  83
ATOM     83  S   UNL A   1      35.899  31.644  30.187  1.00  0.00     0.127 S 
ATOM     84  O   UNL A   1      35.257  30.964  29.066  1.00  0.00    -0.237 OA
ATOM     85  O   UNL A   1      35.100  31.700  31.412  1.00  0.00    -0.237 OA
ATOM     86  O   UNL A   1      36.593  32.883  29.866  1.00  0.00    -0.744 OA
ENDBRANCH  80  83
ENDBRANCH  52  76
BRANCH  64  87
ATOM     87  C   UNL A   1      45.037  33.235  28.911  1.00  0.00     0.023 A 
ATOM     88  C   UNL A   1      45.727  33.443  30.122  1.00  0.00     0.012 A 
ATOM     89  C   UNL A   1      44.843  34.320  28.033  1.00  0.00     0.148 A 
ATOM     90  C   UNL A   1      46.191  34.712  30.465  1.00  0.00     0.002 A 
ATOM     91  C   UNL A   1      45.353  35.571  28.356  1.00  0.00     0.091 A 
ATOM     92  F   UNL A   1      44.175  34.104  26.890  1.00  0.00    -0.205 F 
ATOM     93  C   UNL A   1      46.016  35.773  29.578  1.00  0.00     0.022 A 
BRANCH  91  94
ATOM     94  S   UNL A   1      45.263  36.975  27.238  1.00  0.00     0.127 S 
ATOM     95  O   UNL A   1      46.075  36.513  26.114  1.00  0.00    -0.237 OA
ATOM     96  O   UNL A   1      43.828  37.056  26.962  1.00  0.00    -0.237 OA
ATOM     97  O   UNL A   1      45.806  38.111  27.970  1.00  0.00    -0.744 OA
ENDBRANCH  91  94
ENDBRANCH  64  87
ENDBRANCH  38  39
ENDBRANCH  31  33
ENDBRANCH  30  31
ENDBRANCH  29  30
ENDBRANCH  28  29
ENDBRANCH  27  28
ENDBRANCH  26  27
ENDBRANCH   1  26
TORSDOF 24
ENDMDL
MODEL 2
REMARK VINA RESULT:      -8.7      5.908     11.172
REMARK SMILES CC[N@@H+]([C@H]1C[C@H]2CC[C@@H](C1)[NH2+]2)[C@@H](C)[C@@H](C)C(=O)OCCOCCOCCOC(=O)c1ccc(-c2c3nc(c(-c4cccc(S(=O)(=O)[O-])c4F)c4ccc([nH]4)c(-c4cccc(S(=O)(=O)[O-])c4F)c4nc(c(-c5cccc(S(=O)(=O)[O-])c5F)c5ccc2[nH]5)C=C4)C=C3)cc1
REMARK SMILES IDX 22 1 21 2 20 3 19 4 18 5 16 6 17 7 14 8 15 9 12 10 13 11
REMARK SMILES IDX 3 12 2 14 1 15 4 16 5 17 10 18 6 19 9 20 7 21 11 22 8 23
REMARK SMILES IDX 23 26 24 27 25 28 26 29 27 30 28 31 29 32 30 33 31 34 92 35
REMARK SMILES IDX 32 36 91 37 33 38 34 39 35 40 85 41 36 42 90 43 84 44 86 45
REMARK SMILES IDX 37 46 89 47 83 48 82 49 38 51 70 52 50 53 69 54 51 55 54 56
REMARK SMILES IDX 68 57 87 58 52 59 53 60 67 62 88 63 55 64 39 65 40 66 48 67
REMARK SMILES IDX 41 68 43 69 49 70 42 71 44 72 45 73 46 74 47 75 71 76 72 77
REMARK SMILES IDX 80 78 73 79 75 80 81 81 74 82 76 83 77 84 78 85 79 86 56 87
REMARK SMILES IDX 57 88 65 89 58 90 60 91 66 92 59 93 61 94 62 95 63 96 64 97
REMARK H PARENT 3 13 11 24 11 25 86 50 54 61
REMARK Flexibility Score: inf
ROOT
ATOM      1  C   UNL A   1      33.533  30.215  26.878  1.00  0.00     0.188 C 
ENDROOT
BRANCH   1   2
ATOM      2  O   UNL A   1      32.725  29.128  27.321  1.00  0.00    -0.376 OA
BRANCH   2   3
ATOM      3  C   UNL A   1      33.051  27.833  26.814  1.00  0.00     0.202 C 
BRANCH   3   4
ATOM      4  C   UNL A   1      32.055  27.212  25.814  1.00  0.00     0.261 C 
BRANCH   4   5
ATOM      5  O   UNL A   1      31.556  28.119  24.782  1.00  0.00    -0.463 OA
BRANCH   5   6
ATOM      6  C   UNL A   1      31.662  27.645  23.519  1.00  0.00     0.314 C 
ATOM      7  O   UNL A   1      30.838  27.937  22.650  1.00  0.00    -0.252 OA
BRANCH   6   8
ATOM      8  C   UNL A   1      32.968  26.924  23.128  1.00  0.00     0.154 C 
ATOM      9  C   UNL A   1      33.766  28.018  22.377  1.00  0.00     0.026 C 
BRANCH   8  10
ATOM     10  C   UNL A   1      33.202  25.595  22.333  1.00  0.00     0.195 C 
ATOM     11  C   UNL A   1      32.679  25.513  20.899  1.00  0.00     0.076 C 
BRANCH  10  12
ATOM     12  N   UNL A   1      32.747  24.395  23.173  1.00  0.00    -0.329 N 
ATOM     13  H   UNL A   1      32.881  24.688  24.142  1.00  0.00     0.348 HD
BRANCH  12  14
ATOM     14  C   UNL A   1      31.297  24.140  23.146  1.00  0.00     0.259 C 
ATOM     15  C   UNL A   1      30.636  23.986  24.520  1.00  0.00     0.071 C 
ENDBRANCH  12  14
BRANCH  12  16
ATOM     16  C   UNL A   1      33.646  23.204  23.084  1.00  0.00     0.196 C 
ATOM     17  C   UNL A   1      35.129  23.664  23.164  1.00  0.00     0.130 C 
ATOM     18  C   UNL A   1      33.486  22.013  24.084  1.00  0.00     0.130 C 
ATOM     19  C   UNL A   1      35.700  23.700  24.596  1.00  0.00     0.188 C 
ATOM     20  C   UNL A   1      34.220  22.163  25.434  1.00  0.00     0.188 C 
ATOM     21  C   UNL A   1      34.850  24.483  25.596  1.00  0.00     0.071 C 
ATOM     22  N   UNL A   1      35.654  22.341  25.160  1.00  0.00    -0.341 N 
ATOM     23  C   UNL A   1      33.944  23.430  26.231  1.00  0.00     0.071 C 
ATOM     24  H   UNL A   1      36.206  22.277  26.016  1.00  0.00     0.346 HD
ATOM     25  H   UNL A   1      36.044  21.629  24.541  1.00  0.00     0.346 HD
ENDBRANCH  12  16
ENDBRANCH  10  12
ENDBRANCH   8  10
ENDBRANCH   6   8
ENDBRANCH   5   6
ENDBRANCH   4   5
ENDBRANCH   3   4
ENDBRANCH   2   3
ENDBRANCH   1   2
BRANCH   1  26
ATOM     26  C   UNL A   1      34.479  30.798  27.938  1.00  0.00     0.188 C 
BRANCH  26  27
ATOM     27  O   UNL A   1      34.364  32.210  28.034  1.00  0.00    -0.376 OA
BRANCH  27  28
ATOM     28  C   UNL A   1      33.174  32.878  27.649  1.00  0.00     0.202 C 
BRANCH  28  29
ATOM     29  C   UNL A   1      33.031  34.353  28.028  1.00  0.00     0.261 C 
BRANCH  29  30
ATOM     30  O   UNL A   1      32.588  34.591  29.376  1.00  0.00    -0.460 OA
BRANCH  30  31
ATOM     31  C   UNL A   1      33.380  35.336  30.180  1.00  0.00     0.338 C 
ATOM     32  O   UNL A   1      33.162  36.474  30.570  1.00  0.00    -0.246 OA
BRANCH  31  33
ATOM     33  C   UNL A   1      34.429  34.448  30.734  1.00  0.00     0.060 A 
ATOM     34  C   UNL A   1      35.732  34.585  30.238  1.00  0.00     0.016 A 
ATOM     35  C   UNL A   1      34.176  33.564  31.783  1.00  0.00     0.016 A 
ATOM     36  C   UNL A   1      36.790  33.868  30.801  1.00  0.00     0.010 A 
ATOM     37  C   UNL A   1      35.228  32.814  32.321  1.00  0.00     0.010 A 
ATOM     38  C   UNL A   1      36.540  32.958  31.833  1.00  0.00    -0.014 A 
BRANCH  38  39
ATOM     39  C   UNL A   1      37.611  32.054  32.325  1.00  0.00     0.031 A 
ATOM     40  C   UNL A   1      38.278  32.377  33.634  1.00  0.00     0.074 A 
ATOM     41  C   UNL A   1      38.025  30.994  31.606  1.00  0.00     0.049 A 
ATOM     42  N   UNL A   1      39.335  31.836  34.179  1.00  0.00    -0.248 NA
ATOM     43  C   UNL A   1      37.672  33.456  34.431  1.00  0.00     0.031 C 
ATOM     44  C   UNL A   1      37.446  30.547  30.341  1.00  0.00     0.029 A 
ATOM     45  N   UNL A   1      39.072  30.126  31.822  1.00  0.00    -0.354 N 
ATOM     46  C   UNL A   1      39.558  32.546  35.352  1.00  0.00     0.074 A 
ATOM     47  C   UNL A   1      38.510  33.539  35.455  1.00  0.00     0.031 C 
ATOM     48  C   UNL A   1      38.178  29.525  29.863  1.00  0.00     0.029 A 
ATOM     49  C   UNL A   1      39.304  29.277  30.763  1.00  0.00     0.049 A 
ATOM     50  H   UNL A   1      39.603  30.114  32.651  1.00  0.00     0.167 HD
ATOM     51  C   UNL A   1      40.550  32.389  36.258  1.00  0.00     0.034 A 
ATOM     52  C   UNL A   1      40.336  28.441  30.518  1.00  0.00     0.034 A 
ATOM     53  C   UNL A   1      41.575  31.385  36.176  1.00  0.00     0.049 A 
ATOM     54  C   UNL A   1      41.454  28.322  31.527  1.00  0.00     0.074 A 
ATOM     55  C   UNL A   1      42.576  31.107  37.090  1.00  0.00     0.029 A 
ATOM     56  N   UNL A   1      41.751  30.517  35.112  1.00  0.00    -0.354 N 
ATOM     57  N   UNL A   1      41.584  28.908  32.692  1.00  0.00    -0.248 NA
ATOM     58  C   UNL A   1      42.561  27.410  31.193  1.00  0.00     0.031 C 
ATOM     59  C   UNL A   1      43.390  30.107  36.555  1.00  0.00     0.029 A 
ATOM     60  C   UNL A   1      42.868  29.728  35.330  1.00  0.00     0.049 A 
ATOM     61  H   UNL A   1      41.170  30.467  34.319  1.00  0.00     0.167 HD
ATOM     62  C   UNL A   1      42.767  28.417  33.238  1.00  0.00     0.074 A 
ATOM     63  C   UNL A   1      43.302  27.462  32.292  1.00  0.00     0.031 C 
ATOM     64  C   UNL A   1      43.367  28.741  34.409  1.00  0.00     0.034 A 
BRANCH  51  65
ATOM     65  C   UNL A   1      40.602  33.335  37.427  1.00  0.00     0.023 A 
ATOM     66  C   UNL A   1      39.957  33.005  38.634  1.00  0.00     0.012 A 
ATOM     67  C   UNL A   1      41.389  34.500  37.353  1.00  0.00     0.148 A 
ATOM     68  C   UNL A   1      40.084  33.832  39.750  1.00  0.00     0.002 A 
ATOM     69  C   UNL A   1      41.549  35.293  38.481  1.00  0.00     0.091 A 
ATOM     70  F   UNL A   1      41.975  34.802  36.185  1.00  0.00    -0.205 F 
ATOM     71  C   UNL A   1      40.892  34.966  39.678  1.00  0.00     0.022 A 
BRANCH  69  72
ATOM     72  S   UNL A   1      42.633  36.726  38.513  1.00  0.00     0.127 S 
ATOM     73  O   UNL A   1      43.871  36.146  39.034  1.00  0.00    -0.237 OA
ATOM     74  O   UNL A   1      42.682  37.101  37.100  1.00  0.00    -0.237 OA
ATOM     75  O   UNL A   1      41.991  37.700  39.384  1.00  0.00    -0.744 OA
ENDBRANCH  69  72
ENDBRANCH  51  65
BRANCH  52  76
ATOM     76  C   UNL A   1      40.402  27.674  29.239  1.00  0.00     0.023 A 
ATOM     77  C   UNL A   1      39.568  26.555  29.046  1.00  0.00     0.012 A 
ATOM     78  C   UNL A   1      41.321  28.024  28.230  1.00  0.00     0.148 A 
ATOM     79  C   UNL A   1      39.679  25.774  27.893  1.00  0.00     0.002 A 
ATOM     80  C   UNL A   1      41.384  27.280  27.058  1.00  0.00     0.091 A 
ATOM     81  F   UNL A   1      42.127  29.074  28.441  1.00  0.00    -0.205 F 
ATOM     82  C   UNL A   1      40.580  26.142  26.896  1.00  0.00     0.022 A 
BRANCH  80  83
ATOM     83  S   UNL A   1      42.426  27.754  25.675  1.00  0.00     0.127 S 
ATOM     84  O   UNL A   1      41.882  29.063  25.325  1.00  0.00    -0.237 OA
ATOM     85  O   UNL A   1      43.752  27.785  26.294  1.00  0.00    -0.237 OA
ATOM     86  O   UNL A   1      42.253  26.706  24.679  1.00  0.00    -0.744 OA
ENDBRANCH  80  83
ENDBRANCH  52  76
BRANCH  64  87
ATOM     87  C   UNL A   1      44.653  28.041  34.769  1.00  0.00     0.023 A 
ATOM     88  C   UNL A   1      45.890  28.649  34.477  1.00  0.00     0.012 A 
ATOM     89  C   UNL A   1      44.633  26.825  35.483  1.00  0.00     0.148 A 
ATOM     90  C   UNL A   1      47.086  28.045  34.864  1.00  0.00     0.002 A 
ATOM     91  C   UNL A   1      45.826  26.256  35.911  1.00  0.00     0.091 A 
ATOM     92  F   UNL A   1      43.446  26.257  35.743  1.00  0.00    -0.205 F 
ATOM     93  C   UNL A   1      47.055  26.857  35.591  1.00  0.00     0.022 A 
BRANCH  91  94
ATOM     94  S   UNL A   1      45.884  24.779  36.933  1.00  0.00     0.127 S 
ATOM     95  O   UNL A   1      47.322  24.605  37.126  1.00  0.00    -0.237 OA
ATOM     96  O   UNL A   1      45.155  25.204  38.129  1.00  0.00    -0.237 OA
ATOM     97  O   UNL A   1      45.231  23.729  36.164  1.00  0.00    -0.744 OA
ENDBRANCH  91  94
ENDBRANCH  64  87
ENDBRANCH  38  39
ENDBRANCH  31  33
ENDBRANCH  30  31
ENDBRANCH  29  30
ENDBRANCH  28  29
ENDBRANCH  27  28
ENDBRANCH  26  27
ENDBRANCH   1  26
TORSDOF 24
ENDMDL
MODEL 3
REMARK VINA RESULT:      -8.7      6.114     10.079
REMARK SMILES CC[N@@H+]([C@H]1C[C@H]2CC[C@@H](C1)[NH2+]2)[C@@H](C)[C@@H](C)C(=O)OCCOCCOCCOC(=O)c1ccc(-c2c3nc(c(-c4cccc(S(=O)(=O)[O-])c4F)c4ccc([nH]4)c(-c4cccc(S(=O)(=O)[O-])c4F)c4nc(c(-c5cccc(S(=O)(=O)[O-])c5F)c5ccc2[nH]5)C=C4)C=C3)cc1
REMARK SMILES IDX 22 1 21 2 20 3 19 4 18 5 16 6 17 7 14 8 15 9 12 10 13 11
REMARK SMILES IDX 3 12 2 14 1 15 4 16 5 17 10 18 6 19 9 20 7 21 11 22 8 23
REMARK SMILES IDX 23 26 24 27 25 28 26 29 27 30 28 31 29 32 30 33 31 34 92 35
REMARK SMILES IDX 32 36 91 37 33 38 34 39 35 40 85 41 36 42 90 43 84 44 86 45
REMARK SMILES IDX 37 46 89 47 83 48 82 49 38 51 70 52 50 53 69 54 51 55 54 56
REMARK SMILES IDX 68 57 87 58 52 59 53 60 67 62 88 63 55 64 39 65 40 66 48 67
REMARK SMILES IDX 41 68 43 69 49 70 42 71 44 72 45 73 46 74 47 75 71 76 72 77
REMARK SMILES IDX 80 78 73 79 75 80 81 81 74 82 76 83 77 84 78 85 79 86 56 87
REMARK SMILES IDX 57 88 65 89 58 90 60 91 66 92 59 93 61 94 62 95 63 96 64 97
REMARK H PARENT 3 13 11 24 11 25 86 50 54 61
REMARK Flexibility Score: inf
ROOT
ATOM      1  C   UNL A   1      32.143  28.784  26.546  1.00  0.00     0.188 C 
ENDROOT
BRANCH   1   2
ATOM      2  O   UNL A   1      33.355  28.288  25.982  1.00  0.00    -0.376 OA
BRANCH   2   3
ATOM      3  C   UNL A   1      33.525  26.870  25.962  1.00  0.00     0.202 C 
BRANCH   3   4
ATOM      4  C   UNL A   1      33.440  26.184  24.584  1.00  0.00     0.261 C 
BRANCH   4   5
ATOM      5  O   UNL A   1      32.917  24.820  24.593  1.00  0.00    -0.463 OA
BRANCH   5   6
ATOM      6  C   UNL A   1      33.718  23.915  25.199  1.00  0.00     0.314 C 
ATOM      7  O   UNL A   1      33.880  23.911  26.421  1.00  0.00    -0.252 OA
BRANCH   6   8
ATOM      8  C   UNL A   1      34.241  22.736  24.353  1.00  0.00     0.154 C 
ATOM      9  C   UNL A   1      35.034  23.436  23.222  1.00  0.00     0.026 C 
BRANCH   8  10
ATOM     10  C   UNL A   1      33.480  21.547  23.675  1.00  0.00     0.195 C 
ATOM     11  C   UNL A   1      31.973  21.686  23.464  1.00  0.00     0.076 C 
BRANCH  10  12
ATOM     12  N   UNL A   1      33.837  20.230  24.376  1.00  0.00    -0.329 N 
ATOM     13  H   UNL A   1      34.333  19.683  23.672  1.00  0.00     0.348 HD
BRANCH  12  14
ATOM     14  C   UNL A   1      34.863  20.351  25.425  1.00  0.00     0.259 C 
ATOM     15  C   UNL A   1      36.309  20.179  24.945  1.00  0.00     0.071 C 
ENDBRANCH  12  14
BRANCH  12  16
ATOM     16  C   UNL A   1      32.663  19.354  24.677  1.00  0.00     0.196 C 
ATOM     17  C   UNL A   1      32.245  18.588  23.390  1.00  0.00     0.130 C 
ATOM     18  C   UNL A   1      32.734  18.301  25.829  1.00  0.00     0.130 C 
ATOM     19  C   UNL A   1      32.933  17.218  23.221  1.00  0.00     0.188 C 
ATOM     20  C   UNL A   1      33.351  16.934  25.457  1.00  0.00     0.188 C 
ATOM     21  C   UNL A   1      34.456  17.257  23.340  1.00  0.00     0.071 C 
ATOM     22  N   UNL A   1      32.563  16.358  24.357  1.00  0.00    -0.341 N 
ATOM     23  C   UNL A   1      34.730  16.955  24.812  1.00  0.00     0.071 C 
ATOM     24  H   UNL A   1      32.823  15.386  24.185  1.00  0.00     0.346 HD
ATOM     25  H   UNL A   1      31.560  16.334  24.542  1.00  0.00     0.346 HD
ENDBRANCH  12  16
ENDBRANCH  10  12
ENDBRANCH   8  10
ENDBRANCH   6   8
ENDBRANCH   5   6
ENDBRANCH   4   5
ENDBRANCH   3   4
ENDBRANCH   2   3
ENDBRANCH   1   2
BRANCH   1  26
ATOM     26  C   UNL A   1      32.152  30.279  26.897  1.00  0.00     0.188 C 
BRANCH  26  27
ATOM     27  O   UNL A   1      33.301  30.641  27.650  1.00  0.00    -0.376 OA
BRANCH  27  28
ATOM     28  C   UNL A   1      33.807  31.965  27.625  1.00  0.00     0.202 C 
BRANCH  28  29
ATOM     29  C   UNL A   1      32.796  33.113  27.651  1.00  0.00     0.261 C 
BRANCH  29  30
ATOM     30  O   UNL A   1      33.341  34.392  28.023  1.00  0.00    -0.460 OA
BRANCH  30  31
ATOM     31  C   UNL A   1      33.380  34.706  29.337  1.00  0.00     0.338 C 
ATOM     32  O   UNL A   1      32.456  35.134  30.014  1.00  0.00    -0.246 OA
BRANCH  31  33
ATOM     33  C   UNL A   1      34.654  34.190  29.891  1.00  0.00     0.060 A 
ATOM     34  C   UNL A   1      34.594  33.399  31.046  1.00  0.00     0.016 A 
ATOM     35  C   UNL A   1      35.877  34.389  29.250  1.00  0.00     0.016 A 
ATOM     36  C   UNL A   1      35.741  32.781  31.549  1.00  0.00     0.010 A 
ATOM     37  C   UNL A   1      37.034  33.804  29.776  1.00  0.00     0.010 A 
ATOM     38  C   UNL A   1      36.975  32.999  30.930  1.00  0.00    -0.014 A 
BRANCH  38  39
ATOM     39  C   UNL A   1      38.233  32.504  31.545  1.00  0.00     0.031 A 
ATOM     40  C   UNL A   1      38.949  31.355  30.891  1.00  0.00     0.074 A 
ATOM     41  C   UNL A   1      38.710  33.024  32.692  1.00  0.00     0.049 A 
ATOM     42  N   UNL A   1      39.961  30.653  31.328  1.00  0.00    -0.248 NA
ATOM     43  C   UNL A   1      38.455  30.943  29.566  1.00  0.00     0.031 C 
ATOM     44  C   UNL A   1      38.136  34.159  33.414  1.00  0.00     0.029 A 
ATOM     45  N   UNL A   1      39.768  32.626  33.478  1.00  0.00    -0.354 N 
ATOM     46  C   UNL A   1      40.187  29.679  30.365  1.00  0.00     0.074 A 
ATOM     47  C   UNL A   1      39.227  29.896  29.305  1.00  0.00     0.031 C 
ATOM     48  C   UNL A   1      38.812  34.331  34.563  1.00  0.00     0.029 A 
ATOM     49  C   UNL A   1      39.833  33.291  34.682  1.00  0.00     0.049 A 
ATOM     50  H   UNL A   1      40.413  31.935  33.207  1.00  0.00     0.167 HD
ATOM     51  C   UNL A   1      41.109  28.688  30.367  1.00  0.00     0.034 A 
ATOM     52  C   UNL A   1      40.586  33.051  35.777  1.00  0.00     0.034 A 
ATOM     53  C   UNL A   1      42.085  28.488  31.402  1.00  0.00     0.049 A 
ATOM     54  C   UNL A   1      41.573  31.908  35.767  1.00  0.00     0.074 A 
ATOM     55  C   UNL A   1      43.105  27.554  31.446  1.00  0.00     0.029 A 
ATOM     56  N   UNL A   1      42.147  29.207  32.583  1.00  0.00    -0.354 N 
ATOM     57  N   UNL A   1      41.865  31.075  34.799  1.00  0.00    -0.248 NA
ATOM     58  C   UNL A   1      42.350  31.684  36.997  1.00  0.00     0.031 C 
ATOM     59  C   UNL A   1      43.751  27.672  32.679  1.00  0.00     0.029 A 
ATOM     60  C   UNL A   1      43.165  28.712  33.381  1.00  0.00     0.049 A 
ATOM     61  H   UNL A   1      41.557  29.957  32.822  1.00  0.00     0.167 HD
ATOM     62  C   UNL A   1      42.872  30.250  35.293  1.00  0.00     0.074 A 
ATOM     63  C   UNL A   1      43.164  30.701  36.635  1.00  0.00     0.031 C 
ATOM     64  C   UNL A   1      43.487  29.200  34.695  1.00  0.00     0.034 A 
BRANCH  51  65
ATOM     65  C   UNL A   1      41.110  27.717  29.218  1.00  0.00     0.023 A 
ATOM     66  C   UNL A   1      40.205  26.639  29.200  1.00  0.00     0.012 A 
ATOM     67  C   UNL A   1      41.941  27.948  28.105  1.00  0.00     0.148 A 
ATOM     68  C   UNL A   1      40.136  25.795  28.092  1.00  0.00     0.002 A 
ATOM     69  C   UNL A   1      41.835  27.131  26.987  1.00  0.00     0.091 A 
ATOM     70  F   UNL A   1      42.810  28.968  28.157  1.00  0.00    -0.205 F 
ATOM     71  C   UNL A   1      40.939  26.049  26.982  1.00  0.00     0.022 A 
BRANCH  69  72
ATOM     72  S   UNL A   1      42.764  27.426  25.478  1.00  0.00     0.127 S 
ATOM     73  O   UNL A   1      42.348  26.294  24.651  1.00  0.00    -0.237 OA
ATOM     74  O   UNL A   1      42.240  28.722  25.047  1.00  0.00    -0.237 OA
ATOM     75  O   UNL A   1      44.168  27.429  25.861  1.00  0.00    -0.744 OA
ENDBRANCH  69  72
ENDBRANCH  51  65
BRANCH  52  76
ATOM     76  C   UNL A   1      40.414  33.876  37.010  1.00  0.00     0.023 A 
ATOM     77  C   UNL A   1      39.253  33.734  37.795  1.00  0.00     0.012 A 
ATOM     78  C   UNL A   1      41.380  34.833  37.383  1.00  0.00     0.148 A 
ATOM     79  C   UNL A   1      39.036  34.559  38.901  1.00  0.00     0.002 A 
ATOM     80  C   UNL A   1      41.186  35.608  38.519  1.00  0.00     0.091 A 
ATOM     81  F   UNL A   1      42.465  34.974  36.610  1.00  0.00    -0.205 F 
ATOM     82  C   UNL A   1      40.006  35.489  39.268  1.00  0.00     0.022 A 
BRANCH  80  83
ATOM     83  S   UNL A   1      42.438  36.740  39.132  1.00  0.00     0.127 S 
ATOM     84  O   UNL A   1      41.787  37.292  40.318  1.00  0.00    -0.237 OA
ATOM     85  O   UNL A   1      43.554  35.834  39.408  1.00  0.00    -0.237 OA
ATOM     86  O   UNL A   1      42.681  37.678  38.045  1.00  0.00    -0.744 OA
ENDBRANCH  80  83
ENDBRANCH  52  76
BRANCH  64  87
ATOM     87  C   UNL A   1      44.567  28.478  35.460  1.00  0.00     0.023 A 
ATOM     88  C   UNL A   1      45.916  28.852  35.297  1.00  0.00     0.012 A 
ATOM     89  C   UNL A   1      44.236  27.492  36.412  1.00  0.00     0.148 A 
ATOM     90  C   UNL A   1      46.919  28.239  36.047  1.00  0.00     0.002 A 
ATOM     91  C   UNL A   1      45.234  26.922  37.194  1.00  0.00     0.091 A 
ATOM     92  F   UNL A   1      42.948  27.143  36.547  1.00  0.00    -0.205 F 
ATOM     93  C   UNL A   1      46.578  27.284  37.004  1.00  0.00     0.022 A 
BRANCH  91  94
ATOM     94  S   UNL A   1      44.884  25.757  38.515  1.00  0.00     0.127 S 
ATOM     95  O   UNL A   1      44.267  24.652  37.783  1.00  0.00    -0.237 OA
ATOM     96  O   UNL A   1      46.221  25.472  39.037  1.00  0.00    -0.237 OA
ATOM     97  O   UNL A   1      44.003  26.451  39.445  1.00  0.00    -0.744 OA
ENDBRANCH  91  94
ENDBRANCH  64  87
ENDBRANCH  38  39
ENDBRANCH  31  33
ENDBRANCH  30  31
ENDBRANCH  29  30
ENDBRANCH  28  29
ENDBRANCH  27  28
ENDBRANCH  26  27
ENDBRANCH   1  26
TORSDOF 24
ENDMDL
