MODEL 1
REMARK VINA RESULT:     -10.6      0.000      0.000
REMARK SMILES Cc1cc(C)cc(C2(C(=O)OCCOCCOCCOC(=O)c3ccc(-c4c5nc(c(-c6cccc(S(=O)(=O)[O-])c6F)c6ccc([nH]6)c(-c6cccc(S(=O)(=O)[O-])c6F)c6nc(c(-c7cccc(S(=O)(=O)[O-])c7F)c7ccc4[nH]7)C=C6)C=C5)cc3)CCOCC2)c1
REMARK SMILES IDX 16 1 15 2 14 3 13 4 12 5 11 6 9 7 10 8 8 9 86 10 90 11 87 12
REMARK SMILES IDX 89 13 88 14 7 15 1 16 2 17 3 18 91 19 4 20 5 21 6 22 17 23
REMARK SMILES IDX 18 24 19 25 20 26 21 27 22 28 23 29 24 30 85 31 25 32 84 33
REMARK SMILES IDX 26 34 27 35 28 36 78 37 29 38 83 39 77 40 79 41 30 42 82 43
REMARK SMILES IDX 76 44 75 45 31 47 63 48 43 49 62 50 44 51 47 52 61 53 80 54
REMARK SMILES IDX 45 55 46 56 60 58 81 59 48 60 32 61 33 62 41 63 34 64 36 65
REMARK SMILES IDX 42 66 35 67 37 68 38 69 39 70 40 71 64 72 65 73 73 74 66 75
REMARK SMILES IDX 68 76 74 77 67 78 69 79 70 80 71 81 72 82 49 83 50 84 58 85
REMARK SMILES IDX 51 86 53 87 59 88 52 89 54 90 55 91 56 92 57 93
REMARK H PARENT 79 46 47 57
REMARK Flexibility Score: inf
ROOT
ATOM      1  C   UNL A   1      33.102  29.614  25.352  1.00  0.00     0.188 C 
ENDROOT
BRANCH   1   2
ATOM      2  C   UNL A   1      32.901  29.118  23.912  1.00  0.00     0.188 C 
BRANCH   2   3
ATOM      3  O   UNL A   1      34.072  28.600  23.330  1.00  0.00    -0.376 OA
BRANCH   3   4
ATOM      4  C   UNL A   1      33.985  27.907  22.101  1.00  0.00     0.202 C 
BRANCH   4   5
ATOM      5  C   UNL A   1      33.343  26.515  21.907  1.00  0.00     0.261 C 
BRANCH   5   6
ATOM      6  O   UNL A   1      33.743  25.459  22.798  1.00  0.00    -0.463 OA
BRANCH   6   7
ATOM      7  C   UNL A   1      33.224  24.229  22.573  1.00  0.00     0.316 C 
ATOM      8  O   UNL A   1      33.248  23.698  21.464  1.00  0.00    -0.251 OA
BRANCH   7   9
ATOM      9  C   UNL A   1      32.635  23.503  23.837  1.00  0.00     0.097 C 
ATOM     10  C   UNL A   1      32.610  24.239  25.207  1.00  0.00     0.052 C 
ATOM     11  C   UNL A   1      31.132  23.384  23.471  1.00  0.00     0.052 C 
ATOM     12  C   UNL A   1      31.962  25.608  25.130  1.00  0.00     0.161 C 
ATOM     13  C   UNL A   1      30.524  24.799  23.405  1.00  0.00     0.161 C 
ATOM     14  O   UNL A   1      30.621  25.473  24.660  1.00  0.00    -0.381 OA
BRANCH   9  15
ATOM     15  C   UNL A   1      33.376  22.161  24.058  1.00  0.00    -0.030 A 
ATOM     16  C   UNL A   1      32.624  18.445  24.652  1.00  0.00     0.044 C 
ATOM     17  C   UNL A   1      33.358  19.752  24.530  1.00  0.00    -0.051 A 
ATOM     18  C   UNL A   1      34.722  19.797  24.847  1.00  0.00     0.006 A 
ATOM     19  C   UNL A   1      32.699  20.929  24.131  1.00  0.00     0.008 A 
ATOM     20  C   UNL A   1      35.432  20.992  24.749  1.00  0.00    -0.051 A 
ATOM     21  C   UNL A   1      36.876  21.108  25.145  1.00  0.00     0.044 C 
ATOM     22  C   UNL A   1      34.754  22.146  24.349  1.00  0.00     0.008 A 
ENDBRANCH   9  15
ENDBRANCH   7   9
ENDBRANCH   6   7
ENDBRANCH   5   6
ENDBRANCH   4   5
ENDBRANCH   3   4
ENDBRANCH   2   3
ENDBRANCH   1   2
BRANCH   1  23
ATOM     23  O   UNL A   1      32.232  30.566  25.937  1.00  0.00    -0.376 OA
BRANCH  23  24
ATOM     24  C   UNL A   1      32.460  30.944  27.280  1.00  0.00     0.202 C 
BRANCH  24  25
ATOM     25  C   UNL A   1      33.657  31.842  27.640  1.00  0.00     0.261 C 
BRANCH  25  26
ATOM     26  O   UNL A   1      33.488  33.258  27.453  1.00  0.00    -0.460 OA
BRANCH  26  27
ATOM     27  C   UNL A   1      33.402  33.999  28.588  1.00  0.00     0.338 C 
ATOM     28  O   UNL A   1      32.449  34.687  28.940  1.00  0.00    -0.246 OA
BRANCH  27  29
ATOM     29  C   UNL A   1      34.557  33.720  29.473  1.00  0.00     0.060 A 
ATOM     30  C   UNL A   1      35.830  34.186  29.106  1.00  0.00     0.016 A 
ATOM     31  C   UNL A   1      34.400  32.951  30.624  1.00  0.00     0.016 A 
ATOM     32  C   UNL A   1      36.953  33.857  29.870  1.00  0.00     0.010 A 
ATOM     33  C   UNL A   1      35.531  32.599  31.373  1.00  0.00     0.010 A 
ATOM     34  C   UNL A   1      36.816  33.018  30.983  1.00  0.00    -0.014 A 
BRANCH  34  35
ATOM     35  C   UNL A   1      38.016  32.445  31.651  1.00  0.00     0.031 A 
ATOM     36  C   UNL A   1      38.736  31.309  30.993  1.00  0.00     0.074 A 
ATOM     37  C   UNL A   1      38.445  32.893  32.843  1.00  0.00     0.049 A 
ATOM     38  N   UNL A   1      39.748  30.612  31.435  1.00  0.00    -0.248 NA
ATOM     39  C   UNL A   1      38.246  30.896  29.668  1.00  0.00     0.031 C 
ATOM     40  C   UNL A   1      37.833  33.991  33.570  1.00  0.00     0.029 A 
ATOM     41  N   UNL A   1      39.460  32.474  33.669  1.00  0.00    -0.354 N 
ATOM     42  C   UNL A   1      39.997  29.654  30.464  1.00  0.00     0.074 A 
ATOM     43  C   UNL A   1      39.025  29.856  29.411  1.00  0.00     0.031 C 
ATOM     44  C   UNL A   1      38.460  34.154  34.745  1.00  0.00     0.029 A 
ATOM     45  C   UNL A   1      39.501  33.142  34.873  1.00  0.00     0.049 A 
ATOM     46  H   UNL A   1      40.098  31.765  33.422  1.00  0.00     0.167 HD
ATOM     47  C   UNL A   1      40.952  28.696  30.451  1.00  0.00     0.034 A 
ATOM     48  C   UNL A   1      40.263  32.946  35.968  1.00  0.00     0.034 A 
ATOM     49  C   UNL A   1      41.913  28.498  31.503  1.00  0.00     0.049 A 
ATOM     50  C   UNL A   1      41.293  31.851  35.942  1.00  0.00     0.074 A 
ATOM     51  C   UNL A   1      42.943  27.577  31.559  1.00  0.00     0.029 A 
ATOM     52  N   UNL A   1      41.948  29.209  32.694  1.00  0.00    -0.354 N 
ATOM     53  N   UNL A   1      41.587  31.024  34.970  1.00  0.00    -0.248 NA
ATOM     54  C   UNL A   1      42.115  31.677  37.149  1.00  0.00     0.031 C 
ATOM     55  C   UNL A   1      43.576  27.704  32.800  1.00  0.00     0.029 A 
ATOM     56  C   UNL A   1      42.970  28.734  33.499  1.00  0.00     0.049 A 
ATOM     57  H   UNL A   1      41.337  29.943  32.931  1.00  0.00     0.167 HD
ATOM     58  C   UNL A   1      42.648  30.254  35.431  1.00  0.00     0.074 A 
ATOM     59  C   UNL A   1      42.960  30.730  36.763  1.00  0.00     0.031 C 
ATOM     60  C   UNL A   1      43.297  29.240  34.809  1.00  0.00     0.034 A 
BRANCH  47  61
ATOM     61  C   UNL A   1      40.993  27.785  29.256  1.00  0.00     0.023 A 
ATOM     62  C   UNL A   1      40.209  26.615  29.236  1.00  0.00     0.012 A 
ATOM     63  C   UNL A   1      41.793  28.105  28.143  1.00  0.00     0.148 A 
ATOM     64  C   UNL A   1      40.248  25.754  28.140  1.00  0.00     0.002 A 
ATOM     65  C   UNL A   1      41.788  27.269  27.033  1.00  0.00     0.091 A 
ATOM     66  F   UNL A   1      42.550  29.209  28.194  1.00  0.00    -0.205 F 
ATOM     67  C   UNL A   1      41.029  26.087  27.036  1.00  0.00     0.022 A 
BRANCH  65  68
ATOM     68  S   UNL A   1      42.700  27.647  25.534  1.00  0.00     0.127 S 
ATOM     69  O   UNL A   1      42.486  26.435  24.745  1.00  0.00    -0.237 OA
ATOM     70  O   UNL A   1      41.995  28.830  25.039  1.00  0.00    -0.237 OA
ATOM     71  O   UNL A   1      44.076  27.886  25.947  1.00  0.00    -0.744 OA
ENDBRANCH  65  68
ENDBRANCH  47  61
BRANCH  48  72
ATOM     72  C   UNL A   1      40.102  33.818  37.170  1.00  0.00     0.023 A 
ATOM     73  C   UNL A   1      40.742  35.072  37.212  1.00  0.00     0.012 A 
ATOM     74  C   UNL A   1      39.318  33.415  38.270  1.00  0.00     0.148 A 
ATOM     75  C   UNL A   1      40.633  35.892  38.337  1.00  0.00     0.002 A 
ATOM     76  C   UNL A   1      39.167  34.261  39.363  1.00  0.00     0.091 A 
ATOM     77  F   UNL A   1      38.725  32.213  38.219  1.00  0.00    -0.205 F 
ATOM     78  C   UNL A   1      39.839  35.491  39.407  1.00  0.00     0.022 A 
BRANCH  76  79
ATOM     79  S   UNL A   1      38.071  33.881  40.736  1.00  0.00     0.127 S 
ATOM     80  O   UNL A   1      38.845  32.885  41.470  1.00  0.00    -0.237 OA
ATOM     81  O   UNL A   1      37.955  35.182  41.395  1.00  0.00    -0.237 OA
ATOM     82  O   UNL A   1      36.836  33.401  40.131  1.00  0.00    -0.744 OA
ENDBRANCH  76  79
ENDBRANCH  48  72
BRANCH  60  83
ATOM     83  C   UNL A   1      44.441  28.592  35.546  1.00  0.00     0.023 A 
ATOM     84  C   UNL A   1      45.746  29.105  35.417  1.00  0.00     0.012 A 
ATOM     85  C   UNL A   1      44.204  27.511  36.418  1.00  0.00     0.148 A 
ATOM     86  C   UNL A   1      46.806  28.529  36.118  1.00  0.00     0.002 A 
ATOM     87  C   UNL A   1      45.254  26.978  37.154  1.00  0.00     0.091 A 
ATOM     88  F   UNL A   1      42.958  27.026  36.511  1.00  0.00    -0.205 F 
ATOM     89  C   UNL A   1      46.558  27.476  36.995  1.00  0.00     0.022 A 
BRANCH  87  90
ATOM     90  S   UNL A   1      45.015  25.688  38.380  1.00  0.00     0.127 S 
ATOM     91  O   UNL A   1      44.251  26.393  39.409  1.00  0.00    -0.237 OA
ATOM     92  O   UNL A   1      44.252  24.689  37.632  1.00  0.00    -0.237 OA
ATOM     93  O   UNL A   1      46.348  25.259  38.780  1.00  0.00    -0.744 OA
ENDBRANCH  87  90
ENDBRANCH  60  83
ENDBRANCH  34  35
ENDBRANCH  27  29
ENDBRANCH  26  27
ENDBRANCH  25  26
ENDBRANCH  24  25
ENDBRANCH  23  24
ENDBRANCH   1  23
TORSDOF 21
ENDMDL
MODEL 2
REMARK VINA RESULT:     -10.5      6.303     11.497
REMARK SMILES Cc1cc(C)cc(C2(C(=O)OCCOCCOCCOC(=O)c3ccc(-c4c5nc(c(-c6cccc(S(=O)(=O)[O-])c6F)c6ccc([nH]6)c(-c6cccc(S(=O)(=O)[O-])c6F)c6nc(c(-c7cccc(S(=O)(=O)[O-])c7F)c7ccc4[nH]7)C=C6)C=C5)cc3)CCOCC2)c1
REMARK SMILES IDX 16 1 15 2 14 3 13 4 12 5 11 6 9 7 10 8 8 9 86 10 90 11 87 12
REMARK SMILES IDX 89 13 88 14 7 15 1 16 2 17 3 18 91 19 4 20 5 21 6 22 17 23
REMARK SMILES IDX 18 24 19 25 20 26 21 27 22 28 23 29 24 30 85 31 25 32 84 33
REMARK SMILES IDX 26 34 27 35 28 36 78 37 29 38 83 39 77 40 79 41 30 42 82 43
REMARK SMILES IDX 76 44 75 45 31 47 63 48 43 49 62 50 44 51 47 52 61 53 80 54
REMARK SMILES IDX 45 55 46 56 60 58 81 59 48 60 32 61 33 62 41 63 34 64 36 65
REMARK SMILES IDX 42 66 35 67 37 68 38 69 39 70 40 71 64 72 65 73 73 74 66 75
REMARK SMILES IDX 68 76 74 77 67 78 69 79 70 80 71 81 72 82 49 83 50 84 58 85
REMARK SMILES IDX 51 86 53 87 59 88 52 89 54 90 55 91 56 92 57 93
REMARK H PARENT 79 46 47 57
REMARK Flexibility Score: inf
ROOT
ATOM      1  C   UNL A   1      37.548  21.667  25.207  1.00  0.00     0.188 C 
ENDROOT
BRANCH   1   2
ATOM      2  C   UNL A   1      36.352  22.630  25.252  1.00  0.00     0.188 C 
BRANCH   2   3
ATOM      3  O   UNL A   1      35.280  22.229  24.434  1.00  0.00    -0.376 OA
BRANCH   3   4
ATOM      4  C   UNL A   1      34.942  23.010  23.305  1.00  0.00     0.202 C 
BRANCH   4   5
ATOM      5  C   UNL A   1      33.503  23.312  22.830  1.00  0.00     0.261 C 
BRANCH   5   6
ATOM      6  O   UNL A   1      32.858  24.490  23.344  1.00  0.00    -0.463 OA
BRANCH   6   7
ATOM      7  C   UNL A   1      31.673  24.321  23.976  1.00  0.00     0.316 C 
ATOM      8  O   UNL A   1      30.841  23.495  23.605  1.00  0.00    -0.251 OA
BRANCH   7   9
ATOM      9  C   UNL A   1      31.452  25.219  25.248  1.00  0.00     0.097 C 
ATOM     10  C   UNL A   1      30.273  24.909  26.215  1.00  0.00     0.052 C 
ATOM     11  C   UNL A   1      32.706  24.886  26.100  1.00  0.00     0.052 C 
ATOM     12  C   UNL A   1      30.249  23.463  26.672  1.00  0.00     0.161 C 
ATOM     13  C   UNL A   1      32.632  23.409  26.537  1.00  0.00     0.161 C 
ATOM     14  O   UNL A   1      31.475  23.154  27.335  1.00  0.00    -0.381 OA
BRANCH   9  15
ATOM     15  C   UNL A   1      31.310  26.701  24.820  1.00  0.00    -0.030 A 
ATOM     16  C   UNL A   1      32.508  30.193  25.862  1.00  0.00     0.044 C 
ATOM     17  C   UNL A   1      31.757  29.088  25.175  1.00  0.00    -0.051 A 
ATOM     18  C   UNL A   1      30.732  29.419  24.277  1.00  0.00     0.006 A 
ATOM     19  C   UNL A   1      32.042  27.735  25.433  1.00  0.00     0.008 A 
ATOM     20  C   UNL A   1      30.013  28.420  23.624  1.00  0.00    -0.051 A 
ATOM     21  C   UNL A   1      28.861  28.721  22.709  1.00  0.00     0.044 C 
ATOM     22  C   UNL A   1      30.318  27.084  23.898  1.00  0.00     0.008 A 
ENDBRANCH   9  15
ENDBRANCH   7   9
ENDBRANCH   6   7
ENDBRANCH   5   6
ENDBRANCH   4   5
ENDBRANCH   3   4
ENDBRANCH   2   3
ENDBRANCH   1   2
BRANCH   1  23
ATOM     23  O   UNL A   1      37.385  20.296  24.887  1.00  0.00    -0.376 OA
BRANCH  23  24
ATOM     24  C   UNL A   1      38.493  19.433  25.057  1.00  0.00     0.202 C 
BRANCH  24  25
ATOM     25  C   UNL A   1      39.802  19.963  25.669  1.00  0.00     0.261 C 
BRANCH  25  26
ATOM     26  O   UNL A   1      40.790  18.985  26.038  1.00  0.00    -0.460 OA
BRANCH  26  27
ATOM     27  C   UNL A   1      42.084  19.379  25.924  1.00  0.00     0.338 C 
ATOM     28  O   UNL A   1      43.003  18.732  25.433  1.00  0.00    -0.246 OA
BRANCH  27  29
ATOM     29  C   UNL A   1      42.223  20.804  26.301  1.00  0.00     0.060 A 
ATOM     30  C   UNL A   1      42.429  21.762  25.294  1.00  0.00     0.016 A 
ATOM     31  C   UNL A   1      42.212  21.190  27.640  1.00  0.00     0.016 A 
ATOM     32  C   UNL A   1      42.658  23.101  25.626  1.00  0.00     0.010 A 
ATOM     33  C   UNL A   1      42.469  22.527  27.971  1.00  0.00     0.010 A 
ATOM     34  C   UNL A   1      42.730  23.483  26.971  1.00  0.00    -0.014 A 
BRANCH  34  35
ATOM     35  C   UNL A   1      43.228  24.832  27.350  1.00  0.00     0.031 A 
ATOM     36  C   UNL A   1      42.278  25.803  27.982  1.00  0.00     0.074 A 
ATOM     37  C   UNL A   1      44.493  25.215  27.106  1.00  0.00     0.049 A 
ATOM     38  N   UNL A   1      42.480  27.049  28.315  1.00  0.00    -0.248 NA
ATOM     39  C   UNL A   1      40.922  25.308  28.267  1.00  0.00     0.031 C 
ATOM     40  C   UNL A   1      45.503  24.359  26.508  1.00  0.00     0.029 A 
ATOM     41  N   UNL A   1      45.141  26.412  27.294  1.00  0.00    -0.354 N 
ATOM     42  C   UNL A   1      41.268  27.504  28.815  1.00  0.00     0.074 A 
ATOM     43  C   UNL A   1      40.336  26.399  28.735  1.00  0.00     0.031 C 
ATOM     44  C   UNL A   1      46.641  25.054  26.349  1.00  0.00     0.029 A 
ATOM     45  C   UNL A   1      46.428  26.422  26.803  1.00  0.00     0.049 A 
ATOM     46  H   UNL A   1      44.726  27.187  27.737  1.00  0.00     0.167 HD
ATOM     47  C   UNL A   1      40.964  28.729  29.299  1.00  0.00     0.034 A 
ATOM     48  C   UNL A   1      47.327  27.422  26.699  1.00  0.00     0.034 A 
ATOM     49  C   UNL A   1      41.894  29.824  29.372  1.00  0.00     0.049 A 
ATOM     50  C   UNL A   1      46.952  28.785  27.212  1.00  0.00     0.074 A 
ATOM     51  C   UNL A   1      41.686  31.092  29.884  1.00  0.00     0.029 A 
ATOM     52  N   UNL A   1      43.197  29.795  28.897  1.00  0.00    -0.354 N 
ATOM     53  N   UNL A   1      45.836  29.168  27.782  1.00  0.00    -0.248 NA
ATOM     54  C   UNL A   1      47.963  29.846  27.094  1.00  0.00     0.031 C 
ATOM     55  C   UNL A   1      42.849  31.842  29.682  1.00  0.00     0.029 A 
ATOM     56  C   UNL A   1      43.798  31.028  29.087  1.00  0.00     0.049 A 
ATOM     57  H   UNL A   1      43.630  29.012  28.487  1.00  0.00     0.167 HD
ATOM     58  C   UNL A   1      46.021  30.502  28.122  1.00  0.00     0.074 A 
ATOM     59  C   UNL A   1      47.365  30.855  27.714  1.00  0.00     0.031 C 
ATOM     60  C   UNL A   1      45.150  31.359  28.710  1.00  0.00     0.034 A 
BRANCH  47  61
ATOM     61  C   UNL A   1      39.557  28.945  29.783  1.00  0.00     0.023 A 
ATOM     62  C   UNL A   1      39.171  28.481  31.056  1.00  0.00     0.012 A 
ATOM     63  C   UNL A   1      38.624  29.630  28.981  1.00  0.00     0.148 A 
ATOM     64  C   UNL A   1      37.866  28.664  31.511  1.00  0.00     0.002 A 
ATOM     65  C   UNL A   1      37.340  29.853  29.462  1.00  0.00     0.091 A 
ATOM     66  F   UNL A   1      39.005  30.039  27.763  1.00  0.00    -0.205 F 
ATOM     67  C   UNL A   1      36.955  29.357  30.719  1.00  0.00     0.022 A 
BRANCH  65  68
ATOM     68  S   UNL A   1      36.117  30.799  28.551  1.00  0.00     0.127 S 
ATOM     69  O   UNL A   1      35.166  31.145  29.606  1.00  0.00    -0.237 OA
ATOM     70  O   UNL A   1      36.911  31.922  28.053  1.00  0.00    -0.237 OA
ATOM     71  O   UNL A   1      35.605  29.909  27.518  1.00  0.00    -0.744 OA
ENDBRANCH  65  68
ENDBRANCH  47  61
BRANCH  48  72
ATOM     72  C   UNL A   1      48.677  27.171  26.109  1.00  0.00     0.023 A 
ATOM     73  C   UNL A   1      49.703  26.641  26.917  1.00  0.00     0.012 A 
ATOM     74  C   UNL A   1      48.950  27.450  24.755  1.00  0.00     0.148 A 
ATOM     75  C   UNL A   1      50.981  26.427  26.398  1.00  0.00     0.002 A 
ATOM     76  C   UNL A   1      50.210  27.181  24.230  1.00  0.00     0.091 A 
ATOM     77  F   UNL A   1      47.967  27.965  24.003  1.00  0.00    -0.205 F 
ATOM     78  C   UNL A   1      51.232  26.687  25.055  1.00  0.00     0.022 A 
BRANCH  76  79
ATOM     79  S   UNL A   1      50.591  27.373  22.485  1.00  0.00     0.127 S 
ATOM     80  O   UNL A   1      49.555  26.555  21.861  1.00  0.00    -0.237 OA
ATOM     81  O   UNL A   1      50.433  28.816  22.301  1.00  0.00    -0.237 OA
ATOM     82  O   UNL A   1      51.957  26.893  22.326  1.00  0.00    -0.744 OA
ENDBRANCH  76  79
ENDBRANCH  48  72
BRANCH  60  83
ATOM     83  C   UNL A   1      45.633  32.759  28.987  1.00  0.00     0.023 A 
ATOM     84  C   UNL A   1      46.317  33.048  30.184  1.00  0.00     0.012 A 
ATOM     85  C   UNL A   1      45.462  33.774  28.024  1.00  0.00     0.148 A 
ATOM     86  C   UNL A   1      46.792  34.335  30.435  1.00  0.00     0.002 A 
ATOM     87  C   UNL A   1      45.986  35.038  28.256  1.00  0.00     0.091 A 
ATOM     88  F   UNL A   1      44.792  33.482  26.900  1.00  0.00    -0.205 F 
ATOM     89  C   UNL A   1      46.639  35.325  29.467  1.00  0.00     0.022 A 
BRANCH  87  90
ATOM     90  S   UNL A   1      45.925  36.348  27.029  1.00  0.00     0.127 S 
ATOM     91  O   UNL A   1      46.683  35.758  25.926  1.00  0.00    -0.237 OA
ATOM     92  O   UNL A   1      44.488  36.474  26.784  1.00  0.00    -0.237 OA
ATOM     93  O   UNL A   1      46.538  37.513  27.652  1.00  0.00    -0.744 OA
ENDBRANCH  87  90
ENDBRANCH  60  83
ENDBRANCH  34  35
ENDBRANCH  27  29
ENDBRANCH  26  27
ENDBRANCH  25  26
ENDBRANCH  24  25
ENDBRANCH  23  24
ENDBRANCH   1  23
TORSDOF 21
ENDMDL
MODEL 3
REMARK VINA RESULT:      -9.9      6.212     12.098
REMARK SMILES Cc1cc(C)cc(C2(C(=O)OCCOCCOCCOC(=O)c3ccc(-c4c5nc(c(-c6cccc(S(=O)(=O)[O-])c6F)c6ccc([nH]6)c(-c6cccc(S(=O)(=O)[O-])c6F)c6nc(c(-c7cccc(S(=O)(=O)[O-])c7F)c7ccc4[nH]7)C=C6)C=C5)cc3)CCOCC2)c1
REMARK SMILES IDX 16 1 15 2 14 3 13 4 12 5 11 6 9 7 10 8 8 9 86 10 90 11 87 12
REMARK SMILES IDX 89 13 88 14 7 15 1 16 2 17 3 18 91 19 4 20 5 21 6 22 17 23
REMARK SMILES IDX 18 24 19 25 20 26 21 27 22 28 23 29 24 30 85 31 25 32 84 33
REMARK SMILES IDX 26 34 27 35 28 36 78 37 29 38 83 39 77 40 79 41 30 42 82 43
REMARK SMILES IDX 76 44 75 45 31 47 63 48 43 49 62 50 44 51 47 52 61 53 80 54
REMARK SMILES IDX 45 55 46 56 60 58 81 59 48 60 32 61 33 62 41 63 34 64 36 65
REMARK SMILES IDX 42 66 35 67 37 68 38 69 39 70 40 71 64 72 65 73 73 74 66 75
REMARK SMILES IDX 68 76 74 77 67 78 69 79 70 80 71 81 72 82 49 83 50 84 58 85
REMARK SMILES IDX 51 86 53 87 59 88 52 89 54 90 55 91 56 92 57 93
REMARK H PARENT 79 46 47 57
REMARK Flexibility Score: inf
ROOT
ATOM      1  C   UNL A   1      41.121  21.081  26.364  1.00  0.00     0.188 C 
ENDROOT
BRANCH   1   2
ATOM      2  C   UNL A   1      39.783  21.822  26.514  1.00  0.00     0.188 C 
BRANCH   2   3
ATOM      3  O   UNL A   1      38.777  21.337  25.659  1.00  0.00    -0.376 OA
BRANCH   3   4
ATOM      4  C   UNL A   1      37.564  22.054  25.542  1.00  0.00     0.202 C 
BRANCH   4   5
ATOM      5  C   UNL A   1      36.417  21.711  24.565  1.00  0.00     0.261 C 
BRANCH   5   6
ATOM      6  O   UNL A   1      35.564  22.783  24.127  1.00  0.00    -0.463 OA
BRANCH   6   7
ATOM      7  C   UNL A   1      34.228  22.598  24.242  1.00  0.00     0.316 C 
ATOM      8  O   UNL A   1      33.686  21.528  23.970  1.00  0.00    -0.251 OA
BRANCH   7   9
ATOM      9  C   UNL A   1      33.421  23.828  24.797  1.00  0.00     0.097 C 
ATOM     10  C   UNL A   1      31.927  23.653  25.195  1.00  0.00     0.052 C 
ATOM     11  C   UNL A   1      34.122  24.089  26.156  1.00  0.00     0.052 C 
ATOM     12  C   UNL A   1      31.702  22.497  26.151  1.00  0.00     0.161 C 
ATOM     13  C   UNL A   1      33.864  22.888  27.087  1.00  0.00     0.161 C 
ATOM     14  O   UNL A   1      32.469  22.706  27.337  1.00  0.00    -0.381 OA
BRANCH   9  15
ATOM     15  C   UNL A   1      33.484  24.993  23.777  1.00  0.00    -0.030 A 
ATOM     16  C   UNL A   1      33.743  28.820  23.694  1.00  0.00     0.044 C 
ATOM     17  C   UNL A   1      33.555  27.392  23.263  1.00  0.00    -0.051 A 
ATOM     18  C   UNL A   1      33.203  27.124  21.934  1.00  0.00     0.006 A 
ATOM     19  C   UNL A   1      33.701  26.327  24.171  1.00  0.00     0.008 A 
ATOM     20  C   UNL A   1      33.018  25.812  21.501  1.00  0.00    -0.051 A 
ATOM     21  C   UNL A   1      32.572  25.477  20.107  1.00  0.00     0.044 C 
ATOM     22  C   UNL A   1      33.170  24.773  22.423  1.00  0.00     0.008 A 
ENDBRANCH   9  15
ENDBRANCH   7   9
ENDBRANCH   6   7
ENDBRANCH   5   6
ENDBRANCH   4   5
ENDBRANCH   3   4
ENDBRANCH   2   3
ENDBRANCH   1   2
BRANCH   1  23
ATOM     23  O   UNL A   1      41.642  20.273  27.403  1.00  0.00    -0.376 OA
BRANCH  23  24
ATOM     24  C   UNL A   1      42.326  19.086  27.050  1.00  0.00     0.202 C 
BRANCH  24  25
ATOM     25  C   UNL A   1      42.835  18.883  25.612  1.00  0.00     0.261 C 
BRANCH  25  26
ATOM     26  O   UNL A   1      44.242  19.080  25.386  1.00  0.00    -0.460 OA
BRANCH  26  27
ATOM     27  C   UNL A   1      44.567  20.009  24.450  1.00  0.00     0.338 C 
ATOM     28  O   UNL A   1      44.697  19.817  23.246  1.00  0.00    -0.246 OA
BRANCH  27  29
ATOM     29  C   UNL A   1      44.559  21.364  25.048  1.00  0.00     0.060 A 
ATOM     30  C   UNL A   1      44.282  22.472  24.229  1.00  0.00     0.016 A 
ATOM     31  C   UNL A   1      44.881  21.552  26.390  1.00  0.00     0.016 A 
ATOM     32  C   UNL A   1      44.361  23.770  24.742  1.00  0.00     0.010 A 
ATOM     33  C   UNL A   1      44.987  22.855  26.895  1.00  0.00     0.010 A 
ATOM     34  C   UNL A   1      44.763  23.971  26.068  1.00  0.00    -0.014 A 
BRANCH  34  35
ATOM     35  C   UNL A   1      45.106  25.333  26.557  1.00  0.00     0.031 A 
ATOM     36  C   UNL A   1      44.013  26.209  27.085  1.00  0.00     0.074 A 
ATOM     37  C   UNL A   1      46.362  25.811  26.502  1.00  0.00     0.049 A 
ATOM     38  N   UNL A   1      44.076  27.451  27.484  1.00  0.00    -0.248 NA
ATOM     39  C   UNL A   1      42.670  25.612  27.163  1.00  0.00     0.031 C 
ATOM     40  C   UNL A   1      47.503  25.052  26.020  1.00  0.00     0.029 A 
ATOM     41  N   UNL A   1      46.890  27.040  26.817  1.00  0.00    -0.354 N 
ATOM     42  C   UNL A   1      42.779  27.801  27.827  1.00  0.00     0.074 A 
ATOM     43  C   UNL A   1      41.948  26.641  27.583  1.00  0.00     0.031 C 
ATOM     44  C   UNL A   1      48.598  25.828  26.043  1.00  0.00     0.029 A 
ATOM     45  C   UNL A   1      48.227  27.158  26.509  1.00  0.00     0.049 A 
ATOM     46  H   UNL A   1      46.364  27.765  27.225  1.00  0.00     0.167 HD
ATOM     47  C   UNL A   1      42.323  28.981  28.306  1.00  0.00     0.034 A 
ATOM     48  C   UNL A   1      49.057  28.219  26.563  1.00  0.00     0.034 A 
ATOM     49  C   UNL A   1      43.153  30.132  28.543  1.00  0.00     0.049 A 
ATOM     50  C   UNL A   1      48.518  29.531  27.065  1.00  0.00     0.074 A 
ATOM     51  C   UNL A   1      42.786  31.360  29.063  1.00  0.00     0.029 A 
ATOM     52  N   UNL A   1      44.507  30.211  28.250  1.00  0.00    -0.354 N 
ATOM     53  N   UNL A   1      47.311  29.813  27.488  1.00  0.00    -0.248 NA
ATOM     54  C   UNL A   1      49.455  30.662  27.122  1.00  0.00     0.031 C 
ATOM     55  C   UNL A   1      43.908  32.194  29.048  1.00  0.00     0.029 A 
ATOM     56  C   UNL A   1      44.985  31.473  28.562  1.00  0.00     0.049 A 
ATOM     57  H   UNL A   1      45.047  29.478  27.877  1.00  0.00     0.167 HD
ATOM     58  C   UNL A   1      47.350  31.140  27.895  1.00  0.00     0.074 A 
ATOM     59  C   UNL A   1      48.708  31.600  27.688  1.00  0.00     0.031 C 
ATOM     60  C   UNL A   1      46.348  31.910  28.386  1.00  0.00     0.034 A 
BRANCH  47  61
ATOM     61  C   UNL A   1      40.852  29.081  28.598  1.00  0.00     0.023 A 
ATOM     62  C   UNL A   1      39.938  29.282  27.544  1.00  0.00     0.012 A 
ATOM     63  C   UNL A   1      40.375  28.950  29.916  1.00  0.00     0.148 A 
ATOM     64  C   UNL A   1      38.572  29.390  27.803  1.00  0.00     0.002 A 
ATOM     65  C   UNL A   1      39.009  29.008  30.160  1.00  0.00     0.091 A 
ATOM     66  F   UNL A   1      41.265  28.785  30.904  1.00  0.00    -0.205 F 
ATOM     67  C   UNL A   1      38.107  29.243  29.108  1.00  0.00     0.022 A 
BRANCH  65  68
ATOM     68  S   UNL A   1      38.306  28.755  31.792  1.00  0.00     0.127 S 
ATOM     69  O   UNL A   1      39.052  29.729  32.588  1.00  0.00    -0.237 OA
ATOM     70  O   UNL A   1      36.900  29.093  31.573  1.00  0.00    -0.237 OA
ATOM     71  O   UNL A   1      38.552  27.359  32.126  1.00  0.00    -0.744 OA
ENDBRANCH  65  68
ENDBRANCH  47  61
BRANCH  48  72
ATOM     72  C   UNL A   1      50.488  28.086  26.156  1.00  0.00     0.023 A 
ATOM     73  C   UNL A   1      51.479  27.906  27.143  1.00  0.00     0.012 A 
ATOM     74  C   UNL A   1      50.875  28.133  24.802  1.00  0.00     0.148 A 
ATOM     75  C   UNL A   1      52.827  27.809  26.791  1.00  0.00     0.002 A 
ATOM     76  C   UNL A   1      52.213  27.980  24.455  1.00  0.00     0.091 A 
ATOM     77  F   UNL A   1      49.922  28.317  23.877  1.00  0.00    -0.205 F 
ATOM     78  C   UNL A   1      53.192  27.837  25.449  1.00  0.00     0.022 A 
BRANCH  76  79
ATOM     79  S   UNL A   1      52.764  27.883  22.747  1.00  0.00     0.127 S 
ATOM     80  O   UNL A   1      52.063  26.692  22.274  1.00  0.00    -0.237 OA
ATOM     81  O   UNL A   1      52.271  29.148  22.201  1.00  0.00    -0.237 OA
ATOM     82  O   UNL A   1      54.216  27.779  22.808  1.00  0.00    -0.744 OA
ENDBRANCH  76  79
ENDBRANCH  48  72
BRANCH  60  83
ATOM     83  C   UNL A   1      46.686  33.326  28.774  1.00  0.00     0.023 A 
ATOM     84  C   UNL A   1      47.265  33.598  30.029  1.00  0.00     0.012 A 
ATOM     85  C   UNL A   1      46.486  34.381  27.860  1.00  0.00     0.148 A 
ATOM     86  C   UNL A   1      47.607  34.903  30.383  1.00  0.00     0.002 A 
ATOM     87  C   UNL A   1      46.880  35.668  28.198  1.00  0.00     0.091 A 
ATOM     88  F   UNL A   1      45.917  34.103  26.678  1.00  0.00    -0.205 F 
ATOM     89  C   UNL A   1      47.427  35.935  29.464  1.00  0.00     0.022 A 
BRANCH  87  90
ATOM     90  S   UNL A   1      46.780  37.042  27.045  1.00  0.00     0.127 S 
ATOM     91  O   UNL A   1      47.592  38.055  27.718  1.00  0.00    -0.237 OA
ATOM     92  O   UNL A   1      47.386  36.477  25.839  1.00  0.00    -0.237 OA
ATOM     93  O   UNL A   1      45.365  37.361  26.920  1.00  0.00    -0.744 OA
ENDBRANCH  87  90
ENDBRANCH  60  83
ENDBRANCH  34  35
ENDBRANCH  27  29
ENDBRANCH  26  27
ENDBRANCH  25  26
ENDBRANCH  24  25
ENDBRANCH  23  24
ENDBRANCH   1  23
TORSDOF 21
ENDMDL
