MODEL 1
REMARK VINA RESULT:      -9.3      0.000      0.000
REMARK SMILES C[C@H](NC(=O)c1cccc(NC(=O)c2ccccc2C(=O)OCCOCCOCCOC(=O)c2ccc(-c3c4nc(c(-c5cccc(S(=O)(=O)[O-])c5F)c5ccc([nH]5)c(-c5cccc(S(=O)(=O)[O-])c5F)c5nc(c(-c6cccc(S(=O)(=O)[O-])c6F)c6ccc3[nH]6)C=C5)C=C4)cc2)c1)c1ccccc1
REMARK SMILES IDX 26 1 25 2 24 3 23 4 22 5 20 6 21 7 19 8 14 9 15 10 16 11
REMARK SMILES IDX 18 12 17 13 12 14 11 15 13 17 10 18 6 19 7 20 97 21 8 22
REMARK SMILES IDX 9 23 4 24 3 25 5 27 2 28 1 29 98 30 99 31 103 32 100 33
REMARK SMILES IDX 102 34 101 35 27 36 28 37 29 38 30 39 31 40 32 41 33 42
REMARK SMILES IDX 34 43 35 44 96 45 36 46 95 47 37 48 38 49 39 50 89 51 40 52
REMARK SMILES IDX 94 53 88 54 90 55 41 56 93 57 87 58 86 59 42 61 74 62 54 63
REMARK SMILES IDX 73 64 55 65 58 66 72 67 91 68 56 69 57 70 71 72 92 73 59 74
REMARK SMILES IDX 43 75 44 76 52 77 45 78 47 79 53 80 46 81 48 82 49 83 50 84
REMARK SMILES IDX 51 85 75 86 76 87 84 88 77 89 79 90 85 91 78 92 80 93 81 94
REMARK SMILES IDX 82 95 83 96 60 97 61 98 69 99 62 100 64 101 70 102 63 103
REMARK SMILES IDX 65 104 66 105 67 106 68 107
REMARK H PARENT 11 16 3 26 90 60 58 71
REMARK Flexibility Score: inf
ROOT
ATOM      1  C   UNL A   1      40.788  27.668  27.544  1.00  0.00     0.188 C 
ENDROOT
BRANCH   1   2
ATOM      2  O   UNL A   1      39.620  27.475  28.324  1.00  0.00    -0.376 OA
BRANCH   2   3
ATOM      3  C   UNL A   1      39.163  28.525  29.139  1.00  0.00     0.202 C 
BRANCH   3   4
ATOM      4  C   UNL A   1      38.368  28.179  30.394  1.00  0.00     0.261 C 
BRANCH   4   5
ATOM      5  O   UNL A   1      37.717  29.233  31.103  1.00  0.00    -0.460 OA
BRANCH   5   6
ATOM      6  C   UNL A   1      37.841  29.193  32.448  1.00  0.00     0.339 C 
ATOM      7  O   UNL A   1      37.317  28.399  33.205  1.00  0.00    -0.246 OA
BRANCH   6   8
ATOM      8  C   UNL A   1      38.842  30.192  32.888  1.00  0.00     0.072 A 
ATOM      9  C   UNL A   1      38.537  31.485  33.344  1.00  0.00     0.054 A 
ATOM     10  C   UNL A   1      39.603  32.359  33.638  1.00  0.00     0.015 A 
ATOM     11  C   UNL A   1      40.933  31.938  33.543  1.00  0.00     0.001 A 
ATOM     12  C   UNL A   1      40.184  29.768  32.821  1.00  0.00     0.016 A 
ATOM     13  C   UNL A   1      41.223  30.637  33.150  1.00  0.00     0.001 A 
BRANCH   9  14
ATOM     14  C   UNL A   1      37.176  32.068  33.505  1.00  0.00     0.256 C 
ATOM     15  N   UNL A   1      36.369  32.499  32.470  1.00  0.00    -0.322 N 
ATOM     16  H   UNL A   1      35.521  32.903  32.767  1.00  0.00     0.170 HD
ATOM     17  O   UNL A   1      36.742  32.180  34.655  1.00  0.00    -0.269 OA
BRANCH  15  18
ATOM     18  C   UNL A   1      36.526  32.470  31.073  1.00  0.00     0.042 A 
ATOM     19  C   UNL A   1      35.365  32.534  28.940  1.00  0.00     0.041 A 
ATOM     20  C   UNL A   1      36.545  33.012  28.349  1.00  0.00     0.014 A 
ATOM     21  C   UNL A   1      35.383  32.203  30.298  1.00  0.00     0.040 A 
ATOM     22  C   UNL A   1      37.727  33.096  29.083  1.00  0.00     0.003 A 
ATOM     23  C   UNL A   1      37.725  32.790  30.440  1.00  0.00     0.026 A 
BRANCH  19  24
ATOM     24  C   UNL A   1      34.254  32.224  28.012  1.00  0.00     0.251 C 
ATOM     25  N   UNL A   1      34.075  31.102  27.255  1.00  0.00    -0.346 N 
ATOM     26  H   UNL A   1      33.305  31.231  26.657  1.00  0.00     0.164 HD
ATOM     27  O   UNL A   1      33.379  33.089  27.902  1.00  0.00    -0.269 OA
BRANCH  25  28
ATOM     28  C   UNL A   1      34.643  29.773  27.034  1.00  0.00     0.109 C 
ATOM     29  C   UNL A   1      35.825  29.380  27.898  1.00  0.00     0.036 C 
BRANCH  28  30
ATOM     30  C   UNL A   1      33.616  28.663  26.880  1.00  0.00    -0.026 A 
ATOM     31  C   UNL A   1      33.856  27.489  26.158  1.00  0.00     0.006 A 
ATOM     32  C   UNL A   1      32.336  28.836  27.446  1.00  0.00     0.006 A 
ATOM     33  C   UNL A   1      32.834  26.549  25.962  1.00  0.00     0.000 A 
ATOM     34  C   UNL A   1      31.325  27.888  27.269  1.00  0.00     0.000 A 
ATOM     35  C   UNL A   1      31.569  26.752  26.508  1.00  0.00     0.000 A 
ENDBRANCH  28  30
ENDBRANCH  25  28
ENDBRANCH  19  24
ENDBRANCH  15  18
ENDBRANCH   9  14
ENDBRANCH   6   8
ENDBRANCH   5   6
ENDBRANCH   4   5
ENDBRANCH   3   4
ENDBRANCH   2   3
ENDBRANCH   1   2
BRANCH   1  36
ATOM     36  C   UNL A   1      41.188  26.664  26.434  1.00  0.00     0.188 C 
BRANCH  36  37
ATOM     37  O   UNL A   1      40.339  25.537  26.302  1.00  0.00    -0.376 OA
BRANCH  37  38
ATOM     38  C   UNL A   1      40.982  24.272  26.292  1.00  0.00     0.202 C 
BRANCH  38  39
ATOM     39  C   UNL A   1      40.987  23.471  27.607  1.00  0.00     0.261 C 
BRANCH  39  40
ATOM     40  O   UNL A   1      41.750  24.013  28.701  1.00  0.00    -0.460 OA
BRANCH  40  41
ATOM     41  C   UNL A   1      43.013  23.571  28.914  1.00  0.00     0.338 C 
ATOM     42  O   UNL A   1      43.346  22.425  29.165  1.00  0.00    -0.246 OA
BRANCH  41  43
ATOM     43  C   UNL A   1      43.940  24.671  28.524  1.00  0.00     0.060 A 
ATOM     44  C   UNL A   1      44.432  25.538  29.516  1.00  0.00     0.016 A 
ATOM     45  C   UNL A   1      44.430  24.762  27.220  1.00  0.00     0.016 A 
ATOM     46  C   UNL A   1      45.417  26.484  29.207  1.00  0.00     0.010 A 
ATOM     47  C   UNL A   1      45.384  25.739  26.903  1.00  0.00     0.010 A 
ATOM     48  C   UNL A   1      45.873  26.616  27.890  1.00  0.00    -0.014 A 
BRANCH  48  49
ATOM     49  C   UNL A   1      46.701  27.785  27.490  1.00  0.00     0.031 A 
ATOM     50  C   UNL A   1      48.197  27.628  27.519  1.00  0.00     0.074 A 
ATOM     51  C   UNL A   1      46.160  28.971  27.152  1.00  0.00     0.049 A 
ATOM     52  N   UNL A   1      49.132  28.519  27.311  1.00  0.00    -0.248 NA
ATOM     53  C   UNL A   1      48.707  26.283  27.831  1.00  0.00     0.031 C 
ATOM     54  C   UNL A   1      44.731  29.263  27.072  1.00  0.00     0.029 A 
ATOM     55  N   UNL A   1      46.766  30.171  26.850  1.00  0.00    -0.354 N 
ATOM     56  C   UNL A   1      50.337  27.854  27.506  1.00  0.00     0.074 A 
ATOM     57  C   UNL A   1      50.015  26.484  27.844  1.00  0.00     0.031 C 
ATOM     58  C   UNL A   1      44.569  30.568  26.790  1.00  0.00     0.029 A 
ATOM     59  C   UNL A   1      45.880  31.213  26.702  1.00  0.00     0.049 A 
ATOM     60  H   UNL A   1      47.740  30.273  26.749  1.00  0.00     0.167 HD
ATOM     61  C   UNL A   1      51.597  28.336  27.414  1.00  0.00     0.034 A 
ATOM     62  C   UNL A   1      46.099  32.538  26.559  1.00  0.00     0.034 A 
ATOM     63  C   UNL A   1      51.924  29.694  27.074  1.00  0.00     0.049 A 
ATOM     64  C   UNL A   1      47.516  33.060  26.505  1.00  0.00     0.074 A 
ATOM     65  C   UNL A   1      53.175  30.254  26.893  1.00  0.00     0.029 A 
ATOM     66  N   UNL A   1      51.000  30.710  26.898  1.00  0.00    -0.354 N 
ATOM     67  N   UNL A   1      48.646  32.394  26.551  1.00  0.00    -0.248 NA
ATOM     68  C   UNL A   1      47.689  34.513  26.353  1.00  0.00     0.031 C 
ATOM     69  C   UNL A   1      53.010  31.622  26.655  1.00  0.00     0.029 A 
ATOM     70  C   UNL A   1      51.654  31.903  26.642  1.00  0.00     0.049 A 
ATOM     71  H   UNL A   1      50.023  30.600  26.946  1.00  0.00     0.167 HD
ATOM     72  C   UNL A   1      49.656  33.343  26.413  1.00  0.00     0.074 A 
ATOM     73  C   UNL A   1      49.006  34.626  26.248  1.00  0.00     0.031 C 
ATOM     74  C   UNL A   1      51.002  33.170  26.438  1.00  0.00     0.034 A 
BRANCH  61  75
ATOM     75  C   UNL A   1      52.731  27.385  27.688  1.00  0.00     0.023 A 
ATOM     76  C   UNL A   1      53.276  27.293  28.983  1.00  0.00     0.012 A 
ATOM     77  C   UNL A   1      53.213  26.537  26.670  1.00  0.00     0.148 A 
ATOM     78  C   UNL A   1      54.303  26.390  29.257  1.00  0.00     0.002 A 
ATOM     79  C   UNL A   1      54.203  25.607  26.962  1.00  0.00     0.091 A 
ATOM     80  F   UNL A   1      52.695  26.658  25.440  1.00  0.00    -0.205 F 
ATOM     81  C   UNL A   1      54.757  25.541  28.251  1.00  0.00     0.022 A 
BRANCH  79  82
ATOM     82  S   UNL A   1      54.797  24.414  25.759  1.00  0.00     0.127 S 
ATOM     83  O   UNL A   1      53.546  23.960  25.153  1.00  0.00    -0.237 OA
ATOM     84  O   UNL A   1      55.630  25.245  24.891  1.00  0.00    -0.237 OA
ATOM     85  O   UNL A   1      55.524  23.405  26.517  1.00  0.00    -0.744 OA
ENDBRANCH  79  82
ENDBRANCH  61  75
BRANCH  62  86
ATOM     86  C   UNL A   1      44.949  33.487  26.471  1.00  0.00     0.023 A 
ATOM     87  C   UNL A   1      44.344  33.741  25.225  1.00  0.00     0.012 A 
ATOM     88  C   UNL A   1      44.466  34.151  27.616  1.00  0.00     0.148 A 
ATOM     89  C   UNL A   1      43.302  34.664  25.115  1.00  0.00     0.002 A 
ATOM     90  C   UNL A   1      43.390  35.024  27.509  1.00  0.00     0.091 A 
ATOM     91  F   UNL A   1      45.070  33.916  28.788  1.00  0.00    -0.205 F 
ATOM     92  C   UNL A   1      42.818  35.296  26.257  1.00  0.00     0.022 A 
BRANCH  90  93
ATOM     93  S   UNL A   1      42.625  35.795  28.940  1.00  0.00     0.127 S 
ATOM     94  O   UNL A   1      43.761  36.476  29.555  1.00  0.00    -0.237 OA
ATOM     95  O   UNL A   1      41.642  36.678  28.313  1.00  0.00    -0.237 OA
ATOM     96  O   UNL A   1      42.049  34.704  29.715  1.00  0.00    -0.744 OA
ENDBRANCH  90  93
ENDBRANCH  62  86
BRANCH  74  97
ATOM     97  C   UNL A   1      51.878  34.386  26.258  1.00  0.00     0.023 A 
ATOM     98  C   UNL A   1      52.159  35.218  27.360  1.00  0.00     0.012 A 
ATOM     99  C   UNL A   1      52.492  34.656  25.017  1.00  0.00     0.148 A 
ATOM    100  C   UNL A   1      53.010  36.315  27.224  1.00  0.00     0.002 A 
ATOM    101  C   UNL A   1      53.380  35.719  24.901  1.00  0.00     0.091 A 
ATOM    102  F   UNL A   1      52.205  33.859  23.977  1.00  0.00    -0.205 F 
ATOM    103  C   UNL A   1      53.629  36.557  26.000  1.00  0.00     0.022 A 
BRANCH 101 104
ATOM    104  S   UNL A   1      54.298  36.057  23.395  1.00  0.00     0.127 S 
ATOM    105  O   UNL A   1      53.964  37.459  23.151  1.00  0.00    -0.237 OA
ATOM    106  O   UNL A   1      55.678  35.821  23.815  1.00  0.00    -0.237 OA
ATOM    107  O   UNL A   1      53.798  35.119  22.397  1.00  0.00    -0.744 OA
ENDBRANCH 101 104
ENDBRANCH  74  97
ENDBRANCH  48  49
ENDBRANCH  41  43
ENDBRANCH  40  41
ENDBRANCH  39  40
ENDBRANCH  38  39
ENDBRANCH  37  38
ENDBRANCH  36  37
ENDBRANCH   1  36
TORSDOF 25
ENDMDL
MODEL 2
REMARK VINA RESULT:      -9.1      7.714     12.296
REMARK SMILES C[C@H](NC(=O)c1cccc(NC(=O)c2ccccc2C(=O)OCCOCCOCCOC(=O)c2ccc(-c3c4nc(c(-c5cccc(S(=O)(=O)[O-])c5F)c5ccc([nH]5)c(-c5cccc(S(=O)(=O)[O-])c5F)c5nc(c(-c6cccc(S(=O)(=O)[O-])c6F)c6ccc3[nH]6)C=C5)C=C4)cc2)c1)c1ccccc1
REMARK SMILES IDX 26 1 25 2 24 3 23 4 22 5 20 6 21 7 19 8 14 9 15 10 16 11
REMARK SMILES IDX 18 12 17 13 12 14 11 15 13 17 10 18 6 19 7 20 97 21 8 22
REMARK SMILES IDX 9 23 4 24 3 25 5 27 2 28 1 29 98 30 99 31 103 32 100 33
REMARK SMILES IDX 102 34 101 35 27 36 28 37 29 38 30 39 31 40 32 41 33 42
REMARK SMILES IDX 34 43 35 44 96 45 36 46 95 47 37 48 38 49 39 50 89 51 40 52
REMARK SMILES IDX 94 53 88 54 90 55 41 56 93 57 87 58 86 59 42 61 74 62 54 63
REMARK SMILES IDX 73 64 55 65 58 66 72 67 91 68 56 69 57 70 71 72 92 73 59 74
REMARK SMILES IDX 43 75 44 76 52 77 45 78 47 79 53 80 46 81 48 82 49 83 50 84
REMARK SMILES IDX 51 85 75 86 76 87 84 88 77 89 79 90 85 91 78 92 80 93 81 94
REMARK SMILES IDX 82 95 83 96 60 97 61 98 69 99 62 100 64 101 70 102 63 103
REMARK SMILES IDX 65 104 66 105 67 106 68 107
REMARK H PARENT 11 16 3 26 90 60 58 71
REMARK Flexibility Score: inf
ROOT
ATOM      1  C   UNL A   1      33.897  29.472  27.214  1.00  0.00     0.188 C 
ENDROOT
BRANCH   1   2
ATOM      2  O   UNL A   1      34.365  28.581  26.216  1.00  0.00    -0.376 OA
BRANCH   2   3
ATOM      3  C   UNL A   1      33.826  27.284  26.153  1.00  0.00     0.202 C 
BRANCH   3   4
ATOM      4  C   UNL A   1      34.564  26.229  25.334  1.00  0.00     0.261 C 
BRANCH   4   5
ATOM      5  O   UNL A   1      34.002  24.920  25.242  1.00  0.00    -0.460 OA
BRANCH   5   6
ATOM      6  C   UNL A   1      34.852  23.949  24.843  1.00  0.00     0.339 C 
ATOM      7  O   UNL A   1      36.061  24.027  24.757  1.00  0.00    -0.246 OA
BRANCH   6   8
ATOM      8  C   UNL A   1      34.107  22.683  24.648  1.00  0.00     0.072 A 
ATOM      9  C   UNL A   1      33.239  22.422  23.574  1.00  0.00     0.054 A 
ATOM     10  C   UNL A   1      32.525  21.207  23.573  1.00  0.00     0.015 A 
ATOM     11  C   UNL A   1      32.717  20.251  24.576  1.00  0.00     0.001 A 
ATOM     12  C   UNL A   1      34.313  21.704  25.639  1.00  0.00     0.016 A 
ATOM     13  C   UNL A   1      33.623  20.494  25.601  1.00  0.00     0.001 A 
BRANCH   9  14
ATOM     14  C   UNL A   1      32.943  23.333  22.435  1.00  0.00     0.256 C 
ATOM     15  N   UNL A   1      32.052  24.389  22.473  1.00  0.00    -0.322 N 
ATOM     16  H   UNL A   1      31.946  24.853  21.610  1.00  0.00     0.170 HD
ATOM     17  O   UNL A   1      33.534  23.121  21.372  1.00  0.00    -0.269 OA
BRANCH  15  18
ATOM     18  C   UNL A   1      31.270  24.929  23.508  1.00  0.00     0.042 A 
ATOM     19  C   UNL A   1      29.251  26.178  24.031  1.00  0.00     0.041 A 
ATOM     20  C   UNL A   1      29.257  25.589  25.305  1.00  0.00     0.014 A 
ATOM     21  C   UNL A   1      30.303  25.889  23.157  1.00  0.00     0.040 A 
ATOM     22  C   UNL A   1      30.319  24.784  25.715  1.00  0.00     0.003 A 
ATOM     23  C   UNL A   1      31.346  24.484  24.826  1.00  0.00     0.026 A 
BRANCH  19  24
ATOM     24  C   UNL A   1      28.230  27.224  23.804  1.00  0.00     0.251 C 
ATOM     25  N   UNL A   1      28.423  28.534  23.471  1.00  0.00    -0.346 N 
ATOM     26  H   UNL A   1      27.561  29.008  23.497  1.00  0.00     0.164 HD
ATOM     27  O   UNL A   1      27.052  26.874  23.937  1.00  0.00    -0.269 OA
BRANCH  25  28
ATOM     28  C   UNL A   1      29.480  29.469  23.088  1.00  0.00     0.109 C 
ATOM     29  C   UNL A   1      30.706  28.881  22.418  1.00  0.00     0.036 C 
BRANCH  28  30
ATOM     30  C   UNL A   1      28.987  30.745  22.425  1.00  0.00    -0.026 A 
ATOM     31  C   UNL A   1      28.942  31.982  23.076  1.00  0.00     0.006 A 
ATOM     32  C   UNL A   1      28.502  30.681  21.102  1.00  0.00     0.006 A 
ATOM     33  C   UNL A   1      28.378  33.102  22.448  1.00  0.00     0.000 A 
ATOM     34  C   UNL A   1      27.961  31.803  20.468  1.00  0.00     0.000 A 
ATOM     35  C   UNL A   1      27.880  33.011  21.150  1.00  0.00     0.000 A 
ENDBRANCH  28  30
ENDBRANCH  25  28
ENDBRANCH  19  24
ENDBRANCH  15  18
ENDBRANCH   9  14
ENDBRANCH   6   8
ENDBRANCH   5   6
ENDBRANCH   4   5
ENDBRANCH   3   4
ENDBRANCH   2   3
ENDBRANCH   1   2
BRANCH   1  36
ATOM     36  C   UNL A   1      32.434  29.984  27.213  1.00  0.00     0.188 C 
BRANCH  36  37
ATOM     37  O   UNL A   1      32.283  31.387  27.090  1.00  0.00    -0.376 OA
BRANCH  37  38
ATOM     38  C   UNL A   1      33.475  32.152  27.192  1.00  0.00     0.202 C 
BRANCH  38  39
ATOM     39  C   UNL A   1      33.357  33.569  27.781  1.00  0.00     0.261 C 
BRANCH  39  40
ATOM     40  O   UNL A   1      33.027  33.672  29.180  1.00  0.00    -0.460 OA
BRANCH  40  41
ATOM     41  C   UNL A   1      33.581  34.661  29.921  1.00  0.00     0.338 C 
ATOM     42  O   UNL A   1      33.060  35.724  30.215  1.00  0.00    -0.246 OA
BRANCH  41  43
ATOM     43  C   UNL A   1      34.824  34.114  30.534  1.00  0.00     0.060 A 
ATOM     44  C   UNL A   1      36.074  34.553  30.060  1.00  0.00     0.016 A 
ATOM     45  C   UNL A   1      34.762  33.285  31.655  1.00  0.00     0.016 A 
ATOM     46  C   UNL A   1      37.253  34.173  30.712  1.00  0.00     0.010 A 
ATOM     47  C   UNL A   1      35.946  32.869  32.279  1.00  0.00     0.010 A 
ATOM     48  C   UNL A   1      37.200  33.298  31.804  1.00  0.00    -0.014 A 
BRANCH  48  49
ATOM     49  C   UNL A   1      38.441  32.667  32.329  1.00  0.00     0.031 A 
ATOM     50  C   UNL A   1      39.022  31.513  31.558  1.00  0.00     0.074 A 
ATOM     51  C   UNL A   1      39.023  33.065  33.477  1.00  0.00     0.049 A 
ATOM     52  N   UNL A   1      40.032  30.738  31.855  1.00  0.00    -0.248 NA
ATOM     53  C   UNL A   1      38.367  31.186  30.280  1.00  0.00     0.031 C 
ATOM     54  C   UNL A   1      38.576  34.171  34.319  1.00  0.00     0.029 A 
ATOM     55  N   UNL A   1      40.104  32.543  34.152  1.00  0.00    -0.354 N 
ATOM     56  C   UNL A   1      40.110  29.808  30.825  1.00  0.00     0.074 A 
ATOM     57  C   UNL A   1      39.048  30.119  29.892  1.00  0.00     0.031 C 
ATOM     58  C   UNL A   1      39.345  34.217  35.421  1.00  0.00     0.029 A 
ATOM     59  C   UNL A   1      40.317  33.124  35.381  1.00  0.00     0.049 A 
ATOM     60  H   UNL A   1      40.671  31.824  33.790  1.00  0.00     0.167 HD
ATOM     61  C   UNL A   1      40.984  28.788  30.666  1.00  0.00     0.034 A 
ATOM     62  C   UNL A   1      41.166  32.785  36.376  1.00  0.00     0.034 A 
ATOM     63  C   UNL A   1      42.044  28.477  31.586  1.00  0.00     0.049 A 
ATOM     64  C   UNL A   1      42.101  31.613  36.195  1.00  0.00     0.074 A 
ATOM     65  C   UNL A   1      43.017  27.502  31.472  1.00  0.00     0.029 A 
ATOM     66  N   UNL A   1      42.249  29.109  32.800  1.00  0.00    -0.354 N 
ATOM     67  N   UNL A   1      42.256  30.831  35.153  1.00  0.00    -0.248 NA
ATOM     68  C   UNL A   1      42.996  31.291  37.318  1.00  0.00     0.031 C 
ATOM     69  C   UNL A   1      43.783  27.512  32.642  1.00  0.00     0.029 A 
ATOM     70  C   UNL A   1      43.314  28.524  33.463  1.00  0.00     0.049 A 
ATOM     71  H   UNL A   1      41.716  29.863  33.142  1.00  0.00     0.167 HD
ATOM     72  C   UNL A   1      43.277  29.944  35.488  1.00  0.00     0.074 A 
ATOM     73  C   UNL A   1      43.727  30.305  36.815  1.00  0.00     0.031 C 
ATOM     74  C   UNL A   1      43.785  28.913  34.767  1.00  0.00     0.034 A 
BRANCH  61  75
ATOM     75  C   UNL A   1      40.833  27.922  29.444  1.00  0.00     0.023 A 
ATOM     76  C   UNL A   1      39.794  26.972  29.378  1.00  0.00     0.012 A 
ATOM     77  C   UNL A   1      41.685  28.096  28.336  1.00  0.00     0.148 A 
ATOM     78  C   UNL A   1      39.622  26.189  28.237  1.00  0.00     0.002 A 
ATOM     79  C   UNL A   1      41.479  27.346  27.185  1.00  0.00     0.091 A 
ATOM     80  F   UNL A   1      42.680  28.989  28.430  1.00  0.00    -0.205 F 
ATOM     81  C   UNL A   1      40.455  26.384  27.139  1.00  0.00     0.022 A 
BRANCH  79  82
ATOM     82  S   UNL A   1      42.443  27.578  25.690  1.00  0.00     0.127 S 
ATOM     83  O   UNL A   1      41.938  26.498  24.843  1.00  0.00    -0.237 OA
ATOM     84  O   UNL A   1      42.041  28.921  25.272  1.00  0.00    -0.237 OA
ATOM     85  O   UNL A   1      43.840  27.456  26.086  1.00  0.00    -0.744 OA
ENDBRANCH  79  82
ENDBRANCH  61  75
BRANCH  62  86
ATOM     86  C   UNL A   1      41.169  33.554  37.657  1.00  0.00     0.023 A 
ATOM     87  C   UNL A   1      40.280  33.198  38.690  1.00  0.00     0.012 A 
ATOM     88  C   UNL A   1      42.039  34.646  37.847  1.00  0.00     0.148 A 
ATOM     89  C   UNL A   1      40.232  33.936  39.874  1.00  0.00     0.002 A 
ATOM     90  C   UNL A   1      42.027  35.340  39.051  1.00  0.00     0.091 A 
ATOM     91  F   UNL A   1      42.859  34.986  36.843  1.00  0.00    -0.205 F 
ATOM     92  C   UNL A   1      41.112  34.999  40.059  1.00  0.00     0.022 A 
BRANCH  90  93
ATOM     93  S   UNL A   1      43.201  36.648  39.423  1.00  0.00     0.127 S 
ATOM     94  O   UNL A   1      42.686  37.160  40.690  1.00  0.00    -0.237 OA
ATOM     95  O   UNL A   1      44.456  35.902  39.524  1.00  0.00    -0.237 OA
ATOM     96  O   UNL A   1      43.136  37.569  38.297  1.00  0.00    -0.744 OA
ENDBRANCH  90  93
ENDBRANCH  62  86
BRANCH  74  97
ATOM     97  C   UNL A   1      44.905  28.104  35.375  1.00  0.00     0.023 A 
ATOM     98  C   UNL A   1      46.243  28.511  35.194  1.00  0.00     0.012 A 
ATOM     99  C   UNL A   1      44.629  26.991  36.196  1.00  0.00     0.148 A 
ATOM    100  C   UNL A   1      47.287  27.806  35.793  1.00  0.00     0.002 A 
ATOM    101  C   UNL A   1      45.670  26.325  36.832  1.00  0.00     0.091 A 
ATOM    102  F   UNL A   1      43.351  26.613  36.348  1.00  0.00    -0.205 F 
ATOM    103  C   UNL A   1      47.000  26.723  36.621  1.00  0.00     0.022 A 
BRANCH 101 104
ATOM    104  S   UNL A   1      45.397  24.979  37.989  1.00  0.00     0.127 S 
ATOM    105  O   UNL A   1      44.614  25.639  39.033  1.00  0.00    -0.237 OA
ATOM    106  O   UNL A   1      44.647  24.021  37.178  1.00  0.00    -0.237 OA
ATOM    107  O   UNL A   1      46.719  24.524  38.401  1.00  0.00    -0.744 OA
ENDBRANCH 101 104
ENDBRANCH  74  97
ENDBRANCH  48  49
ENDBRANCH  41  43
ENDBRANCH  40  41
ENDBRANCH  39  40
ENDBRANCH  38  39
ENDBRANCH  37  38
ENDBRANCH  36  37
ENDBRANCH   1  36
TORSDOF 25
ENDMDL
MODEL 3
REMARK VINA RESULT:      -8.9      7.124     12.066
REMARK SMILES C[C@H](NC(=O)c1cccc(NC(=O)c2ccccc2C(=O)OCCOCCOCCOC(=O)c2ccc(-c3c4nc(c(-c5cccc(S(=O)(=O)[O-])c5F)c5ccc([nH]5)c(-c5cccc(S(=O)(=O)[O-])c5F)c5nc(c(-c6cccc(S(=O)(=O)[O-])c6F)c6ccc3[nH]6)C=C5)C=C4)cc2)c1)c1ccccc1
REMARK SMILES IDX 26 1 25 2 24 3 23 4 22 5 20 6 21 7 19 8 14 9 15 10 16 11
REMARK SMILES IDX 18 12 17 13 12 14 11 15 13 17 10 18 6 19 7 20 97 21 8 22
REMARK SMILES IDX 9 23 4 24 3 25 5 27 2 28 1 29 98 30 99 31 103 32 100 33
REMARK SMILES IDX 102 34 101 35 27 36 28 37 29 38 30 39 31 40 32 41 33 42
REMARK SMILES IDX 34 43 35 44 96 45 36 46 95 47 37 48 38 49 39 50 89 51 40 52
REMARK SMILES IDX 94 53 88 54 90 55 41 56 93 57 87 58 86 59 42 61 74 62 54 63
REMARK SMILES IDX 73 64 55 65 58 66 72 67 91 68 56 69 57 70 71 72 92 73 59 74
REMARK SMILES IDX 43 75 44 76 52 77 45 78 47 79 53 80 46 81 48 82 49 83 50 84
REMARK SMILES IDX 51 85 75 86 76 87 84 88 77 89 79 90 85 91 78 92 80 93 81 94
REMARK SMILES IDX 82 95 83 96 60 97 61 98 69 99 62 100 64 101 70 102 63 103
REMARK SMILES IDX 65 104 66 105 67 106 68 107
REMARK H PARENT 11 16 3 26 90 60 58 71
REMARK Flexibility Score: inf
ROOT
ATOM      1  C   UNL A   1      34.738  31.105  27.722  1.00  0.00     0.188 C 
ENDROOT
BRANCH   1   2
ATOM      2  O   UNL A   1      35.173  29.845  27.240  1.00  0.00    -0.376 OA
BRANCH   2   3
ATOM      3  C   UNL A   1      34.318  29.101  26.408  1.00  0.00     0.202 C 
BRANCH   3   4
ATOM      4  C   UNL A   1      33.710  27.813  26.954  1.00  0.00     0.261 C 
BRANCH   4   5
ATOM      5  O   UNL A   1      33.163  26.871  26.031  1.00  0.00    -0.460 OA
BRANCH   5   6
ATOM      6  C   UNL A   1      31.820  26.726  26.075  1.00  0.00     0.339 C 
ATOM      7  O   UNL A   1      31.027  27.442  26.654  1.00  0.00    -0.246 OA
BRANCH   6   8
ATOM      8  C   UNL A   1      31.408  25.620  25.179  1.00  0.00     0.072 A 
ATOM      9  C   UNL A   1      31.639  24.257  25.430  1.00  0.00     0.054 A 
ATOM     10  C   UNL A   1      31.275  23.324  24.439  1.00  0.00     0.015 A 
ATOM     11  C   UNL A   1      30.640  23.728  23.260  1.00  0.00     0.001 A 
ATOM     12  C   UNL A   1      30.744  26.015  24.001  1.00  0.00     0.016 A 
ATOM     13  C   UNL A   1      30.361  25.074  23.049  1.00  0.00     0.001 A 
BRANCH   9  14
ATOM     14  C   UNL A   1      32.292  23.679  26.637  1.00  0.00     0.256 C 
ATOM     15  N   UNL A   1      33.608  23.263  26.705  1.00  0.00    -0.322 N 
ATOM     16  H   UNL A   1      33.854  22.859  27.570  1.00  0.00     0.170 HD
ATOM     17  O   UNL A   1      31.598  23.555  27.650  1.00  0.00    -0.269 OA
BRANCH  15  18
ATOM     18  C   UNL A   1      34.663  23.307  25.778  1.00  0.00     0.042 A 
ATOM     19  C   UNL A   1      36.767  22.291  25.111  1.00  0.00     0.041 A 
ATOM     20  C   UNL A   1      36.549  22.773  23.811  1.00  0.00     0.014 A 
ATOM     21  C   UNL A   1      35.845  22.619  26.108  1.00  0.00     0.040 A 
ATOM     22  C   UNL A   1      35.472  23.613  23.531  1.00  0.00     0.003 A 
ATOM     23  C   UNL A   1      34.547  23.909  24.528  1.00  0.00     0.026 A 
BRANCH  19  24
ATOM     24  C   UNL A   1      38.077  21.646  25.352  1.00  0.00     0.251 C 
ATOM     25  N   UNL A   1      39.218  22.212  25.844  1.00  0.00    -0.346 N 
ATOM     26  H   UNL A   1      39.955  21.562  25.788  1.00  0.00     0.164 HD
ATOM     27  O   UNL A   1      38.153  20.445  25.071  1.00  0.00    -0.269 OA
BRANCH  25  28
ATOM     28  C   UNL A   1      39.714  23.458  26.425  1.00  0.00     0.109 C 
ATOM     29  C   UNL A   1      38.753  24.234  27.305  1.00  0.00     0.036 C 
BRANCH  28  30
ATOM     30  C   UNL A   1      41.120  23.376  26.997  1.00  0.00    -0.026 A 
ATOM     31  C   UNL A   1      41.408  22.840  28.256  1.00  0.00     0.006 A 
ATOM     32  C   UNL A   1      42.190  23.908  26.249  1.00  0.00     0.006 A 
ATOM     33  C   UNL A   1      42.711  22.888  28.773  1.00  0.00     0.000 A 
ATOM     34  C   UNL A   1      43.493  23.936  26.755  1.00  0.00     0.000 A 
ATOM     35  C   UNL A   1      43.749  23.443  28.029  1.00  0.00     0.000 A 
ENDBRANCH  28  30
ENDBRANCH  25  28
ENDBRANCH  19  24
ENDBRANCH  15  18
ENDBRANCH   9  14
ENDBRANCH   6   8
ENDBRANCH   5   6
ENDBRANCH   4   5
ENDBRANCH   3   4
ENDBRANCH   2   3
ENDBRANCH   1   2
BRANCH   1  36
ATOM     36  C   UNL A   1      33.252  31.533  27.627  1.00  0.00     0.188 C 
BRANCH  36  37
ATOM     37  O   UNL A   1      33.026  32.930  27.572  1.00  0.00    -0.376 OA
BRANCH  37  38
ATOM     38  C   UNL A   1      34.117  33.752  27.959  1.00  0.00     0.202 C 
BRANCH  38  39
ATOM     39  C   UNL A   1      33.922  34.650  29.194  1.00  0.00     0.261 C 
BRANCH  39  40
ATOM     40  O   UNL A   1      33.663  33.991  30.449  1.00  0.00    -0.460 OA
BRANCH  40  41
ATOM     41  C   UNL A   1      33.956  34.630  31.607  1.00  0.00     0.338 C 
ATOM     42  O   UNL A   1      33.209  35.351  32.245  1.00  0.00    -0.246 OA
BRANCH  41  43
ATOM     43  C   UNL A   1      35.253  34.083  32.098  1.00  0.00     0.060 A 
ATOM     44  C   UNL A   1      36.429  34.833  31.912  1.00  0.00     0.016 A 
ATOM     45  C   UNL A   1      35.293  32.913  32.857  1.00  0.00     0.016 A 
ATOM     46  C   UNL A   1      37.634  34.419  32.492  1.00  0.00     0.010 A 
ATOM     47  C   UNL A   1      36.509  32.476  33.399  1.00  0.00     0.010 A 
ATOM     48  C   UNL A   1      37.691  33.218  33.209  1.00  0.00    -0.014 A 
BRANCH  48  49
ATOM     49  C   UNL A   1      39.001  32.625  33.589  1.00  0.00     0.031 A 
ATOM     50  C   UNL A   1      39.622  31.631  32.645  1.00  0.00     0.074 A 
ATOM     51  C   UNL A   1      39.614  32.915  34.753  1.00  0.00     0.049 A 
ATOM     52  N   UNL A   1      40.701  30.908  32.791  1.00  0.00    -0.248 NA
ATOM     53  C   UNL A   1      38.925  31.422  31.366  1.00  0.00     0.031 C 
ATOM     54  C   UNL A   1      39.133  33.863  35.755  1.00  0.00     0.029 A 
ATOM     55  N   UNL A   1      40.765  32.398  35.303  1.00  0.00    -0.354 N 
ATOM     56  C   UNL A   1      40.791  30.129  31.643  1.00  0.00     0.074 A 
ATOM     57  C   UNL A   1      39.660  30.473  30.808  1.00  0.00     0.031 C 
ATOM     58  C   UNL A   1      39.956  33.826  36.818  1.00  0.00     0.029 A 
ATOM     59  C   UNL A   1      41.002  32.829  36.588  1.00  0.00     0.049 A 
ATOM     60  H   UNL A   1      41.363  31.779  34.823  1.00  0.00     0.167 HD
ATOM     61  C   UNL A   1      41.727  29.212  31.310  1.00  0.00     0.034 A 
ATOM     62  C   UNL A   1      41.926  32.432  37.491  1.00  0.00     0.034 A 
ATOM     63  C   UNL A   1      42.855  28.869  32.132  1.00  0.00     0.049 A 
ATOM     64  C   UNL A   1      42.934  31.372  37.113  1.00  0.00     0.074 A 
ATOM     65  C   UNL A   1      43.891  27.997  31.846  1.00  0.00     0.029 A 
ATOM     66  N   UNL A   1      43.080  29.352  33.410  1.00  0.00    -0.354 N 
ATOM     67  N   UNL A   1      43.089  30.747  35.970  1.00  0.00    -0.248 NA
ATOM     68  C   UNL A   1      43.910  30.979  38.142  1.00  0.00     0.031 C 
ATOM     69  C   UNL A   1      44.716  27.916  32.971  1.00  0.00     0.029 A 
ATOM     70  C   UNL A   1      44.220  28.772  33.941  1.00  0.00     0.049 A 
ATOM     71  H   UNL A   1      42.513  30.010  33.874  1.00  0.00     0.167 HD
ATOM     72  C   UNL A   1      44.189  29.909  36.137  1.00  0.00     0.074 A 
ATOM     73  C   UNL A   1      44.682  30.129  37.480  1.00  0.00     0.031 C 
ATOM     74  C   UNL A   1      44.731  29.024  35.263  1.00  0.00     0.034 A 
BRANCH  61  75
ATOM     75  C   UNL A   1      41.574  28.502  29.991  1.00  0.00     0.023 A 
ATOM     76  C   UNL A   1      40.655  27.442  29.864  1.00  0.00     0.012 A 
ATOM     77  C   UNL A   1      42.298  28.932  28.862  1.00  0.00     0.148 A 
ATOM     78  C   UNL A   1      40.478  26.801  28.638  1.00  0.00     0.002 A 
ATOM     79  C   UNL A   1      42.082  28.320  27.634  1.00  0.00     0.091 A 
ATOM     80  F   UNL A   1      43.184  29.927  29.011  1.00  0.00    -0.205 F 
ATOM     81  C   UNL A   1      41.182  27.247  27.523  1.00  0.00     0.022 A 
BRANCH  79  82
ATOM     82  S   UNL A   1      42.877  28.873  26.122  1.00  0.00     0.127 S 
ATOM     83  O   UNL A   1      44.129  28.118  26.155  1.00  0.00    -0.237 OA
ATOM     84  O   UNL A   1      41.927  28.435  25.100  1.00  0.00    -0.237 OA
ATOM     85  O   UNL A   1      43.018  30.317  26.244  1.00  0.00    -0.744 OA
ENDBRANCH  79  82
ENDBRANCH  61  75
BRANCH  62  86
ATOM     86  C   UNL A   1      41.943  33.025  38.861  1.00  0.00     0.023 A 
ATOM     87  C   UNL A   1      41.318  32.347  39.926  1.00  0.00     0.012 A 
ATOM     88  C   UNL A   1      42.560  34.267  39.109  1.00  0.00     0.148 A 
ATOM     89  C   UNL A   1      41.279  32.909  41.204  1.00  0.00     0.002 A 
ATOM     90  C   UNL A   1      42.568  34.794  40.395  1.00  0.00     0.091 A 
ATOM     91  F   UNL A   1      43.126  34.911  38.079  1.00  0.00    -0.205 F 
ATOM     92  C   UNL A   1      41.912  34.126  41.441  1.00  0.00     0.022 A 
BRANCH  90  93
ATOM     93  S   UNL A   1      43.457  36.297  40.818  1.00  0.00     0.127 S 
ATOM     94  O   UNL A   1      43.252  36.369  42.262  1.00  0.00    -0.237 OA
ATOM     95  O   UNL A   1      44.820  35.963  40.404  1.00  0.00    -0.237 OA
ATOM     96  O   UNL A   1      42.832  37.357  40.039  1.00  0.00    -0.744 OA
ENDBRANCH  90  93
ENDBRANCH  62  86
BRANCH  74  97
ATOM     97  C   UNL A   1      45.939  28.235  35.707  1.00  0.00     0.023 A 
ATOM     98  C   UNL A   1      45.769  27.046  36.443  1.00  0.00     0.012 A 
ATOM     99  C   UNL A   1      47.237  28.627  35.320  1.00  0.00     0.148 A 
ATOM    100  C   UNL A   1      46.871  26.277  36.815  1.00  0.00     0.002 A 
ATOM    101  C   UNL A   1      48.327  27.829  35.650  1.00  0.00     0.091 A 
ATOM    102  F   UNL A   1      47.381  29.766  34.628  1.00  0.00    -0.205 F 
ATOM    103  C   UNL A   1      48.147  26.661  36.408  1.00  0.00     0.022 A 
BRANCH 101 104
ATOM    104  S   UNL A   1      49.996  28.188  35.092  1.00  0.00     0.127 S 
ATOM    105  O   UNL A   1      50.089  27.370  33.884  1.00  0.00    -0.237 OA
ATOM    106  O   UNL A   1      49.938  29.629  34.850  1.00  0.00    -0.237 OA
ATOM    107  O   UNL A   1      50.881  27.790  36.180  1.00  0.00    -0.744 OA
ENDBRANCH 101 104
ENDBRANCH  74  97
ENDBRANCH  48  49
ENDBRANCH  41  43
ENDBRANCH  40  41
ENDBRANCH  39  40
ENDBRANCH  38  39
ENDBRANCH  37  38
ENDBRANCH  36  37
ENDBRANCH   1  36
TORSDOF 25
ENDMDL
