MODEL 1
REMARK VINA RESULT:     -10.2      0.000      0.000
REMARK SMILES [NH3+][C@@H]1C(=O)N2C(C(=O)OCCOCCOCCOC(=O)c3ccc(-c4c5nc(c(-c6cccc(S(=O)(=O)[O-])c6F)c6ccc([nH]6)c(-c6cccc(S(=O)(=O)[O-])c6F)c6nc(c(-c7cccc(S(=O)(=O)[O-])c7F)c7ccc4[nH]7)C=C6)C=C5)cc3)=CCS[C@@H]12
REMARK SMILES IDX 14 1 13 2 12 3 11 4 10 5 9 6 7 7 8 8 6 9 2 10 3 11 87 12
REMARK SMILES IDX 4 13 5 14 86 15 85 16 84 17 1 18 15 22 16 23 17 24 18 25
REMARK SMILES IDX 19 26 20 27 21 28 22 29 83 30 23 31 82 32 24 33 25 34 26 35
REMARK SMILES IDX 76 36 27 37 81 38 75 39 77 40 28 41 80 42 74 43 73 44 29 46
REMARK SMILES IDX 61 47 41 48 60 49 42 50 45 51 59 52 78 53 43 54 44 55 58 57
REMARK SMILES IDX 79 58 46 59 30 60 31 61 39 62 32 63 34 64 40 65 33 66 35 67
REMARK SMILES IDX 36 68 37 69 38 70 62 71 63 72 71 73 64 74 66 75 72 76 65 77
REMARK SMILES IDX 67 78 68 79 69 80 70 81 47 82 48 83 56 84 49 85 51 86 57 87
REMARK SMILES IDX 50 88 52 89 53 90 54 91 55 92
REMARK H PARENT 1 19 1 20 1 21 77 45 45 56
REMARK Flexibility Score: inf
ROOT
ATOM      1  C   UNL A   1      34.297  21.367  25.543  1.00  0.00     0.188 C 
ENDROOT
BRANCH   1   2
ATOM      2  C   UNL A   1      33.271  20.235  25.772  1.00  0.00     0.188 C 
BRANCH   2   3
ATOM      3  O   UNL A   1      32.169  20.290  24.895  1.00  0.00    -0.376 OA
BRANCH   3   4
ATOM      4  C   UNL A   1      32.371  20.497  23.510  1.00  0.00     0.202 C 
BRANCH   4   5
ATOM      5  C   UNL A   1      31.997  21.786  22.750  1.00  0.00     0.261 C 
BRANCH   5   6
ATOM      6  O   UNL A   1      32.197  23.024  23.432  1.00  0.00    -0.459 OA
BRANCH   6   7
ATOM      7  C   UNL A   1      33.057  23.904  22.851  1.00  0.00     0.354 C 
ATOM      8  O   UNL A   1      34.064  23.627  22.222  1.00  0.00    -0.244 OA
BRANCH   7   9
ATOM      9  C   UNL A   1      32.564  25.296  23.076  1.00  0.00     0.128 C 
ATOM     10  C   UNL A   1      32.903  26.997  25.998  1.00  0.00     0.305 C 
ATOM     11  C   UNL A   1      33.577  25.714  25.355  1.00  0.00     0.289 C 
ATOM     12  C   UNL A   1      32.581  27.328  24.505  1.00  0.00     0.217 C 
ATOM     13  O   UNL A   1      34.379  24.856  25.667  1.00  0.00    -0.267 OA
ATOM     14  N   UNL A   1      32.859  25.927  24.238  1.00  0.00    -0.282 N 
ATOM     15  S   UNL A   1      30.853  27.663  24.078  1.00  0.00    -0.126 SA
ATOM     16  C   UNL A   1      31.106  27.221  22.323  1.00  0.00     0.101 C 
ATOM     17  C   UNL A   1      31.773  25.883  22.161  1.00  0.00     0.018 C 
BRANCH  10  18
ATOM     18  N   UNL A   1      33.840  28.002  26.542  1.00  0.00    -0.345 N 
ATOM     19  H   UNL A   1      34.596  27.529  27.037  1.00  0.00     0.345 HD
ATOM     20  H   UNL A   1      33.343  28.617  27.185  1.00  0.00     0.345 HD
ATOM     21  H   UNL A   1      34.229  28.553  25.775  1.00  0.00     0.345 HD
ENDBRANCH  10  18
ENDBRANCH   7   9
ENDBRANCH   6   7
ENDBRANCH   5   6
ENDBRANCH   4   5
ENDBRANCH   3   4
ENDBRANCH   2   3
ENDBRANCH   1   2
BRANCH   1  22
ATOM     22  O   UNL A   1      35.465  21.145  24.761  1.00  0.00    -0.376 OA
BRANCH  22  23
ATOM     23  C   UNL A   1      36.183  19.928  24.923  1.00  0.00     0.202 C 
BRANCH  23  24
ATOM     24  C   UNL A   1      37.721  19.915  24.989  1.00  0.00     0.261 C 
BRANCH  24  25
ATOM     25  O   UNL A   1      38.349  21.149  25.365  1.00  0.00    -0.460 OA
BRANCH  25  26
ATOM     26  C   UNL A   1      39.440  21.028  26.161  1.00  0.00     0.338 C 
ATOM     27  O   UNL A   1      40.120  20.030  26.336  1.00  0.00    -0.246 OA
BRANCH  26  28
ATOM     28  C   UNL A   1      39.828  22.361  26.664  1.00  0.00     0.060 A 
ATOM     29  C   UNL A   1      39.184  23.489  26.131  1.00  0.00     0.016 A 
ATOM     30  C   UNL A   1      40.840  22.505  27.612  1.00  0.00     0.016 A 
ATOM     31  C   UNL A   1      39.560  24.767  26.537  1.00  0.00     0.010 A 
ATOM     32  C   UNL A   1      41.235  23.790  27.995  1.00  0.00     0.010 A 
ATOM     33  C   UNL A   1      40.616  24.924  27.439  1.00  0.00    -0.014 A 
BRANCH  33  34
ATOM     34  C   UNL A   1      41.187  26.272  27.673  1.00  0.00     0.031 A 
ATOM     35  C   UNL A   1      42.596  26.545  27.223  1.00  0.00     0.074 A 
ATOM     36  C   UNL A   1      40.471  27.231  28.284  1.00  0.00     0.049 A 
ATOM     37  N   UNL A   1      43.318  27.624  27.368  1.00  0.00    -0.248 NA
ATOM     38  C   UNL A   1      43.281  25.451  26.515  1.00  0.00     0.031 C 
ATOM     39  C   UNL A   1      39.095  27.091  28.757  1.00  0.00     0.029 A 
ATOM     40  N   UNL A   1      40.824  28.509  28.642  1.00  0.00    -0.354 N 
ATOM     41  C   UNL A   1      44.552  27.332  26.799  1.00  0.00     0.074 A 
ATOM     42  C   UNL A   1      44.484  25.970  26.315  1.00  0.00     0.031 C 
ATOM     43  C   UNL A   1      38.735  28.224  29.387  1.00  0.00     0.029 A 
ATOM     44  C   UNL A   1      39.861  29.157  29.379  1.00  0.00     0.049 A 
ATOM     45  H   UNL A   1      41.683  28.921  28.395  1.00  0.00     0.167 HD
ATOM     46  C   UNL A   1      45.641  28.127  26.679  1.00  0.00     0.034 A 
ATOM     47  C   UNL A   1      39.899  30.353  30.000  1.00  0.00     0.034 A 
ATOM     48  C   UNL A   1      45.704  29.483  27.155  1.00  0.00     0.049 A 
ATOM     49  C   UNL A   1      41.135  31.208  29.884  1.00  0.00     0.074 A 
ATOM     50  C   UNL A   1      46.745  30.387  27.041  1.00  0.00     0.029 A 
ATOM     51  N   UNL A   1      44.694  30.123  27.855  1.00  0.00    -0.354 N 
ATOM     52  N   UNL A   1      42.251  30.967  29.237  1.00  0.00    -0.248 NA
ATOM     53  C   UNL A   1      41.105  32.517  30.555  1.00  0.00     0.031 C 
ATOM     54  C   UNL A   1      46.375  31.564  27.700  1.00  0.00     0.029 A 
ATOM     55  C   UNL A   1      45.090  31.406  28.192  1.00  0.00     0.049 A 
ATOM     56  H   UNL A   1      43.822  29.723  28.080  1.00  0.00     0.167 HD
ATOM     57  C   UNL A   1      43.036  32.106  29.390  1.00  0.00     0.074 A 
ATOM     58  C   UNL A   1      42.262  33.044  30.176  1.00  0.00     0.031 C 
ATOM     59  C   UNL A   1      44.289  32.350  28.929  1.00  0.00     0.034 A 
BRANCH  46  60
ATOM     60  C   UNL A   1      46.850  27.552  25.988  1.00  0.00     0.023 A 
ATOM     61  C   UNL A   1      46.998  27.707  24.595  1.00  0.00     0.012 A 
ATOM     62  C   UNL A   1      47.857  26.896  26.722  1.00  0.00     0.148 A 
ATOM     63  C   UNL A   1      48.110  27.184  23.936  1.00  0.00     0.002 A 
ATOM     64  C   UNL A   1      48.985  26.419  26.065  1.00  0.00     0.091 A 
ATOM     65  F   UNL A   1      47.688  26.737  28.042  1.00  0.00    -0.205 F 
ATOM     66  C   UNL A   1      49.107  26.550  24.671  1.00  0.00     0.022 A 
BRANCH  64  67
ATOM     67  S   UNL A   1      50.361  25.658  26.933  1.00  0.00     0.127 S 
ATOM     68  O   UNL A   1      51.312  25.437  25.845  1.00  0.00    -0.237 OA
ATOM     69  O   UNL A   1      50.747  26.706  27.877  1.00  0.00    -0.237 OA
ATOM     70  O   UNL A   1      49.827  24.451  27.551  1.00  0.00    -0.744 OA
ENDBRANCH  64  67
ENDBRANCH  46  60
BRANCH  47  71
ATOM     71  C   UNL A   1      38.715  30.827  30.769  1.00  0.00     0.023 A 
ATOM     72  C   UNL A   1      38.677  30.655  32.166  1.00  0.00     0.012 A 
ATOM     73  C   UNL A   1      37.631  31.457  30.125  1.00  0.00     0.148 A 
ATOM     74  C   UNL A   1      37.572  31.075  32.905  1.00  0.00     0.002 A 
ATOM     75  C   UNL A   1      36.556  31.920  30.873  1.00  0.00     0.091 A 
ATOM     76  F   UNL A   1      37.679  31.595  28.792  1.00  0.00    -0.205 F 
ATOM     77  C   UNL A   1      36.516  31.716  32.260  1.00  0.00     0.022 A 
BRANCH  75  78
ATOM     78  S   UNL A   1      35.200  32.848  30.147  1.00  0.00     0.127 S 
ATOM     79  O   UNL A   1      35.890  34.025  29.624  1.00  0.00    -0.237 OA
ATOM     80  O   UNL A   1      34.712  31.919  29.129  1.00  0.00    -0.237 OA
ATOM     81  O   UNL A   1      34.265  33.099  31.235  1.00  0.00    -0.744 OA
ENDBRANCH  75  78
ENDBRANCH  47  71
BRANCH  59  82
ATOM     82  C   UNL A   1      44.895  33.701  29.215  1.00  0.00     0.023 A 
ATOM     83  C   UNL A   1      45.782  33.862  30.298  1.00  0.00     0.012 A 
ATOM     84  C   UNL A   1      44.648  34.793  28.359  1.00  0.00     0.148 A 
ATOM     85  C   UNL A   1      46.386  35.096  30.543  1.00  0.00     0.002 A 
ATOM     86  C   UNL A   1      45.292  36.005  28.578  1.00  0.00     0.091 A 
ATOM     87  F   UNL A   1      43.788  34.626  27.342  1.00  0.00    -0.205 F 
ATOM     88  C   UNL A   1      46.151  36.162  29.677  1.00  0.00     0.022 A 
BRANCH  86  89
ATOM     89  S   UNL A   1      45.128  37.401  27.460  1.00  0.00     0.127 S 
ATOM     90  O   UNL A   1      45.352  38.531  28.359  1.00  0.00    -0.237 OA
ATOM     91  O   UNL A   1      46.208  37.160  26.502  1.00  0.00    -0.237 OA
ATOM     92  O   UNL A   1      43.788  37.309  26.895  1.00  0.00    -0.744 OA
ENDBRANCH  86  89
ENDBRANCH  59  82
ENDBRANCH  33  34
ENDBRANCH  26  28
ENDBRANCH  25  26
ENDBRANCH  24  25
ENDBRANCH  23  24
ENDBRANCH  22  23
ENDBRANCH   1  22
TORSDOF 21
ENDMDL
MODEL 2
REMARK VINA RESULT:     -10.1      5.214     10.550
REMARK SMILES [NH3+][C@@H]1C(=O)N2C(C(=O)OCCOCCOCCOC(=O)c3ccc(-c4c5nc(c(-c6cccc(S(=O)(=O)[O-])c6F)c6ccc([nH]6)c(-c6cccc(S(=O)(=O)[O-])c6F)c6nc(c(-c7cccc(S(=O)(=O)[O-])c7F)c7ccc4[nH]7)C=C6)C=C5)cc3)=CCS[C@@H]12
REMARK SMILES IDX 14 1 13 2 12 3 11 4 10 5 9 6 7 7 8 8 6 9 2 10 3 11 87 12
REMARK SMILES IDX 4 13 5 14 86 15 85 16 84 17 1 18 15 22 16 23 17 24 18 25
REMARK SMILES IDX 19 26 20 27 21 28 22 29 83 30 23 31 82 32 24 33 25 34 26 35
REMARK SMILES IDX 76 36 27 37 81 38 75 39 77 40 28 41 80 42 74 43 73 44 29 46
REMARK SMILES IDX 61 47 41 48 60 49 42 50 45 51 59 52 78 53 43 54 44 55 58 57
REMARK SMILES IDX 79 58 46 59 30 60 31 61 39 62 32 63 34 64 40 65 33 66 35 67
REMARK SMILES IDX 36 68 37 69 38 70 62 71 63 72 71 73 64 74 66 75 72 76 65 77
REMARK SMILES IDX 67 78 68 79 69 80 70 81 47 82 48 83 56 84 49 85 51 86 57 87
REMARK SMILES IDX 50 88 52 89 53 90 54 91 55 92
REMARK H PARENT 1 19 1 20 1 21 77 45 45 56
REMARK Flexibility Score: inf
ROOT
ATOM      1  C   UNL A   1      32.711  29.872  25.372  1.00  0.00     0.188 C 
ENDROOT
BRANCH   1   2
ATOM      2  C   UNL A   1      31.531  29.400  24.493  1.00  0.00     0.188 C 
BRANCH   2   3
ATOM      3  O   UNL A   1      31.591  28.032  24.159  1.00  0.00    -0.376 OA
BRANCH   3   4
ATOM      4  C   UNL A   1      32.555  27.566  23.235  1.00  0.00     0.202 C 
BRANCH   4   5
ATOM      5  C   UNL A   1      32.411  26.290  22.381  1.00  0.00     0.261 C 
BRANCH   5   6
ATOM      6  O   UNL A   1      33.611  25.594  22.045  1.00  0.00    -0.459 OA
BRANCH   6   7
ATOM      7  C   UNL A   1      33.543  24.234  22.044  1.00  0.00     0.354 C 
ATOM      8  O   UNL A   1      33.340  23.519  21.078  1.00  0.00    -0.244 OA
BRANCH   7   9
ATOM      9  C   UNL A   1      33.786  23.729  23.428  1.00  0.00     0.128 C 
ATOM     10  C   UNL A   1      31.347  23.250  25.746  1.00  0.00     0.305 C 
ATOM     11  C   UNL A   1      31.387  23.434  24.171  1.00  0.00     0.289 C 
ATOM     12  C   UNL A   1      32.831  22.809  25.529  1.00  0.00     0.217 C 
ATOM     13  O   UNL A   1      30.603  23.536  23.249  1.00  0.00    -0.267 OA
ATOM     14  N   UNL A   1      32.730  23.457  24.232  1.00  0.00    -0.282 N 
ATOM     15  S   UNL A   1      34.104  23.657  26.498  1.00  0.00    -0.126 SA
ATOM     16  C   UNL A   1      35.420  23.248  25.297  1.00  0.00     0.101 C 
ATOM     17  C   UNL A   1      35.044  23.617  23.889  1.00  0.00     0.018 C 
BRANCH  10  18
ATOM     18  N   UNL A   1      30.552  22.104  26.232  1.00  0.00    -0.345 N 
ATOM     19  H   UNL A   1      29.702  22.019  25.673  1.00  0.00     0.345 HD
ATOM     20  H   UNL A   1      30.303  22.253  27.209  1.00  0.00     0.345 HD
ATOM     21  H   UNL A   1      31.101  21.248  26.146  1.00  0.00     0.345 HD
ENDBRANCH  10  18
ENDBRANCH   7   9
ENDBRANCH   6   7
ENDBRANCH   5   6
ENDBRANCH   4   5
ENDBRANCH   3   4
ENDBRANCH   2   3
ENDBRANCH   1   2
BRANCH   1  22
ATOM     22  O   UNL A   1      32.485  30.408  26.670  1.00  0.00    -0.376 OA
BRANCH  22  23
ATOM     23  C   UNL A   1      31.598  31.511  26.815  1.00  0.00     0.202 C 
BRANCH  23  24
ATOM     24  C   UNL A   1      32.130  32.955  26.880  1.00  0.00     0.261 C 
BRANCH  24  25
ATOM     25  O   UNL A   1      32.615  33.393  28.157  1.00  0.00    -0.460 OA
BRANCH  25  26
ATOM     26  C   UNL A   1      33.758  34.123  28.126  1.00  0.00     0.338 C 
ATOM     27  O   UNL A   1      33.860  35.329  27.972  1.00  0.00    -0.246 OA
BRANCH  26  28
ATOM     28  C   UNL A   1      34.897  33.264  28.504  1.00  0.00     0.060 A 
ATOM     29  C   UNL A   1      34.628  32.036  29.129  1.00  0.00     0.016 A 
ATOM     30  C   UNL A   1      36.211  33.677  28.288  1.00  0.00     0.016 A 
ATOM     31  C   UNL A   1      35.676  31.222  29.552  1.00  0.00     0.010 A 
ATOM     32  C   UNL A   1      37.260  32.871  28.741  1.00  0.00     0.010 A 
ATOM     33  C   UNL A   1      36.996  31.655  29.398  1.00  0.00    -0.014 A 
BRANCH  33  34
ATOM     34  C   UNL A   1      38.092  30.922  30.074  1.00  0.00     0.031 A 
ATOM     35  C   UNL A   1      38.458  31.309  31.481  1.00  0.00     0.074 A 
ATOM     36  C   UNL A   1      38.759  29.939  29.445  1.00  0.00     0.049 A 
ATOM     37  N   UNL A   1      39.411  30.848  32.247  1.00  0.00    -0.248 NA
ATOM     38  C   UNL A   1      37.636  32.360  32.105  1.00  0.00     0.031 C 
ATOM     39  C   UNL A   1      38.493  29.468  28.087  1.00  0.00     0.029 A 
ATOM     40  N   UNL A   1      39.827  29.184  29.863  1.00  0.00    -0.354 N 
ATOM     41  C   UNL A   1      39.326  31.571  33.430  1.00  0.00     0.074 A 
ATOM     42  C   UNL A   1      38.234  32.508  33.279  1.00  0.00     0.031 C 
ATOM     43  C   UNL A   1      39.406  28.533  27.766  1.00  0.00     0.029 A 
ATOM     44  C   UNL A   1      40.330  28.359  28.885  1.00  0.00     0.049 A 
ATOM     45  H   UNL A   1      40.197  29.228  30.775  1.00  0.00     0.167 HD
ATOM     46  C   UNL A   1      40.080  31.458  34.549  1.00  0.00     0.034 A 
ATOM     47  C   UNL A   1      41.429  27.578  28.886  1.00  0.00     0.034 A 
ATOM     48  C   UNL A   1      41.160  30.522  34.701  1.00  0.00     0.049 A 
ATOM     49  C   UNL A   1      42.276  27.494  30.131  1.00  0.00     0.074 A 
ATOM     50  C   UNL A   1      41.955  30.297  35.811  1.00  0.00     0.029 A 
ATOM     51  N   UNL A   1      41.613  29.669  33.707  1.00  0.00    -0.354 N 
ATOM     52  N   UNL A   1      42.111  28.092  31.286  1.00  0.00    -0.248 NA
ATOM     53  C   UNL A   1      43.443  26.599  30.083  1.00  0.00     0.031 C 
ATOM     54  C   UNL A   1      42.909  29.330  35.477  1.00  0.00     0.029 A 
ATOM     55  C   UNL A   1      42.684  28.925  34.171  1.00  0.00     0.049 A 
ATOM     56  H   UNL A   1      41.228  29.601  32.803  1.00  0.00     0.167 HD
ATOM     57  C   UNL A   1      43.126  27.617  32.113  1.00  0.00     0.074 A 
ATOM     58  C   UNL A   1      43.891  26.669  31.330  1.00  0.00     0.031 C 
ATOM     59  C   UNL A   1      43.404  27.945  33.400  1.00  0.00     0.034 A 
BRANCH  46  60
ATOM     60  C   UNL A   1      39.748  32.364  35.707  1.00  0.00     0.023 A 
ATOM     61  C   UNL A   1      40.361  33.629  35.803  1.00  0.00     0.012 A 
ATOM     62  C   UNL A   1      38.800  31.980  36.675  1.00  0.00     0.148 A 
ATOM     63  C   UNL A   1      40.067  34.482  36.865  1.00  0.00     0.002 A 
ATOM     64  C   UNL A   1      38.476  32.855  37.705  1.00  0.00     0.091 A 
ATOM     65  F   UNL A   1      38.244  30.764  36.581  1.00  0.00    -0.205 F 
ATOM     66  C   UNL A   1      39.118  34.101  37.810  1.00  0.00     0.022 A 
BRANCH  64  67
ATOM     67  S   UNL A   1      37.210  32.488  38.925  1.00  0.00     0.127 S 
ATOM     68  O   UNL A   1      37.456  31.072  39.190  1.00  0.00    -0.237 OA
ATOM     69  O   UNL A   1      37.572  33.385  40.023  1.00  0.00    -0.237 OA
ATOM     70  O   UNL A   1      35.937  32.794  38.287  1.00  0.00    -0.744 OA
ENDBRANCH  64  67
ENDBRANCH  46  60
BRANCH  47  71
ATOM     71  C   UNL A   1      41.779  26.788  27.673  1.00  0.00     0.023 A 
ATOM     72  C   UNL A   1      42.338  27.438  26.556  1.00  0.00     0.012 A 
ATOM     73  C   UNL A   1      41.570  25.395  27.624  1.00  0.00     0.148 A 
ATOM     74  C   UNL A   1      42.657  26.723  25.402  1.00  0.00     0.002 A 
ATOM     75  C   UNL A   1      41.938  24.680  26.491  1.00  0.00     0.091 A 
ATOM     76  F   UNL A   1      41.020  24.799  28.691  1.00  0.00    -0.205 F 
ATOM     77  C   UNL A   1      42.467  25.343  25.373  1.00  0.00     0.022 A 
BRANCH  75  78
ATOM     78  S   UNL A   1      41.828  22.890  26.398  1.00  0.00     0.127 S 
ATOM     79  O   UNL A   1      42.584  22.483  27.581  1.00  0.00    -0.237 OA
ATOM     80  O   UNL A   1      40.384  22.673  26.487  1.00  0.00    -0.237 OA
ATOM     81  O   UNL A   1      42.417  22.522  25.119  1.00  0.00    -0.744 OA
ENDBRANCH  75  78
ENDBRANCH  47  71
BRANCH  59  82
ATOM     82  C   UNL A   1      44.558  27.241  34.072  1.00  0.00     0.023 A 
ATOM     83  C   UNL A   1      45.860  27.771  33.977  1.00  0.00     0.012 A 
ATOM     84  C   UNL A   1      44.334  26.099  34.867  1.00  0.00     0.148 A 
ATOM     85  C   UNL A   1      46.926  27.156  34.635  1.00  0.00     0.002 A 
ATOM     86  C   UNL A   1      45.390  25.521  35.561  1.00  0.00     0.091 A 
ATOM     87  F   UNL A   1      43.090  25.599  34.933  1.00  0.00    -0.205 F 
ATOM     88  C   UNL A   1      46.689  26.040  35.435  1.00  0.00     0.022 A 
BRANCH  86  89
ATOM     89  S   UNL A   1      45.163  24.144  36.692  1.00  0.00     0.127 S 
ATOM     90  O   UNL A   1      44.488  23.167  35.840  1.00  0.00    -0.237 OA
ATOM     91  O   UNL A   1      46.542  23.799  37.041  1.00  0.00    -0.237 OA
ATOM     92  O   UNL A   1      44.370  24.660  37.800  1.00  0.00    -0.744 OA
ENDBRANCH  86  89
ENDBRANCH  59  82
ENDBRANCH  33  34
ENDBRANCH  26  28
ENDBRANCH  25  26
ENDBRANCH  24  25
ENDBRANCH  23  24
ENDBRANCH  22  23
ENDBRANCH   1  22
TORSDOF 21
ENDMDL
MODEL 3
REMARK VINA RESULT:      -9.9      1.321      2.006
REMARK SMILES [NH3+][C@@H]1C(=O)N2C(C(=O)OCCOCCOCCOC(=O)c3ccc(-c4c5nc(c(-c6cccc(S(=O)(=O)[O-])c6F)c6ccc([nH]6)c(-c6cccc(S(=O)(=O)[O-])c6F)c6nc(c(-c7cccc(S(=O)(=O)[O-])c7F)c7ccc4[nH]7)C=C6)C=C5)cc3)=CCS[C@@H]12
REMARK SMILES IDX 14 1 13 2 12 3 11 4 10 5 9 6 7 7 8 8 6 9 2 10 3 11 87 12
REMARK SMILES IDX 4 13 5 14 86 15 85 16 84 17 1 18 15 22 16 23 17 24 18 25
REMARK SMILES IDX 19 26 20 27 21 28 22 29 83 30 23 31 82 32 24 33 25 34 26 35
REMARK SMILES IDX 76 36 27 37 81 38 75 39 77 40 28 41 80 42 74 43 73 44 29 46
REMARK SMILES IDX 61 47 41 48 60 49 42 50 45 51 59 52 78 53 43 54 44 55 58 57
REMARK SMILES IDX 79 58 46 59 30 60 31 61 39 62 32 63 34 64 40 65 33 66 35 67
REMARK SMILES IDX 36 68 37 69 38 70 62 71 63 72 71 73 64 74 66 75 72 76 65 77
REMARK SMILES IDX 67 78 68 79 69 80 70 81 47 82 48 83 56 84 49 85 51 86 57 87
REMARK SMILES IDX 50 88 52 89 53 90 54 91 55 92
REMARK H PARENT 1 19 1 20 1 21 77 45 45 56
REMARK Flexibility Score: inf
ROOT
ATOM      1  C   UNL A   1      35.948  21.517  25.422  1.00  0.00     0.188 C 
ENDROOT
BRANCH   1   2
ATOM      2  C   UNL A   1      34.474  21.076  25.565  1.00  0.00     0.188 C 
BRANCH   2   3
ATOM      3  O   UNL A   1      33.619  22.107  26.003  1.00  0.00    -0.376 OA
BRANCH   3   4
ATOM      4  C   UNL A   1      33.758  23.416  25.485  1.00  0.00     0.202 C 
BRANCH   4   5
ATOM      5  C   UNL A   1      32.596  24.410  25.281  1.00  0.00     0.261 C 
BRANCH   5   6
ATOM      6  O   UNL A   1      32.043  25.012  26.452  1.00  0.00    -0.459 OA
BRANCH   6   7
ATOM      7  C   UNL A   1      30.909  25.744  26.278  1.00  0.00     0.354 C 
ATOM      8  O   UNL A   1      29.766  25.321  26.276  1.00  0.00    -0.244 OA
BRANCH   7   9
ATOM      9  C   UNL A   1      31.273  27.183  26.115  1.00  0.00     0.128 C 
ATOM     10  C   UNL A   1      31.870  28.677  23.121  1.00  0.00     0.305 C 
ATOM     11  C   UNL A   1      31.167  27.336  23.593  1.00  0.00     0.289 C 
ATOM     12  C   UNL A   1      31.551  29.121  24.585  1.00  0.00     0.217 C 
ATOM     13  O   UNL A   1      30.660  26.352  23.092  1.00  0.00    -0.267 OA
ATOM     14  N   UNL A   1      31.369  27.708  24.869  1.00  0.00    -0.282 N 
ATOM     15  S   UNL A   1      32.926  29.737  25.590  1.00  0.00    -0.126 SA
ATOM     16  C   UNL A   1      32.077  29.342  27.159  1.00  0.00     0.101 C 
ATOM     17  C   UNL A   1      31.572  27.926  27.195  1.00  0.00     0.018 C 
BRANCH  10  18
ATOM     18  N   UNL A   1      31.096  29.500  22.169  1.00  0.00    -0.345 N 
ATOM     19  H   UNL A   1      31.169  29.097  21.235  1.00  0.00     0.345 HD
ATOM     20  H   UNL A   1      31.467  30.449  22.161  1.00  0.00     0.345 HD
ATOM     21  H   UNL A   1      30.116  29.518  22.456  1.00  0.00     0.345 HD
ENDBRANCH  10  18
ENDBRANCH   7   9
ENDBRANCH   6   7
ENDBRANCH   5   6
ENDBRANCH   4   5
ENDBRANCH   3   4
ENDBRANCH   2   3
ENDBRANCH   1   2
BRANCH   1  22
ATOM     22  O   UNL A   1      36.844  20.805  24.578  1.00  0.00    -0.376 OA
BRANCH  22  23
ATOM     23  C   UNL A   1      37.288  19.514  24.976  1.00  0.00     0.202 C 
BRANCH  23  24
ATOM     24  C   UNL A   1      38.729  19.287  25.471  1.00  0.00     0.261 C 
BRANCH  24  25
ATOM     25  O   UNL A   1      39.529  20.464  25.649  1.00  0.00    -0.460 OA
BRANCH  25  26
ATOM     26  C   UNL A   1      40.368  20.441  26.715  1.00  0.00     0.338 C 
ATOM     27  O   UNL A   1      40.962  19.476  27.168  1.00  0.00    -0.246 OA
BRANCH  26  28
ATOM     28  C   UNL A   1      40.626  21.824  27.163  1.00  0.00     0.060 A 
ATOM     29  C   UNL A   1      39.961  22.872  26.508  1.00  0.00     0.016 A 
ATOM     30  C   UNL A   1      41.541  22.091  28.180  1.00  0.00     0.016 A 
ATOM     31  C   UNL A   1      40.219  24.195  26.861  1.00  0.00     0.010 A 
ATOM     32  C   UNL A   1      41.821  23.420  28.512  1.00  0.00     0.010 A 
ATOM     33  C   UNL A   1      41.182  24.476  27.836  1.00  0.00    -0.014 A 
BRANCH  33  34
ATOM     34  C   UNL A   1      41.644  25.870  28.029  1.00  0.00     0.031 A 
ATOM     35  C   UNL A   1      43.042  26.231  27.604  1.00  0.00     0.074 A 
ATOM     36  C   UNL A   1      40.843  26.796  28.583  1.00  0.00     0.049 A 
ATOM     37  N   UNL A   1      43.677  27.366  27.724  1.00  0.00    -0.248 NA
ATOM     38  C   UNL A   1      43.825  25.165  26.958  1.00  0.00     0.031 C 
ATOM     39  C   UNL A   1      39.468  26.571  29.027  1.00  0.00     0.029 A 
ATOM     40  N   UNL A   1      41.090  28.109  28.899  1.00  0.00    -0.354 N 
ATOM     41  C   UNL A   1      44.945  27.145  27.199  1.00  0.00     0.074 A 
ATOM     42  C   UNL A   1      44.992  25.765  26.768  1.00  0.00     0.031 C 
ATOM     43  C   UNL A   1      39.008  27.697  29.602  1.00  0.00     0.029 A 
ATOM     44  C   UNL A   1      40.062  28.710  29.585  1.00  0.00     0.049 A 
ATOM     45  H   UNL A   1      41.923  28.575  28.657  1.00  0.00     0.167 HD
ATOM     46  C   UNL A   1      45.975  28.015  27.074  1.00  0.00     0.034 A 
ATOM     47  C   UNL A   1      39.994  29.929  30.158  1.00  0.00     0.034 A 
ATOM     48  C   UNL A   1      45.925  29.389  27.497  1.00  0.00     0.049 A 
ATOM     49  C   UNL A   1      41.166  30.869  30.038  1.00  0.00     0.074 A 
ATOM     50  C   UNL A   1      46.899  30.363  27.372  1.00  0.00     0.029 A 
ATOM     51  N   UNL A   1      44.851  29.977  28.145  1.00  0.00    -0.354 N 
ATOM     52  N   UNL A   1      42.314  30.689  29.431  1.00  0.00    -0.248 NA
ATOM     53  C   UNL A   1      41.020  32.197  30.655  1.00  0.00     0.031 C 
ATOM     54  C   UNL A   1      46.424  31.533  27.974  1.00  0.00     0.029 A 
ATOM     55  C   UNL A   1      45.141  31.298  28.440  1.00  0.00     0.049 A 
ATOM     56  H   UNL A   1      44.005  29.522  28.363  1.00  0.00     0.167 HD
ATOM     57  C   UNL A   1      43.008  31.888  29.557  1.00  0.00     0.074 A 
ATOM     58  C   UNL A   1      42.145  32.794  30.285  1.00  0.00     0.031 C 
ATOM     59  C   UNL A   1      44.252  32.207  29.118  1.00  0.00     0.034 A 
BRANCH  46  60
ATOM     60  C   UNL A   1      47.242  27.506  26.437  1.00  0.00     0.023 A 
ATOM     61  C   UNL A   1      47.527  27.827  25.094  1.00  0.00     0.012 A 
ATOM     62  C   UNL A   1      48.169  26.747  27.178  1.00  0.00     0.148 A 
ATOM     63  C   UNL A   1      48.695  27.368  24.487  1.00  0.00     0.002 A 
ATOM     64  C   UNL A   1      49.353  26.333  26.579  1.00  0.00     0.091 A 
ATOM     65  F   UNL A   1      47.870  26.432  28.446  1.00  0.00    -0.205 F 
ATOM     66  C   UNL A   1      49.611  26.630  25.231  1.00  0.00     0.022 A 
BRANCH  64  67
ATOM     67  S   UNL A   1      50.631  25.446  27.475  1.00  0.00     0.127 S 
ATOM     68  O   UNL A   1      49.893  24.288  27.976  1.00  0.00    -0.237 OA
ATOM     69  O   UNL A   1      51.595  25.144  26.417  1.00  0.00    -0.237 OA
ATOM     70  O   UNL A   1      51.118  26.365  28.495  1.00  0.00    -0.744 OA
ENDBRANCH  64  67
ENDBRANCH  46  60
BRANCH  47  71
ATOM     71  C   UNL A   1      38.756  30.342  30.877  1.00  0.00     0.023 A 
ATOM     72  C   UNL A   1      38.585  29.985  32.229  1.00  0.00     0.012 A 
ATOM     73  C   UNL A   1      37.755  31.095  30.233  1.00  0.00     0.148 A 
ATOM     74  C   UNL A   1      37.427  30.346  32.918  1.00  0.00     0.002 A 
ATOM     75  C   UNL A   1      36.628  31.495  30.939  1.00  0.00     0.091 A 
ATOM     76  F   UNL A   1      37.930  31.408  28.941  1.00  0.00    -0.205 F 
ATOM     77  C   UNL A   1      36.454  31.109  32.277  1.00  0.00     0.022 A 
BRANCH  75  78
ATOM     78  S   UNL A   1      35.371  32.565  30.231  1.00  0.00     0.127 S 
ATOM     79  O   UNL A   1      34.778  31.697  29.216  1.00  0.00    -0.237 OA
ATOM     80  O   UNL A   1      34.516  32.829  31.388  1.00  0.00    -0.237 OA
ATOM     81  O   UNL A   1      36.081  33.730  29.725  1.00  0.00    -0.744 OA
ENDBRANCH  75  78
ENDBRANCH  47  71
BRANCH  59  82
ATOM     82  C   UNL A   1      44.748  33.610  29.365  1.00  0.00     0.023 A 
ATOM     83  C   UNL A   1      45.699  33.855  30.376  1.00  0.00     0.012 A 
ATOM     84  C   UNL A   1      44.332  34.673  28.538  1.00  0.00     0.148 A 
ATOM     85  C   UNL A   1      46.202  35.141  30.581  1.00  0.00     0.002 A 
ATOM     86  C   UNL A   1      44.874  35.941  28.714  1.00  0.00     0.091 A 
ATOM     87  F   UNL A   1      43.414  34.425  27.591  1.00  0.00    -0.205 F 
ATOM     88  C   UNL A   1      45.799  36.179  29.743  1.00  0.00     0.022 A 
BRANCH  86  89
ATOM     89  S   UNL A   1      44.490  37.314  27.622  1.00  0.00     0.127 S 
ATOM     90  O   UNL A   1      43.877  38.267  28.546  1.00  0.00    -0.237 OA
ATOM     91  O   UNL A   1      45.814  37.702  27.135  1.00  0.00    -0.237 OA
ATOM     92  O   UNL A   1      43.603  36.779  26.598  1.00  0.00    -0.744 OA
ENDBRANCH  86  89
ENDBRANCH  59  82
ENDBRANCH  33  34
ENDBRANCH  26  28
ENDBRANCH  25  26
ENDBRANCH  24  25
ENDBRANCH  23  24
ENDBRANCH  22  23
ENDBRANCH   1  22
TORSDOF 21
ENDMDL
