MODEL 1
REMARK VINA RESULT:     -10.5      0.000      0.000
REMARK SMILES O=C(OCCOCCOCCOC(=O)c1cc(Br)ccc1OCc1ccccc1F)c1ccc(-c2c3nc(c(-c4cccc(S(=O)(=O)[O-])c4F)c4ccc([nH]4)c(-c4cccc(S(=O)(=O)[O-])c4F)c4nc(c(-c5cccc(S(=O)(=O)[O-])c5F)c5ccc2[nH]5)C=C4)C=C3)cc1
REMARK SMILES IDX 7 1 6 2 5 3 4 4 3 5 2 6 1 7 31 8 32 9 93 10 33 11 92 12
REMARK SMILES IDX 34 13 35 14 36 15 86 16 37 17 91 18 85 19 87 20 38 21 90 22
REMARK SMILES IDX 84 23 83 24 39 26 71 27 51 28 70 29 52 30 55 31 69 32 88 33
REMARK SMILES IDX 53 34 54 35 68 37 89 38 56 39 40 40 41 41 49 42 42 43 44 44
REMARK SMILES IDX 50 45 43 46 45 47 46 48 47 49 48 50 72 51 73 52 81 53 74 54
REMARK SMILES IDX 76 55 82 56 75 57 77 58 78 59 79 60 80 61 57 62 58 63 66 64
REMARK SMILES IDX 59 65 61 66 67 67 60 68 62 69 63 70 64 71 65 72 8 73 9 74
REMARK SMILES IDX 10 75 11 76 12 77 13 78 14 79 15 80 16 81 21 82 17 83 20 84
REMARK SMILES IDX 18 85 19 86 22 87 23 88 24 89 25 90 29 91 26 92 28 93 30 94
REMARK SMILES IDX 27 95
REMARK H PARENT 87 25 55 36
REMARK Flexibility Score: inf
ROOT
ATOM      1  C   UNL A   1      34.680  21.697  25.747  1.00  0.00     0.188 C 
ENDROOT
BRANCH   1   2
ATOM      2  O   UNL A   1      35.885  22.395  25.421  1.00  0.00    -0.376 OA
BRANCH   2   3
ATOM      3  C   UNL A   1      36.602  21.838  24.317  1.00  0.00     0.202 C 
BRANCH   3   4
ATOM      4  C   UNL A   1      37.397  20.557  24.641  1.00  0.00     0.261 C 
BRANCH   4   5
ATOM      5  O   UNL A   1      38.091  20.603  25.911  1.00  0.00    -0.460 OA
BRANCH   5   6
ATOM      6  C   UNL A   1      39.386  20.884  26.175  1.00  0.00     0.338 C 
ATOM      7  O   UNL A   1      40.222  19.986  26.147  1.00  0.00    -0.246 OA
BRANCH   6   8
ATOM      8  C   UNL A   1      39.799  22.241  26.621  1.00  0.00     0.060 A 
ATOM      9  C   UNL A   1      39.167  23.406  26.200  1.00  0.00     0.016 A 
ATOM     10  C   UNL A   1      40.821  22.349  27.576  1.00  0.00     0.016 A 
ATOM     11  C   UNL A   1      39.652  24.658  26.557  1.00  0.00     0.010 A 
ATOM     12  C   UNL A   1      41.267  23.605  28.005  1.00  0.00     0.010 A 
ATOM     13  C   UNL A   1      40.732  24.765  27.432  1.00  0.00    -0.014 A 
BRANCH  13  14
ATOM     14  C   UNL A   1      41.387  26.084  27.574  1.00  0.00     0.031 A 
ATOM     15  C   UNL A   1      40.701  27.129  28.410  1.00  0.00     0.074 A 
ATOM     16  C   UNL A   1      42.630  26.287  27.101  1.00  0.00     0.049 A 
ATOM     17  N   UNL A   1      41.135  28.304  28.774  1.00  0.00    -0.248 NA
ATOM     18  C   UNL A   1      39.362  26.797  28.930  1.00  0.00     0.031 C 
ATOM     19  C   UNL A   1      43.411  25.306  26.346  1.00  0.00     0.029 A 
ATOM     20  N   UNL A   1      43.471  27.365  27.215  1.00  0.00    -0.354 N 
ATOM     21  C   UNL A   1      40.118  28.858  29.541  1.00  0.00     0.074 A 
ATOM     22  C   UNL A   1      39.040  27.900  29.586  1.00  0.00     0.031 C 
ATOM     23  C   UNL A   1      44.625  25.820  26.092  1.00  0.00     0.029 A 
ATOM     24  C   UNL A   1      44.697  27.175  26.621  1.00  0.00     0.049 A 
ATOM     25  H   UNL A   1      43.220  28.196  27.679  1.00  0.00     0.167 HD
ATOM     26  C   UNL A   1      40.093  30.052  30.172  1.00  0.00     0.034 A 
ATOM     27  C   UNL A   1      45.758  27.998  26.515  1.00  0.00     0.034 A 
ATOM     28  C   UNL A   1      41.175  30.989  30.141  1.00  0.00     0.049 A 
ATOM     29  C   UNL A   1      45.678  29.349  27.171  1.00  0.00     0.074 A 
ATOM     30  C   UNL A   1      41.245  32.239  30.723  1.00  0.00     0.029 A 
ATOM     31  N   UNL A   1      42.379  30.777  29.485  1.00  0.00    -0.354 N 
ATOM     32  N   UNL A   1      44.729  29.833  27.936  1.00  0.00    -0.248 NA
ATOM     33  C   UNL A   1      46.814  30.259  26.969  1.00  0.00     0.031 C 
ATOM     34  C   UNL A   1      42.486  32.795  30.401  1.00  0.00     0.029 A 
ATOM     35  C   UNL A   1      43.194  31.882  29.632  1.00  0.00     0.049 A 
ATOM     36  H   UNL A   1      42.616  29.961  28.989  1.00  0.00     0.167 HD
ATOM     37  C   UNL A   1      45.152  31.101  28.312  1.00  0.00     0.074 A 
ATOM     38  C   UNL A   1      46.460  31.297  27.717  1.00  0.00     0.031 C 
ATOM     39  C   UNL A   1      44.508  32.029  29.060  1.00  0.00     0.034 A 
BRANCH  26  40
ATOM     40  C   UNL A   1      38.856  30.397  30.950  1.00  0.00     0.023 A 
ATOM     41  C   UNL A   1      38.727  29.960  32.285  1.00  0.00     0.012 A 
ATOM     42  C   UNL A   1      37.833  31.171  30.369  1.00  0.00     0.148 A 
ATOM     43  C   UNL A   1      37.586  30.271  33.022  1.00  0.00     0.002 A 
ATOM     44  C   UNL A   1      36.714  31.502  31.121  1.00  0.00     0.091 A 
ATOM     45  F   UNL A   1      37.970  31.551  29.091  1.00  0.00    -0.205 F 
ATOM     46  C   UNL A   1      36.585  31.048  32.445  1.00  0.00     0.022 A 
BRANCH  44  47
ATOM     47  S   UNL A   1      35.387  32.532  30.487  1.00  0.00     0.127 S 
ATOM     48  O   UNL A   1      36.094  33.779  30.200  1.00  0.00    -0.237 OA
ATOM     49  O   UNL A   1      34.961  31.785  29.303  1.00  0.00    -0.237 OA
ATOM     50  O   UNL A   1      34.396  32.613  31.550  1.00  0.00    -0.744 OA
ENDBRANCH  44  47
ENDBRANCH  26  40
BRANCH  27  51
ATOM     51  C   UNL A   1      46.987  27.561  25.790  1.00  0.00     0.023 A 
ATOM     52  C   UNL A   1      48.006  26.891  26.494  1.00  0.00     0.012 A 
ATOM     53  C   UNL A   1      47.149  27.793  24.409  1.00  0.00     0.148 A 
ATOM     54  C   UNL A   1      49.166  26.471  25.840  1.00  0.00     0.002 A 
ATOM     55  C   UNL A   1      48.295  27.348  23.757  1.00  0.00     0.091 A 
ATOM     56  F   UNL A   1      46.179  28.450  23.757  1.00  0.00    -0.205 F 
ATOM     57  C   UNL A   1      49.307  26.690  24.471  1.00  0.00     0.022 A 
BRANCH  55  58
ATOM     58  S   UNL A   1      48.524  27.540  21.983  1.00  0.00     0.127 S 
ATOM     59  O   UNL A   1      47.240  28.104  21.577  1.00  0.00    -0.237 OA
ATOM     60  O   UNL A   1      49.651  28.471  21.912  1.00  0.00    -0.237 OA
ATOM     61  O   UNL A   1      48.816  26.203  21.483  1.00  0.00    -0.744 OA
ENDBRANCH  55  58
ENDBRANCH  27  51
BRANCH  39  62
ATOM     62  C   UNL A   1      45.183  33.353  29.272  1.00  0.00     0.023 A 
ATOM     63  C   UNL A   1      44.926  34.404  28.370  1.00  0.00     0.012 A 
ATOM     64  C   UNL A   1      45.925  33.604  30.442  1.00  0.00     0.148 A 
ATOM     65  C   UNL A   1      45.397  35.687  28.630  1.00  0.00     0.002 A 
ATOM     66  C   UNL A   1      46.351  34.896  30.718  1.00  0.00     0.091 A 
ATOM     67  F   UNL A   1      46.167  32.580  31.275  1.00  0.00    -0.205 F 
ATOM     68  C   UNL A   1      46.094  35.937  29.811  1.00  0.00     0.022 A 
BRANCH  66  69
ATOM     69  S   UNL A   1      47.153  35.333  32.265  1.00  0.00     0.127 S 
ATOM     70  O   UNL A   1      46.112  36.119  32.927  1.00  0.00    -0.237 OA
ATOM     71  O   UNL A   1      47.405  34.023  32.864  1.00  0.00    -0.237 OA
ATOM     72  O   UNL A   1      48.354  36.072  31.900  1.00  0.00    -0.744 OA
ENDBRANCH  66  69
ENDBRANCH  39  62
ENDBRANCH  13  14
ENDBRANCH   6   8
ENDBRANCH   5   6
ENDBRANCH   4   5
ENDBRANCH   3   4
ENDBRANCH   2   3
ENDBRANCH   1   2
BRANCH   1  73
ATOM     73  C   UNL A   1      34.312  21.867  27.216  1.00  0.00     0.188 C 
BRANCH  73  74
ATOM     74  O   UNL A   1      33.059  22.494  27.467  1.00  0.00    -0.376 OA
BRANCH  74  75
ATOM     75  C   UNL A   1      32.673  23.496  26.528  1.00  0.00     0.202 C 
BRANCH  75  76
ATOM     76  C   UNL A   1      31.299  24.107  26.801  1.00  0.00     0.261 C 
BRANCH  76  77
ATOM     77  O   UNL A   1      31.345  25.543  26.980  1.00  0.00    -0.460 OA
BRANCH  77  78
ATOM     78  C   UNL A   1      30.559  26.202  26.083  1.00  0.00     0.342 C 
ATOM     79  O   UNL A   1      29.540  25.759  25.575  1.00  0.00    -0.246 OA
BRANCH  78  80
ATOM     80  C   UNL A   1      31.265  27.348  25.482  1.00  0.00     0.103 A 
ATOM     81  C   UNL A   1      32.257  27.821  26.367  1.00  0.00     0.035 A 
ATOM     82  C   UNL A   1      31.246  27.810  24.158  1.00  0.00     0.134 A 
ATOM     83  C   UNL A   1      33.217  28.730  25.948  1.00  0.00     0.019 A 
ATOM     84  C   UNL A   1      32.163  28.822  23.800  1.00  0.00     0.048 A 
ATOM     85  Br  UNL A   1      34.680  29.092  27.076  1.00  0.00    -0.051 Br
ATOM     86  C   UNL A   1      33.151  29.274  24.678  1.00  0.00     0.019 A 
BRANCH  82  87
ATOM     87  O   UNL A   1      30.589  27.388  23.041  1.00  0.00    -0.488 OA
BRANCH  87  88
ATOM     88  C   UNL A   1      31.143  26.550  22.039  1.00  0.00     0.268 C 
BRANCH  88  89
ATOM     89  C   UNL A   1      31.744  25.254  22.520  1.00  0.00     0.025 A 
ATOM     90  C   UNL A   1      30.987  24.162  22.955  1.00  0.00     0.010 A 
ATOM     91  C   UNL A   1      33.130  25.099  22.429  1.00  0.00     0.129 A 
ATOM     92  C   UNL A   1      31.587  22.909  23.113  1.00  0.00     0.001 A 
ATOM     93  C   UNL A   1      33.738  23.860  22.594  1.00  0.00     0.039 A 
ATOM     94  F   UNL A   1      33.893  26.153  22.102  1.00  0.00    -0.207 F 
ATOM     95  C   UNL A   1      32.955  22.751  22.900  1.00  0.00     0.003 A 
ENDBRANCH  88  89
ENDBRANCH  87  88
ENDBRANCH  82  87
ENDBRANCH  78  80
ENDBRANCH  77  78
ENDBRANCH  76  77
ENDBRANCH  75  76
ENDBRANCH  74  75
ENDBRANCH  73  74
ENDBRANCH   1  73
TORSDOF 23
ENDMDL
MODEL 2
REMARK VINA RESULT:     -10.2      2.000      2.231
REMARK SMILES O=C(OCCOCCOCCOC(=O)c1cc(Br)ccc1OCc1ccccc1F)c1ccc(-c2c3nc(c(-c4cccc(S(=O)(=O)[O-])c4F)c4ccc([nH]4)c(-c4cccc(S(=O)(=O)[O-])c4F)c4nc(c(-c5cccc(S(=O)(=O)[O-])c5F)c5ccc2[nH]5)C=C4)C=C3)cc1
REMARK SMILES IDX 7 1 6 2 5 3 4 4 3 5 2 6 1 7 31 8 32 9 93 10 33 11 92 12
REMARK SMILES IDX 34 13 35 14 36 15 86 16 37 17 91 18 85 19 87 20 38 21 90 22
REMARK SMILES IDX 84 23 83 24 39 26 71 27 51 28 70 29 52 30 55 31 69 32 88 33
REMARK SMILES IDX 53 34 54 35 68 37 89 38 56 39 40 40 41 41 49 42 42 43 44 44
REMARK SMILES IDX 50 45 43 46 45 47 46 48 47 49 48 50 72 51 73 52 81 53 74 54
REMARK SMILES IDX 76 55 82 56 75 57 77 58 78 59 79 60 80 61 57 62 58 63 66 64
REMARK SMILES IDX 59 65 61 66 67 67 60 68 62 69 63 70 64 71 65 72 8 73 9 74
REMARK SMILES IDX 10 75 11 76 12 77 13 78 14 79 15 80 16 81 21 82 17 83 20 84
REMARK SMILES IDX 18 85 19 86 22 87 23 88 24 89 25 90 29 91 26 92 28 93 30 94
REMARK SMILES IDX 27 95
REMARK H PARENT 87 25 55 36
REMARK Flexibility Score: inf
ROOT
ATOM      1  C   UNL A   1      34.728  22.082  25.692  1.00  0.00     0.188 C 
ENDROOT
BRANCH   1   2
ATOM      2  O   UNL A   1      35.874  22.827  25.270  1.00  0.00    -0.376 OA
BRANCH   2   3
ATOM      3  C   UNL A   1      36.598  22.224  24.196  1.00  0.00     0.202 C 
BRANCH   3   4
ATOM      4  C   UNL A   1      37.418  20.978  24.586  1.00  0.00     0.261 C 
BRANCH   4   5
ATOM      5  O   UNL A   1      38.058  21.078  25.881  1.00  0.00    -0.460 OA
BRANCH   5   6
ATOM      6  C   UNL A   1      39.345  21.357  26.185  1.00  0.00     0.338 C 
ATOM      7  O   UNL A   1      40.187  20.464  26.150  1.00  0.00    -0.246 OA
BRANCH   6   8
ATOM      8  C   UNL A   1      39.740  22.702  26.683  1.00  0.00     0.060 A 
ATOM      9  C   UNL A   1      39.164  23.883  26.225  1.00  0.00     0.016 A 
ATOM     10  C   UNL A   1      40.678  22.781  27.723  1.00  0.00     0.016 A 
ATOM     11  C   UNL A   1      39.636  25.121  26.639  1.00  0.00     0.010 A 
ATOM     12  C   UNL A   1      41.105  24.024  28.205  1.00  0.00     0.010 A 
ATOM     13  C   UNL A   1      40.639  25.200  27.604  1.00  0.00    -0.014 A 
BRANCH  13  14
ATOM     14  C   UNL A   1      41.299  26.506  27.819  1.00  0.00     0.031 A 
ATOM     15  C   UNL A   1      40.536  27.574  28.552  1.00  0.00     0.074 A 
ATOM     16  C   UNL A   1      42.598  26.678  27.508  1.00  0.00     0.049 A 
ATOM     17  N   UNL A   1      40.945  28.744  28.961  1.00  0.00    -0.248 NA
ATOM     18  C   UNL A   1      39.133  27.276  28.898  1.00  0.00     0.031 C 
ATOM     19  C   UNL A   1      43.447  25.672  26.868  1.00  0.00     0.029 A 
ATOM     20  N   UNL A   1      43.440  27.739  27.722  1.00  0.00    -0.354 N 
ATOM     21  C   UNL A   1      39.851  29.327  29.586  1.00  0.00     0.074 A 
ATOM     22  C   UNL A   1      38.754  28.392  29.500  1.00  0.00     0.031 C 
ATOM     23  C   UNL A   1      44.694  26.159  26.768  1.00  0.00     0.029 A 
ATOM     24  C   UNL A   1      44.728  27.517  27.291  1.00  0.00     0.049 A 
ATOM     25  H   UNL A   1      43.151  28.580  28.143  1.00  0.00     0.167 HD
ATOM     26  C   UNL A   1      39.772  30.528  30.200  1.00  0.00     0.034 A 
ATOM     27  C   UNL A   1      45.812  28.316  27.317  1.00  0.00     0.034 A 
ATOM     28  C   UNL A   1      40.870  31.441  30.301  1.00  0.00     0.049 A 
ATOM     29  C   UNL A   1      45.679  29.675  27.946  1.00  0.00     0.074 A 
ATOM     30  C   UNL A   1      40.892  32.696  30.877  1.00  0.00     0.029 A 
ATOM     31  N   UNL A   1      42.142  31.197  29.807  1.00  0.00    -0.354 N 
ATOM     32  N   UNL A   1      44.651  30.187  28.579  1.00  0.00    -0.248 NA
ATOM     33  C   UNL A   1      46.851  30.559  27.885  1.00  0.00     0.031 C 
ATOM     34  C   UNL A   1      42.177  33.221  30.713  1.00  0.00     0.029 A 
ATOM     35  C   UNL A   1      42.957  32.285  30.048  1.00  0.00     0.049 A 
ATOM     36  H   UNL A   1      42.423  30.370  29.351  1.00  0.00     0.167 HD
ATOM     37  C   UNL A   1      45.050  31.449  28.997  1.00  0.00     0.074 A 
ATOM     38  C   UNL A   1      46.427  31.612  28.574  1.00  0.00     0.031 C 
ATOM     39  C   UNL A   1      44.336  32.398  29.649  1.00  0.00     0.034 A 
BRANCH  26  40
ATOM     40  C   UNL A   1      38.453  30.907  30.810  1.00  0.00     0.023 A 
ATOM     41  C   UNL A   1      38.154  30.506  32.128  1.00  0.00     0.012 A 
ATOM     42  C   UNL A   1      37.522  31.677  30.088  1.00  0.00     0.148 A 
ATOM     43  C   UNL A   1      36.935  30.849  32.711  1.00  0.00     0.002 A 
ATOM     44  C   UNL A   1      36.323  32.041  30.687  1.00  0.00     0.091 A 
ATOM     45  F   UNL A   1      37.821  32.023  28.828  1.00  0.00    -0.205 F 
ATOM     46  C   UNL A   1      36.025  31.622  31.995  1.00  0.00     0.022 A 
BRANCH  44  47
ATOM     47  S   UNL A   1      35.100  33.069  29.868  1.00  0.00     0.127 S 
ATOM     48  O   UNL A   1      35.928  34.163  29.361  1.00  0.00    -0.237 OA
ATOM     49  O   UNL A   1      34.584  32.167  28.839  1.00  0.00    -0.237 OA
ATOM     50  O   UNL A   1      34.137  33.444  30.894  1.00  0.00    -0.744 OA
ENDBRANCH  44  47
ENDBRANCH  26  40
BRANCH  27  51
ATOM     51  C   UNL A   1      47.113  27.846  26.759  1.00  0.00     0.023 A 
ATOM     52  C   UNL A   1      47.420  28.095  25.408  1.00  0.00     0.012 A 
ATOM     53  C   UNL A   1      48.054  27.165  27.559  1.00  0.00     0.148 A 
ATOM     54  C   UNL A   1      48.631  27.665  24.861  1.00  0.00     0.002 A 
ATOM     55  C   UNL A   1      49.271  26.764  27.016  1.00  0.00     0.091 A 
ATOM     56  F   UNL A   1      47.739  26.919  28.839  1.00  0.00    -0.205 F 
ATOM     57  C   UNL A   1      49.560  27.010  25.666  1.00  0.00     0.022 A 
BRANCH  55  58
ATOM     58  S   UNL A   1      50.545  25.966  28.004  1.00  0.00     0.127 S 
ATOM     59  O   UNL A   1      50.731  24.707  27.290  1.00  0.00    -0.237 OA
ATOM     60  O   UNL A   1      51.662  26.905  27.891  1.00  0.00    -0.237 OA
ATOM     61  O   UNL A   1      49.985  25.858  29.346  1.00  0.00    -0.744 OA
ENDBRANCH  55  58
ENDBRANCH  27  51
BRANCH  39  62
ATOM     62  C   UNL A   1      45.008  33.711  29.936  1.00  0.00     0.023 A 
ATOM     63  C   UNL A   1      45.808  33.831  31.090  1.00  0.00     0.012 A 
ATOM     64  C   UNL A   1      44.986  34.753  28.990  1.00  0.00     0.148 A 
ATOM     65  C   UNL A   1      46.578  34.972  31.297  1.00  0.00     0.002 A 
ATOM     66  C   UNL A   1      45.792  35.867  29.181  1.00  0.00     0.091 A 
ATOM     67  F   UNL A   1      44.202  34.616  27.909  1.00  0.00    -0.205 F 
ATOM     68  C   UNL A   1      46.583  35.981  30.335  1.00  0.00     0.022 A 
BRANCH  66  69
ATOM     69  S   UNL A   1      45.952  37.160  27.944  1.00  0.00     0.127 S 
ATOM     70  O   UNL A   1      47.210  37.792  28.337  1.00  0.00    -0.237 OA
ATOM     71  O   UNL A   1      46.014  36.392  26.701  1.00  0.00    -0.237 OA
ATOM     72  O   UNL A   1      44.766  37.995  28.080  1.00  0.00    -0.744 OA
ENDBRANCH  66  69
ENDBRANCH  39  62
ENDBRANCH  13  14
ENDBRANCH   6   8
ENDBRANCH   5   6
ENDBRANCH   4   5
ENDBRANCH   3   4
ENDBRANCH   2   3
ENDBRANCH   1   2
BRANCH   1  73
ATOM     73  C   UNL A   1      34.446  22.279  27.177  1.00  0.00     0.188 C 
BRANCH  73  74
ATOM     74  O   UNL A   1      33.159  22.797  27.494  1.00  0.00    -0.376 OA
BRANCH  74  75
ATOM     75  C   UNL A   1      32.453  23.398  26.410  1.00  0.00     0.202 C 
BRANCH  75  76
ATOM     76  C   UNL A   1      31.175  24.124  26.827  1.00  0.00     0.261 C 
BRANCH  76  77
ATOM     77  O   UNL A   1      31.357  25.555  26.962  1.00  0.00    -0.460 OA
BRANCH  77  78
ATOM     78  C   UNL A   1      30.551  26.261  26.120  1.00  0.00     0.342 C 
ATOM     79  O   UNL A   1      29.545  25.832  25.576  1.00  0.00    -0.246 OA
BRANCH  78  80
ATOM     80  C   UNL A   1      31.224  27.471  25.615  1.00  0.00     0.103 A 
ATOM     81  C   UNL A   1      32.229  27.877  26.518  1.00  0.00     0.035 A 
ATOM     82  C   UNL A   1      31.166  28.057  24.342  1.00  0.00     0.134 A 
ATOM     83  C   UNL A   1      33.164  28.840  26.166  1.00  0.00     0.019 A 
ATOM     84  C   UNL A   1      32.057  29.115  24.061  1.00  0.00     0.048 A 
ATOM     85  Br  UNL A   1      34.648  29.120  27.290  1.00  0.00    -0.051 Br
ATOM     86  C   UNL A   1      33.058  29.500  24.955  1.00  0.00     0.019 A 
BRANCH  82  87
ATOM     87  O   UNL A   1      30.489  27.730  23.205  1.00  0.00    -0.488 OA
BRANCH  87  88
ATOM     88  C   UNL A   1      31.015  26.958  22.138  1.00  0.00     0.268 C 
BRANCH  88  89
ATOM     89  C   UNL A   1      31.752  25.703  22.531  1.00  0.00     0.025 A 
ATOM     90  C   UNL A   1      31.118  24.490  22.819  1.00  0.00     0.010 A 
ATOM     91  C   UNL A   1      33.149  25.726  22.507  1.00  0.00     0.129 A 
ATOM     92  C   UNL A   1      31.862  23.309  22.895  1.00  0.00     0.001 A 
ATOM     93  C   UNL A   1      33.899  24.558  22.591  1.00  0.00     0.039 A 
ATOM     94  F   UNL A   1      33.788  26.890  22.322  1.00  0.00    -0.207 F 
ATOM     95  C   UNL A   1      33.248  23.339  22.748  1.00  0.00     0.003 A 
ENDBRANCH  88  89
ENDBRANCH  87  88
ENDBRANCH  82  87
ENDBRANCH  78  80
ENDBRANCH  77  78
ENDBRANCH  76  77
ENDBRANCH  75  76
ENDBRANCH  74  75
ENDBRANCH  73  74
ENDBRANCH   1  73
TORSDOF 23
ENDMDL
MODEL 3
REMARK VINA RESULT:      -9.9      1.889      2.958
REMARK SMILES O=C(OCCOCCOCCOC(=O)c1cc(Br)ccc1OCc1ccccc1F)c1ccc(-c2c3nc(c(-c4cccc(S(=O)(=O)[O-])c4F)c4ccc([nH]4)c(-c4cccc(S(=O)(=O)[O-])c4F)c4nc(c(-c5cccc(S(=O)(=O)[O-])c5F)c5ccc2[nH]5)C=C4)C=C3)cc1
REMARK SMILES IDX 7 1 6 2 5 3 4 4 3 5 2 6 1 7 31 8 32 9 93 10 33 11 92 12
REMARK SMILES IDX 34 13 35 14 36 15 86 16 37 17 91 18 85 19 87 20 38 21 90 22
REMARK SMILES IDX 84 23 83 24 39 26 71 27 51 28 70 29 52 30 55 31 69 32 88 33
REMARK SMILES IDX 53 34 54 35 68 37 89 38 56 39 40 40 41 41 49 42 42 43 44 44
REMARK SMILES IDX 50 45 43 46 45 47 46 48 47 49 48 50 72 51 73 52 81 53 74 54
REMARK SMILES IDX 76 55 82 56 75 57 77 58 78 59 79 60 80 61 57 62 58 63 66 64
REMARK SMILES IDX 59 65 61 66 67 67 60 68 62 69 63 70 64 71 65 72 8 73 9 74
REMARK SMILES IDX 10 75 11 76 12 77 13 78 14 79 15 80 16 81 21 82 17 83 20 84
REMARK SMILES IDX 18 85 19 86 22 87 23 88 24 89 25 90 29 91 26 92 28 93 30 94
REMARK SMILES IDX 27 95
REMARK H PARENT 87 25 55 36
REMARK Flexibility Score: inf
ROOT
ATOM      1  C   UNL A   1      34.768  21.921  25.574  1.00  0.00     0.188 C 
ENDROOT
BRANCH   1   2
ATOM      2  O   UNL A   1      35.931  22.636  25.145  1.00  0.00    -0.376 OA
BRANCH   2   3
ATOM      3  C   UNL A   1      36.675  21.976  24.118  1.00  0.00     0.202 C 
BRANCH   3   4
ATOM      4  C   UNL A   1      37.455  20.729  24.582  1.00  0.00     0.261 C 
BRANCH   4   5
ATOM      5  O   UNL A   1      38.062  20.870  25.889  1.00  0.00    -0.460 OA
BRANCH   5   6
ATOM      6  C   UNL A   1      39.348  21.121  26.218  1.00  0.00     0.338 C 
ATOM      7  O   UNL A   1      40.158  20.200  26.259  1.00  0.00    -0.246 OA
BRANCH   6   8
ATOM      8  C   UNL A   1      39.775  22.478  26.653  1.00  0.00     0.060 A 
ATOM      9  C   UNL A   1      39.188  23.648  26.183  1.00  0.00     0.016 A 
ATOM     10  C   UNL A   1      40.761  22.583  27.645  1.00  0.00     0.016 A 
ATOM     11  C   UNL A   1      39.687  24.896  26.534  1.00  0.00     0.010 A 
ATOM     12  C   UNL A   1      41.219  23.837  28.066  1.00  0.00     0.010 A 
ATOM     13  C   UNL A   1      40.735  24.997  27.449  1.00  0.00    -0.014 A 
BRANCH  13  14
ATOM     14  C   UNL A   1      41.413  26.304  27.590  1.00  0.00     0.031 A 
ATOM     15  C   UNL A   1      40.743  27.365  28.417  1.00  0.00     0.074 A 
ATOM     16  C   UNL A   1      42.664  26.480  27.125  1.00  0.00     0.049 A 
ATOM     17  N   UNL A   1      41.197  28.533  28.780  1.00  0.00    -0.248 NA
ATOM     18  C   UNL A   1      39.393  27.061  28.929  1.00  0.00     0.031 C 
ATOM     19  C   UNL A   1      43.431  25.481  26.380  1.00  0.00     0.029 A 
ATOM     20  N   UNL A   1      43.525  27.543  27.241  1.00  0.00    -0.354 N 
ATOM     21  C   UNL A   1      40.185  29.110  29.538  1.00  0.00     0.074 A 
ATOM     22  C   UNL A   1      39.088  28.173  29.579  1.00  0.00     0.031 C 
ATOM     23  C   UNL A   1      44.656  25.971  26.132  1.00  0.00     0.029 A 
ATOM     24  C   UNL A   1      44.751  27.326  26.656  1.00  0.00     0.049 A 
ATOM     25  H   UNL A   1      43.287  28.380  27.700  1.00  0.00     0.167 HD
ATOM     26  C   UNL A   1      40.179  30.307  30.164  1.00  0.00     0.034 A 
ATOM     27  C   UNL A   1      45.828  28.128  26.555  1.00  0.00     0.034 A 
ATOM     28  C   UNL A   1      41.280  31.222  30.136  1.00  0.00     0.049 A 
ATOM     29  C   UNL A   1      45.771  29.482  27.204  1.00  0.00     0.074 A 
ATOM     30  C   UNL A   1      41.370  32.473  30.714  1.00  0.00     0.029 A 
ATOM     31  N   UNL A   1      42.483  30.984  29.490  1.00  0.00    -0.354 N 
ATOM     32  N   UNL A   1      44.826  29.988  27.961  1.00  0.00    -0.248 NA
ATOM     33  C   UNL A   1      46.925  30.370  27.007  1.00  0.00     0.031 C 
ATOM     34  C   UNL A   1      42.624  33.003  30.398  1.00  0.00     0.029 A 
ATOM     35  C   UNL A   1      43.319  32.073  29.638  1.00  0.00     0.049 A 
ATOM     36  H   UNL A   1      42.709  30.161  28.999  1.00  0.00     0.167 HD
ATOM     37  C   UNL A   1      45.271  31.249  28.335  1.00  0.00     0.074 A 
ATOM     38  C   UNL A   1      46.586  31.417  27.749  1.00  0.00     0.031 C 
ATOM     39  C   UNL A   1      44.640  32.192  29.075  1.00  0.00     0.034 A 
BRANCH  26  40
ATOM     40  C   UNL A   1      38.944  30.679  30.932  1.00  0.00     0.023 A 
ATOM     41  C   UNL A   1      38.863  30.382  32.308  1.00  0.00     0.012 A 
ATOM     42  C   UNL A   1      37.875  31.340  30.298  1.00  0.00     0.148 A 
ATOM     43  C   UNL A   1      37.724  30.720  33.037  1.00  0.00     0.002 A 
ATOM     44  C   UNL A   1      36.758  31.702  31.039  1.00  0.00     0.091 A 
ATOM     45  F   UNL A   1      37.968  31.587  28.984  1.00  0.00    -0.205 F 
ATOM     46  C   UNL A   1      36.677  31.386  32.406  1.00  0.00     0.022 A 
BRANCH  44  47
ATOM     47  S   UNL A   1      35.371  32.598  30.332  1.00  0.00     0.127 S 
ATOM     48  O   UNL A   1      34.397  32.539  31.422  1.00  0.00    -0.237 OA
ATOM     49  O   UNL A   1      35.950  33.921  30.101  1.00  0.00    -0.237 OA
ATOM     50  O   UNL A   1      34.996  31.874  29.126  1.00  0.00    -0.744 OA
ENDBRANCH  44  47
ENDBRANCH  26  40
BRANCH  27  51
ATOM     51  C   UNL A   1      47.054  27.664  25.840  1.00  0.00     0.023 A 
ATOM     52  C   UNL A   1      48.052  26.973  26.552  1.00  0.00     0.012 A 
ATOM     53  C   UNL A   1      47.232  27.892  24.460  1.00  0.00     0.148 A 
ATOM     54  C   UNL A   1      49.209  26.528  25.908  1.00  0.00     0.002 A 
ATOM     55  C   UNL A   1      48.374  27.422  23.817  1.00  0.00     0.091 A 
ATOM     56  F   UNL A   1      46.281  28.569  23.800  1.00  0.00    -0.205 F 
ATOM     57  C   UNL A   1      49.365  26.742  24.541  1.00  0.00     0.022 A 
BRANCH  55  58
ATOM     58  S   UNL A   1      48.621  27.607  22.045  1.00  0.00     0.127 S 
ATOM     59  O   UNL A   1      49.774  28.502  21.998  1.00  0.00    -0.237 OA
ATOM     60  O   UNL A   1      48.894  26.233  21.623  1.00  0.00    -0.237 OA
ATOM     61  O   UNL A   1      47.371  28.156  21.535  1.00  0.00    -0.744 OA
ENDBRANCH  55  58
ENDBRANCH  27  51
BRANCH  39  62
ATOM     62  C   UNL A   1      45.339  33.504  29.286  1.00  0.00     0.023 A 
ATOM     63  C   UNL A   1      46.128  33.680  30.440  1.00  0.00     0.012 A 
ATOM     64  C   UNL A   1      45.352  34.484  28.276  1.00  0.00     0.148 A 
ATOM     65  C   UNL A   1      46.923  34.813  30.584  1.00  0.00     0.002 A 
ATOM     66  C   UNL A   1      46.182  35.589  28.405  1.00  0.00     0.091 A 
ATOM     67  F   UNL A   1      44.578  34.297  27.196  1.00  0.00    -0.205 F 
ATOM     68  C   UNL A   1      46.963  35.759  29.560  1.00  0.00     0.022 A 
BRANCH  66  69
ATOM     69  S   UNL A   1      46.387  36.797  27.091  1.00  0.00     0.127 S 
ATOM     70  O   UNL A   1      46.542  35.937  25.919  1.00  0.00    -0.237 OA
ATOM     71  O   UNL A   1      45.124  37.533  27.149  1.00  0.00    -0.237 OA
ATOM     72  O   UNL A   1      47.561  37.583  27.447  1.00  0.00    -0.744 OA
ENDBRANCH  66  69
ENDBRANCH  39  62
ENDBRANCH  13  14
ENDBRANCH   6   8
ENDBRANCH   5   6
ENDBRANCH   4   5
ENDBRANCH   3   4
ENDBRANCH   2   3
ENDBRANCH   1   2
BRANCH   1  73
ATOM     73  C   UNL A   1      34.403  22.257  27.015  1.00  0.00     0.188 C 
BRANCH  73  74
ATOM     74  O   UNL A   1      33.017  22.462  27.266  1.00  0.00    -0.376 OA
BRANCH  74  75
ATOM     75  C   UNL A   1      32.159  22.314  26.136  1.00  0.00     0.202 C 
BRANCH  75  76
ATOM     76  C   UNL A   1      30.839  23.075  26.255  1.00  0.00     0.261 C 
BRANCH  76  77
ATOM     77  O   UNL A   1      30.913  24.420  25.725  1.00  0.00    -0.460 OA
BRANCH  77  78
ATOM     78  C   UNL A   1      30.815  24.447  24.366  1.00  0.00     0.342 C 
ATOM     79  O   UNL A   1      30.093  23.727  23.694  1.00  0.00    -0.246 OA
BRANCH  78  80
ATOM     80  C   UNL A   1      31.952  25.158  23.755  1.00  0.00     0.103 A 
ATOM     81  C   UNL A   1      31.973  24.929  22.363  1.00  0.00     0.035 A 
ATOM     82  C   UNL A   1      32.781  26.149  24.303  1.00  0.00     0.134 A 
ATOM     83  C   UNL A   1      32.793  25.672  21.526  1.00  0.00     0.019 A 
ATOM     84  C   UNL A   1      33.687  26.802  23.439  1.00  0.00     0.048 A 
ATOM     85  Br  UNL A   1      32.559  25.530  19.664  1.00  0.00    -0.051 Br
ATOM     86  C   UNL A   1      33.690  26.580  22.060  1.00  0.00     0.019 A 
BRANCH  82  87
ATOM     87  O   UNL A   1      32.821  26.747  25.527  1.00  0.00    -0.488 OA
BRANCH  87  88
ATOM     88  C   UNL A   1      31.730  27.411  26.144  1.00  0.00     0.268 C 
BRANCH  88  89
ATOM     89  C   UNL A   1      31.546  28.861  25.777  1.00  0.00     0.025 A 
ATOM     90  C   UNL A   1      30.883  29.290  24.623  1.00  0.00     0.010 A 
ATOM     91  C   UNL A   1      31.972  29.830  26.690  1.00  0.00     0.129 A 
ATOM     92  C   UNL A   1      30.501  30.629  24.488  1.00  0.00     0.001 A 
ATOM     93  C   UNL A   1      31.605  31.165  26.561  1.00  0.00     0.039 A 
ATOM     94  F   UNL A   1      32.689  29.459  27.761  1.00  0.00    -0.207 F 
ATOM     95  C   UNL A   1      30.833  31.558  25.473  1.00  0.00     0.003 A 
ENDBRANCH  88  89
ENDBRANCH  87  88
ENDBRANCH  82  87
ENDBRANCH  78  80
ENDBRANCH  77  78
ENDBRANCH  76  77
ENDBRANCH  75  76
ENDBRANCH  74  75
ENDBRANCH  73  74
ENDBRANCH   1  73
TORSDOF 23
ENDMDL
