MODEL 1
REMARK VINA RESULT:     -11.4      0.000      0.000
REMARK SMILES CC1=C(C)C[C@@H](C(=O)OCCOCCOCCOC(=O)c2ccc(-c3c4nc(c(-c5cccc(S(=O)(=O)[O-])c5F)c5ccc([nH]5)c(-c5cccc(S(=O)(=O)[O-])c5F)c5nc(c(-c6cccc(S(=O)(=O)[O-])c6F)c6ccc3[nH]6)C=C5)C=C4)cc2)[C@@H](C(=O)N2CCN(c3cccc(C(F)(F)F)c3)CC2)C1
REMARK SMILES IDX 13 1 12 2 11 3 10 4 9 5 7 6 8 7 6 8 1 9 2 10 3 11 103 12
REMARK SMILES IDX 4 13 5 14 84 15 85 16 86 17 87 18 88 19 102 20 89 21 101 22
REMARK SMILES IDX 90 23 91 24 92 25 100 26 93 27 95 28 94 29 96 30 97 31 98 32
REMARK SMILES IDX 99 33 14 34 15 35 16 36 17 37 18 38 19 39 20 40 21 41 22 42
REMARK SMILES IDX 83 43 23 44 82 45 24 46 25 47 26 48 76 49 27 50 81 51 75 52
REMARK SMILES IDX 77 53 28 54 80 55 74 56 73 57 29 59 61 60 41 61 60 62 42 63
REMARK SMILES IDX 45 64 59 65 78 66 43 67 44 68 58 70 79 71 46 72 30 73 31 74
REMARK SMILES IDX 39 75 32 76 34 77 40 78 33 79 35 80 36 81 37 82 38 83 62 84
REMARK SMILES IDX 63 85 71 86 64 87 66 88 72 89 65 90 67 91 68 92 69 93 70 94
REMARK SMILES IDX 47 95 48 96 56 97 49 98 51 99 57 100 50 101 52 102 53 103
REMARK SMILES IDX 54 104 55 105
REMARK H PARENT 77 58 45 69
REMARK Flexibility Score: inf
ROOT
ATOM      1  C   UNL A   1      34.224  21.546  27.060  1.00  0.00     0.188 C 
ENDROOT
BRANCH   1   2
ATOM      2  O   UNL A   1      33.060  22.283  27.408  1.00  0.00    -0.376 OA
BRANCH   2   3
ATOM      3  C   UNL A   1      32.343  22.856  26.308  1.00  0.00     0.202 C 
BRANCH   3   4
ATOM      4  C   UNL A   1      32.375  24.387  26.275  1.00  0.00     0.261 C 
BRANCH   4   5
ATOM      5  O   UNL A   1      31.566  24.839  25.172  1.00  0.00    -0.463 OA
BRANCH   5   6
ATOM      6  C   UNL A   1      30.657  25.799  25.400  1.00  0.00     0.310 C 
ATOM      7  O   UNL A   1      29.921  25.821  26.384  1.00  0.00    -0.252 OA
BRANCH   6   8
ATOM      8  C   UNL A   1      30.643  26.929  24.378  1.00  0.00     0.116 C 
ATOM      9  C   UNL A   1      34.110  28.125  22.020  1.00  0.00     0.039 C 
ATOM     10  C   UNL A   1      32.749  27.737  22.516  1.00  0.00    -0.074 C 
ATOM     11  C   UNL A   1      32.218  26.501  22.428  1.00  0.00    -0.073 C 
ATOM     12  C   UNL A   1      31.953  28.806  23.229  1.00  0.00     0.045 C 
ATOM     13  C   UNL A   1      32.871  25.289  21.834  1.00  0.00     0.039 C 
ATOM     14  C   UNL A   1      30.842  26.276  22.996  1.00  0.00     0.046 C 
ATOM     15  C   UNL A   1      31.397  28.285  24.572  1.00  0.00     0.097 C 
BRANCH  15  16
ATOM     16  C   UNL A   1      32.563  28.386  25.560  1.00  0.00     0.227 C 
ATOM     17  O   UNL A   1      33.656  27.864  25.322  1.00  0.00    -0.275 OA
ATOM     18  N   UNL A   1      32.412  29.204  26.677  1.00  0.00    -0.339 N 
ATOM     19  C   UNL A   1      33.517  29.251  27.631  1.00  0.00     0.141 C 
ATOM     20  C   UNL A   1      31.479  30.332  26.860  1.00  0.00     0.141 C 
ATOM     21  C   UNL A   1      34.359  30.501  27.345  1.00  0.00     0.138 C 
ATOM     22  C   UNL A   1      32.213  31.703  26.783  1.00  0.00     0.138 C 
ATOM     23  N   UNL A   1      33.507  31.694  27.494  1.00  0.00    -0.368 N 
BRANCH  23  24
ATOM     24  C   UNL A   1      33.896  32.667  28.389  1.00  0.00     0.037 A 
ATOM     25  C   UNL A   1      34.538  32.311  29.585  1.00  0.00     0.026 A 
ATOM     26  C   UNL A   1      33.583  34.015  28.190  1.00  0.00     0.039 A 
ATOM     27  C   UNL A   1      34.842  33.258  30.563  1.00  0.00     0.003 A 
ATOM     28  C   UNL A   1      33.851  34.981  29.179  1.00  0.00     0.058 A 
ATOM     29  C   UNL A   1      34.490  34.588  30.365  1.00  0.00     0.013 A 
BRANCH  28  30
ATOM     30  C   UNL A   1      33.431  36.417  29.003  1.00  0.00     0.416 C 
ATOM     31  F   UNL A   1      34.212  37.075  28.098  1.00  0.00    -0.166 F 
ATOM     32  F   UNL A   1      32.155  36.533  28.539  1.00  0.00    -0.166 F 
ATOM     33  F   UNL A   1      33.485  37.156  30.144  1.00  0.00    -0.166 F 
ENDBRANCH  28  30
ENDBRANCH  23  24
ENDBRANCH  15  16
ENDBRANCH   6   8
ENDBRANCH   5   6
ENDBRANCH   4   5
ENDBRANCH   3   4
ENDBRANCH   2   3
ENDBRANCH   1   2
BRANCH   1  34
ATOM     34  C   UNL A   1      34.146  20.852  25.710  1.00  0.00     0.188 C 
BRANCH  34  35
ATOM     35  O   UNL A   1      35.134  21.289  24.775  1.00  0.00    -0.376 OA
BRANCH  35  36
ATOM     36  C   UNL A   1      36.413  20.687  24.999  1.00  0.00     0.202 C 
BRANCH  36  37
ATOM     37  C   UNL A   1      37.570  21.667  24.760  1.00  0.00     0.261 C 
BRANCH  37  38
ATOM     38  O   UNL A   1      38.054  22.189  26.010  1.00  0.00    -0.460 OA
BRANCH  38  39
ATOM     39  C   UNL A   1      39.319  21.836  26.345  1.00  0.00     0.338 C 
ATOM     40  O   UNL A   1      39.869  20.769  26.118  1.00  0.00    -0.246 OA
BRANCH  39  41
ATOM     41  C   UNL A   1      40.040  23.023  26.863  1.00  0.00     0.060 A 
ATOM     42  C   UNL A   1      39.716  24.276  26.320  1.00  0.00     0.016 A 
ATOM     43  C   UNL A   1      40.977  22.926  27.894  1.00  0.00     0.016 A 
ATOM     44  C   UNL A   1      40.359  25.428  26.775  1.00  0.00     0.010 A 
ATOM     45  C   UNL A   1      41.626  24.078  28.343  1.00  0.00     0.010 A 
ATOM     46  C   UNL A   1      41.349  25.326  27.757  1.00  0.00    -0.014 A 
BRANCH  46  47
ATOM     47  C   UNL A   1      42.266  26.460  28.013  1.00  0.00     0.031 A 
ATOM     48  C   UNL A   1      41.724  27.632  28.785  1.00  0.00     0.074 A 
ATOM     49  C   UNL A   1      43.525  26.475  27.543  1.00  0.00     0.049 A 
ATOM     50  N   UNL A   1      42.280  28.783  29.049  1.00  0.00    -0.248 NA
ATOM     51  C   UNL A   1      40.358  27.488  29.321  1.00  0.00     0.031 C 
ATOM     52  C   UNL A   1      44.163  25.398  26.788  1.00  0.00     0.029 A 
ATOM     53  N   UNL A   1      44.481  27.459  27.602  1.00  0.00    -0.354 N 
ATOM     54  C   UNL A   1      41.324  29.513  29.744  1.00  0.00     0.074 A 
ATOM     55  C   UNL A   1      40.148  28.680  29.855  1.00  0.00     0.031 C 
ATOM     56  C   UNL A   1      45.394  25.795  26.420  1.00  0.00     0.029 A 
ATOM     57  C   UNL A   1      45.619  27.163  26.889  1.00  0.00     0.049 A 
ATOM     58  H   UNL A   1      44.363  28.297  28.107  1.00  0.00     0.167 HD
ATOM     59  C   UNL A   1      41.418  30.762  30.255  1.00  0.00     0.034 A 
ATOM     60  C   UNL A   1      46.700  27.922  26.623  1.00  0.00     0.034 A 
ATOM     61  C   UNL A   1      42.592  31.581  30.156  1.00  0.00     0.049 A 
ATOM     62  C   UNL A   1      46.773  29.321  27.187  1.00  0.00     0.074 A 
ATOM     63  C   UNL A   1      42.806  32.844  30.678  1.00  0.00     0.029 A 
ATOM     64  N   UNL A   1      43.747  31.224  29.479  1.00  0.00    -0.354 N 
ATOM     65  N   UNL A   1      45.907  29.956  27.940  1.00  0.00    -0.248 NA
ATOM     66  C   UNL A   1      47.988  30.095  26.890  1.00  0.00     0.031 C 
ATOM     67  C   UNL A   1      44.083  33.262  30.293  1.00  0.00     0.029 A 
ATOM     68  C   UNL A   1      44.676  32.245  29.559  1.00  0.00     0.049 A 
ATOM     69  H   UNL A   1      43.885  30.370  29.009  1.00  0.00     0.167 HD
ATOM     70  C   UNL A   1      46.488  31.186  28.238  1.00  0.00     0.074 A 
ATOM     71  C   UNL A   1      47.787  31.199  27.598  1.00  0.00     0.031 C 
ATOM     72  C   UNL A   1      45.988  32.217  28.964  1.00  0.00     0.034 A 
BRANCH  59  73
ATOM     73  C   UNL A   1      40.217  31.307  30.981  1.00  0.00     0.023 A 
ATOM     74  C   UNL A   1      39.206  31.974  30.259  1.00  0.00     0.012 A 
ATOM     75  C   UNL A   1      40.073  31.129  32.371  1.00  0.00     0.148 A 
ATOM     76  C   UNL A   1      38.087  32.485  30.914  1.00  0.00     0.002 A 
ATOM     77  C   UNL A   1      38.933  31.601  33.008  1.00  0.00     0.091 A 
ATOM     78  F   UNL A   1      41.059  30.517  33.042  1.00  0.00    -0.205 F 
ATOM     79  C   UNL A   1      37.945  32.289  32.285  1.00  0.00     0.022 A 
BRANCH  77  80
ATOM     80  S   UNL A   1      38.621  31.332  34.756  1.00  0.00     0.127 S 
ATOM     81  O   UNL A   1      37.258  31.845  34.895  1.00  0.00    -0.237 OA
ATOM     82  O   UNL A   1      38.739  29.879  34.870  1.00  0.00    -0.237 OA
ATOM     83  O   UNL A   1      39.645  32.083  35.468  1.00  0.00    -0.744 OA
ENDBRANCH  77  80
ENDBRANCH  59  73
BRANCH  60  84
ATOM     84  C   UNL A   1      47.819  27.374  25.806  1.00  0.00     0.023 A 
ATOM     85  C   UNL A   1      48.790  26.556  26.415  1.00  0.00     0.012 A 
ATOM     86  C   UNL A   1      47.926  27.654  24.429  1.00  0.00     0.148 A 
ATOM     87  C   UNL A   1      49.863  26.053  25.678  1.00  0.00     0.002 A 
ATOM     88  C   UNL A   1      48.969  27.106  23.689  1.00  0.00     0.091 A 
ATOM     89  F   UNL A   1      47.003  28.450  23.870  1.00  0.00    -0.205 F 
ATOM     90  C   UNL A   1      49.947  26.319  24.315  1.00  0.00     0.022 A 
BRANCH  88  91
ATOM     91  S   UNL A   1      49.093  27.300  21.907  1.00  0.00     0.127 S 
ATOM     92  O   UNL A   1      48.398  28.566  21.695  1.00  0.00    -0.237 OA
ATOM     93  O   UNL A   1      50.543  27.353  21.712  1.00  0.00    -0.237 OA
ATOM     94  O   UNL A   1      48.452  26.123  21.338  1.00  0.00    -0.744 OA
ENDBRANCH  88  91
ENDBRANCH  60  84
BRANCH  72  95
ATOM     95  C   UNL A   1      46.859  33.432  29.155  1.00  0.00     0.023 A 
ATOM     96  C   UNL A   1      47.771  33.483  30.227  1.00  0.00     0.012 A 
ATOM     97  C   UNL A   1      46.834  34.483  28.217  1.00  0.00     0.148 A 
ATOM     98  C   UNL A   1      48.623  34.577  30.381  1.00  0.00     0.002 A 
ATOM     99  C   UNL A   1      47.721  35.545  28.347  1.00  0.00     0.091 A 
ATOM    100  F   UNL A   1      45.949  34.423  27.212  1.00  0.00    -0.205 F 
ATOM    101  C   UNL A   1      48.606  35.600  29.435  1.00  0.00     0.022 A 
BRANCH  99 102
ATOM    102  S   UNL A   1      47.841  36.854  27.123  1.00  0.00     0.127 S 
ATOM    103  O   UNL A   1      48.107  36.096  25.901  1.00  0.00    -0.237 OA
ATOM    104  O   UNL A   1      46.511  37.462  27.186  1.00  0.00    -0.237 OA
ATOM    105  O   UNL A   1      48.923  37.723  27.568  1.00  0.00    -0.744 OA
ENDBRANCH  99 102
ENDBRANCH  72  95
ENDBRANCH  46  47
ENDBRANCH  39  41
ENDBRANCH  38  39
ENDBRANCH  37  38
ENDBRANCH  36  37
ENDBRANCH  35  36
ENDBRANCH  34  35
ENDBRANCH   1  34
TORSDOF 23
ENDMDL
MODEL 2
REMARK VINA RESULT:     -11.3      1.622      7.264
REMARK SMILES CC1=C(C)C[C@@H](C(=O)OCCOCCOCCOC(=O)c2ccc(-c3c4nc(c(-c5cccc(S(=O)(=O)[O-])c5F)c5ccc([nH]5)c(-c5cccc(S(=O)(=O)[O-])c5F)c5nc(c(-c6cccc(S(=O)(=O)[O-])c6F)c6ccc3[nH]6)C=C5)C=C4)cc2)[C@@H](C(=O)N2CCN(c3cccc(C(F)(F)F)c3)CC2)C1
REMARK SMILES IDX 13 1 12 2 11 3 10 4 9 5 7 6 8 7 6 8 1 9 2 10 3 11 103 12
REMARK SMILES IDX 4 13 5 14 84 15 85 16 86 17 87 18 88 19 102 20 89 21 101 22
REMARK SMILES IDX 90 23 91 24 92 25 100 26 93 27 95 28 94 29 96 30 97 31 98 32
REMARK SMILES IDX 99 33 14 34 15 35 16 36 17 37 18 38 19 39 20 40 21 41 22 42
REMARK SMILES IDX 83 43 23 44 82 45 24 46 25 47 26 48 76 49 27 50 81 51 75 52
REMARK SMILES IDX 77 53 28 54 80 55 74 56 73 57 29 59 61 60 41 61 60 62 42 63
REMARK SMILES IDX 45 64 59 65 78 66 43 67 44 68 58 70 79 71 46 72 30 73 31 74
REMARK SMILES IDX 39 75 32 76 34 77 40 78 33 79 35 80 36 81 37 82 38 83 62 84
REMARK SMILES IDX 63 85 71 86 64 87 66 88 72 89 65 90 67 91 68 92 69 93 70 94
REMARK SMILES IDX 47 95 48 96 56 97 49 98 51 99 57 100 50 101 52 102 53 103
REMARK SMILES IDX 54 104 55 105
REMARK H PARENT 77 58 45 69
REMARK Flexibility Score: inf
ROOT
ATOM      1  C   UNL A   1      34.452  21.772  27.062  1.00  0.00     0.188 C 
ENDROOT
BRANCH   1   2
ATOM      2  O   UNL A   1      33.100  22.202  27.147  1.00  0.00    -0.376 OA
BRANCH   2   3
ATOM      3  C   UNL A   1      32.498  22.586  25.905  1.00  0.00     0.202 C 
BRANCH   3   4
ATOM      4  C   UNL A   1      32.666  24.069  25.565  1.00  0.00     0.261 C 
BRANCH   4   5
ATOM      5  O   UNL A   1      31.460  24.532  24.925  1.00  0.00    -0.463 OA
BRANCH   5   6
ATOM      6  C   UNL A   1      30.781  25.538  25.498  1.00  0.00     0.310 C 
ATOM      7  O   UNL A   1      30.323  25.488  26.637  1.00  0.00    -0.252 OA
BRANCH   6   8
ATOM      8  C   UNL A   1      30.673  26.804  24.658  1.00  0.00     0.116 C 
ATOM      9  C   UNL A   1      33.864  28.307  22.095  1.00  0.00     0.039 C 
ATOM     10  C   UNL A   1      32.563  27.860  22.690  1.00  0.00    -0.074 C 
ATOM     11  C   UNL A   1      31.996  26.653  22.491  1.00  0.00    -0.073 C 
ATOM     12  C   UNL A   1      31.882  28.819  23.641  1.00  0.00     0.045 C 
ATOM     13  C   UNL A   1      32.545  25.536  21.655  1.00  0.00     0.039 C 
ATOM     14  C   UNL A   1      30.692  26.357  23.183  1.00  0.00     0.046 C 
ATOM     15  C   UNL A   1      31.477  28.113  24.952  1.00  0.00     0.097 C 
BRANCH  15  16
ATOM     16  C   UNL A   1      32.754  28.061  25.796  1.00  0.00     0.227 C 
ATOM     17  O   UNL A   1      33.722  27.374  25.459  1.00  0.00    -0.275 OA
ATOM     18  N   UNL A   1      32.859  28.922  26.886  1.00  0.00    -0.339 N 
ATOM     19  C   UNL A   1      34.064  28.826  27.706  1.00  0.00     0.141 C 
ATOM     20  C   UNL A   1      32.131  30.184  27.124  1.00  0.00     0.141 C 
ATOM     21  C   UNL A   1      35.041  29.926  27.272  1.00  0.00     0.138 C 
ATOM     22  C   UNL A   1      33.045  31.425  26.904  1.00  0.00     0.138 C 
ATOM     23  N   UNL A   1      34.398  31.238  27.463  1.00  0.00    -0.368 N 
BRANCH  23  24
ATOM     24  C   UNL A   1      35.030  32.164  28.265  1.00  0.00     0.037 A 
ATOM     25  C   UNL A   1      36.334  32.585  27.966  1.00  0.00     0.026 A 
ATOM     26  C   UNL A   1      34.442  32.638  29.443  1.00  0.00     0.039 A 
ATOM     27  C   UNL A   1      37.043  33.432  28.819  1.00  0.00     0.003 A 
ATOM     28  C   UNL A   1      35.153  33.467  30.331  1.00  0.00     0.058 A 
ATOM     29  C   UNL A   1      36.458  33.864  30.003  1.00  0.00     0.013 A 
BRANCH  28  30
ATOM     30  C   UNL A   1      34.552  33.902  31.643  1.00  0.00     0.416 C 
ATOM     31  F   UNL A   1      33.476  34.722  31.470  1.00  0.00    -0.166 F 
ATOM     32  F   UNL A   1      34.097  32.851  32.381  1.00  0.00    -0.166 F 
ATOM     33  F   UNL A   1      35.411  34.584  32.448  1.00  0.00    -0.166 F 
ENDBRANCH  28  30
ENDBRANCH  23  24
ENDBRANCH  15  16
ENDBRANCH   6   8
ENDBRANCH   5   6
ENDBRANCH   4   5
ENDBRANCH   3   4
ENDBRANCH   2   3
ENDBRANCH   1   2
BRANCH   1  34
ATOM     34  C   UNL A   1      34.798  21.040  25.777  1.00  0.00     0.188 C 
BRANCH  34  35
ATOM     35  O   UNL A   1      36.121  21.296  25.301  1.00  0.00    -0.376 OA
BRANCH  35  36
ATOM     36  C   UNL A   1      36.811  20.103  24.916  1.00  0.00     0.202 C 
BRANCH  36  37
ATOM     37  C   UNL A   1      38.334  20.240  25.049  1.00  0.00     0.261 C 
BRANCH  37  38
ATOM     38  O   UNL A   1      38.667  21.338  25.916  1.00  0.00    -0.460 OA
BRANCH  38  39
ATOM     39  C   UNL A   1      39.879  21.265  26.519  1.00  0.00     0.338 C 
ATOM     40  O   UNL A   1      40.645  20.313  26.518  1.00  0.00    -0.246 OA
BRANCH  39  41
ATOM     41  C   UNL A   1      40.256  22.604  27.030  1.00  0.00     0.060 A 
ATOM     42  C   UNL A   1      39.487  23.704  26.619  1.00  0.00     0.016 A 
ATOM     43  C   UNL A   1      41.305  22.782  27.935  1.00  0.00     0.016 A 
ATOM     44  C   UNL A   1      39.792  24.987  27.074  1.00  0.00     0.010 A 
ATOM     45  C   UNL A   1      41.615  24.067  28.384  1.00  0.00     0.010 A 
ATOM     46  C   UNL A   1      40.886  25.178  27.923  1.00  0.00    -0.014 A 
BRANCH  46  47
ATOM     47  C   UNL A   1      41.429  26.537  28.149  1.00  0.00     0.031 A 
ATOM     48  C   UNL A   1      42.720  26.893  27.463  1.00  0.00     0.074 A 
ATOM     49  C   UNL A   1      40.824  27.416  28.966  1.00  0.00     0.049 A 
ATOM     50  N   UNL A   1      43.453  27.967  27.577  1.00  0.00    -0.248 NA
ATOM     51  C   UNL A   1      43.263  25.889  26.530  1.00  0.00     0.031 C 
ATOM     52  C   UNL A   1      39.570  27.189  29.680  1.00  0.00     0.029 A 
ATOM     53  N   UNL A   1      41.216  28.671  29.363  1.00  0.00    -0.354 N 
ATOM     54  C   UNL A   1      44.560  27.753  26.766  1.00  0.00     0.074 A 
ATOM     55  C   UNL A   1      44.408  26.445  26.169  1.00  0.00     0.031 C 
ATOM     56  C   UNL A   1      39.313  28.255  30.459  1.00  0.00     0.029 A 
ATOM     57  C   UNL A   1      40.398  29.225  30.319  1.00  0.00     0.049 A 
ATOM     58  H   UNL A   1      42.007  29.131  28.996  1.00  0.00     0.167 HD
ATOM     59  C   UNL A   1      45.607  28.577  26.526  1.00  0.00     0.034 A 
ATOM     60  C   UNL A   1      40.532  30.369  31.019  1.00  0.00     0.034 A 
ATOM     61  C   UNL A   1      45.747  29.881  27.108  1.00  0.00     0.049 A 
ATOM     62  C   UNL A   1      41.719  31.262  30.751  1.00  0.00     0.074 A 
ATOM     63  C   UNL A   1      46.747  30.813  26.897  1.00  0.00     0.029 A 
ATOM     64  N   UNL A   1      44.869  30.434  28.026  1.00  0.00    -0.354 N 
ATOM     65  N   UNL A   1      42.699  31.100  29.895  1.00  0.00    -0.248 NA
ATOM     66  C   UNL A   1      41.800  32.512  31.522  1.00  0.00     0.031 C 
ATOM     67  C   UNL A   1      46.486  31.921  27.709  1.00  0.00     0.029 A 
ATOM     68  C   UNL A   1      45.306  31.692  28.400  1.00  0.00     0.049 A 
ATOM     69  H   UNL A   1      44.053  29.996  28.362  1.00  0.00     0.167 HD
ATOM     70  C   UNL A   1      43.491  32.241  29.998  1.00  0.00     0.074 A 
ATOM     71  C   UNL A   1      42.864  33.095  30.986  1.00  0.00     0.031 C 
ATOM     72  C   UNL A   1      44.638  32.551  29.343  1.00  0.00     0.034 A 
BRANCH  59  73
ATOM     73  C   UNL A   1      46.672  28.089  25.581  1.00  0.00     0.023 A 
ATOM     74  C   UNL A   1      46.493  28.234  24.190  1.00  0.00     0.012 A 
ATOM     75  C   UNL A   1      47.864  27.520  26.070  1.00  0.00     0.148 A 
ATOM     76  C   UNL A   1      47.468  27.789  23.299  1.00  0.00     0.002 A 
ATOM     77  C   UNL A   1      48.850  27.121  25.177  1.00  0.00     0.091 A 
ATOM     78  F   UNL A   1      48.002  27.366  27.394  1.00  0.00    -0.205 F 
ATOM     79  C   UNL A   1      48.650  27.243  23.792  1.00  0.00     0.022 A 
BRANCH  77  80
ATOM     80  S   UNL A   1      50.438  26.477  25.715  1.00  0.00     0.127 S 
ATOM     81  O   UNL A   1      51.054  26.111  24.440  1.00  0.00    -0.237 OA
ATOM     82  O   UNL A   1      51.037  27.641  26.368  1.00  0.00    -0.237 OA
ATOM     83  O   UNL A   1      50.141  25.365  26.605  1.00  0.00    -0.744 OA
ENDBRANCH  77  80
ENDBRANCH  59  73
BRANCH  60  84
ATOM     84  C   UNL A   1      39.503  30.757  32.026  1.00  0.00     0.023 A 
ATOM     85  C   UNL A   1      38.225  31.162  31.594  1.00  0.00     0.012 A 
ATOM     86  C   UNL A   1      39.780  30.723  33.407  1.00  0.00     0.148 A 
ATOM     87  C   UNL A   1      37.253  31.556  32.514  1.00  0.00     0.002 A 
ATOM     88  C   UNL A   1      38.790  31.067  34.322  1.00  0.00     0.091 A 
ATOM     89  F   UNL A   1      41.008  30.354  33.799  1.00  0.00    -0.205 F 
ATOM     90  C   UNL A   1      37.531  31.499  33.876  1.00  0.00     0.022 A 
BRANCH  88  91
ATOM     91  S   UNL A   1      39.020  30.915  36.097  1.00  0.00     0.127 S 
ATOM     92  O   UNL A   1      37.649  30.720  36.560  1.00  0.00    -0.237 OA
ATOM     93  O   UNL A   1      39.876  29.731  36.188  1.00  0.00    -0.237 OA
ATOM     94  O   UNL A   1      39.660  32.153  36.518  1.00  0.00    -0.744 OA
ENDBRANCH  88  91
ENDBRANCH  60  84
BRANCH  72  95
ATOM     95  C   UNL A   1      45.274  33.888  29.630  1.00  0.00     0.023 A 
ATOM     96  C   UNL A   1      46.223  34.008  30.662  1.00  0.00     0.012 A 
ATOM     97  C   UNL A   1      44.993  35.002  28.813  1.00  0.00     0.148 A 
ATOM     98  C   UNL A   1      46.861  35.226  30.899  1.00  0.00     0.002 A 
ATOM     99  C   UNL A   1      45.670  36.197  29.022  1.00  0.00     0.091 A 
ATOM    100  F   UNL A   1      44.075  34.870  27.845  1.00  0.00    -0.205 F 
ATOM    101  C   UNL A   1      46.594  36.315  30.072  1.00  0.00     0.022 A 
BRANCH  99 102
ATOM    102  S   UNL A   1      45.465  37.619  27.943  1.00  0.00     0.127 S 
ATOM    103  O   UNL A   1      46.330  38.608  28.586  1.00  0.00    -0.237 OA
ATOM    104  O   UNL A   1      45.963  37.113  26.663  1.00  0.00    -0.237 OA
ATOM    105  O   UNL A   1      44.042  37.931  27.957  1.00  0.00    -0.744 OA
ENDBRANCH  99 102
ENDBRANCH  72  95
ENDBRANCH  46  47
ENDBRANCH  39  41
ENDBRANCH  38  39
ENDBRANCH  37  38
ENDBRANCH  36  37
ENDBRANCH  35  36
ENDBRANCH  34  35
ENDBRANCH   1  34
TORSDOF 23
ENDMDL
MODEL 3
REMARK VINA RESULT:     -11.3      2.474      7.238
REMARK SMILES CC1=C(C)C[C@@H](C(=O)OCCOCCOCCOC(=O)c2ccc(-c3c4nc(c(-c5cccc(S(=O)(=O)[O-])c5F)c5ccc([nH]5)c(-c5cccc(S(=O)(=O)[O-])c5F)c5nc(c(-c6cccc(S(=O)(=O)[O-])c6F)c6ccc3[nH]6)C=C5)C=C4)cc2)[C@@H](C(=O)N2CCN(c3cccc(C(F)(F)F)c3)CC2)C1
REMARK SMILES IDX 13 1 12 2 11 3 10 4 9 5 7 6 8 7 6 8 1 9 2 10 3 11 103 12
REMARK SMILES IDX 4 13 5 14 84 15 85 16 86 17 87 18 88 19 102 20 89 21 101 22
REMARK SMILES IDX 90 23 91 24 92 25 100 26 93 27 95 28 94 29 96 30 97 31 98 32
REMARK SMILES IDX 99 33 14 34 15 35 16 36 17 37 18 38 19 39 20 40 21 41 22 42
REMARK SMILES IDX 83 43 23 44 82 45 24 46 25 47 26 48 76 49 27 50 81 51 75 52
REMARK SMILES IDX 77 53 28 54 80 55 74 56 73 57 29 59 61 60 41 61 60 62 42 63
REMARK SMILES IDX 45 64 59 65 78 66 43 67 44 68 58 70 79 71 46 72 30 73 31 74
REMARK SMILES IDX 39 75 32 76 34 77 40 78 33 79 35 80 36 81 37 82 38 83 62 84
REMARK SMILES IDX 63 85 71 86 64 87 66 88 72 89 65 90 67 91 68 92 69 93 70 94
REMARK SMILES IDX 47 95 48 96 56 97 49 98 51 99 57 100 50 101 52 102 53 103
REMARK SMILES IDX 54 104 55 105
REMARK H PARENT 77 58 45 69
REMARK Flexibility Score: inf
ROOT
ATOM      1  C   UNL A   1      35.935  21.954  25.977  1.00  0.00     0.188 C 
ENDROOT
BRANCH   1   2
ATOM      2  O   UNL A   1      35.074  22.956  26.503  1.00  0.00    -0.376 OA
BRANCH   2   3
ATOM      3  C   UNL A   1      33.878  22.473  27.126  1.00  0.00     0.202 C 
BRANCH   3   4
ATOM      4  C   UNL A   1      32.681  22.370  26.177  1.00  0.00     0.261 C 
BRANCH   4   5
ATOM      5  O   UNL A   1      32.439  23.669  25.601  1.00  0.00    -0.463 OA
BRANCH   5   6
ATOM      6  C   UNL A   1      31.417  24.397  26.076  1.00  0.00     0.310 C 
ATOM      7  O   UNL A   1      30.952  24.263  27.206  1.00  0.00    -0.252 OA
BRANCH   6   8
ATOM      8  C   UNL A   1      30.902  25.478  25.134  1.00  0.00     0.116 C 
ATOM      9  C   UNL A   1      33.321  27.365  22.036  1.00  0.00     0.039 C 
ATOM     10  C   UNL A   1      32.247  26.695  22.839  1.00  0.00    -0.074 C 
ATOM     11  C   UNL A   1      31.993  25.372  22.838  1.00  0.00    -0.073 C 
ATOM     12  C   UNL A   1      31.442  27.576  23.768  1.00  0.00     0.045 C 
ATOM     13  C   UNL A   1      32.723  24.322  22.055  1.00  0.00     0.039 C 
ATOM     14  C   UNL A   1      30.885  24.860  23.721  1.00  0.00     0.046 C 
ATOM     15  C   UNL A   1      31.367  26.970  25.186  1.00  0.00     0.097 C 
BRANCH  15  16
ATOM     16  C   UNL A   1      32.693  27.342  25.856  1.00  0.00     0.227 C 
ATOM     17  O   UNL A   1      33.771  26.917  25.433  1.00  0.00    -0.275 OA
ATOM     18  N   UNL A   1      32.673  28.292  26.875  1.00  0.00    -0.339 N 
ATOM     19  C   UNL A   1      33.940  28.600  27.533  1.00  0.00     0.141 C 
ATOM     20  C   UNL A   1      31.651  29.324  27.138  1.00  0.00     0.141 C 
ATOM     21  C   UNL A   1      34.514  29.881  26.916  1.00  0.00     0.138 C 
ATOM     22  C   UNL A   1      32.150  30.742  26.733  1.00  0.00     0.138 C 
ATOM     23  N   UNL A   1      33.555  30.981  27.119  1.00  0.00    -0.368 N 
BRANCH  23  24
ATOM     24  C   UNL A   1      33.986  32.110  27.779  1.00  0.00     0.037 A 
ATOM     25  C   UNL A   1      33.181  33.259  27.816  1.00  0.00     0.026 A 
ATOM     26  C   UNL A   1      35.262  32.187  28.346  1.00  0.00     0.039 A 
ATOM     27  C   UNL A   1      33.634  34.453  28.376  1.00  0.00     0.003 A 
ATOM     28  C   UNL A   1      35.750  33.392  28.887  1.00  0.00     0.058 A 
ATOM     29  C   UNL A   1      34.919  34.523  28.901  1.00  0.00     0.013 A 
BRANCH  28  30
ATOM     30  C   UNL A   1      37.158  33.499  29.413  1.00  0.00     0.416 C 
ATOM     31  F   UNL A   1      38.046  32.798  28.653  1.00  0.00    -0.166 F 
ATOM     32  F   UNL A   1      37.614  34.782  29.421  1.00  0.00    -0.166 F 
ATOM     33  F   UNL A   1      37.312  33.036  30.683  1.00  0.00    -0.166 F 
ENDBRANCH  28  30
ENDBRANCH  23  24
ENDBRANCH  15  16
ENDBRANCH   6   8
ENDBRANCH   5   6
ENDBRANCH   4   5
ENDBRANCH   3   4
ENDBRANCH   2   3
ENDBRANCH   1   2
BRANCH   1  34
ATOM     34  C   UNL A   1      37.264  22.478  25.460  1.00  0.00     0.188 C 
BRANCH  34  35
ATOM     35  O   UNL A   1      38.161  21.456  25.022  1.00  0.00    -0.376 OA
BRANCH  35  36
ATOM     36  C   UNL A   1      39.158  21.141  25.998  1.00  0.00     0.202 C 
BRANCH  36  37
ATOM     37  C   UNL A   1      39.744  19.735  25.802  1.00  0.00     0.261 C 
BRANCH  37  38
ATOM     38  O   UNL A   1      40.836  19.513  26.710  1.00  0.00    -0.460 OA
BRANCH  38  39
ATOM     39  C   UNL A   1      42.077  19.590  26.170  1.00  0.00     0.338 C 
ATOM     40  O   UNL A   1      42.621  18.762  25.456  1.00  0.00    -0.246 OA
BRANCH  39  41
ATOM     41  C   UNL A   1      42.631  20.946  26.401  1.00  0.00     0.060 A 
ATOM     42  C   UNL A   1      42.677  21.420  27.721  1.00  0.00     0.016 A 
ATOM     43  C   UNL A   1      43.146  21.721  25.359  1.00  0.00     0.016 A 
ATOM     44  C   UNL A   1      43.195  22.686  27.998  1.00  0.00     0.010 A 
ATOM     45  C   UNL A   1      43.656  22.991  25.635  1.00  0.00     0.010 A 
ATOM     46  C   UNL A   1      43.645  23.493  26.949  1.00  0.00    -0.014 A 
BRANCH  46  47
ATOM     47  C   UNL A   1      43.881  24.939  27.167  1.00  0.00     0.031 A 
ATOM     48  C   UNL A   1      45.292  25.441  27.033  1.00  0.00     0.074 A 
ATOM     49  C   UNL A   1      42.888  25.775  27.516  1.00  0.00     0.049 A 
ATOM     50  N   UNL A   1      45.780  26.628  27.275  1.00  0.00    -0.248 NA
ATOM     51  C   UNL A   1      46.294  24.462  26.575  1.00  0.00     0.031 C 
ATOM     52  C   UNL A   1      41.482  25.407  27.671  1.00  0.00     0.029 A 
ATOM     53  N   UNL A   1      42.926  27.109  27.841  1.00  0.00    -0.354 N 
ATOM     54  C   UNL A   1      47.144  26.530  27.038  1.00  0.00     0.074 A 
ATOM     55  C   UNL A   1      47.413  25.166  26.641  1.00  0.00     0.031 C 
ATOM     56  C   UNL A   1      40.797  26.482  28.101  1.00  0.00     0.029 A 
ATOM     57  C   UNL A   1      41.719  27.603  28.276  1.00  0.00     0.049 A 
ATOM     58  H   UNL A   1      43.741  27.658  27.770  1.00  0.00     0.167 HD
ATOM     59  C   UNL A   1      48.092  27.491  27.131  1.00  0.00     0.034 A 
ATOM     60  C   UNL A   1      41.408  28.812  28.784  1.00  0.00     0.034 A 
ATOM     61  C   UNL A   1      47.820  28.848  27.511  1.00  0.00     0.049 A 
ATOM     62  C   UNL A   1      42.486  29.862  28.899  1.00  0.00     0.074 A 
ATOM     63  C   UNL A   1      48.702  29.910  27.594  1.00  0.00     0.029 A 
ATOM     64  N   UNL A   1      46.576  29.327  27.886  1.00  0.00    -0.354 N 
ATOM     65  N   UNL A   1      43.752  29.789  28.562  1.00  0.00    -0.248 NA
ATOM     66  C   UNL A   1      42.085  31.172  29.433  1.00  0.00     0.031 C 
ATOM     67  C   UNL A   1      47.993  31.028  28.044  1.00  0.00     0.029 A 
ATOM     68  C   UNL A   1      46.664  30.669  28.211  1.00  0.00     0.049 A 
ATOM     69  H   UNL A   1      45.750  28.792  27.917  1.00  0.00     0.167 HD
ATOM     70  C   UNL A   1      44.288  31.050  28.808  1.00  0.00     0.074 A 
ATOM     71  C   UNL A   1      43.204  31.873  29.304  1.00  0.00     0.031 C 
ATOM     72  C   UNL A   1      45.562  31.487  28.648  1.00  0.00     0.034 A 
BRANCH  59  73
ATOM     73  C   UNL A   1      49.509  27.104  26.799  1.00  0.00     0.023 A 
ATOM     74  C   UNL A   1      49.869  26.849  25.460  1.00  0.00     0.012 A 
ATOM     75  C   UNL A   1      50.489  27.027  27.807  1.00  0.00     0.148 A 
ATOM     76  C   UNL A   1      51.175  26.490  25.134  1.00  0.00     0.002 A 
ATOM     77  C   UNL A   1      51.799  26.713  27.467  1.00  0.00     0.091 A 
ATOM     78  F   UNL A   1      50.120  27.245  29.077  1.00  0.00    -0.205 F 
ATOM     79  C   UNL A   1      52.142  26.432  26.134  1.00  0.00     0.022 A 
BRANCH  77  80
ATOM     80  S   UNL A   1      53.132  26.689  28.670  1.00  0.00     0.127 S 
ATOM     81  O   UNL A   1      53.356  28.117  28.891  1.00  0.00    -0.237 OA
ATOM     82  O   UNL A   1      52.516  25.987  29.796  1.00  0.00    -0.237 OA
ATOM     83  O   UNL A   1      54.232  25.976  28.037  1.00  0.00    -0.744 OA
ENDBRANCH  77  80
ENDBRANCH  59  73
BRANCH  60  84
ATOM     84  C   UNL A   1      40.009  29.112  29.202  1.00  0.00     0.023 A 
ATOM     85  C   UNL A   1      39.033  29.382  28.222  1.00  0.00     0.012 A 
ATOM     86  C   UNL A   1      39.637  29.128  30.561  1.00  0.00     0.148 A 
ATOM     87  C   UNL A   1      37.723  29.694  28.587  1.00  0.00     0.002 A 
ATOM     88  C   UNL A   1      38.317  29.387  30.915  1.00  0.00     0.091 A 
ATOM     89  F   UNL A   1      40.583  28.888  31.480  1.00  0.00    -0.205 F 
ATOM     90  C   UNL A   1      37.362  29.686  29.931  1.00  0.00     0.022 A 
BRANCH  88  91
ATOM     91  S   UNL A   1      37.736  29.286  32.612  1.00  0.00     0.127 S 
ATOM     92  O   UNL A   1      38.715  30.113  33.313  1.00  0.00    -0.237 OA
ATOM     93  O   UNL A   1      36.398  29.870  32.507  1.00  0.00    -0.237 OA
ATOM     94  O   UNL A   1      37.749  27.869  32.948  1.00  0.00    -0.744 OA
ENDBRANCH  88  91
ENDBRANCH  60  84
BRANCH  72  95
ATOM     95  C   UNL A   1      45.857  32.931  28.964  1.00  0.00     0.023 A 
ATOM     96  C   UNL A   1      46.341  33.288  30.237  1.00  0.00     0.012 A 
ATOM     97  C   UNL A   1      45.739  33.919  27.966  1.00  0.00     0.148 A 
ATOM     98  C   UNL A   1      46.673  34.613  30.523  1.00  0.00     0.002 A 
ATOM     99  C   UNL A   1      46.120  35.226  28.242  1.00  0.00     0.091 A 
ATOM    100  F   UNL A   1      45.263  33.561  26.765  1.00  0.00    -0.205 F 
ATOM    101  C   UNL A   1      46.574  35.577  29.523  1.00  0.00     0.022 A 
BRANCH  99 102
ATOM    102  S   UNL A   1      46.123  36.512  26.987  1.00  0.00     0.127 S 
ATOM    103  O   UNL A   1      44.707  36.871  26.925  1.00  0.00    -0.237 OA
ATOM    104  O   UNL A   1      46.985  37.531  27.588  1.00  0.00    -0.237 OA
ATOM    105  O   UNL A   1      46.666  35.896  25.783  1.00  0.00    -0.744 OA
ENDBRANCH  99 102
ENDBRANCH  72  95
ENDBRANCH  46  47
ENDBRANCH  39  41
ENDBRANCH  38  39
ENDBRANCH  37  38
ENDBRANCH  36  37
ENDBRANCH  35  36
ENDBRANCH  34  35
ENDBRANCH   1  34
TORSDOF 23
ENDMDL
