MODEL 1
REMARK VINA RESULT:     -12.5      0.000      0.000
REMARK SMILES Cc1ccccc1C(=O)Nc1cc(NC(=O)c2ccccc2C)cc(C(=O)OCCOCCOCCOC(=O)c2ccc(-c3c4nc(c(-c5cccc(S(=O)(=O)[O-])c5F)c5ccc([nH]5)c(-c5cccc(S(=O)(=O)[O-])c5F)c5nc(c(-c6cccc(S(=O)(=O)[O-])c6F)c6ccc3[nH]6)C=C5)C=C4)cc2)c1
REMARK SMILES IDX 33 1 32 2 31 3 30 4 29 5 28 6 26 7 27 8 25 9 11 10 12 11
REMARK SMILES IDX 103 12 13 13 24 14 10 15 8 16 9 17 7 19 1 20 2 21 3 22 4 23
REMARK SMILES IDX 6 24 5 25 14 26 15 27 16 29 17 30 18 31 22 32 19 33 21 34
REMARK SMILES IDX 23 35 20 36 34 37 35 38 36 39 37 40 38 41 39 42 40 43 41 44
REMARK SMILES IDX 102 45 42 46 101 47 43 48 44 49 45 50 95 51 46 52 100 53
REMARK SMILES IDX 94 54 96 55 47 56 99 57 93 58 92 59 48 61 80 62 60 63 79 64
REMARK SMILES IDX 61 65 64 66 78 67 97 68 62 69 63 70 77 72 98 73 65 74 49 75
REMARK SMILES IDX 50 76 58 77 51 78 53 79 59 80 52 81 54 82 55 83 56 84 57 85
REMARK SMILES IDX 81 86 82 87 90 88 83 89 85 90 91 91 84 92 86 93 87 94 88 95
REMARK SMILES IDX 89 96 66 97 67 98 75 99 68 100 70 101 76 102 69 103 71 104
REMARK SMILES IDX 72 105 73 106 74 107
REMARK H PARENT 10 18 14 28 96 60 64 71
REMARK Flexibility Score: inf
ROOT
ATOM      1  C   UNL A   1      34.974  32.186  27.646  1.00  0.00     0.188 C 
ENDROOT
BRANCH   1   2
ATOM      2  C   UNL A   1      33.561  31.669  27.908  1.00  0.00     0.188 C 
BRANCH   2   3
ATOM      3  O   UNL A   1      32.845  30.763  27.040  1.00  0.00    -0.376 OA
BRANCH   3   4
ATOM      4  C   UNL A   1      33.183  29.383  26.769  1.00  0.00     0.202 C 
BRANCH   4   5
ATOM      5  C   UNL A   1      32.472  27.985  27.443  1.00  0.00     0.261 C 
BRANCH   5   6
ATOM      6  O   UNL A   1      31.136  26.995  26.897  1.00  0.00    -0.460 OA
BRANCH   6   7
ATOM      7  C   UNL A   1      30.935  25.628  26.488  1.00  0.00     0.338 C 
ATOM      8  O   UNL A   1      29.910  24.946  26.558  1.00  0.00    -0.246 OA
BRANCH   7   9
ATOM      9  C   UNL A   1      31.857  24.653  25.908  1.00  0.00     0.064 A 
ATOM     10  C   UNL A   1      32.829  24.202  23.652  1.00  0.00     0.044 A 
ATOM     11  C   UNL A   1      32.543  22.859  23.856  1.00  0.00     0.052 A 
ATOM     12  C   UNL A   1      32.578  25.071  24.723  1.00  0.00     0.042 A 
ATOM     13  C   UNL A   1      31.907  22.439  25.045  1.00  0.00     0.044 A 
ATOM     14  C   UNL A   1      31.465  23.339  26.013  1.00  0.00     0.042 A 
BRANCH  10  15
ATOM     15  N   UNL A   1      33.323  24.740  22.433  1.00  0.00    -0.322 N 
ATOM     16  C   UNL A   1      32.912  25.841  21.691  1.00  0.00     0.255 C 
ATOM     17  O   UNL A   1      33.201  25.959  20.499  1.00  0.00    -0.269 OA
ATOM     18  H   UNL A   1      34.085  24.249  22.047  1.00  0.00     0.170 HD
BRANCH  16  19
ATOM     19  C   UNL A   1      32.129  26.953  22.303  1.00  0.00     0.043 A 
ATOM     20  C   UNL A   1      34.164  28.473  22.667  1.00  0.00     0.045 C 
ATOM     21  C   UNL A   1      32.706  28.130  22.815  1.00  0.00    -0.038 A 
ATOM     22  C   UNL A   1      31.877  29.056  23.475  1.00  0.00     0.004 A 
ATOM     23  C   UNL A   1      30.492  28.882  23.518  1.00  0.00     0.000 A 
ATOM     24  C   UNL A   1      30.726  26.828  22.279  1.00  0.00     0.014 A 
ATOM     25  C   UNL A   1      29.911  27.791  22.880  1.00  0.00     0.001 A 
ENDBRANCH  16  19
ENDBRANCH  10  15
BRANCH  13  26
ATOM     26  N   UNL A   1      31.742  21.097  25.381  1.00  0.00    -0.322 N 
ATOM     27  C   UNL A   1      32.729  20.179  25.641  1.00  0.00     0.255 C 
ATOM     28  H   UNL A   1      30.814  20.771  25.438  1.00  0.00     0.170 HD
ATOM     29  O   UNL A   1      32.430  19.037  25.989  1.00  0.00    -0.269 OA
BRANCH  27  30
ATOM     30  C   UNL A   1      34.169  20.533  25.534  1.00  0.00     0.043 A 
ATOM     31  C   UNL A   1      34.494  21.772  26.105  1.00  0.00     0.014 A 
ATOM     32  C   UNL A   1      35.170  19.755  24.910  1.00  0.00    -0.038 A 
ATOM     33  C   UNL A   1      35.808  22.229  26.106  1.00  0.00     0.001 A 
ATOM     34  C   UNL A   1      36.496  20.221  24.957  1.00  0.00     0.004 A 
ATOM     35  C   UNL A   1      34.949  18.435  24.225  1.00  0.00     0.045 C 
ATOM     36  C   UNL A   1      36.811  21.447  25.544  1.00  0.00     0.000 A 
ENDBRANCH  27  30
ENDBRANCH  13  26
ENDBRANCH   7   9
ENDBRANCH   6   7
ENDBRANCH   5   6
ENDBRANCH   4   5
ENDBRANCH   3   4
ENDBRANCH   2   3
ENDBRANCH   1   2
BRANCH   1  37
ATOM     37  O   UNL A   1      35.735  32.151  28.830  1.00  0.00    -0.376 OA
BRANCH  37  38
ATOM     38  C   UNL A   1      35.818  30.903  29.481  1.00  0.00     0.202 C 
BRANCH  38  39
ATOM     39  C   UNL A   1      36.201  31.013  30.968  1.00  0.00     0.261 C 
BRANCH  39  40
ATOM     40  O   UNL A   1      37.616  30.790  31.170  1.00  0.00    -0.460 OA
BRANCH  40  41
ATOM     41  C   UNL A   1      37.987  30.039  32.272  1.00  0.00     0.338 C 
ATOM     42  O   UNL A   1      37.702  30.334  33.412  1.00  0.00    -0.246 OA
BRANCH  41  43
ATOM     43  C   UNL A   1      38.987  28.987  31.849  1.00  0.00     0.060 A 
ATOM     44  C   UNL A   1      40.374  28.971  32.074  1.00  0.00     0.016 A 
ATOM     45  C   UNL A   1      38.560  28.181  30.859  1.00  0.00     0.016 A 
ATOM     46  C   UNL A   1      41.313  28.305  31.153  1.00  0.00     0.010 A 
ATOM     47  C   UNL A   1      39.507  27.864  29.893  1.00  0.00     0.010 A 
ATOM     48  C   UNL A   1      40.925  27.772  29.920  1.00  0.00    -0.014 A 
BRANCH  48  49
ATOM     49  C   UNL A   1      41.930  27.258  28.641  1.00  0.00     0.031 A 
ATOM     50  C   UNL A   1      42.774  25.769  28.277  1.00  0.00     0.074 A 
ATOM     51  C   UNL A   1      42.303  28.219  27.772  1.00  0.00     0.049 A 
ATOM     52  N   UNL A   1      44.019  25.701  27.829  1.00  0.00    -0.248 NA
ATOM     53  C   UNL A   1      42.372  24.314  28.565  1.00  0.00     0.031 C 
ATOM     54  C   UNL A   1      43.021  28.061  26.511  1.00  0.00     0.029 A 
ATOM     55  N   UNL A   1      42.212  29.606  27.934  1.00  0.00    -0.354 N 
ATOM     56  C   UNL A   1      44.348  24.330  27.761  1.00  0.00     0.074 A 
ATOM     57  C   UNL A   1      43.522  23.682  28.677  1.00  0.00     0.031 C 
ATOM     58  C   UNL A   1      43.574  29.243  26.192  1.00  0.00     0.029 A 
ATOM     59  C   UNL A   1      43.357  30.129  27.323  1.00  0.00     0.049 A 
ATOM     60  H   UNL A   1      41.493  30.107  28.382  1.00  0.00     0.167 HD
ATOM     61  C   UNL A   1      44.997  23.723  26.729  1.00  0.00     0.034 A 
ATOM     62  C   UNL A   1      44.298  30.786  28.055  1.00  0.00     0.034 A 
ATOM     63  C   UNL A   1      45.718  24.746  26.014  1.00  0.00     0.049 A 
ATOM     64  C   UNL A   1      45.685  30.214  27.864  1.00  0.00     0.074 A 
ATOM     65  C   UNL A   1      45.453  25.482  24.878  1.00  0.00     0.029 A 
ATOM     66  N   UNL A   1      46.694  25.426  26.721  1.00  0.00    -0.354 N 
ATOM     67  N   UNL A   1      45.936  29.105  27.218  1.00  0.00    -0.248 NA
ATOM     68  C   UNL A   1      46.905  30.848  28.353  1.00  0.00     0.031 C 
ATOM     69  C   UNL A   1      46.146  26.723  25.021  1.00  0.00     0.029 A 
ATOM     70  C   UNL A   1      46.882  26.692  26.196  1.00  0.00     0.049 A 
ATOM     71  H   UNL A   1      47.186  25.060  27.491  1.00  0.00     0.167 HD
ATOM     72  C   UNL A   1      47.266  28.803  27.304  1.00  0.00     0.074 A 
ATOM     73  C   UNL A   1      47.841  29.969  27.952  1.00  0.00     0.031 C 
ATOM     74  C   UNL A   1      47.779  27.600  26.904  1.00  0.00     0.034 A 
BRANCH  61  75
ATOM     75  C   UNL A   1      44.790  22.248  26.251  1.00  0.00     0.023 A 
ATOM     76  C   UNL A   1      45.734  21.759  25.322  1.00  0.00     0.012 A 
ATOM     77  C   UNL A   1      43.709  21.337  26.517  1.00  0.00     0.148 A 
ATOM     78  C   UNL A   1      45.599  20.514  24.676  1.00  0.00     0.002 A 
ATOM     79  C   UNL A   1      43.584  20.086  25.888  1.00  0.00     0.091 A 
ATOM     80  F   UNL A   1      42.722  21.647  27.353  1.00  0.00    -0.205 F 
ATOM     81  C   UNL A   1      44.524  19.678  24.951  1.00  0.00     0.022 A 
BRANCH  79  82
ATOM     82  S   UNL A   1      42.190  18.962  26.196  1.00  0.00     0.127 S 
ATOM     83  O   UNL A   1      42.121  18.953  27.658  1.00  0.00    -0.237 OA
ATOM     84  O   UNL A   1      41.078  19.649  25.540  1.00  0.00    -0.237 OA
ATOM     85  O   UNL A   1      42.543  17.677  25.603  1.00  0.00    -0.744 OA
ENDBRANCH  79  82
ENDBRANCH  61  75
BRANCH  62  86
ATOM     86  C   UNL A   1      43.739  31.538  29.234  1.00  0.00     0.023 A 
ATOM     87  C   UNL A   1      43.793  30.864  30.489  1.00  0.00     0.012 A 
ATOM     88  C   UNL A   1      43.450  32.916  29.252  1.00  0.00     0.148 A 
ATOM     89  C   UNL A   1      43.694  31.545  31.706  1.00  0.00     0.002 A 
ATOM     90  C   UNL A   1      43.321  33.590  30.480  1.00  0.00     0.091 A 
ATOM     91  F   UNL A   1      43.401  33.588  28.094  1.00  0.00    -0.205 F 
ATOM     92  C   UNL A   1      43.471  32.914  31.702  1.00  0.00     0.022 A 
BRANCH  90  93
ATOM     93  S   UNL A   1      43.028  35.373  30.524  1.00  0.00     0.127 S 
ATOM     94  O   UNL A   1      43.297  35.712  31.923  1.00  0.00    -0.237 OA
ATOM     95  O   UNL A   1      44.007  35.912  29.583  1.00  0.00    -0.237 OA
ATOM     96  O   UNL A   1      41.624  35.465  30.145  1.00  0.00    -0.744 OA
ENDBRANCH  90  93
ENDBRANCH  62  86
BRANCH  74  97
ATOM     97  C   UNL A   1      49.165  27.093  27.255  1.00  0.00     0.023 A 
ATOM     98  C   UNL A   1      49.396  26.242  28.350  1.00  0.00     0.012 A 
ATOM     99  C   UNL A   1      50.233  27.259  26.336  1.00  0.00     0.148 A 
ATOM    100  C   UNL A   1      50.632  25.619  28.549  1.00  0.00     0.002 A 
ATOM    101  C   UNL A   1      51.406  26.523  26.461  1.00  0.00     0.091 A 
ATOM    102  F   UNL A   1      50.111  28.118  25.311  1.00  0.00    -0.205 F 
ATOM    103  C   UNL A   1      51.628  25.730  27.586  1.00  0.00     0.022 A 
BRANCH 101 104
ATOM    104  S   UNL A   1      52.524  26.403  25.056  1.00  0.00     0.127 S 
ATOM    105  O   UNL A   1      53.617  27.290  25.444  1.00  0.00    -0.237 OA
ATOM    106  O   UNL A   1      52.874  24.981  25.037  1.00  0.00    -0.237 OA
ATOM    107  O   UNL A   1      51.708  26.828  23.925  1.00  0.00    -0.744 OA
ENDBRANCH 101 104
ENDBRANCH  74  97
ENDBRANCH  48  49
ENDBRANCH  41  43
ENDBRANCH  40  41
ENDBRANCH  39  40
ENDBRANCH  38  39
ENDBRANCH  37  38
ENDBRANCH   1  37
TORSDOF 24
ENDMDL
MODEL 2
REMARK VINA RESULT:     -12.4      5.152     10.331
REMARK SMILES Cc1ccccc1C(=O)Nc1cc(NC(=O)c2ccccc2C)cc(C(=O)OCCOCCOCCOC(=O)c2ccc(-c3c4nc(c(-c5cccc(S(=O)(=O)[O-])c5F)c5ccc([nH]5)c(-c5cccc(S(=O)(=O)[O-])c5F)c5nc(c(-c6cccc(S(=O)(=O)[O-])c6F)c6ccc3[nH]6)C=C5)C=C4)cc2)c1
REMARK SMILES IDX 33 1 32 2 31 3 30 4 29 5 28 6 26 7 27 8 25 9 11 10 12 11
REMARK SMILES IDX 103 12 13 13 24 14 10 15 8 16 9 17 7 19 1 20 2 21 3 22 4 23
REMARK SMILES IDX 6 24 5 25 14 26 15 27 16 29 17 30 18 31 22 32 19 33 21 34
REMARK SMILES IDX 23 35 20 36 34 37 35 38 36 39 37 40 38 41 39 42 40 43 41 44
REMARK SMILES IDX 102 45 42 46 101 47 43 48 44 49 45 50 95 51 46 52 100 53
REMARK SMILES IDX 94 54 96 55 47 56 99 57 93 58 92 59 48 61 80 62 60 63 79 64
REMARK SMILES IDX 61 65 64 66 78 67 97 68 62 69 63 70 77 72 98 73 65 74 49 75
REMARK SMILES IDX 50 76 58 77 51 78 53 79 59 80 52 81 54 82 55 83 56 84 57 85
REMARK SMILES IDX 81 86 82 87 90 88 83 89 85 90 91 91 84 92 86 93 87 94 88 95
REMARK SMILES IDX 89 96 66 97 67 98 75 99 68 100 70 101 76 102 69 103 71 104
REMARK SMILES IDX 72 105 73 106 74 107
REMARK H PARENT 10 18 14 28 96 60 64 71
REMARK Flexibility Score: inf
ROOT
ATOM      1  C   UNL A   1      39.779  23.723  27.218  1.00  0.00     0.188 C 
ENDROOT
BRANCH   1   2
ATOM      2  C   UNL A   1      38.533  23.277  26.456  1.00  0.00     0.188 C 
BRANCH   2   3
ATOM      3  O   UNL A   1      37.596  24.175  25.820  1.00  0.00    -0.376 OA
BRANCH   3   4
ATOM      4  C   UNL A   1      36.401  23.802  25.097  1.00  0.00     0.202 C 
BRANCH   4   5
ATOM      5  C   UNL A   1      36.301  22.961  23.614  1.00  0.00     0.261 C 
BRANCH   5   6
ATOM      6  O   UNL A   1      35.134  23.057  22.313  1.00  0.00    -0.460 OA
BRANCH   6   7
ATOM      7  C   UNL A   1      33.896  23.748  22.056  1.00  0.00     0.338 C 
ATOM      8  O   UNL A   1      33.189  23.711  21.046  1.00  0.00    -0.246 OA
BRANCH   7   9
ATOM      9  C   UNL A   1      33.135  24.691  22.873  1.00  0.00     0.064 A 
ATOM     10  C   UNL A   1      31.226  24.564  24.479  1.00  0.00     0.044 A 
ATOM     11  C   UNL A   1      30.679  25.665  23.833  1.00  0.00     0.052 A 
ATOM     12  C   UNL A   1      32.499  24.154  24.058  1.00  0.00     0.042 A 
ATOM     13  C   UNL A   1      31.336  26.237  22.722  1.00  0.00     0.044 A 
ATOM     14  C   UNL A   1      32.494  25.688  22.175  1.00  0.00     0.042 A 
BRANCH  10  15
ATOM     15  N   UNL A   1      30.569  23.827  25.501  1.00  0.00    -0.322 N 
ATOM     16  C   UNL A   1      30.728  22.511  25.919  1.00  0.00     0.255 C 
ATOM     17  O   UNL A   1      29.851  21.928  26.558  1.00  0.00    -0.269 OA
ATOM     18  H   UNL A   1      29.886  24.333  25.997  1.00  0.00     0.170 HD
BRANCH  16  19
ATOM     19  C   UNL A   1      31.979  21.744  25.646  1.00  0.00     0.043 A 
ATOM     20  C   UNL A   1      33.154  22.477  27.806  1.00  0.00     0.045 C 
ATOM     21  C   UNL A   1      33.118  21.781  26.472  1.00  0.00    -0.038 A 
ATOM     22  C   UNL A   1      34.279  21.110  26.049  1.00  0.00     0.004 A 
ATOM     23  C   UNL A   1      34.277  20.317  24.900  1.00  0.00     0.000 A 
ATOM     24  C   UNL A   1      31.961  20.878  24.536  1.00  0.00     0.014 A 
ATOM     25  C   UNL A   1      33.104  20.164  24.167  1.00  0.00     0.001 A 
ENDBRANCH  16  19
ENDBRANCH  10  15
BRANCH  13  26
ATOM     26  N   UNL A   1      30.927  27.433  22.135  1.00  0.00    -0.322 N 
ATOM     27  C   UNL A   1      31.200  28.706  22.571  1.00  0.00     0.255 C 
ATOM     28  H   UNL A   1      30.381  27.357  21.319  1.00  0.00     0.170 HD
ATOM     29  O   UNL A   1      30.823  29.676  21.912  1.00  0.00    -0.269 OA
BRANCH  27  30
ATOM     30  C   UNL A   1      31.966  28.955  23.820  1.00  0.00     0.043 A 
ATOM     31  C   UNL A   1      31.163  29.277  24.924  1.00  0.00     0.014 A 
ATOM     32  C   UNL A   1      33.372  28.911  23.954  1.00  0.00    -0.038 A 
ATOM     33  C   UNL A   1      31.734  29.512  26.171  1.00  0.00     0.001 A 
ATOM     34  C   UNL A   1      33.922  29.116  25.232  1.00  0.00     0.004 A 
ATOM     35  C   UNL A   1      34.345  28.623  22.845  1.00  0.00     0.045 C 
ATOM     36  C   UNL A   1      33.112  29.418  26.328  1.00  0.00     0.000 A 
ENDBRANCH  27  30
ENDBRANCH  13  26
ENDBRANCH   7   9
ENDBRANCH   6   7
ENDBRANCH   5   6
ENDBRANCH   4   5
ENDBRANCH   3   4
ENDBRANCH   2   3
ENDBRANCH   1   2
BRANCH   1  37
ATOM     37  O   UNL A   1      39.964  25.112  27.083  1.00  0.00    -0.376 OA
BRANCH  37  38
ATOM     38  C   UNL A   1      39.809  25.879  28.257  1.00  0.00     0.202 C 
BRANCH  38  39
ATOM     39  C   UNL A   1      39.732  27.393  27.993  1.00  0.00     0.261 C 
BRANCH  39  40
ATOM     40  O   UNL A   1      39.728  28.148  29.227  1.00  0.00    -0.460 OA
BRANCH  40  41
ATOM     41  C   UNL A   1      38.730  29.094  29.387  1.00  0.00     0.338 C 
ATOM     42  O   UNL A   1      37.661  29.044  28.821  1.00  0.00    -0.246 OA
BRANCH  41  43
ATOM     43  C   UNL A   1      39.281  30.280  30.145  1.00  0.00     0.060 A 
ATOM     44  C   UNL A   1      38.731  31.569  30.253  1.00  0.00     0.016 A 
ATOM     45  C   UNL A   1      40.591  30.193  30.441  1.00  0.00     0.016 A 
ATOM     46  C   UNL A   1      39.567  32.768  30.447  1.00  0.00     0.010 A 
ATOM     47  C   UNL A   1      41.317  31.369  30.300  1.00  0.00     0.010 A 
ATOM     48  C   UNL A   1      40.965  32.742  30.390  1.00  0.00    -0.014 A 
BRANCH  48  49
ATOM     49  C   UNL A   1      42.031  34.069  30.290  1.00  0.00     0.031 A 
ATOM     50  C   UNL A   1      42.327  35.308  29.090  1.00  0.00     0.074 A 
ATOM     51  C   UNL A   1      42.971  34.135  31.255  1.00  0.00     0.049 A 
ATOM     52  N   UNL A   1      43.529  35.714  28.708  1.00  0.00    -0.248 NA
ATOM     53  C   UNL A   1      41.346  36.004  28.132  1.00  0.00     0.031 C 
ATOM     54  C   UNL A   1      43.911  35.219  31.521  1.00  0.00     0.029 A 
ATOM     55  N   UNL A   1      43.360  33.128  32.144  1.00  0.00    -0.354 N 
ATOM     56  C   UNL A   1      43.327  36.642  27.664  1.00  0.00     0.074 A 
ATOM     57  C   UNL A   1      42.092  36.335  27.098  1.00  0.00     0.031 C 
ATOM     58  C   UNL A   1      44.932  34.722  32.239  1.00  0.00     0.029 A 
ATOM     59  C   UNL A   1      44.741  33.282  32.303  1.00  0.00     0.049 A 
ATOM     60  H   UNL A   1      42.783  32.453  32.570  1.00  0.00     0.167 HD
ATOM     61  C   UNL A   1      43.974  37.833  27.529  1.00  0.00     0.034 A 
ATOM     62  C   UNL A   1      45.603  32.312  31.889  1.00  0.00     0.034 A 
ATOM     63  C   UNL A   1      45.198  37.745  28.285  1.00  0.00     0.049 A 
ATOM     64  C   UNL A   1      46.667  32.842  30.955  1.00  0.00     0.074 A 
ATOM     65  C   UNL A   1      45.569  38.151  29.550  1.00  0.00     0.029 A 
ATOM     66  N   UNL A   1      46.106  36.780  27.885  1.00  0.00    -0.354 N 
ATOM     67  N   UNL A   1      46.664  34.049  30.450  1.00  0.00    -0.248 NA
ATOM     68  C   UNL A   1      47.837  32.079  30.531  1.00  0.00     0.031 C 
ATOM     69  C   UNL A   1      46.601  37.262  29.981  1.00  0.00     0.029 A 
ATOM     70  C   UNL A   1      46.895  36.385  28.949  1.00  0.00     0.049 A 
ATOM     71  H   UNL A   1      46.179  36.425  26.970  1.00  0.00     0.167 HD
ATOM     72  C   UNL A   1      47.698  34.192  29.569  1.00  0.00     0.074 A 
ATOM     73  C   UNL A   1      48.451  32.959  29.720  1.00  0.00     0.031 C 
ATOM     74  C   UNL A   1      47.818  35.273  28.739  1.00  0.00     0.034 A 
BRANCH  61  75
ATOM     75  C   UNL A   1      43.381  39.136  26.900  1.00  0.00     0.023 A 
ATOM     76  C   UNL A   1      41.973  39.237  26.892  1.00  0.00     0.012 A 
ATOM     77  C   UNL A   1      44.045  40.210  26.210  1.00  0.00     0.148 A 
ATOM     78  C   UNL A   1      41.282  40.268  26.223  1.00  0.00     0.002 A 
ATOM     79  C   UNL A   1      43.357  41.249  25.560  1.00  0.00     0.091 A 
ATOM     80  F   UNL A   1      45.370  40.261  26.105  1.00  0.00    -0.205 F 
ATOM     81  C   UNL A   1      41.969  41.270  25.552  1.00  0.00     0.022 A 
BRANCH  79  82
ATOM     82  S   UNL A   1      44.205  42.576  24.652  1.00  0.00     0.127 S 
ATOM     83  O   UNL A   1      45.128  41.824  23.801  1.00  0.00    -0.237 OA
ATOM     84  O   UNL A   1      43.105  43.221  23.934  1.00  0.00    -0.237 OA
ATOM     85  O   UNL A   1      44.857  43.420  25.647  1.00  0.00    -0.744 OA
ENDBRANCH  79  82
ENDBRANCH  61  75
BRANCH  62  86
ATOM     86  C   UNL A   1      45.047  30.917  31.995  1.00  0.00     0.023 A 
ATOM     87  C   UNL A   1      44.758  30.262  30.763  1.00  0.00     0.012 A 
ATOM     88  C   UNL A   1      45.068  30.124  33.159  1.00  0.00     0.148 A 
ATOM     89  C   UNL A   1      44.624  28.875  30.669  1.00  0.00     0.002 A 
ATOM     90  C   UNL A   1      44.902  28.731  33.062  1.00  0.00     0.091 A 
ATOM     91  F   UNL A   1      45.347  30.699  34.336  1.00  0.00    -0.205 F 
ATOM     92  C   UNL A   1      44.710  28.104  31.819  1.00  0.00     0.022 A 
BRANCH  90  93
ATOM     93  S   UNL A   1      45.004  27.688  34.534  1.00  0.00     0.127 S 
ATOM     94  O   UNL A   1      46.354  27.961  35.033  1.00  0.00    -0.237 OA
ATOM     95  O   UNL A   1      43.938  28.194  35.397  1.00  0.00    -0.237 OA
ATOM     96  O   UNL A   1      44.829  26.352  33.980  1.00  0.00    -0.744 OA
ENDBRANCH  90  93
ENDBRANCH  62  86
BRANCH  74  97
ATOM     97  C   UNL A   1      48.749  35.343  27.544  1.00  0.00     0.023 A 
ATOM     98  C   UNL A   1      48.354  34.920  26.262  1.00  0.00     0.012 A 
ATOM     99  C   UNL A   1      49.962  36.075  27.631  1.00  0.00     0.148 A 
ATOM    100  C   UNL A   1      49.138  35.172  25.131  1.00  0.00     0.002 A 
ATOM    101  C   UNL A   1      50.657  36.447  26.487  1.00  0.00     0.091 A 
ATOM    102  F   UNL A   1      50.439  36.442  28.831  1.00  0.00    -0.205 F 
ATOM    103  C   UNL A   1      50.273  35.967  25.236  1.00  0.00     0.022 A 
BRANCH 101 104
ATOM    104  S   UNL A   1      51.901  37.744  26.596  1.00  0.00     0.127 S 
ATOM    105  O   UNL A   1      52.863  37.183  27.539  1.00  0.00    -0.237 OA
ATOM    106  O   UNL A   1      52.389  37.845  25.219  1.00  0.00    -0.237 OA
ATOM    107  O   UNL A   1      51.149  38.910  27.045  1.00  0.00    -0.744 OA
ENDBRANCH 101 104
ENDBRANCH  74  97
ENDBRANCH  48  49
ENDBRANCH  41  43
ENDBRANCH  40  41
ENDBRANCH  39  40
ENDBRANCH  38  39
ENDBRANCH  37  38
ENDBRANCH   1  37
TORSDOF 24
ENDMDL
MODEL 3
REMARK VINA RESULT:     -12.1      3.073      8.309
REMARK SMILES Cc1ccccc1C(=O)Nc1cc(NC(=O)c2ccccc2C)cc(C(=O)OCCOCCOCCOC(=O)c2ccc(-c3c4nc(c(-c5cccc(S(=O)(=O)[O-])c5F)c5ccc([nH]5)c(-c5cccc(S(=O)(=O)[O-])c5F)c5nc(c(-c6cccc(S(=O)(=O)[O-])c6F)c6ccc3[nH]6)C=C5)C=C4)cc2)c1
REMARK SMILES IDX 33 1 32 2 31 3 30 4 29 5 28 6 26 7 27 8 25 9 11 10 12 11
REMARK SMILES IDX 103 12 13 13 24 14 10 15 8 16 9 17 7 19 1 20 2 21 3 22 4 23
REMARK SMILES IDX 6 24 5 25 14 26 15 27 16 29 17 30 18 31 22 32 19 33 21 34
REMARK SMILES IDX 23 35 20 36 34 37 35 38 36 39 37 40 38 41 39 42 40 43 41 44
REMARK SMILES IDX 102 45 42 46 101 47 43 48 44 49 45 50 95 51 46 52 100 53
REMARK SMILES IDX 94 54 96 55 47 56 99 57 93 58 92 59 48 61 80 62 60 63 79 64
REMARK SMILES IDX 61 65 64 66 78 67 97 68 62 69 63 70 77 72 98 73 65 74 49 75
REMARK SMILES IDX 50 76 58 77 51 78 53 79 59 80 52 81 54 82 55 83 56 84 57 85
REMARK SMILES IDX 81 86 82 87 90 88 83 89 85 90 91 91 84 92 86 93 87 94 88 95
REMARK SMILES IDX 89 96 66 97 67 98 75 99 68 100 70 101 76 102 69 103 71 104
REMARK SMILES IDX 72 105 73 106 74 107
REMARK H PARENT 10 18 14 28 96 60 64 71
REMARK Flexibility Score: inf
ROOT
ATOM      1  C   UNL A   1      36.563  34.046  31.456  1.00  0.00     0.188 C 
ENDROOT
BRANCH   1   2
ATOM      2  C   UNL A   1      35.151  34.250  30.911  1.00  0.00     0.188 C 
BRANCH   2   3
ATOM      3  O   UNL A   1      34.675  33.724  29.653  1.00  0.00    -0.376 OA
BRANCH   3   4
ATOM      4  C   UNL A   1      34.439  32.334  29.334  1.00  0.00     0.202 C 
BRANCH   4   5
ATOM      5  C   UNL A   1      35.117  31.430  28.054  1.00  0.00     0.261 C 
BRANCH   5   6
ATOM      6  O   UNL A   1      34.515  30.035  27.184  1.00  0.00    -0.460 OA
BRANCH   6   7
ATOM      7  C   UNL A   1      33.232  29.450  26.889  1.00  0.00     0.338 C 
ATOM      8  O   UNL A   1      32.206  29.461  27.572  1.00  0.00    -0.246 OA
BRANCH   7   9
ATOM      9  C   UNL A   1      32.773  28.668  25.742  1.00  0.00     0.064 A 
ATOM     10  C   UNL A   1      33.736  26.917  24.244  1.00  0.00     0.044 A 
ATOM     11  C   UNL A   1      33.203  27.619  23.171  1.00  0.00     0.052 A 
ATOM     12  C   UNL A   1      33.426  27.393  25.525  1.00  0.00     0.042 A 
ATOM     13  C   UNL A   1      32.501  28.825  23.387  1.00  0.00     0.044 A 
ATOM     14  C   UNL A   1      32.383  29.405  24.648  1.00  0.00     0.042 A 
BRANCH  10  15
ATOM     15  N   UNL A   1      34.585  25.785  24.119  1.00  0.00    -0.322 N 
ATOM     16  C   UNL A   1      34.487  24.509  24.659  1.00  0.00     0.255 C 
ATOM     17  O   UNL A   1      35.468  23.769  24.750  1.00  0.00    -0.269 OA
ATOM     18  H   UNL A   1      35.378  25.929  23.553  1.00  0.00     0.170 HD
BRANCH  16  19
ATOM     19  C   UNL A   1      33.184  23.952  25.128  1.00  0.00     0.043 A 
ATOM     20  C   UNL A   1      32.332  23.386  22.775  1.00  0.00     0.045 C 
ATOM     21  C   UNL A   1      32.167  23.502  24.267  1.00  0.00    -0.038 A 
ATOM     22  C   UNL A   1      30.937  23.108  24.823  1.00  0.00     0.004 A 
ATOM     23  C   UNL A   1      30.758  23.042  26.207  1.00  0.00     0.000 A 
ATOM     24  C   UNL A   1      33.023  23.803  26.520  1.00  0.00     0.014 A 
ATOM     25  C   UNL A   1      31.817  23.346  27.056  1.00  0.00     0.001 A 
ENDBRANCH  16  19
ENDBRANCH  10  15
BRANCH  13  26
ATOM     26  N   UNL A   1      31.805  29.486  22.376  1.00  0.00    -0.322 N 
ATOM     27  C   UNL A   1      30.480  29.340  22.048  1.00  0.00     0.255 C 
ATOM     28  H   UNL A   1      32.322  30.128  21.837  1.00  0.00     0.170 HD
ATOM     29  O   UNL A   1      29.984  30.042  21.166  1.00  0.00    -0.269 OA
BRANCH  27  30
ATOM     30  C   UNL A   1      29.607  28.362  22.749  1.00  0.00     0.043 A 
ATOM     31  C   UNL A   1      30.218  27.122  22.986  1.00  0.00     0.014 A 
ATOM     32  C   UNL A   1      28.270  28.582  23.151  1.00  0.00    -0.038 A 
ATOM     33  C   UNL A   1      29.535  26.112  23.656  1.00  0.00     0.001 A 
ATOM     34  C   UNL A   1      27.615  27.559  23.859  1.00  0.00     0.004 A 
ATOM     35  C   UNL A   1      27.487  29.844  22.920  1.00  0.00     0.045 C 
ATOM     36  C   UNL A   1      28.239  26.336  24.105  1.00  0.00     0.000 A 
ENDBRANCH  27  30
ENDBRANCH  13  26
ENDBRANCH   7   9
ENDBRANCH   6   7
ENDBRANCH   5   6
ENDBRANCH   4   5
ENDBRANCH   3   4
ENDBRANCH   2   3
ENDBRANCH   1   2
BRANCH   1  37
ATOM     37  O   UNL A   1      37.517  34.321  30.459  1.00  0.00    -0.376 OA
BRANCH  37  38
ATOM     38  C   UNL A   1      38.174  33.206  29.898  1.00  0.00     0.202 C 
BRANCH  38  39
ATOM     39  C   UNL A   1      38.195  31.978  30.826  1.00  0.00     0.261 C 
BRANCH  39  40
ATOM     40  O   UNL A   1      39.255  31.061  30.469  1.00  0.00    -0.460 OA
BRANCH  40  41
ATOM     41  C   UNL A   1      38.935  30.030  29.603  1.00  0.00     0.338 C 
ATOM     42  O   UNL A   1      37.832  29.870  29.129  1.00  0.00    -0.246 OA
BRANCH  41  43
ATOM     43  C   UNL A   1      40.072  29.035  29.565  1.00  0.00     0.060 A 
ATOM     44  C   UNL A   1      40.613  28.297  30.633  1.00  0.00     0.016 A 
ATOM     45  C   UNL A   1      40.868  29.140  28.484  1.00  0.00     0.016 A 
ATOM     46  C   UNL A   1      42.024  27.870  30.659  1.00  0.00     0.010 A 
ATOM     47  C   UNL A   1      42.228  28.989  28.723  1.00  0.00     0.010 A 
ATOM     48  C   UNL A   1      42.965  28.284  29.712  1.00  0.00    -0.014 A 
BRANCH  48  49
ATOM     49  C   UNL A   1      44.662  28.124  29.787  1.00  0.00     0.031 A 
ATOM     50  C   UNL A   1      46.001  29.232  29.583  1.00  0.00     0.074 A 
ATOM     51  C   UNL A   1      45.125  26.860  29.873  1.00  0.00     0.049 A 
ATOM     52  N   UNL A   1      47.102  28.965  28.896  1.00  0.00    -0.248 NA
ATOM     53  C   UNL A   1      46.110  30.721  29.950  1.00  0.00     0.031 C 
ATOM     54  C   UNL A   1      46.496  26.419  30.105  1.00  0.00     0.029 A 
ATOM     55  N   UNL A   1      44.427  25.672  29.628  1.00  0.00    -0.354 N 
ATOM     56  C   UNL A   1      47.874  30.146  28.896  1.00  0.00     0.074 A 
ATOM     57  C   UNL A   1      46.982  31.199  29.085  1.00  0.00     0.031 C 
ATOM     58  C   UNL A   1      46.605  25.149  29.682  1.00  0.00     0.029 A 
ATOM     59  C   UNL A   1      45.353  24.813  29.025  1.00  0.00     0.049 A 
ATOM     60  H   UNL A   1      43.484  25.481  29.837  1.00  0.00     0.167 HD
ATOM     61  C   UNL A   1      49.217  30.212  29.113  1.00  0.00     0.034 A 
ATOM     62  C   UNL A   1      45.175  24.387  27.745  1.00  0.00     0.034 A 
ATOM     63  C   UNL A   1      49.763  28.909  28.825  1.00  0.00     0.049 A 
ATOM     64  C   UNL A   1      46.379  24.661  26.871  1.00  0.00     0.074 A 
ATOM     65  C   UNL A   1      50.103  27.824  29.606  1.00  0.00     0.029 A 
ATOM     66  N   UNL A   1      49.616  28.447  27.529  1.00  0.00    -0.354 N 
ATOM     67  N   UNL A   1      47.402  25.386  27.241  1.00  0.00    -0.248 NA
ATOM     68  C   UNL A   1      46.550  24.125  25.524  1.00  0.00     0.031 C 
ATOM     69  C   UNL A   1      49.957  26.664  28.785  1.00  0.00     0.029 A 
ATOM     70  C   UNL A   1      49.611  27.065  27.504  1.00  0.00     0.049 A 
ATOM     71  H   UNL A   1      49.527  29.023  26.736  1.00  0.00     0.167 HD
ATOM     72  C   UNL A   1      48.276  25.530  26.200  1.00  0.00     0.074 A 
ATOM     73  C   UNL A   1      47.737  24.652  25.176  1.00  0.00     0.031 C 
ATOM     74  C   UNL A   1      49.327  26.405  26.233  1.00  0.00     0.034 A 
BRANCH  61  75
ATOM     75  C   UNL A   1      49.983  31.392  29.796  1.00  0.00     0.023 A 
ATOM     76  C   UNL A   1      51.011  31.989  29.034  1.00  0.00     0.012 A 
ATOM     77  C   UNL A   1      49.887  31.897  31.140  1.00  0.00     0.148 A 
ATOM     78  C   UNL A   1      51.895  32.952  29.561  1.00  0.00     0.002 A 
ATOM     79  C   UNL A   1      50.756  32.872  31.660  1.00  0.00     0.091 A 
ATOM     80  F   UNL A   1      48.985  31.431  31.999  1.00  0.00    -0.205 F 
ATOM     81  C   UNL A   1      51.775  33.391  30.873  1.00  0.00     0.022 A 
BRANCH  79  82
ATOM     82  S   UNL A   1      50.656  33.469  33.373  1.00  0.00     0.127 S 
ATOM     83  O   UNL A   1      50.627  32.218  34.132  1.00  0.00    -0.237 OA
ATOM     84  O   UNL A   1      51.892  34.237  33.514  1.00  0.00    -0.237 OA
ATOM     85  O   UNL A   1      49.435  34.261  33.475  1.00  0.00    -0.744 OA
ENDBRANCH  79  82
ENDBRANCH  61  75
BRANCH  62  86
ATOM     86  C   UNL A   1      43.732  24.235  27.346  1.00  0.00     0.023 A 
ATOM     87  C   UNL A   1      43.166  25.321  26.616  1.00  0.00     0.012 A 
ATOM     88  C   UNL A   1      43.006  23.029  27.375  1.00  0.00     0.148 A 
ATOM     89  C   UNL A   1      42.007  25.181  25.848  1.00  0.00     0.002 A 
ATOM     90  C   UNL A   1      41.824  22.903  26.624  1.00  0.00     0.091 A 
ATOM     91  F   UNL A   1      43.509  21.980  28.040  1.00  0.00    -0.205 F 
ATOM     92  C   UNL A   1      41.341  23.964  25.840  1.00  0.00     0.022 A 
BRANCH  90  93
ATOM     93  S   UNL A   1      40.921  21.337  26.586  1.00  0.00     0.127 S 
ATOM     94  O   UNL A   1      41.820  20.462  25.829  1.00  0.00    -0.237 OA
ATOM     95  O   UNL A   1      40.787  20.975  27.995  1.00  0.00    -0.237 OA
ATOM     96  O   UNL A   1      39.702  21.701  25.876  1.00  0.00    -0.744 OA
ENDBRANCH  90  93
ENDBRANCH  62  86
BRANCH  74  97
ATOM     97  C   UNL A   1      50.131  26.833  25.020  1.00  0.00     0.023 A 
ATOM     98  C   UNL A   1      51.493  26.515  24.874  1.00  0.00     0.012 A 
ATOM     99  C   UNL A   1      49.468  27.351  23.877  1.00  0.00     0.148 A 
ATOM    100  C   UNL A   1      52.174  26.735  23.672  1.00  0.00     0.002 A 
ATOM    101  C   UNL A   1      50.113  27.427  22.648  1.00  0.00     0.091 A 
ATOM    102  F   UNL A   1      48.189  27.750  23.965  1.00  0.00    -0.205 F 
ATOM    103  C   UNL A   1      51.477  27.158  22.546  1.00  0.00     0.022 A 
BRANCH 101 104
ATOM    104  S   UNL A   1      49.136  27.633  21.151  1.00  0.00     0.127 S 
ATOM    105  O   UNL A   1      48.441  28.894  21.397  1.00  0.00    -0.237 OA
ATOM    106  O   UNL A   1      50.155  27.697  20.102  1.00  0.00    -0.237 OA
ATOM    107  O   UNL A   1      48.311  26.432  21.105  1.00  0.00    -0.744 OA
ENDBRANCH 101 104
ENDBRANCH  74  97
ENDBRANCH  48  49
ENDBRANCH  41  43
ENDBRANCH  40  41
ENDBRANCH  39  40
ENDBRANCH  38  39
ENDBRANCH  37  38
ENDBRANCH   1  37
TORSDOF 24
ENDMDL
