MODEL 1
REMARK VINA RESULT:     -10.8      0.000      0.000
REMARK SMILES CCC[C@](C)([NH2+][C@H]1CCOC2(CCCC2)C1)C(=O)OCCOCCOCCOC(=O)c1ccc(-c2c3nc(c(-c4cccc(S(=O)(=O)[O-])c4F)c4ccc([nH]4)c(-c4cccc(S(=O)(=O)[O-])c4F)c4nc(c(-c5cccc(S(=O)(=O)[O-])c5F)c5ccc2[nH]5)C=C4)C=C3)cc1
REMARK SMILES IDX 24 1 23 2 22 3 21 4 20 5 19 6 17 7 18 8 4 9 5 10 3 11 2 12
REMARK SMILES IDX 1 13 6 14 7 17 8 18 16 19 9 20 11 21 10 22 12 23 15 24 13 25
REMARK SMILES IDX 14 26 25 27 26 28 27 29 28 30 29 31 30 32 31 33 32 34 93 35
REMARK SMILES IDX 33 36 92 37 34 38 35 39 36 40 86 41 37 42 91 43 85 44 87 45
REMARK SMILES IDX 38 46 90 47 84 48 83 49 39 51 71 52 51 53 70 54 52 55 55 56
REMARK SMILES IDX 69 57 88 58 53 59 54 60 68 62 89 63 56 64 40 65 41 66 49 67
REMARK SMILES IDX 42 68 44 69 50 70 43 71 45 72 46 73 47 74 48 75 72 76 73 77
REMARK SMILES IDX 81 78 74 79 76 80 82 81 75 82 77 83 78 84 79 85 80 86 57 87
REMARK SMILES IDX 58 88 66 89 59 90 61 91 67 92 60 93 62 94 63 95 64 96 65 97
REMARK H PARENT 6 15 6 16 87 50 55 61
REMARK Flexibility Score: inf
ROOT
ATOM      1  C   UNL A   1      31.667  27.126  25.954  1.00  0.00     0.188 C 
ENDROOT
BRANCH   1   2
ATOM      2  C   UNL A   1      30.319  26.405  25.838  1.00  0.00     0.188 C 
BRANCH   2   3
ATOM      3  O   UNL A   1      30.098  25.577  24.716  1.00  0.00    -0.376 OA
BRANCH   3   4
ATOM      4  C   UNL A   1      31.203  24.920  24.112  1.00  0.00     0.202 C 
BRANCH   4   5
ATOM      5  C   UNL A   1      31.257  23.393  23.966  1.00  0.00     0.261 C 
BRANCH   5   6
ATOM      6  O   UNL A   1      31.144  22.678  25.208  1.00  0.00    -0.459 OA
BRANCH   6   7
ATOM      7  C   UNL A   1      32.126  22.864  26.125  1.00  0.00     0.367 C 
ATOM      8  O   UNL A   1      32.006  23.628  27.081  1.00  0.00    -0.245 OA
BRANCH   7   9
ATOM      9  C   UNL A   1      33.428  22.031  25.901  1.00  0.00     0.191 C 
ATOM     10  C   UNL A   1      33.298  20.867  26.955  1.00  0.00     0.092 C 
BRANCH   9  11
ATOM     11  C   UNL A   1      34.653  22.889  26.341  1.00  0.00     0.080 C 
BRANCH  11  12
ATOM     12  C   UNL A   1      35.394  23.792  25.347  1.00  0.00     0.004 C 
ATOM     13  C   UNL A   1      34.644  25.029  24.863  1.00  0.00     0.004 C 
ENDBRANCH  11  12
ENDBRANCH   9  11
BRANCH   9  14
ATOM     14  N   UNL A   1      33.575  21.298  24.604  1.00  0.00    -0.330 N 
ATOM     15  H   UNL A   1      34.579  21.266  24.426  1.00  0.00     0.347 HD
ATOM     16  H   UNL A   1      32.934  21.837  24.021  1.00  0.00     0.347 HD
BRANCH  14  17
ATOM     17  C   UNL A   1      33.090  19.944  24.330  1.00  0.00     0.188 C 
ATOM     18  C   UNL A   1      32.374  19.902  22.960  1.00  0.00     0.093 C 
ATOM     19  C   UNL A   1      34.151  18.870  24.300  1.00  0.00     0.100 C 
ATOM     20  C   UNL A   1      32.120  18.490  22.396  1.00  0.00     0.167 C 
ATOM     21  C   UNL A   1      33.564  17.493  24.038  1.00  0.00     0.074 C 
ATOM     22  O   UNL A   1      33.114  17.495  22.683  1.00  0.00    -0.375 OA
ATOM     23  C   UNL A   1      34.698  16.458  24.233  1.00  0.00     0.036 C 
ATOM     24  C   UNL A   1      32.442  17.039  25.004  1.00  0.00     0.036 C 
ATOM     25  C   UNL A   1      34.374  15.782  25.561  1.00  0.00     0.003 C 
ATOM     26  C   UNL A   1      32.867  15.664  25.501  1.00  0.00     0.003 C 
ENDBRANCH  14  17
ENDBRANCH   9  14
ENDBRANCH   7   9
ENDBRANCH   6   7
ENDBRANCH   5   6
ENDBRANCH   4   5
ENDBRANCH   3   4
ENDBRANCH   2   3
ENDBRANCH   1   2
BRANCH   1  27
ATOM     27  O   UNL A   1      32.062  28.134  25.050  1.00  0.00    -0.376 OA
BRANCH  27  28
ATOM     28  C   UNL A   1      31.517  29.433  25.143  1.00  0.00     0.202 C 
BRANCH  28  29
ATOM     29  C   UNL A   1      31.835  30.361  26.323  1.00  0.00     0.261 C 
BRANCH  29  30
ATOM     30  O   UNL A   1      33.168  30.290  26.827  1.00  0.00    -0.460 OA
BRANCH  30  31
ATOM     31  C   UNL A   1      33.645  31.438  27.386  1.00  0.00     0.338 C 
ATOM     32  O   UNL A   1      33.036  32.452  27.632  1.00  0.00    -0.246 OA
BRANCH  31  33
ATOM     33  C   UNL A   1      35.010  31.130  27.875  1.00  0.00     0.060 A 
ATOM     34  C   UNL A   1      35.372  29.789  28.092  1.00  0.00     0.016 A 
ATOM     35  C   UNL A   1      35.939  32.156  28.032  1.00  0.00     0.016 A 
ATOM     36  C   UNL A   1      36.675  29.471  28.470  1.00  0.00     0.010 A 
ATOM     37  C   UNL A   1      37.229  31.841  28.444  1.00  0.00     0.010 A 
ATOM     38  C   UNL A   1      37.592  30.504  28.690  1.00  0.00    -0.014 A 
BRANCH  38  39
ATOM     39  C   UNL A   1      38.843  30.263  29.437  1.00  0.00     0.031 A 
ATOM     40  C   UNL A   1      39.762  29.212  28.885  1.00  0.00     0.074 A 
ATOM     41  C   UNL A   1      39.099  30.868  30.609  1.00  0.00     0.049 A 
ATOM     42  N   UNL A   1      40.781  28.622  29.445  1.00  0.00    -0.248 NA
ATOM     43  C   UNL A   1      39.471  28.747  27.516  1.00  0.00     0.031 C 
ATOM     44  C   UNL A   1      38.291  31.924  31.217  1.00  0.00     0.029 A 
ATOM     45  N   UNL A   1      40.095  30.633  31.523  1.00  0.00    -0.354 N 
ATOM     46  C   UNL A   1      41.222  27.685  28.519  1.00  0.00     0.074 A 
ATOM     47  C   UNL A   1      40.363  27.781  27.362  1.00  0.00     0.031 C 
ATOM     48  C   UNL A   1      38.799  32.214  32.430  1.00  0.00     0.029 A 
ATOM     49  C   UNL A   1      39.933  31.331  32.698  1.00  0.00     0.049 A 
ATOM     50  H   UNL A   1      40.851  30.025  31.355  1.00  0.00     0.167 HD
ATOM     51  C   UNL A   1      42.255  26.821  28.625  1.00  0.00     0.034 A 
ATOM     52  C   UNL A   1      40.600  31.227  33.865  1.00  0.00     0.034 A 
ATOM     53  C   UNL A   1      43.098  26.733  29.782  1.00  0.00     0.049 A 
ATOM     54  C   UNL A   1      41.717  30.216  33.977  1.00  0.00     0.074 A 
ATOM     55  C   UNL A   1      44.183  25.904  29.996  1.00  0.00     0.029 A 
ATOM     56  N   UNL A   1      42.943  27.501  30.926  1.00  0.00    -0.354 N 
ATOM     57  N   UNL A   1      42.174  29.380  33.073  1.00  0.00    -0.248 NA
ATOM     58  C   UNL A   1      42.429  30.147  35.263  1.00  0.00     0.031 C 
ATOM     59  C   UNL A   1      44.667  26.152  31.284  1.00  0.00     0.029 A 
ATOM     60  C   UNL A   1      43.914  27.169  31.850  1.00  0.00     0.049 A 
ATOM     61  H   UNL A   1      42.244  28.183  31.059  1.00  0.00     0.167 HD
ATOM     62  C   UNL A   1      43.259  28.736  33.659  1.00  0.00     0.074 A 
ATOM     63  C   UNL A   1      43.392  29.275  34.997  1.00  0.00     0.031 C 
ATOM     64  C   UNL A   1      44.072  27.782  33.143  1.00  0.00     0.034 A 
BRANCH  51  65
ATOM     65  C   UNL A   1      42.528  25.914  27.457  1.00  0.00     0.023 A 
ATOM     66  C   UNL A   1      43.305  26.380  26.377  1.00  0.00     0.012 A 
ATOM     67  C   UNL A   1      42.049  24.590  27.444  1.00  0.00     0.148 A 
ATOM     68  C   UNL A   1      43.573  25.555  25.286  1.00  0.00     0.002 A 
ATOM     69  C   UNL A   1      42.363  23.757  26.378  1.00  0.00     0.091 A 
ATOM     70  F   UNL A   1      41.290  24.175  28.468  1.00  0.00    -0.205 F 
ATOM     71  C   UNL A   1      43.111  24.241  25.293  1.00  0.00     0.022 A 
BRANCH  69  72
ATOM     72  S   UNL A   1      41.886  22.026  26.326  1.00  0.00     0.127 S 
ATOM     73  O   UNL A   1      42.718  21.523  25.233  1.00  0.00    -0.237 OA
ATOM     74  O   UNL A   1      42.280  21.563  27.656  1.00  0.00    -0.237 OA
ATOM     75  O   UNL A   1      40.453  22.009  26.072  1.00  0.00    -0.744 OA
ENDBRANCH  69  72
ENDBRANCH  51  65
BRANCH  52  76
ATOM     76  C   UNL A   1      40.256  32.102  35.022  1.00  0.00     0.023 A 
ATOM     77  C   UNL A   1      41.037  33.247  35.275  1.00  0.00     0.012 A 
ATOM     78  C   UNL A   1      39.183  31.803  35.884  1.00  0.00     0.148 A 
ATOM     79  C   UNL A   1      40.787  34.051  36.387  1.00  0.00     0.002 A 
ATOM     80  C   UNL A   1      38.905  32.639  36.960  1.00  0.00     0.091 A 
ATOM     81  F   UNL A   1      38.457  30.703  35.637  1.00  0.00    -0.205 F 
ATOM     82  C   UNL A   1      39.717  33.752  37.225  1.00  0.00     0.022 A 
BRANCH  80  83
ATOM     83  S   UNL A   1      37.482  32.397  38.030  1.00  0.00     0.127 S 
ATOM     84  O   UNL A   1      37.408  30.940  38.105  1.00  0.00    -0.237 OA
ATOM     85  O   UNL A   1      37.919  33.055  39.263  1.00  0.00    -0.237 OA
ATOM     86  O   UNL A   1      36.368  33.053  37.360  1.00  0.00    -0.744 OA
ENDBRANCH  80  83
ENDBRANCH  52  76
BRANCH  64  87
ATOM     87  C   UNL A   1      45.243  27.321  33.970  1.00  0.00     0.023 A 
ATOM     88  C   UNL A   1      46.456  28.033  33.952  1.00  0.00     0.012 A 
ATOM     89  C   UNL A   1      45.083  26.240  34.862  1.00  0.00     0.148 A 
ATOM     90  C   UNL A   1      47.502  27.663  34.797  1.00  0.00     0.002 A 
ATOM     91  C   UNL A   1      46.109  25.913  35.738  1.00  0.00     0.091 A 
ATOM     92  F   UNL A   1      43.922  25.569  34.849  1.00  0.00    -0.205 F 
ATOM     93  C   UNL A   1      47.324  26.615  35.699  1.00  0.00     0.022 A 
BRANCH  91  94
ATOM     94  S   UNL A   1      45.929  24.652  37.005  1.00  0.00     0.127 S 
ATOM     95  O   UNL A   1      47.247  24.677  37.637  1.00  0.00    -0.237 OA
ATOM     96  O   UNL A   1      44.847  25.195  37.826  1.00  0.00    -0.237 OA
ATOM     97  O   UNL A   1      45.599  23.418  36.306  1.00  0.00    -0.744 OA
ENDBRANCH  91  94
ENDBRANCH  64  87
ENDBRANCH  38  39
ENDBRANCH  31  33
ENDBRANCH  30  31
ENDBRANCH  29  30
ENDBRANCH  28  29
ENDBRANCH  27  28
ENDBRANCH   1  27
TORSDOF 24
ENDMDL
MODEL 2
REMARK VINA RESULT:      -9.3      2.186      2.683
REMARK SMILES CCC[C@](C)([NH2+][C@H]1CCOC2(CCCC2)C1)C(=O)OCCOCCOCCOC(=O)c1ccc(-c2c3nc(c(-c4cccc(S(=O)(=O)[O-])c4F)c4ccc([nH]4)c(-c4cccc(S(=O)(=O)[O-])c4F)c4nc(c(-c5cccc(S(=O)(=O)[O-])c5F)c5ccc2[nH]5)C=C4)C=C3)cc1
REMARK SMILES IDX 24 1 23 2 22 3 21 4 20 5 19 6 17 7 18 8 4 9 5 10 3 11 2 12
REMARK SMILES IDX 1 13 6 14 7 17 8 18 16 19 9 20 11 21 10 22 12 23 15 24 13 25
REMARK SMILES IDX 14 26 25 27 26 28 27 29 28 30 29 31 30 32 31 33 32 34 93 35
REMARK SMILES IDX 33 36 92 37 34 38 35 39 36 40 86 41 37 42 91 43 85 44 87 45
REMARK SMILES IDX 38 46 90 47 84 48 83 49 39 51 71 52 51 53 70 54 52 55 55 56
REMARK SMILES IDX 69 57 88 58 53 59 54 60 68 62 89 63 56 64 40 65 41 66 49 67
REMARK SMILES IDX 42 68 44 69 50 70 43 71 45 72 46 73 47 74 48 75 72 76 73 77
REMARK SMILES IDX 81 78 74 79 76 80 82 81 75 82 77 83 78 84 79 85 80 86 57 87
REMARK SMILES IDX 58 88 66 89 59 90 61 91 67 92 60 93 62 94 63 95 64 96 65 97
REMARK H PARENT 6 15 6 16 87 50 55 61
REMARK Flexibility Score: inf
ROOT
ATOM      1  C   UNL A   1      33.482  27.991  26.622  1.00  0.00     0.188 C 
ENDROOT
BRANCH   1   2
ATOM      2  C   UNL A   1      33.590  26.988  25.467  1.00  0.00     0.188 C 
BRANCH   2   3
ATOM      3  O   UNL A   1      33.246  27.424  24.169  1.00  0.00    -0.376 OA
BRANCH   3   4
ATOM      4  C   UNL A   1      32.597  26.520  23.285  1.00  0.00     0.202 C 
BRANCH   4   5
ATOM      5  C   UNL A   1      31.618  25.453  23.793  1.00  0.00     0.261 C 
BRANCH   5   6
ATOM      6  O   UNL A   1      32.112  24.107  23.697  1.00  0.00    -0.459 OA
BRANCH   6   7
ATOM      7  C   UNL A   1      32.044  23.338  24.813  1.00  0.00     0.367 C 
ATOM      8  O   UNL A   1      31.032  23.265  25.508  1.00  0.00    -0.245 OA
BRANCH   7   9
ATOM      9  C   UNL A   1      33.337  22.532  25.160  1.00  0.00     0.191 C 
ATOM     10  C   UNL A   1      34.041  23.431  26.247  1.00  0.00     0.092 C 
BRANCH   9  11
ATOM     11  C   UNL A   1      34.275  22.531  23.915  1.00  0.00     0.080 C 
BRANCH  11  12
ATOM     12  C   UNL A   1      35.760  22.163  24.036  1.00  0.00     0.004 C 
ATOM     13  C   UNL A   1      36.761  23.214  23.567  1.00  0.00     0.004 C 
ENDBRANCH  11  12
ENDBRANCH   9  11
BRANCH   9  14
ATOM     14  N   UNL A   1      33.176  21.219  25.859  1.00  0.00    -0.330 N 
ATOM     15  H   UNL A   1      32.433  21.368  26.542  1.00  0.00     0.347 HD
ATOM     16  H   UNL A   1      34.142  21.044  26.133  1.00  0.00     0.347 HD
BRANCH  14  17
ATOM     17  C   UNL A   1      32.858  19.942  25.215  1.00  0.00     0.188 C 
ATOM     18  C   UNL A   1      32.193  20.192  23.841  1.00  0.00     0.093 C 
ATOM     19  C   UNL A   1      34.035  19.030  24.970  1.00  0.00     0.100 C 
ATOM     20  C   UNL A   1      32.120  18.960  22.915  1.00  0.00     0.167 C 
ATOM     21  C   UNL A   1      33.619  17.719  24.324  1.00  0.00     0.074 C 
ATOM     22  O   UNL A   1      33.212  18.033  22.992  1.00  0.00    -0.375 OA
ATOM     23  C   UNL A   1      34.858  16.792  24.311  1.00  0.00     0.036 C 
ATOM     24  C   UNL A   1      32.528  16.913  25.071  1.00  0.00     0.036 C 
ATOM     25  C   UNL A   1      34.574  15.759  25.396  1.00  0.00     0.003 C 
ATOM     26  C   UNL A   1      33.093  15.506  25.219  1.00  0.00     0.003 C 
ENDBRANCH  14  17
ENDBRANCH   9  14
ENDBRANCH   7   9
ENDBRANCH   6   7
ENDBRANCH   5   6
ENDBRANCH   4   5
ENDBRANCH   3   4
ENDBRANCH   2   3
ENDBRANCH   1   2
BRANCH   1  27
ATOM     27  O   UNL A   1      33.512  29.385  26.413  1.00  0.00    -0.376 OA
BRANCH  27  28
ATOM     28  C   UNL A   1      32.336  30.155  26.538  1.00  0.00     0.202 C 
BRANCH  28  29
ATOM     29  C   UNL A   1      32.380  31.654  26.860  1.00  0.00     0.261 C 
BRANCH  29  30
ATOM     30  O   UNL A   1      33.047  32.011  28.069  1.00  0.00    -0.460 OA
BRANCH  30  31
ATOM     31  C   UNL A   1      33.942  33.033  27.967  1.00  0.00     0.338 C 
ATOM     32  O   UNL A   1      33.730  34.174  27.630  1.00  0.00    -0.246 OA
BRANCH  31  33
ATOM     33  C   UNL A   1      35.198  32.554  28.590  1.00  0.00     0.060 A 
ATOM     34  C   UNL A   1      35.190  31.341  29.301  1.00  0.00     0.016 A 
ATOM     35  C   UNL A   1      36.383  33.260  28.396  1.00  0.00     0.016 A 
ATOM     36  C   UNL A   1      36.377  30.830  29.823  1.00  0.00     0.010 A 
ATOM     37  C   UNL A   1      37.561  32.768  28.947  1.00  0.00     0.010 A 
ATOM     38  C   UNL A   1      37.556  31.569  29.683  1.00  0.00    -0.014 A 
BRANCH  38  39
ATOM     39  C   UNL A   1      38.739  31.275  30.517  1.00  0.00     0.031 A 
ATOM     40  C   UNL A   1      39.682  30.228  29.999  1.00  0.00     0.074 A 
ATOM     41  C   UNL A   1      38.911  31.831  31.728  1.00  0.00     0.049 A 
ATOM     42  N   UNL A   1      40.643  29.597  30.614  1.00  0.00    -0.248 NA
ATOM     43  C   UNL A   1      39.493  29.820  28.594  1.00  0.00     0.031 C 
ATOM     44  C   UNL A   1      38.075  32.879  32.311  1.00  0.00     0.029 A 
ATOM     45  N   UNL A   1      39.827  31.542  32.708  1.00  0.00    -0.354 N 
ATOM     46  C   UNL A   1      41.141  28.687  29.691  1.00  0.00     0.074 A 
ATOM     47  C   UNL A   1      40.378  28.843  28.474  1.00  0.00     0.031 C 
ATOM     48  C   UNL A   1      38.490  33.114  33.570  1.00  0.00     0.029 A 
ATOM     49  C   UNL A   1      39.584  32.200  33.892  1.00  0.00     0.049 A 
ATOM     50  H   UNL A   1      40.584  30.926  32.577  1.00  0.00     0.167 HD
ATOM     51  C   UNL A   1      42.148  27.799  29.844  1.00  0.00     0.034 A 
ATOM     52  C   UNL A   1      40.154  32.038  35.103  1.00  0.00     0.034 A 
ATOM     53  C   UNL A   1      42.894  27.652  31.060  1.00  0.00     0.049 A 
ATOM     54  C   UNL A   1      41.242  31.002  35.264  1.00  0.00     0.074 A 
ATOM     55  C   UNL A   1      43.944  26.794  31.326  1.00  0.00     0.029 A 
ATOM     56  N   UNL A   1      42.661  28.380  32.216  1.00  0.00    -0.354 N 
ATOM     57  N   UNL A   1      41.755  30.193  34.368  1.00  0.00    -0.248 NA
ATOM     58  C   UNL A   1      41.848  30.872  36.599  1.00  0.00     0.031 C 
ATOM     59  C   UNL A   1      44.328  26.984  32.657  1.00  0.00     0.029 A 
ATOM     60  C   UNL A   1      43.550  27.994  33.201  1.00  0.00     0.049 A 
ATOM     61  H   UNL A   1      41.966  29.069  32.321  1.00  0.00     0.167 HD
ATOM     62  C   UNL A   1      42.779  29.505  35.012  1.00  0.00     0.074 A 
ATOM     63  C   UNL A   1      42.814  29.992  36.376  1.00  0.00     0.031 C 
ATOM     64  C   UNL A   1      43.615  28.556  34.525  1.00  0.00     0.034 A 
BRANCH  51  65
ATOM     65  C   UNL A   1      42.498  26.931  28.667  1.00  0.00     0.023 A 
ATOM     66  C   UNL A   1      41.679  25.829  28.344  1.00  0.00     0.012 A 
ATOM     67  C   UNL A   1      43.613  27.225  27.859  1.00  0.00     0.148 A 
ATOM     68  C   UNL A   1      41.983  25.013  27.256  1.00  0.00     0.002 A 
ATOM     69  C   UNL A   1      43.880  26.439  26.746  1.00  0.00     0.091 A 
ATOM     70  F   UNL A   1      44.393  28.261  28.199  1.00  0.00    -0.205 F 
ATOM     71  C   UNL A   1      43.076  25.325  26.452  1.00  0.00     0.022 A 
BRANCH  69  72
ATOM     72  S   UNL A   1      45.215  26.801  25.601  1.00  0.00     0.127 S 
ATOM     73  O   UNL A   1      46.374  26.818  26.493  1.00  0.00    -0.237 OA
ATOM     74  O   UNL A   1      45.159  25.653  24.696  1.00  0.00    -0.237 OA
ATOM     75  O   UNL A   1      44.886  28.080  24.988  1.00  0.00    -0.744 OA
ENDBRANCH  69  72
ENDBRANCH  51  65
BRANCH  52  76
ATOM     76  C   UNL A   1      39.733  32.877  36.263  1.00  0.00     0.023 A 
ATOM     77  C   UNL A   1      38.782  32.369  37.170  1.00  0.00     0.012 A 
ATOM     78  C   UNL A   1      40.244  34.174  36.463  1.00  0.00     0.148 A 
ATOM     79  C   UNL A   1      38.314  33.151  38.226  1.00  0.00     0.002 A 
ATOM     80  C   UNL A   1      39.814  34.928  37.550  1.00  0.00     0.091 A 
ATOM     81  F   UNL A   1      41.139  34.648  35.584  1.00  0.00    -0.205 F 
ATOM     82  C   UNL A   1      38.834  34.426  38.420  1.00  0.00     0.022 A 
BRANCH  80  83
ATOM     83  S   UNL A   1      40.506  36.537  37.946  1.00  0.00     0.127 S 
ATOM     84  O   UNL A   1      40.813  37.066  36.619  1.00  0.00    -0.237 OA
ATOM     85  O   UNL A   1      39.385  37.189  38.624  1.00  0.00    -0.237 OA
ATOM     86  O   UNL A   1      41.655  36.273  38.801  1.00  0.00    -0.744 OA
ENDBRANCH  80  83
ENDBRANCH  52  76
BRANCH  64  87
ATOM     87  C   UNL A   1      44.708  28.041  35.423  1.00  0.00     0.023 A 
ATOM     88  C   UNL A   1      45.955  28.690  35.477  1.00  0.00     0.012 A 
ATOM     89  C   UNL A   1      44.439  26.975  36.308  1.00  0.00     0.148 A 
ATOM     90  C   UNL A   1      46.927  28.273  36.385  1.00  0.00     0.002 A 
ATOM     91  C   UNL A   1      45.392  26.602  37.245  1.00  0.00     0.091 A 
ATOM     92  F   UNL A   1      43.249  26.364  36.227  1.00  0.00    -0.205 F 
ATOM     93  C   UNL A   1      46.642  27.242  37.278  1.00  0.00     0.022 A 
BRANCH  91  94
ATOM     94  S   UNL A   1      45.071  25.361  38.504  1.00  0.00     0.127 S 
ATOM     95  O   UNL A   1      44.058  24.533  37.853  1.00  0.00    -0.237 OA
ATOM     96  O   UNL A   1      46.380  24.725  38.648  1.00  0.00    -0.237 OA
ATOM     97  O   UNL A   1      44.616  26.087  39.682  1.00  0.00    -0.744 OA
ENDBRANCH  91  94
ENDBRANCH  64  87
ENDBRANCH  38  39
ENDBRANCH  31  33
ENDBRANCH  30  31
ENDBRANCH  29  30
ENDBRANCH  28  29
ENDBRANCH  27  28
ENDBRANCH   1  27
TORSDOF 24
ENDMDL
MODEL 3
REMARK VINA RESULT:      -9.1      2.090      7.758
REMARK SMILES CCC[C@](C)([NH2+][C@H]1CCOC2(CCCC2)C1)C(=O)OCCOCCOCCOC(=O)c1ccc(-c2c3nc(c(-c4cccc(S(=O)(=O)[O-])c4F)c4ccc([nH]4)c(-c4cccc(S(=O)(=O)[O-])c4F)c4nc(c(-c5cccc(S(=O)(=O)[O-])c5F)c5ccc2[nH]5)C=C4)C=C3)cc1
REMARK SMILES IDX 24 1 23 2 22 3 21 4 20 5 19 6 17 7 18 8 4 9 5 10 3 11 2 12
REMARK SMILES IDX 1 13 6 14 7 17 8 18 16 19 9 20 11 21 10 22 12 23 15 24 13 25
REMARK SMILES IDX 14 26 25 27 26 28 27 29 28 30 29 31 30 32 31 33 32 34 93 35
REMARK SMILES IDX 33 36 92 37 34 38 35 39 36 40 86 41 37 42 91 43 85 44 87 45
REMARK SMILES IDX 38 46 90 47 84 48 83 49 39 51 71 52 51 53 70 54 52 55 55 56
REMARK SMILES IDX 69 57 88 58 53 59 54 60 68 62 89 63 56 64 40 65 41 66 49 67
REMARK SMILES IDX 42 68 44 69 50 70 43 71 45 72 46 73 47 74 48 75 72 76 73 77
REMARK SMILES IDX 81 78 74 79 76 80 82 81 75 82 77 83 78 84 79 85 80 86 57 87
REMARK SMILES IDX 58 88 66 89 59 90 61 91 67 92 60 93 62 94 63 95 64 96 65 97
REMARK H PARENT 6 15 6 16 87 50 55 61
REMARK Flexibility Score: inf
ROOT
ATOM      1  C   UNL A   1      33.147  28.100  26.196  1.00  0.00     0.188 C 
ENDROOT
BRANCH   1   2
ATOM      2  C   UNL A   1      33.761  27.187  25.129  1.00  0.00     0.188 C 
BRANCH   2   3
ATOM      3  O   UNL A   1      33.661  27.578  23.776  1.00  0.00    -0.376 OA
BRANCH   3   4
ATOM      4  C   UNL A   1      33.401  26.591  22.788  1.00  0.00     0.202 C 
BRANCH   4   5
ATOM      5  C   UNL A   1      32.294  25.542  22.962  1.00  0.00     0.261 C 
BRANCH   5   6
ATOM      6  O   UNL A   1      32.775  24.224  23.273  1.00  0.00    -0.459 OA
BRANCH   6   7
ATOM      7  C   UNL A   1      31.943  23.404  23.962  1.00  0.00     0.367 C 
ATOM      8  O   UNL A   1      30.729  23.375  23.769  1.00  0.00    -0.245 OA
BRANCH   7   9
ATOM      9  C   UNL A   1      32.627  22.478  25.019  1.00  0.00     0.191 C 
ATOM     10  C   UNL A   1      31.408  21.743  25.697  1.00  0.00     0.092 C 
BRANCH   9  11
ATOM     11  C   UNL A   1      33.273  23.369  26.122  1.00  0.00     0.080 C 
BRANCH  11  12
ATOM     12  C   UNL A   1      34.796  23.497  26.254  1.00  0.00     0.004 C 
ATOM     13  C   UNL A   1      35.533  24.100  25.063  1.00  0.00     0.004 C 
ENDBRANCH  11  12
ENDBRANCH   9  11
BRANCH   9  14
ATOM     14  N   UNL A   1      33.468  21.346  24.517  1.00  0.00    -0.330 N 
ATOM     15  H   UNL A   1      34.215  21.242  25.202  1.00  0.00     0.347 HD
ATOM     16  H   UNL A   1      33.641  21.663  23.563  1.00  0.00     0.347 HD
BRANCH  14  17
ATOM     17  C   UNL A   1      32.995  19.985  24.251  1.00  0.00     0.188 C 
ATOM     18  C   UNL A   1      32.326  19.917  22.858  1.00  0.00     0.093 C 
ATOM     19  C   UNL A   1      34.058  18.914  24.277  1.00  0.00     0.100 C 
ATOM     20  C   UNL A   1      32.095  18.494  22.312  1.00  0.00     0.167 C 
ATOM     21  C   UNL A   1      33.484  17.531  24.020  1.00  0.00     0.074 C 
ATOM     22  O   UNL A   1      33.080  17.507  22.650  1.00  0.00    -0.375 OA
ATOM     23  C   UNL A   1      34.612  16.503  24.273  1.00  0.00     0.036 C 
ATOM     24  C   UNL A   1      32.331  17.092  24.955  1.00  0.00     0.036 C 
ATOM     25  C   UNL A   1      34.245  15.850  25.600  1.00  0.00     0.003 C 
ATOM     26  C   UNL A   1      32.741  15.727  25.491  1.00  0.00     0.003 C 
ENDBRANCH  14  17
ENDBRANCH   9  14
ENDBRANCH   7   9
ENDBRANCH   6   7
ENDBRANCH   5   6
ENDBRANCH   4   5
ENDBRANCH   3   4
ENDBRANCH   2   3
ENDBRANCH   1   2
BRANCH   1  27
ATOM     27  O   UNL A   1      33.260  29.505  26.140  1.00  0.00    -0.376 OA
BRANCH  27  28
ATOM     28  C   UNL A   1      32.112  30.320  26.236  1.00  0.00     0.202 C 
BRANCH  28  29
ATOM     29  C   UNL A   1      32.204  31.805  26.612  1.00  0.00     0.261 C 
BRANCH  29  30
ATOM     30  O   UNL A   1      32.709  32.085  27.916  1.00  0.00    -0.460 OA
BRANCH  30  31
ATOM     31  C   UNL A   1      33.628  33.090  27.986  1.00  0.00     0.338 C 
ATOM     32  O   UNL A   1      33.478  34.254  27.699  1.00  0.00    -0.246 OA
BRANCH  31  33
ATOM     33  C   UNL A   1      34.791  32.543  28.724  1.00  0.00     0.060 A 
ATOM     34  C   UNL A   1      35.903  32.077  28.000  1.00  0.00     0.016 A 
ATOM     35  C   UNL A   1      34.808  32.575  30.116  1.00  0.00     0.016 A 
ATOM     36  C   UNL A   1      37.041  31.637  28.674  1.00  0.00     0.010 A 
ATOM     37  C   UNL A   1      35.929  32.104  30.790  1.00  0.00     0.010 A 
ATOM     38  C   UNL A   1      37.034  31.610  30.073  1.00  0.00    -0.014 A 
BRANCH  38  39
ATOM     39  C   UNL A   1      38.036  30.822  30.820  1.00  0.00     0.031 A 
ATOM     40  C   UNL A   1      38.333  31.273  32.222  1.00  0.00     0.074 A 
ATOM     41  C   UNL A   1      38.729  29.825  30.246  1.00  0.00     0.049 A 
ATOM     42  N   UNL A   1      39.318  30.942  33.009  1.00  0.00    -0.248 NA
ATOM     43  C   UNL A   1      37.396  32.253  32.803  1.00  0.00     0.031 C 
ATOM     44  C   UNL A   1      38.499  29.288  28.906  1.00  0.00     0.029 A 
ATOM     45  N   UNL A   1      39.811  29.121  30.712  1.00  0.00    -0.354 N 
ATOM     46  C   UNL A   1      39.149  31.707  34.157  1.00  0.00     0.074 A 
ATOM     47  C   UNL A   1      37.969  32.519  33.966  1.00  0.00     0.031 C 
ATOM     48  C   UNL A   1      39.445  28.369  28.639  1.00  0.00     0.029 A 
ATOM     49  C   UNL A   1      40.370  28.291  29.768  1.00  0.00     0.049 A 
ATOM     50  H   UNL A   1      40.154  29.202  31.632  1.00  0.00     0.167 HD
ATOM     51  C   UNL A   1      39.909  31.728  35.273  1.00  0.00     0.034 A 
ATOM     52  C   UNL A   1      41.522  27.592  29.805  1.00  0.00     0.034 A 
ATOM     53  C   UNL A   1      41.081  30.919  35.447  1.00  0.00     0.049 A 
ATOM     54  C   UNL A   1      42.383  27.672  31.043  1.00  0.00     0.074 A 
ATOM     55  C   UNL A   1      41.923  30.848  36.541  1.00  0.00     0.029 A 
ATOM     56  N   UNL A   1      41.578  30.043  34.495  1.00  0.00    -0.354 N 
ATOM     57  N   UNL A   1      42.181  28.345  32.152  1.00  0.00    -0.248 NA
ATOM     58  C   UNL A   1      43.624  26.880  31.047  1.00  0.00     0.031 C 
ATOM     59  C   UNL A   1      42.948  29.948  36.237  1.00  0.00     0.029 A 
ATOM     60  C   UNL A   1      42.715  29.423  34.975  1.00  0.00     0.049 A 
ATOM     61  H   UNL A   1      41.180  29.887  33.607  1.00  0.00     0.167 HD
ATOM     62  C   UNL A   1      43.230  28.009  33.002  1.00  0.00     0.074 A 
ATOM     63  C   UNL A   1      44.069  27.073  32.281  1.00  0.00     0.031 C 
ATOM     64  C   UNL A   1      43.483  28.434  34.264  1.00  0.00     0.034 A 
BRANCH  51  65
ATOM     65  C   UNL A   1      39.490  32.649  36.385  1.00  0.00     0.023 A 
ATOM     66  C   UNL A   1      38.636  32.173  37.401  1.00  0.00     0.012 A 
ATOM     67  C   UNL A   1      39.970  33.971  36.447  1.00  0.00     0.148 A 
ATOM     68  C   UNL A   1      38.238  33.009  38.443  1.00  0.00     0.002 A 
ATOM     69  C   UNL A   1      39.610  34.782  37.516  1.00  0.00     0.091 A 
ATOM     70  F   UNL A   1      40.760  34.412  35.458  1.00  0.00    -0.205 F 
ATOM     71  C   UNL A   1      38.734  34.308  38.506  1.00  0.00     0.022 A 
BRANCH  69  72
ATOM     72  S   UNL A   1      40.257  36.443  37.733  1.00  0.00     0.127 S 
ATOM     73  O   UNL A   1      41.601  36.172  38.244  1.00  0.00    -0.237 OA
ATOM     74  O   UNL A   1      40.218  36.966  36.368  1.00  0.00    -0.237 OA
ATOM     75  O   UNL A   1      39.361  37.107  38.669  1.00  0.00    -0.744 OA
ENDBRANCH  69  72
ENDBRANCH  51  65
BRANCH  52  76
ATOM     76  C   UNL A   1      41.934  26.739  28.653  1.00  0.00     0.023 A 
ATOM     77  C   UNL A   1      41.225  25.550  28.388  1.00  0.00     0.012 A 
ATOM     78  C   UNL A   1      43.029  27.078  27.834  1.00  0.00     0.148 A 
ATOM     79  C   UNL A   1      41.625  24.693  27.363  1.00  0.00     0.002 A 
ATOM     80  C   UNL A   1      43.389  26.247  26.779  1.00  0.00     0.091 A 
ATOM     81  F   UNL A   1      43.701  28.206  28.107  1.00  0.00    -0.205 F 
ATOM     82  C   UNL A   1      42.701  25.045  26.554  1.00  0.00     0.022 A 
BRANCH  80  83
ATOM     83  S   UNL A   1      44.690  26.670  25.615  1.00  0.00     0.127 S 
ATOM     84  O   UNL A   1      45.850  26.790  26.495  1.00  0.00    -0.237 OA
ATOM     85  O   UNL A   1      44.701  25.498  24.739  1.00  0.00    -0.237 OA
ATOM     86  O   UNL A   1      44.257  27.901  24.968  1.00  0.00    -0.744 OA
ENDBRANCH  80  83
ENDBRANCH  52  76
BRANCH  64  87
ATOM     87  C   UNL A   1      44.650  27.830  34.999  1.00  0.00     0.023 A 
ATOM     88  C   UNL A   1      45.901  28.474  35.007  1.00  0.00     0.012 A 
ATOM     89  C   UNL A   1      44.456  26.677  35.788  1.00  0.00     0.148 A 
ATOM     90  C   UNL A   1      46.949  27.966  35.773  1.00  0.00     0.002 A 
ATOM     91  C   UNL A   1      45.487  26.210  36.590  1.00  0.00     0.091 A 
ATOM     92  F   UNL A   1      43.258  26.075  35.753  1.00  0.00    -0.205 F 
ATOM     93  C   UNL A   1      46.740  26.846  36.575  1.00  0.00     0.022 A 
BRANCH  91  94
ATOM     94  S   UNL A   1      45.274  24.843  37.736  1.00  0.00     0.127 S 
ATOM     95  O   UNL A   1      46.530  24.884  38.484  1.00  0.00    -0.237 OA
ATOM     96  O   UNL A   1      44.097  25.260  38.497  1.00  0.00    -0.237 OA
ATOM     97  O   UNL A   1      45.078  23.655  36.917  1.00  0.00    -0.744 OA
ENDBRANCH  91  94
ENDBRANCH  64  87
ENDBRANCH  38  39
ENDBRANCH  31  33
ENDBRANCH  30  31
ENDBRANCH  29  30
ENDBRANCH  28  29
ENDBRANCH  27  28
ENDBRANCH   1  27
TORSDOF 24
ENDMDL
