MODEL 1
REMARK VINA RESULT:      -9.5      0.000      0.000
REMARK SMILES CSc1ncccc1C(=O)NCCCC(=O)OCCOCCOCCOC(=O)c1ccc(-c2c3nc(c(-c4cccc(S(=O)(=O)[O-])c4F)c4ccc([nH]4)c(-c4cccc(S(=O)(=O)[O-])c4F)c4nc(c(-c5cccc(S(=O)(=O)[O-])c5F)c5ccc2[nH]5)C=C4)C=C3)cc1
REMARK SMILES IDX 21 1 20 2 19 3 18 4 17 5 15 6 16 7 14 8 13 9 12 10 11 11
REMARK SMILES IDX 9 12 10 13 8 15 3 16 4 17 5 18 7 19 6 20 2 21 1 22 22 23
REMARK SMILES IDX 23 24 24 25 25 26 26 27 27 28 28 29 29 30 30 31 91 32 31 33
REMARK SMILES IDX 90 34 32 35 33 36 34 37 84 38 35 39 89 40 83 41 85 42 36 43
REMARK SMILES IDX 88 44 82 45 81 46 37 48 69 49 49 50 68 51 50 52 53 53 67 54
REMARK SMILES IDX 86 55 51 56 52 57 66 59 87 60 54 61 38 62 39 63 47 64 40 65
REMARK SMILES IDX 42 66 48 67 41 68 43 69 44 70 45 71 46 72 70 73 71 74 79 75
REMARK SMILES IDX 72 76 74 77 80 78 73 79 75 80 76 81 77 82 78 83 55 84 56 85
REMARK SMILES IDX 64 86 57 87 59 88 65 89 58 90 60 91 61 92 62 93 63 94
REMARK H PARENT 11 14 85 47 53 58
REMARK Flexibility Score: inf
ROOT
ATOM      1  C   UNL A   1      33.100  27.647  26.478  1.00  0.00     0.188 C 
ENDROOT
BRANCH   1   2
ATOM      2  O   UNL A   1      32.753  27.590  25.099  1.00  0.00    -0.376 OA
BRANCH   2   3
ATOM      3  C   UNL A   1      31.494  27.003  24.772  1.00  0.00     0.202 C 
BRANCH   3   4
ATOM      4  C   UNL A   1      30.952  25.990  25.787  1.00  0.00     0.261 C 
BRANCH   4   5
ATOM      5  O   UNL A   1      31.840  24.872  25.978  1.00  0.00    -0.463 OA
BRANCH   5   6
ATOM      6  C   UNL A   1      31.266  23.718  26.405  1.00  0.00     0.305 C 
ATOM      7  O   UNL A   1      30.100  23.402  26.198  1.00  0.00    -0.252 OA
BRANCH   6   8
ATOM      8  C   UNL A   1      32.224  22.799  27.137  1.00  0.00     0.124 C 
BRANCH   8   9
ATOM      9  C   UNL A   1      33.648  23.291  27.426  1.00  0.00     0.033 C 
BRANCH   9  10
ATOM     10  C   UNL A   1      34.723  22.198  27.459  1.00  0.00     0.117 C 
BRANCH  10  11
ATOM     11  N   UNL A   1      35.782  22.537  26.527  1.00  0.00    -0.352 N 
ATOM     12  C   UNL A   1      35.893  22.413  25.165  1.00  0.00     0.254 C 
ATOM     13  O   UNL A   1      37.011  22.131  24.737  1.00  0.00    -0.269 OA
ATOM     14  H   UNL A   1      36.576  22.932  26.955  1.00  0.00     0.163 HD
BRANCH  12  15
ATOM     15  C   UNL A   1      34.790  22.751  24.226  1.00  0.00     0.072 A 
ATOM     16  C   UNL A   1      33.831  21.785  23.869  1.00  0.00     0.108 A 
ATOM     17  N   UNL A   1      32.827  22.045  22.983  1.00  0.00    -0.249 NA
ATOM     18  C   UNL A   1      32.735  23.284  22.465  1.00  0.00     0.112 A 
ATOM     19  C   UNL A   1      34.627  24.038  23.697  1.00  0.00     0.018 A 
ATOM     20  C   UNL A   1      33.600  24.306  22.793  1.00  0.00     0.021 A 
BRANCH  16  21
ATOM     21  S   UNL A   1      33.688  20.130  24.533  1.00  0.00    -0.109 SA
ATOM     22  C   UNL A   1      32.324  19.493  23.538  1.00  0.00     0.092 C 
ENDBRANCH  16  21
ENDBRANCH  12  15
ENDBRANCH  10  11
ENDBRANCH   9  10
ENDBRANCH   8   9
ENDBRANCH   6   8
ENDBRANCH   5   6
ENDBRANCH   4   5
ENDBRANCH   3   4
ENDBRANCH   2   3
ENDBRANCH   1   2
BRANCH   1  23
ATOM     23  C   UNL A   1      32.950  29.019  27.135  1.00  0.00     0.188 C 
BRANCH  23  24
ATOM     24  O   UNL A   1      32.709  30.117  26.263  1.00  0.00    -0.376 OA
BRANCH  24  25
ATOM     25  C   UNL A   1      31.527  30.878  26.548  1.00  0.00     0.202 C 
BRANCH  25  26
ATOM     26  C   UNL A   1      31.726  32.379  26.868  1.00  0.00     0.261 C 
BRANCH  26  27
ATOM     27  O   UNL A   1      33.085  32.868  26.816  1.00  0.00    -0.460 OA
BRANCH  27  28
ATOM     28  C   UNL A   1      33.586  33.473  27.926  1.00  0.00     0.338 C 
ATOM     29  O   UNL A   1      33.022  34.294  28.608  1.00  0.00    -0.246 OA
BRANCH  28  30
ATOM     30  C   UNL A   1      34.829  32.748  28.334  1.00  0.00     0.060 A 
ATOM     31  C   UNL A   1      34.710  31.391  28.675  1.00  0.00     0.016 A 
ATOM     32  C   UNL A   1      36.092  33.346  28.315  1.00  0.00     0.016 A 
ATOM     33  C   UNL A   1      35.837  30.650  29.045  1.00  0.00     0.010 A 
ATOM     34  C   UNL A   1      37.219  32.605  28.697  1.00  0.00     0.010 A 
ATOM     35  C   UNL A   1      37.094  31.264  29.102  1.00  0.00    -0.014 A 
BRANCH  35  36
ATOM     36  C   UNL A   1      38.226  30.584  29.787  1.00  0.00     0.031 A 
ATOM     37  C   UNL A   1      38.518  30.963  31.217  1.00  0.00     0.074 A 
ATOM     38  C   UNL A   1      38.989  29.657  29.179  1.00  0.00     0.049 A 
ATOM     39  N   UNL A   1      39.467  30.544  32.012  1.00  0.00    -0.248 NA
ATOM     40  C   UNL A   1      37.615  31.953  31.827  1.00  0.00     0.031 C 
ATOM     41  C   UNL A   1      38.821  29.182  27.808  1.00  0.00     0.029 A 
ATOM     42  N   UNL A   1      40.084  28.964  29.642  1.00  0.00    -0.354 N 
ATOM     43  C   UNL A   1      39.297  31.241  33.203  1.00  0.00     0.074 A 
ATOM     44  C   UNL A   1      38.160  32.117  33.022  1.00  0.00     0.031 C 
ATOM     45  C   UNL A   1      39.796  28.298  27.530  1.00  0.00     0.029 A 
ATOM     46  C   UNL A   1      40.672  28.159  28.694  1.00  0.00     0.049 A 
ATOM     47  H   UNL A   1      40.416  29.038  30.567  1.00  0.00     0.167 HD
ATOM     48  C   UNL A   1      40.006  31.153  34.353  1.00  0.00     0.034 A 
ATOM     49  C   UNL A   1      41.798  27.415  28.751  1.00  0.00     0.034 A 
ATOM     50  C   UNL A   1      41.127  30.276  34.550  1.00  0.00     0.049 A 
ATOM     51  C   UNL A   1      42.594  27.360  30.033  1.00  0.00     0.074 A 
ATOM     52  C   UNL A   1      41.880  30.090  35.697  1.00  0.00     0.029 A 
ATOM     53  N   UNL A   1      41.668  29.450  33.578  1.00  0.00    -0.354 N 
ATOM     54  N   UNL A   1      42.350  27.933  31.187  1.00  0.00    -0.248 NA
ATOM     55  C   UNL A   1      43.808  26.526  30.029  1.00  0.00     0.031 C 
ATOM     56  C   UNL A   1      42.895  29.172  35.408  1.00  0.00     0.029 A 
ATOM     57  C   UNL A   1      42.753  28.762  34.093  1.00  0.00     0.049 A 
ATOM     58  H   UNL A   1      41.330  29.367  32.657  1.00  0.00     0.167 HD
ATOM     59  C   UNL A   1      43.352  27.499  32.052  1.00  0.00     0.074 A 
ATOM     60  C   UNL A   1      44.198  26.601  31.295  1.00  0.00     0.031 C 
ATOM     61  C   UNL A   1      43.557  27.824  33.353  1.00  0.00     0.034 A 
BRANCH  48  62
ATOM     62  C   UNL A   1      39.575  32.027  35.500  1.00  0.00     0.023 A 
ATOM     63  C   UNL A   1      39.999  33.371  35.551  1.00  0.00     0.012 A 
ATOM     64  C   UNL A   1      38.722  31.531  36.504  1.00  0.00     0.148 A 
ATOM     65  C   UNL A   1      39.610  34.197  36.605  1.00  0.00     0.002 A 
ATOM     66  C   UNL A   1      38.301  32.373  37.525  1.00  0.00     0.091 A 
ATOM     67  F   UNL A   1      38.351  30.243  36.451  1.00  0.00    -0.205 F 
ATOM     68  C   UNL A   1      38.752  33.702  37.583  1.00  0.00     0.022 A 
BRANCH  66  69
ATOM     69  S   UNL A   1      37.138  31.851  38.790  1.00  0.00     0.127 S 
ATOM     70  O   UNL A   1      36.942  30.442  38.446  1.00  0.00    -0.237 OA
ATOM     71  O   UNL A   1      37.898  32.078  40.019  1.00  0.00    -0.237 OA
ATOM     72  O   UNL A   1      35.968  32.701  38.634  1.00  0.00    -0.744 OA
ENDBRANCH  66  69
ENDBRANCH  48  62
BRANCH  49  73
ATOM     73  C   UNL A   1      42.238  26.630  27.562  1.00  0.00     0.023 A 
ATOM     74  C   UNL A   1      42.923  27.277  26.515  1.00  0.00     0.012 A 
ATOM     75  C   UNL A   1      41.976  25.250  27.459  1.00  0.00     0.148 A 
ATOM     76  C   UNL A   1      43.313  26.572  25.375  1.00  0.00     0.002 A 
ATOM     77  C   UNL A   1      42.414  24.542  26.346  1.00  0.00     0.091 A 
ATOM     78  F   UNL A   1      41.304  24.657  28.456  1.00  0.00    -0.205 F 
ATOM     79  C   UNL A   1      43.067  25.203  25.295  1.00  0.00     0.022 A 
BRANCH  77  80
ATOM     80  S   UNL A   1      42.246  22.758  26.206  1.00  0.00     0.127 S 
ATOM     81  O   UNL A   1      42.911  22.494  24.934  1.00  0.00    -0.237 OA
ATOM     82  O   UNL A   1      42.972  22.296  27.389  1.00  0.00    -0.237 OA
ATOM     83  O   UNL A   1      40.813  22.495  26.236  1.00  0.00    -0.744 OA
ENDBRANCH  77  80
ENDBRANCH  49  73
BRANCH  61  84
ATOM     84  C   UNL A   1      44.713  27.175  34.075  1.00  0.00     0.023 A 
ATOM     85  C   UNL A   1      45.966  27.818  34.122  1.00  0.00     0.012 A 
ATOM     86  C   UNL A   1      44.530  25.970  34.783  1.00  0.00     0.148 A 
ATOM     87  C   UNL A   1      47.025  27.257  34.836  1.00  0.00     0.002 A 
ATOM     88  C   UNL A   1      45.575  25.441  35.532  1.00  0.00     0.091 A 
ATOM     89  F   UNL A   1      43.335  25.364  34.714  1.00  0.00    -0.205 F 
ATOM     90  C   UNL A   1      46.827  26.077  35.550  1.00  0.00     0.022 A 
BRANCH  88  91
ATOM     91  S   UNL A   1      45.382  23.981  36.562  1.00  0.00     0.127 S 
ATOM     92  O   UNL A   1      46.767  23.689  36.926  1.00  0.00    -0.237 OA
ATOM     93  O   UNL A   1      44.554  24.482  37.660  1.00  0.00    -0.237 OA
ATOM     94  O   UNL A   1      44.733  22.983  35.723  1.00  0.00    -0.744 OA
ENDBRANCH  88  91
ENDBRANCH  61  84
ENDBRANCH  35  36
ENDBRANCH  28  30
ENDBRANCH  27  28
ENDBRANCH  26  27
ENDBRANCH  25  26
ENDBRANCH  24  25
ENDBRANCH  23  24
ENDBRANCH   1  23
TORSDOF 25
ENDMDL
MODEL 2
REMARK VINA RESULT:      -9.5      1.945      2.203
REMARK SMILES CSc1ncccc1C(=O)NCCCC(=O)OCCOCCOCCOC(=O)c1ccc(-c2c3nc(c(-c4cccc(S(=O)(=O)[O-])c4F)c4ccc([nH]4)c(-c4cccc(S(=O)(=O)[O-])c4F)c4nc(c(-c5cccc(S(=O)(=O)[O-])c5F)c5ccc2[nH]5)C=C4)C=C3)cc1
REMARK SMILES IDX 21 1 20 2 19 3 18 4 17 5 15 6 16 7 14 8 13 9 12 10 11 11
REMARK SMILES IDX 9 12 10 13 8 15 3 16 4 17 5 18 7 19 6 20 2 21 1 22 22 23
REMARK SMILES IDX 23 24 24 25 25 26 26 27 27 28 28 29 29 30 30 31 91 32 31 33
REMARK SMILES IDX 90 34 32 35 33 36 34 37 84 38 35 39 89 40 83 41 85 42 36 43
REMARK SMILES IDX 88 44 82 45 81 46 37 48 69 49 49 50 68 51 50 52 53 53 67 54
REMARK SMILES IDX 86 55 51 56 52 57 66 59 87 60 54 61 38 62 39 63 47 64 40 65
REMARK SMILES IDX 42 66 48 67 41 68 43 69 44 70 45 71 46 72 70 73 71 74 79 75
REMARK SMILES IDX 72 76 74 77 80 78 73 79 75 80 76 81 77 82 78 83 55 84 56 85
REMARK SMILES IDX 64 86 57 87 59 88 65 89 58 90 60 91 61 92 62 93 63 94
REMARK H PARENT 11 14 85 47 53 58
REMARK Flexibility Score: inf
ROOT
ATOM      1  C   UNL A   1      33.424  27.951  26.322  1.00  0.00     0.188 C 
ENDROOT
BRANCH   1   2
ATOM      2  O   UNL A   1      33.383  28.039  24.902  1.00  0.00    -0.376 OA
BRANCH   2   3
ATOM      3  C   UNL A   1      33.136  26.830  24.186  1.00  0.00     0.202 C 
BRANCH   3   4
ATOM      4  C   UNL A   1      31.964  25.984  24.699  1.00  0.00     0.261 C 
BRANCH   4   5
ATOM      5  O   UNL A   1      32.376  25.010  25.679  1.00  0.00    -0.463 OA
BRANCH   5   6
ATOM      6  C   UNL A   1      31.535  23.961  25.868  1.00  0.00     0.305 C 
ATOM      7  O   UNL A   1      30.431  23.851  25.349  1.00  0.00    -0.252 OA
BRANCH   6   8
ATOM      8  C   UNL A   1      32.110  22.877  26.760  1.00  0.00     0.124 C 
BRANCH   8   9
ATOM      9  C   UNL A   1      33.559  23.007  27.244  1.00  0.00     0.033 C 
BRANCH   9  10
ATOM     10  C   UNL A   1      34.252  21.685  27.593  1.00  0.00     0.117 C 
BRANCH  10  11
ATOM     11  N   UNL A   1      35.336  21.448  26.658  1.00  0.00    -0.352 N 
ATOM     12  C   UNL A   1      35.358  21.053  25.344  1.00  0.00     0.254 C 
ATOM     13  O   UNL A   1      36.287  20.316  25.017  1.00  0.00    -0.269 OA
ATOM     14  H   UNL A   1      36.231  21.601  27.041  1.00  0.00     0.163 HD
BRANCH  12  15
ATOM     15  C   UNL A   1      34.427  21.593  24.318  1.00  0.00     0.072 A 
ATOM     16  C   UNL A   1      33.239  20.909  23.999  1.00  0.00     0.108 A 
ATOM     17  N   UNL A   1      32.377  21.353  23.038  1.00  0.00    -0.249 NA
ATOM     18  C   UNL A   1      32.663  22.504  22.403  1.00  0.00     0.112 A 
ATOM     19  C   UNL A   1      34.659  22.810  23.664  1.00  0.00     0.018 A 
ATOM     20  C   UNL A   1      33.779  23.264  22.683  1.00  0.00     0.021 A 
BRANCH  16  21
ATOM     21  S   UNL A   1      32.603  19.444  24.804  1.00  0.00    -0.109 SA
ATOM     22  C   UNL A   1      33.595  18.169  23.999  1.00  0.00     0.092 C 
ENDBRANCH  16  21
ENDBRANCH  12  15
ENDBRANCH  10  11
ENDBRANCH   9  10
ENDBRANCH   8   9
ENDBRANCH   6   8
ENDBRANCH   5   6
ENDBRANCH   4   5
ENDBRANCH   3   4
ENDBRANCH   2   3
ENDBRANCH   1   2
BRANCH   1  23
ATOM     23  C   UNL A   1      32.913  29.182  27.071  1.00  0.00     0.188 C 
BRANCH  23  24
ATOM     24  O   UNL A   1      32.852  30.395  26.329  1.00  0.00    -0.376 OA
BRANCH  24  25
ATOM     25  C   UNL A   1      31.649  31.157  26.499  1.00  0.00     0.202 C 
BRANCH  25  26
ATOM     26  C   UNL A   1      31.816  32.638  26.914  1.00  0.00     0.261 C 
BRANCH  26  27
ATOM     27  O   UNL A   1      33.169  33.143  26.946  1.00  0.00    -0.460 OA
BRANCH  27  28
ATOM     28  C   UNL A   1      33.598  33.739  28.091  1.00  0.00     0.338 C 
ATOM     29  O   UNL A   1      32.988  34.545  28.749  1.00  0.00    -0.246 OA
BRANCH  28  30
ATOM     30  C   UNL A   1      34.823  33.020  28.562  1.00  0.00     0.060 A 
ATOM     31  C   UNL A   1      34.673  31.694  29.000  1.00  0.00     0.016 A 
ATOM     32  C   UNL A   1      36.098  33.589  28.510  1.00  0.00     0.016 A 
ATOM     33  C   UNL A   1      35.782  30.959  29.432  1.00  0.00     0.010 A 
ATOM     34  C   UNL A   1      37.207  32.856  28.954  1.00  0.00     0.010 A 
ATOM     35  C   UNL A   1      37.051  31.550  29.455  1.00  0.00    -0.014 A 
BRANCH  35  36
ATOM     36  C   UNL A   1      38.164  30.900  30.198  1.00  0.00     0.031 A 
ATOM     37  C   UNL A   1      38.420  31.340  31.617  1.00  0.00     0.074 A 
ATOM     38  C   UNL A   1      38.940  29.946  29.650  1.00  0.00     0.049 A 
ATOM     39  N   UNL A   1      39.348  30.955  32.454  1.00  0.00    -0.248 NA
ATOM     40  C   UNL A   1      37.504  32.357  32.160  1.00  0.00     0.031 C 
ATOM     41  C   UNL A   1      38.806  29.412  28.297  1.00  0.00     0.029 A 
ATOM     42  N   UNL A   1      40.021  29.273  30.171  1.00  0.00    -0.354 N 
ATOM     43  C   UNL A   1      39.148  31.702  33.609  1.00  0.00     0.074 A 
ATOM     44  C   UNL A   1      38.019  32.571  33.361  1.00  0.00     0.031 C 
ATOM     45  C   UNL A   1      39.785  28.516  28.083  1.00  0.00     0.029 A 
ATOM     46  C   UNL A   1      40.632  28.427  29.274  1.00  0.00     0.049 A 
ATOM     47  H   UNL A   1      40.330  29.386  31.099  1.00  0.00     0.167 HD
ATOM     48  C   UNL A   1      39.828  31.664  34.779  1.00  0.00     0.034 A 
ATOM     49  C   UNL A   1      41.754  27.685  29.392  1.00  0.00     0.034 A 
ATOM     50  C   UNL A   1      40.942  30.795  35.042  1.00  0.00     0.049 A 
ATOM     51  C   UNL A   1      42.517  27.684  30.695  1.00  0.00     0.074 A 
ATOM     52  C   UNL A   1      41.664  30.657  36.215  1.00  0.00     0.029 A 
ATOM     53  N   UNL A   1      41.505  29.927  34.121  1.00  0.00    -0.354 N 
ATOM     54  N   UNL A   1      42.245  28.307  31.816  1.00  0.00    -0.248 NA
ATOM     55  C   UNL A   1      43.728  26.849  30.758  1.00  0.00     0.031 C 
ATOM     56  C   UNL A   1      42.685  29.727  35.992  1.00  0.00     0.029 A 
ATOM     57  C   UNL A   1      42.575  29.260  34.693  1.00  0.00     0.049 A 
ATOM     58  H   UNL A   1      41.191  29.804  33.196  1.00  0.00     0.167 HD
ATOM     59  C   UNL A   1      43.223  27.909  32.725  1.00  0.00     0.074 A 
ATOM     60  C   UNL A   1      44.086  26.979  32.029  1.00  0.00     0.031 C 
ATOM     61  C   UNL A   1      43.396  28.291  34.015  1.00  0.00     0.034 A 
BRANCH  48  62
ATOM     62  C   UNL A   1      39.370  32.586  35.875  1.00  0.00     0.023 A 
ATOM     63  C   UNL A   1      38.414  32.138  36.811  1.00  0.00     0.012 A 
ATOM     64  C   UNL A   1      39.910  33.879  36.004  1.00  0.00     0.148 A 
ATOM     65  C   UNL A   1      37.977  32.976  37.836  1.00  0.00     0.002 A 
ATOM     66  C   UNL A   1      39.504  34.692  37.054  1.00  0.00     0.091 A 
ATOM     67  F   UNL A   1      40.798  34.296  35.089  1.00  0.00    -0.205 F 
ATOM     68  C   UNL A   1      38.531  34.248  37.964  1.00  0.00     0.022 A 
BRANCH  66  69
ATOM     69  S   UNL A   1      40.213  36.316  37.348  1.00  0.00     0.127 S 
ATOM     70  O   UNL A   1      40.063  36.944  36.035  1.00  0.00    -0.237 OA
ATOM     71  O   UNL A   1      39.331  36.854  38.385  1.00  0.00    -0.237 OA
ATOM     72  O   UNL A   1      41.584  36.084  37.777  1.00  0.00    -0.744 OA
ENDBRANCH  66  69
ENDBRANCH  48  62
BRANCH  49  73
ATOM     73  C   UNL A   1      42.222  26.848  28.249  1.00  0.00     0.023 A 
ATOM     74  C   UNL A   1      41.459  25.736  27.841  1.00  0.00     0.012 A 
ATOM     75  C   UNL A   1      43.420  27.142  27.570  1.00  0.00     0.148 A 
ATOM     76  C   UNL A   1      41.894  24.917  26.799  1.00  0.00     0.002 A 
ATOM     77  C   UNL A   1      43.822  26.354  26.498  1.00  0.00     0.091 A 
ATOM     78  F   UNL A   1      44.144  28.191  27.987  1.00  0.00    -0.205 F 
ATOM     79  C   UNL A   1      43.069  25.231  26.121  1.00  0.00     0.022 A 
BRANCH  77  80
ATOM     80  S   UNL A   1      45.258  26.747  25.493  1.00  0.00     0.127 S 
ATOM     81  O   UNL A   1      45.416  25.526  24.706  1.00  0.00    -0.237 OA
ATOM     82  O   UNL A   1      44.788  27.909  24.739  1.00  0.00    -0.237 OA
ATOM     83  O   UNL A   1      46.331  27.033  26.435  1.00  0.00    -0.744 OA
ENDBRANCH  77  80
ENDBRANCH  49  73
BRANCH  61  84
ATOM     84  C   UNL A   1      44.531  27.672  34.793  1.00  0.00     0.023 A 
ATOM     85  C   UNL A   1      45.751  28.363  34.931  1.00  0.00     0.012 A 
ATOM     86  C   UNL A   1      44.355  26.445  35.465  1.00  0.00     0.148 A 
ATOM     87  C   UNL A   1      46.788  27.829  35.698  1.00  0.00     0.002 A 
ATOM     88  C   UNL A   1      45.374  25.941  36.266  1.00  0.00     0.091 A 
ATOM     89  F   UNL A   1      43.194  25.793  35.310  1.00  0.00    -0.205 F 
ATOM     90  C   UNL A   1      46.595  26.626  36.374  1.00  0.00     0.022 A 
BRANCH  88  91
ATOM     91  S   UNL A   1      45.179  24.451  37.252  1.00  0.00     0.127 S 
ATOM     92  O   UNL A   1      46.526  24.275  37.792  1.00  0.00    -0.237 OA
ATOM     93  O   UNL A   1      44.175  24.858  38.235  1.00  0.00    -0.237 OA
ATOM     94  O   UNL A   1      44.735  23.416  36.329  1.00  0.00    -0.744 OA
ENDBRANCH  88  91
ENDBRANCH  61  84
ENDBRANCH  35  36
ENDBRANCH  28  30
ENDBRANCH  27  28
ENDBRANCH  26  27
ENDBRANCH  25  26
ENDBRANCH  24  25
ENDBRANCH  23  24
ENDBRANCH   1  23
TORSDOF 25
ENDMDL
MODEL 3
REMARK VINA RESULT:      -9.1      6.475     11.770
REMARK SMILES CSc1ncccc1C(=O)NCCCC(=O)OCCOCCOCCOC(=O)c1ccc(-c2c3nc(c(-c4cccc(S(=O)(=O)[O-])c4F)c4ccc([nH]4)c(-c4cccc(S(=O)(=O)[O-])c4F)c4nc(c(-c5cccc(S(=O)(=O)[O-])c5F)c5ccc2[nH]5)C=C4)C=C3)cc1
REMARK SMILES IDX 21 1 20 2 19 3 18 4 17 5 15 6 16 7 14 8 13 9 12 10 11 11
REMARK SMILES IDX 9 12 10 13 8 15 3 16 4 17 5 18 7 19 6 20 2 21 1 22 22 23
REMARK SMILES IDX 23 24 24 25 25 26 26 27 27 28 28 29 29 30 30 31 91 32 31 33
REMARK SMILES IDX 90 34 32 35 33 36 34 37 84 38 35 39 89 40 83 41 85 42 36 43
REMARK SMILES IDX 88 44 82 45 81 46 37 48 69 49 49 50 68 51 50 52 53 53 67 54
REMARK SMILES IDX 86 55 51 56 52 57 66 59 87 60 54 61 38 62 39 63 47 64 40 65
REMARK SMILES IDX 42 66 48 67 41 68 43 69 44 70 45 71 46 72 70 73 71 74 79 75
REMARK SMILES IDX 72 76 74 77 80 78 73 79 75 80 76 81 77 82 78 83 55 84 56 85
REMARK SMILES IDX 64 86 57 87 59 88 65 89 58 90 60 91 61 92 62 93 63 94
REMARK H PARENT 11 14 85 47 53 58
REMARK Flexibility Score: inf
ROOT
ATOM      1  C   UNL A   1      39.605  22.181  26.485  1.00  0.00     0.188 C 
ENDROOT
BRANCH   1   2
ATOM      2  O   UNL A   1      38.334  22.207  25.845  1.00  0.00    -0.376 OA
BRANCH   2   3
ATOM      3  C   UNL A   1      37.925  21.017  25.172  1.00  0.00     0.202 C 
BRANCH   3   4
ATOM      4  C   UNL A   1      36.453  20.972  24.742  1.00  0.00     0.261 C 
BRANCH   4   5
ATOM      5  O   UNL A   1      35.551  21.190  25.843  1.00  0.00    -0.463 OA
BRANCH   5   6
ATOM      6  C   UNL A   1      34.721  22.259  25.734  1.00  0.00     0.305 C 
ATOM      7  O   UNL A   1      34.961  23.376  26.178  1.00  0.00    -0.252 OA
BRANCH   6   8
ATOM      8  C   UNL A   1      33.457  21.968  24.948  1.00  0.00     0.124 C 
BRANCH   8   9
ATOM      9  C   UNL A   1      32.118  22.498  25.476  1.00  0.00     0.033 C 
BRANCH   9  10
ATOM     10  C   UNL A   1      31.460  23.583  24.616  1.00  0.00     0.117 C 
BRANCH  10  11
ATOM     11  N   UNL A   1      30.279  24.084  25.294  1.00  0.00    -0.352 N 
ATOM     12  C   UNL A   1      29.915  25.337  25.720  1.00  0.00     0.254 C 
ATOM     13  O   UNL A   1      29.281  25.387  26.772  1.00  0.00    -0.269 OA
ATOM     14  H   UNL A   1      29.607  23.389  25.486  1.00  0.00     0.163 HD
BRANCH  12  15
ATOM     15  C   UNL A   1      30.116  26.562  24.902  1.00  0.00     0.072 A 
ATOM     16  C   UNL A   1      31.123  27.488  25.234  1.00  0.00     0.108 A 
ATOM     17  N   UNL A   1      31.315  28.642  24.531  1.00  0.00    -0.249 NA
ATOM     18  C   UNL A   1      30.533  28.878  23.462  1.00  0.00     0.112 A 
ATOM     19  C   UNL A   1      29.358  26.828  23.754  1.00  0.00     0.018 A 
ATOM     20  C   UNL A   1      29.554  28.006  23.034  1.00  0.00     0.021 A 
BRANCH  16  21
ATOM     21  S   UNL A   1      32.349  27.311  26.524  1.00  0.00    -0.109 SA
ATOM     22  C   UNL A   1      33.625  26.389  25.641  1.00  0.00     0.092 C 
ENDBRANCH  16  21
ENDBRANCH  12  15
ENDBRANCH  10  11
ENDBRANCH   9  10
ENDBRANCH   8   9
ENDBRANCH   6   8
ENDBRANCH   5   6
ENDBRANCH   4   5
ENDBRANCH   3   4
ENDBRANCH   2   3
ENDBRANCH   1   2
BRANCH   1  23
ATOM     23  C   UNL A   1      40.271  20.807  26.564  1.00  0.00     0.188 C 
BRANCH  23  24
ATOM     24  O   UNL A   1      41.683  20.797  26.743  1.00  0.00    -0.376 OA
BRANCH  24  25
ATOM     25  C   UNL A   1      42.251  19.518  27.058  1.00  0.00     0.202 C 
BRANCH  25  26
ATOM     26  C   UNL A   1      42.812  18.694  25.875  1.00  0.00     0.261 C 
BRANCH  26  27
ATOM     27  O   UNL A   1      43.165  19.440  24.688  1.00  0.00    -0.460 OA
BRANCH  27  28
ATOM     28  C   UNL A   1      44.486  19.622  24.422  1.00  0.00     0.338 C 
ATOM     29  O   UNL A   1      45.207  18.859  23.828  1.00  0.00    -0.246 OA
BRANCH  28  30
ATOM     30  C   UNL A   1      44.833  21.045  24.727  1.00  0.00     0.060 A 
ATOM     31  C   UNL A   1      45.316  21.337  26.013  1.00  0.00     0.016 A 
ATOM     32  C   UNL A   1      44.763  22.061  23.770  1.00  0.00     0.016 A 
ATOM     33  C   UNL A   1      45.680  22.644  26.356  1.00  0.00     0.010 A 
ATOM     34  C   UNL A   1      45.116  23.372  24.118  1.00  0.00     0.010 A 
ATOM     35  C   UNL A   1      45.539  23.679  25.424  1.00  0.00    -0.014 A 
BRANCH  35  36
ATOM     36  C   UNL A   1      45.617  25.097  25.868  1.00  0.00     0.031 A 
ATOM     37  C   UNL A   1      46.974  25.754  25.904  1.00  0.00     0.074 A 
ATOM     38  C   UNL A   1      44.530  25.801  26.236  1.00  0.00     0.049 A 
ATOM     39  N   UNL A   1      47.305  26.959  26.289  1.00  0.00    -0.248 NA
ATOM     40  C   UNL A   1      48.108  24.934  25.448  1.00  0.00     0.031 C 
ATOM     41  C   UNL A   1      43.157  25.305  26.242  1.00  0.00     0.029 A 
ATOM     42  N   UNL A   1      44.423  27.090  26.703  1.00  0.00    -0.354 N 
ATOM     43  C   UNL A   1      48.686  27.032  26.151  1.00  0.00     0.074 A 
ATOM     44  C   UNL A   1      49.131  25.747  25.660  1.00  0.00     0.031 C 
ATOM     45  C   UNL A   1      42.347  26.268  26.719  1.00  0.00     0.029 A 
ATOM     46  C   UNL A   1      43.146  27.442  27.074  1.00  0.00     0.049 A 
ATOM     47  H   UNL A   1      45.190  27.706  26.766  1.00  0.00     0.167 HD
ATOM     48  C   UNL A   1      49.515  28.075  26.394  1.00  0.00     0.034 A 
ATOM     49  C   UNL A   1      42.679  28.569  27.653  1.00  0.00     0.034 A 
ATOM     50  C   UNL A   1      49.083  29.361  26.868  1.00  0.00     0.049 A 
ATOM     51  C   UNL A   1      43.627  29.707  27.948  1.00  0.00     0.074 A 
ATOM     52  C   UNL A   1      49.848  30.490  27.102  1.00  0.00     0.029 A 
ATOM     53  N   UNL A   1      47.777  29.687  27.196  1.00  0.00    -0.354 N 
ATOM     54  N   UNL A   1      44.911  29.802  27.701  1.00  0.00    -0.248 NA
ATOM     55  C   UNL A   1      43.051  30.909  28.575  1.00  0.00     0.031 C 
ATOM     56  C   UNL A   1      49.008  31.492  27.600  1.00  0.00     0.029 A 
ATOM     57  C   UNL A   1      47.715  30.996  27.643  1.00  0.00     0.049 A 
ATOM     58  H   UNL A   1      47.008  29.078  27.122  1.00  0.00     0.167 HD
ATOM     59  C   UNL A   1      45.287  31.082  28.103  1.00  0.00     0.074 A 
ATOM     60  C   UNL A   1      44.091  31.733  28.595  1.00  0.00     0.031 C 
ATOM     61  C   UNL A   1      46.513  31.660  28.076  1.00  0.00     0.034 A 
BRANCH  48  62
ATOM     62  C   UNL A   1      50.982  27.868  26.133  1.00  0.00     0.023 A 
ATOM     63  C   UNL A   1      51.844  27.554  27.205  1.00  0.00     0.012 A 
ATOM     64  C   UNL A   1      51.501  27.945  24.828  1.00  0.00     0.148 A 
ATOM     65  C   UNL A   1      53.206  27.357  26.985  1.00  0.00     0.002 A 
ATOM     66  C   UNL A   1      52.851  27.702  24.610  1.00  0.00     0.091 A 
ATOM     67  F   UNL A   1      50.670  28.271  23.826  1.00  0.00    -0.205 F 
ATOM     68  C   UNL A   1      53.707  27.419  25.687  1.00  0.00     0.022 A 
BRANCH  66  69
ATOM     69  S   UNL A   1      53.576  27.685  22.967  1.00  0.00     0.127 S 
ATOM     70  O   UNL A   1      54.976  27.381  23.266  1.00  0.00    -0.237 OA
ATOM     71  O   UNL A   1      52.842  26.599  22.317  1.00  0.00    -0.237 OA
ATOM     72  O   UNL A   1      53.329  29.006  22.406  1.00  0.00    -0.744 OA
ENDBRANCH  66  69
ENDBRANCH  48  62
BRANCH  49  73
ATOM     73  C   UNL A   1      41.227  28.701  27.974  1.00  0.00     0.023 A 
ATOM     74  C   UNL A   1      40.327  29.107  26.970  1.00  0.00     0.012 A 
ATOM     75  C   UNL A   1      40.737  28.433  29.267  1.00  0.00     0.148 A 
ATOM     76  C   UNL A   1      38.971  29.272  27.254  1.00  0.00     0.002 A 
ATOM     77  C   UNL A   1      39.378  28.548  29.530  1.00  0.00     0.091 A 
ATOM     78  F   UNL A   1      41.614  28.069  30.214  1.00  0.00    -0.205 F 
ATOM     79  C   UNL A   1      38.495  28.984  28.531  1.00  0.00     0.022 A 
BRANCH  77  80
ATOM     80  S   UNL A   1      38.657  28.088  31.110  1.00  0.00     0.127 S 
ATOM     81  O   UNL A   1      37.404  28.839  31.098  1.00  0.00    -0.237 OA
ATOM     82  O   UNL A   1      38.509  26.640  30.961  1.00  0.00    -0.237 OA
ATOM     83  O   UNL A   1      39.626  28.495  32.119  1.00  0.00    -0.744 OA
ENDBRANCH  77  80
ENDBRANCH  49  73
BRANCH  61  84
ATOM     84  C   UNL A   1      46.637  33.089  28.545  1.00  0.00     0.023 A 
ATOM     85  C   UNL A   1      47.032  33.366  29.869  1.00  0.00     0.012 A 
ATOM     86  C   UNL A   1      46.448  34.157  27.645  1.00  0.00     0.148 A 
ATOM     87  C   UNL A   1      47.206  34.683  30.297  1.00  0.00     0.002 A 
ATOM     88  C   UNL A   1      46.671  35.464  28.064  1.00  0.00     0.091 A 
ATOM     89  F   UNL A   1      46.057  33.877  26.393  1.00  0.00    -0.205 F 
ATOM     90  C   UNL A   1      47.039  35.729  29.393  1.00  0.00     0.022 A 
BRANCH  88  91
ATOM     91  S   UNL A   1      46.576  36.867  26.944  1.00  0.00     0.127 S 
ATOM     92  O   UNL A   1      45.145  36.915  26.649  1.00  0.00    -0.237 OA
ATOM     93  O   UNL A   1      47.065  37.965  27.779  1.00  0.00    -0.237 OA
ATOM     94  O   UNL A   1      47.436  36.537  25.816  1.00  0.00    -0.744 OA
ENDBRANCH  88  91
ENDBRANCH  61  84
ENDBRANCH  35  36
ENDBRANCH  28  30
ENDBRANCH  27  28
ENDBRANCH  26  27
ENDBRANCH  25  26
ENDBRANCH  24  25
ENDBRANCH  23  24
ENDBRANCH   1  23
TORSDOF 25
ENDMDL
