MODEL 1
REMARK VINA RESULT:     -10.2      0.000      0.000
REMARK SMILES COc1ccc(C)cc1Nc1nc(OCC(=O)OCCOCCOCCOC(=O)c2ccc(-c3c4nc(c(-c5cccc(S(=O)(=O)[O-])c5F)c5ccc([nH]5)c(-c5cccc(S(=O)(=O)[O-])c5F)c5nc(c(-c6cccc(S(=O)(=O)[O-])c6F)c6ccc3[nH]6)C=C5)C=C4)cc2)cc(C(C)(C)C)n1
REMARK SMILES IDX 22 1 21 2 20 3 19 4 18 5 16 6 17 7 15 8 14 9 13 10 11 11
REMARK SMILES IDX 12 12 99 13 94 14 93 15 10 16 9 18 3 19 4 20 5 21 8 22 6 23
REMARK SMILES IDX 7 24 2 25 1 26 95 27 96 28 97 29 98 30 23 31 24 32 25 33
REMARK SMILES IDX 26 34 27 35 28 36 29 37 30 38 31 39 92 40 32 41 91 42 33 43
REMARK SMILES IDX 34 44 35 45 85 46 36 47 90 48 84 49 86 50 37 51 89 52 83 53
REMARK SMILES IDX 82 54 38 56 70 57 50 58 69 59 51 60 54 61 68 62 87 63 52 64
REMARK SMILES IDX 53 65 67 67 88 68 55 69 39 70 40 71 48 72 41 73 43 74 49 75
REMARK SMILES IDX 42 76 44 77 45 78 46 79 47 80 71 81 72 82 80 83 73 84 75 85
REMARK SMILES IDX 81 86 74 87 76 88 77 89 78 90 79 91 56 92 57 93 65 94 58 95
REMARK SMILES IDX 60 96 66 97 59 98 61 99 62 100 63 101 64 102
REMARK H PARENT 10 17 86 55 54 66
REMARK Flexibility Score: inf
ROOT
ATOM      1  C   UNL A   1      32.068  28.735  26.512  1.00  0.00     0.188 C 
ENDROOT
BRANCH   1   2
ATOM      2  O   UNL A   1      32.663  27.665  25.770  1.00  0.00    -0.376 OA
BRANCH   2   3
ATOM      3  C   UNL A   1      31.880  27.116  24.710  1.00  0.00     0.202 C 
BRANCH   3   4
ATOM      4  C   UNL A   1      31.914  27.919  23.382  1.00  0.00     0.261 C 
BRANCH   4   5
ATOM      5  O   UNL A   1      31.808  27.143  22.128  1.00  0.00    -0.461 OA
BRANCH   5   6
ATOM      6  C   UNL A   1      32.959  26.467  21.871  1.00  0.00     0.344 C 
ATOM      7  O   UNL A   1      33.963  27.119  21.609  1.00  0.00    -0.248 OA
BRANCH   6   8
ATOM      8  C   UNL A   1      33.033  24.861  21.996  1.00  0.00     0.353 C 
BRANCH   8   9
ATOM      9  O   UNL A   1      33.958  24.043  22.653  1.00  0.00    -0.466 OA
BRANCH   9  10
ATOM     10  C   UNL A   1      33.794  23.057  23.654  1.00  0.00     0.218 A 
ATOM     11  C   UNL A   1      36.141  21.796  24.909  1.00  0.00     0.230 A 
ATOM     12  N   UNL A   1      35.403  23.159  24.285  1.00  0.00    -0.177 NA
ATOM     13  N   UNL A   1      35.406  20.248  25.085  1.00  0.00    -0.217 NA
ATOM     14  C   UNL A   1      33.813  19.899  24.505  1.00  0.00     0.055 A 
ATOM     15  C   UNL A   1      32.875  21.247  23.748  1.00  0.00     0.093 A 
BRANCH  11  16
ATOM     16  N   UNL A   1      37.562  21.878  24.851  1.00  0.00    -0.321 N 
ATOM     17  H   UNL A   1      37.978  21.506  24.041  1.00  0.00     0.170 HD
BRANCH  16  18
ATOM     18  C   UNL A   1      38.464  22.427  25.814  1.00  0.00     0.084 A 
ATOM     19  C   UNL A   1      39.632  21.733  26.155  1.00  0.00     0.142 A 
ATOM     20  C   UNL A   1      40.687  22.320  26.872  1.00  0.00     0.049 A 
ATOM     21  C   UNL A   1      40.571  23.619  27.327  1.00  0.00     0.007 A 
ATOM     22  C   UNL A   1      38.286  23.635  26.503  1.00  0.00     0.033 A 
ATOM     23  C   UNL A   1      39.362  24.279  27.170  1.00  0.00    -0.049 A 
ATOM     24  C   UNL A   1      39.316  25.726  27.551  1.00  0.00     0.044 C 
BRANCH  19  25
ATOM     25  O   UNL A   1      39.729  20.397  25.839  1.00  0.00    -0.495 OA
ATOM     26  C   UNL A   1      40.761  19.853  26.675  1.00  0.00     0.278 C 
ENDBRANCH  19  25
ENDBRANCH  16  18
ENDBRANCH  11  16
BRANCH  14  27
ATOM     27  C   UNL A   1      33.405  18.428  24.364  1.00  0.00     0.004 C 
ATOM     28  C   UNL A   1      34.573  17.459  24.066  1.00  0.00     0.017 C 
ATOM     29  C   UNL A   1      32.664  17.903  25.603  1.00  0.00     0.017 C 
ATOM     30  C   UNL A   1      32.452  18.353  23.197  1.00  0.00     0.017 C 
ENDBRANCH  14  27
ENDBRANCH   9  10
ENDBRANCH   8   9
ENDBRANCH   6   8
ENDBRANCH   5   6
ENDBRANCH   4   5
ENDBRANCH   3   4
ENDBRANCH   2   3
ENDBRANCH   1   2
BRANCH   1  31
ATOM     31  C   UNL A   1      32.756  30.075  26.280  1.00  0.00     0.188 C 
BRANCH  31  32
ATOM     32  O   UNL A   1      33.149  30.584  27.544  1.00  0.00    -0.376 OA
BRANCH  32  33
ATOM     33  C   UNL A   1      33.457  31.935  27.767  1.00  0.00     0.202 C 
BRANCH  33  34
ATOM     34  C   UNL A   1      34.697  32.202  28.586  1.00  0.00     0.261 C 
BRANCH  34  35
ATOM     35  O   UNL A   1      34.791  32.055  30.064  1.00  0.00    -0.460 OA
BRANCH  35  36
ATOM     36  C   UNL A   1      34.966  32.284  31.393  1.00  0.00     0.338 C 
ATOM     37  O   UNL A   1      33.934  32.636  31.956  1.00  0.00    -0.246 OA
BRANCH  36  38
ATOM     38  C   UNL A   1      36.484  32.147  32.052  1.00  0.00     0.060 A 
ATOM     39  C   UNL A   1      37.435  31.468  33.721  1.00  0.00     0.016 A 
ATOM     40  C   UNL A   1      37.189  33.575  31.304  1.00  0.00     0.016 A 
ATOM     41  C   UNL A   1      38.893  32.411  34.328  1.00  0.00     0.010 A 
ATOM     42  C   UNL A   1      38.540  34.402  32.085  1.00  0.00     0.010 A 
ATOM     43  C   UNL A   1      39.435  33.865  33.490  1.00  0.00    -0.014 A 
BRANCH  43  44
ATOM     44  C   UNL A   1      40.677  34.846  33.721  1.00  0.00     0.031 A 
ATOM     45  C   UNL A   1      41.047  35.629  35.120  1.00  0.00     0.074 A 
ATOM     46  C   UNL A   1      41.775  34.616  32.918  1.00  0.00     0.049 A 
ATOM     47  N   UNL A   1      41.829  36.676  35.295  1.00  0.00    -0.248 NA
ATOM     48  C   UNL A   1      40.606  35.205  36.476  1.00  0.00     0.031 C 
ATOM     49  C   UNL A   1      43.143  34.581  33.455  1.00  0.00     0.029 A 
ATOM     50  N   UNL A   1      41.994  34.123  31.619  1.00  0.00    -0.354 N 
ATOM     51  C   UNL A   1      42.088  36.772  36.699  1.00  0.00     0.074 A 
ATOM     52  C   UNL A   1      40.983  36.142  37.344  1.00  0.00     0.031 C 
ATOM     53  C   UNL A   1      44.013  34.143  32.537  1.00  0.00     0.029 A 
ATOM     54  C   UNL A   1      43.358  34.167  31.258  1.00  0.00     0.049 A 
ATOM     55  H   UNL A   1      41.279  33.788  31.030  1.00  0.00     0.167 HD
ATOM     56  C   UNL A   1      43.342  36.816  37.276  1.00  0.00     0.034 A 
ATOM     57  C   UNL A   1      43.951  34.739  30.157  1.00  0.00     0.034 A 
ATOM     58  C   UNL A   1      44.367  36.692  36.243  1.00  0.00     0.049 A 
ATOM     59  C   UNL A   1      44.762  35.976  30.526  1.00  0.00     0.074 A 
ATOM     60  C   UNL A   1      45.354  35.763  35.955  1.00  0.00     0.029 A 
ATOM     61  N   UNL A   1      44.303  37.535  35.159  1.00  0.00    -0.354 N 
ATOM     62  N   UNL A   1      45.251  36.191  31.715  1.00  0.00    -0.248 NA
ATOM     63  C   UNL A   1      45.025  37.112  29.635  1.00  0.00     0.031 C 
ATOM     64  C   UNL A   1      45.924  36.114  34.699  1.00  0.00     0.029 A 
ATOM     65  C   UNL A   1      45.286  37.252  34.238  1.00  0.00     0.049 A 
ATOM     66  H   UNL A   1      43.637  38.253  35.055  1.00  0.00     0.167 HD
ATOM     67  C   UNL A   1      45.445  37.538  31.866  1.00  0.00     0.074 A 
ATOM     68  C   UNL A   1      45.486  38.029  30.503  1.00  0.00     0.031 C 
ATOM     69  C   UNL A   1      45.410  38.140  33.094  1.00  0.00     0.034 A 
BRANCH  56  70
ATOM     70  C   UNL A   1      43.739  36.671  38.800  1.00  0.00     0.023 A 
ATOM     71  C   UNL A   1      43.974  37.882  39.507  1.00  0.00     0.012 A 
ATOM     72  C   UNL A   1      43.869  35.501  39.610  1.00  0.00     0.148 A 
ATOM     73  C   UNL A   1      44.379  37.944  40.852  1.00  0.00     0.002 A 
ATOM     74  C   UNL A   1      44.335  35.558  40.944  1.00  0.00     0.091 A 
ATOM     75  F   UNL A   1      43.460  34.312  39.154  1.00  0.00    -0.205 F 
ATOM     76  C   UNL A   1      44.586  36.780  41.567  1.00  0.00     0.022 A 
BRANCH  74  77
ATOM     77  S   UNL A   1      44.710  34.080  41.923  1.00  0.00     0.127 S 
ATOM     78  O   UNL A   1      45.115  34.646  43.215  1.00  0.00    -0.237 OA
ATOM     79  O   UNL A   1      43.430  33.378  41.953  1.00  0.00    -0.237 OA
ATOM     80  O   UNL A   1      45.795  33.407  41.218  1.00  0.00    -0.744 OA
ENDBRANCH  74  77
ENDBRANCH  56  70
BRANCH  57  81
ATOM     81  C   UNL A   1      43.210  34.559  28.890  1.00  0.00     0.023 A 
ATOM     82  C   UNL A   1      42.469  35.684  28.462  1.00  0.00     0.012 A 
ATOM     83  C   UNL A   1      43.790  33.695  27.965  1.00  0.00     0.148 A 
ATOM     84  C   UNL A   1      42.564  36.100  27.139  1.00  0.00     0.002 A 
ATOM     85  C   UNL A   1      43.984  34.173  26.688  1.00  0.00     0.091 A 
ATOM     86  F   UNL A   1      44.337  32.556  28.405  1.00  0.00    -0.205 F 
ATOM     87  C   UNL A   1      43.379  35.376  26.272  1.00  0.00     0.022 A 
BRANCH  85  88
ATOM     88  S   UNL A   1      45.317  33.478  25.708  1.00  0.00     0.127 S 
ATOM     89  O   UNL A   1      44.755  32.186  25.322  1.00  0.00    -0.237 OA
ATOM     90  O   UNL A   1      45.409  34.469  24.637  1.00  0.00    -0.237 OA
ATOM     91  O   UNL A   1      46.464  33.392  26.597  1.00  0.00    -0.744 OA
ENDBRANCH  85  88
ENDBRANCH  57  81
BRANCH  69  92
ATOM     92  C   UNL A   1      45.411  39.639  33.350  1.00  0.00     0.023 A 
ATOM     93  C   UNL A   1      46.597  40.370  33.522  1.00  0.00     0.012 A 
ATOM     94  C   UNL A   1      44.201  40.389  33.324  1.00  0.00     0.148 A 
ATOM     95  C   UNL A   1      46.581  41.737  33.811  1.00  0.00     0.002 A 
ATOM     96  C   UNL A   1      44.205  41.771  33.459  1.00  0.00     0.091 A 
ATOM     97  F   UNL A   1      43.020  39.764  33.200  1.00  0.00    -0.205 F 
ATOM     98  C   UNL A   1      45.386  42.441  33.771  1.00  0.00     0.022 A 
BRANCH  96  99
ATOM     99  S   UNL A   1      42.742  42.757  33.115  1.00  0.00     0.127 S 
ATOM    100  O   UNL A   1      41.718  42.049  33.882  1.00  0.00    -0.237 OA
ATOM    101  O   UNL A   1      43.115  44.064  33.659  1.00  0.00    -0.237 OA
ATOM    102  O   UNL A   1      42.590  42.733  31.667  1.00  0.00    -0.744 OA
ENDBRANCH  96  99
ENDBRANCH  69  92
ENDBRANCH  43  44
ENDBRANCH  36  38
ENDBRANCH  35  36
ENDBRANCH  34  35
ENDBRANCH  33  34
ENDBRANCH  32  33
ENDBRANCH  31  32
ENDBRANCH   1  31
TORSDOF 26
ENDMDL
MODEL 2
REMARK VINA RESULT:     -10.0      4.929      9.308
REMARK SMILES COc1ccc(C)cc1Nc1nc(OCC(=O)OCCOCCOCCOC(=O)c2ccc(-c3c4nc(c(-c5cccc(S(=O)(=O)[O-])c5F)c5ccc([nH]5)c(-c5cccc(S(=O)(=O)[O-])c5F)c5nc(c(-c6cccc(S(=O)(=O)[O-])c6F)c6ccc3[nH]6)C=C5)C=C4)cc2)cc(C(C)(C)C)n1
REMARK SMILES IDX 22 1 21 2 20 3 19 4 18 5 16 6 17 7 15 8 14 9 13 10 11 11
REMARK SMILES IDX 12 12 99 13 94 14 93 15 10 16 9 18 3 19 4 20 5 21 8 22 6 23
REMARK SMILES IDX 7 24 2 25 1 26 95 27 96 28 97 29 98 30 23 31 24 32 25 33
REMARK SMILES IDX 26 34 27 35 28 36 29 37 30 38 31 39 92 40 32 41 91 42 33 43
REMARK SMILES IDX 34 44 35 45 85 46 36 47 90 48 84 49 86 50 37 51 89 52 83 53
REMARK SMILES IDX 82 54 38 56 70 57 50 58 69 59 51 60 54 61 68 62 87 63 52 64
REMARK SMILES IDX 53 65 67 67 88 68 55 69 39 70 40 71 48 72 41 73 43 74 49 75
REMARK SMILES IDX 42 76 44 77 45 78 46 79 47 80 71 81 72 82 80 83 73 84 75 85
REMARK SMILES IDX 81 86 74 87 76 88 77 89 78 90 79 91 56 92 57 93 65 94 58 95
REMARK SMILES IDX 60 96 66 97 59 98 61 99 62 100 63 101 64 102
REMARK H PARENT 10 17 86 55 54 66
REMARK Flexibility Score: inf
ROOT
ATOM      1  C   UNL A   1      32.318  29.098  23.771  1.00  0.00     0.188 C 
ENDROOT
BRANCH   1   2
ATOM      2  O   UNL A   1      31.946  27.718  23.682  1.00  0.00    -0.376 OA
BRANCH   2   3
ATOM      3  C   UNL A   1      30.654  27.443  23.143  1.00  0.00     0.202 C 
BRANCH   3   4
ATOM      4  C   UNL A   1      29.641  26.823  24.143  1.00  0.00     0.261 C 
BRANCH   4   5
ATOM      5  O   UNL A   1      29.848  25.407  24.515  1.00  0.00    -0.461 OA
BRANCH   5   6
ATOM      6  C   UNL A   1      30.356  25.300  25.771  1.00  0.00     0.344 C 
ATOM      7  O   UNL A   1      29.602  24.943  26.669  1.00  0.00    -0.248 OA
BRANCH   6   8
ATOM      8  C   UNL A   1      31.924  25.542  26.065  1.00  0.00     0.353 C 
BRANCH   8   9
ATOM      9  O   UNL A   1      33.030  24.723  25.818  1.00  0.00    -0.466 OA
BRANCH   9  10
ATOM     10  C   UNL A   1      33.330  23.402  26.226  1.00  0.00     0.218 A 
ATOM     11  C   UNL A   1      36.020  22.280  25.801  1.00  0.00     0.230 A 
ATOM     12  N   UNL A   1      35.052  23.583  26.199  1.00  0.00    -0.177 NA
ATOM     13  N   UNL A   1      35.468  20.678  25.489  1.00  0.00    -0.217 NA
ATOM     14  C   UNL A   1      33.790  20.262  25.437  1.00  0.00     0.055 A 
ATOM     15  C   UNL A   1      32.585  21.562  25.794  1.00  0.00     0.093 A 
BRANCH  11  16
ATOM     16  N   UNL A   1      37.281  22.685  25.275  1.00  0.00    -0.321 N 
ATOM     17  H   UNL A   1      37.342  22.724  24.294  1.00  0.00     0.170 HD
BRANCH  16  18
ATOM     18  C   UNL A   1      38.468  23.043  25.985  1.00  0.00     0.084 A 
ATOM     19  C   UNL A   1      39.493  22.101  26.154  1.00  0.00     0.142 A 
ATOM     20  C   UNL A   1      40.782  22.447  26.590  1.00  0.00     0.049 A 
ATOM     21  C   UNL A   1      41.066  23.755  26.932  1.00  0.00     0.007 A 
ATOM     22  C   UNL A   1      38.723  24.288  26.576  1.00  0.00     0.033 A 
ATOM     23  C   UNL A   1      40.034  24.681  26.953  1.00  0.00    -0.049 A 
ATOM     24  C   UNL A   1      40.403  26.112  27.195  1.00  0.00     0.044 C 
BRANCH  19  25
ATOM     25  O   UNL A   1      39.213  20.769  25.955  1.00  0.00    -0.495 OA
ATOM     26  C   UNL A   1      40.409  20.047  26.279  1.00  0.00     0.278 C 
ENDBRANCH  19  25
ENDBRANCH  16  18
ENDBRANCH  11  16
BRANCH  14  27
ATOM     27  C   UNL A   1      33.398  18.930  24.787  1.00  0.00     0.004 C 
ATOM     28  C   UNL A   1      34.589  18.079  24.287  1.00  0.00     0.017 C 
ATOM     29  C   UNL A   1      32.551  18.049  25.718  1.00  0.00     0.017 C 
ATOM     30  C   UNL A   1      32.552  19.267  23.584  1.00  0.00     0.017 C 
ENDBRANCH  14  27
ENDBRANCH   9  10
ENDBRANCH   8   9
ENDBRANCH   6   8
ENDBRANCH   5   6
ENDBRANCH   4   5
ENDBRANCH   3   4
ENDBRANCH   2   3
ENDBRANCH   1   2
BRANCH   1  31
ATOM     31  C   UNL A   1      31.479  29.876  24.778  1.00  0.00     0.188 C 
BRANCH  31  32
ATOM     32  O   UNL A   1      31.537  29.184  26.015  1.00  0.00    -0.376 OA
BRANCH  32  33
ATOM     33  C   UNL A   1      32.347  29.592  27.086  1.00  0.00     0.202 C 
BRANCH  33  34
ATOM     34  C   UNL A   1      33.204  30.809  26.838  1.00  0.00     0.261 C 
BRANCH  34  35
ATOM     35  O   UNL A   1      34.538  31.052  27.452  1.00  0.00    -0.460 OA
BRANCH  35  36
ATOM     36  C   UNL A   1      35.576  31.564  28.166  1.00  0.00     0.338 C 
ATOM     37  O   UNL A   1      35.891  32.695  27.807  1.00  0.00    -0.246 OA
BRANCH  36  38
ATOM     38  C   UNL A   1      36.312  30.627  29.322  1.00  0.00     0.060 A 
ATOM     39  C   UNL A   1      36.188  30.159  31.302  1.00  0.00     0.016 A 
ATOM     40  C   UNL A   1      37.939  30.669  28.652  1.00  0.00     0.016 A 
ATOM     41  C   UNL A   1      37.755  29.873  32.221  1.00  0.00     0.010 A 
ATOM     42  C   UNL A   1      39.334  30.458  29.714  1.00  0.00     0.010 A 
ATOM     43  C   UNL A   1      39.313  30.016  31.408  1.00  0.00    -0.014 A 
BRANCH  43  44
ATOM     44  C   UNL A   1      40.815  29.770  31.899  1.00  0.00     0.031 A 
ATOM     45  C   UNL A   1      41.847  28.622  31.329  1.00  0.00     0.074 A 
ATOM     46  C   UNL A   1      41.461  30.874  32.417  1.00  0.00     0.049 A 
ATOM     47  N   UNL A   1      42.944  28.151  31.888  1.00  0.00    -0.248 NA
ATOM     48  C   UNL A   1      41.745  27.971  29.995  1.00  0.00     0.031 C 
ATOM     49  C   UNL A   1      42.835  31.228  32.034  1.00  0.00     0.029 A 
ATOM     50  N   UNL A   1      41.080  32.033  33.118  1.00  0.00    -0.354 N 
ATOM     51  C   UNL A   1      43.651  27.430  30.874  1.00  0.00     0.074 A 
ATOM     52  C   UNL A   1      42.665  27.011  29.934  1.00  0.00     0.031 C 
ATOM     53  C   UNL A   1      43.172  32.437  32.500  1.00  0.00     0.029 A 
ATOM     54  C   UNL A   1      42.192  32.824  33.478  1.00  0.00     0.049 A 
ATOM     55  H   UNL A   1      40.147  32.265  33.332  1.00  0.00     0.167 HD
ATOM     56  C   UNL A   1      44.963  27.655  30.506  1.00  0.00     0.034 A 
ATOM     57  C   UNL A   1      42.560  33.301  34.714  1.00  0.00     0.034 A 
ATOM     58  C   UNL A   1      45.505  28.778  31.265  1.00  0.00     0.049 A 
ATOM     59  C   UNL A   1      43.807  32.603  35.245  1.00  0.00     0.074 A 
ATOM     60  C   UNL A   1      45.984  30.036  30.938  1.00  0.00     0.029 A 
ATOM     61  N   UNL A   1      45.384  28.755  32.634  1.00  0.00    -0.354 N 
ATOM     62  N   UNL A   1      44.690  32.022  34.481  1.00  0.00    -0.248 NA
ATOM     63  C   UNL A   1      44.135  32.419  36.664  1.00  0.00     0.031 C 
ATOM     64  C   UNL A   1      46.208  30.742  32.153  1.00  0.00     0.029 A 
ATOM     65  C   UNL A   1      45.872  29.909  33.206  1.00  0.00     0.049 A 
ATOM     66  H   UNL A   1      44.998  28.006  33.144  1.00  0.00     0.167 HD
ATOM     67  C   UNL A   1      45.357  31.087  35.226  1.00  0.00     0.074 A 
ATOM     68  C   UNL A   1      45.124  31.511  36.592  1.00  0.00     0.031 C 
ATOM     69  C   UNL A   1      45.914  29.974  34.657  1.00  0.00     0.034 A 
BRANCH  56  70
ATOM     70  C   UNL A   1      45.750  27.099  29.252  1.00  0.00     0.023 A 
ATOM     71  C   UNL A   1      46.197  25.751  29.335  1.00  0.00     0.012 A 
ATOM     72  C   UNL A   1      46.064  27.730  28.008  1.00  0.00     0.148 A 
ATOM     73  C   UNL A   1      46.949  25.107  28.337  1.00  0.00     0.002 A 
ATOM     74  C   UNL A   1      46.872  27.104  27.031  1.00  0.00     0.091 A 
ATOM     75  F   UNL A   1      45.519  28.909  27.689  1.00  0.00    -0.205 F 
ATOM     76  C   UNL A   1      47.311  25.791  27.193  1.00  0.00     0.022 A 
BRANCH  74  77
ATOM     77  S   UNL A   1      47.459  27.955  25.543  1.00  0.00     0.127 S 
ATOM     78  O   UNL A   1      46.223  28.161  24.782  1.00  0.00    -0.237 OA
ATOM     79  O   UNL A   1      48.043  29.181  26.080  1.00  0.00    -0.237 OA
ATOM     80  O   UNL A   1      48.388  27.030  24.903  1.00  0.00    -0.744 OA
ENDBRANCH  74  77
ENDBRANCH  56  70
BRANCH  57  81
ATOM     81  C   UNL A   1      41.441  33.785  35.551  1.00  0.00     0.023 A 
ATOM     82  C   UNL A   1      40.951  35.068  35.216  1.00  0.00     0.012 A 
ATOM     83  C   UNL A   1      40.586  32.804  36.048  1.00  0.00     0.148 A 
ATOM     84  C   UNL A   1      39.580  35.265  35.099  1.00  0.00     0.002 A 
ATOM     85  C   UNL A   1      39.239  32.961  35.813  1.00  0.00     0.091 A 
ATOM     86  F   UNL A   1      41.116  31.664  36.508  1.00  0.00    -0.205 F 
ATOM     87  C   UNL A   1      38.731  34.186  35.335  1.00  0.00     0.022 A 
BRANCH  85  88
ATOM     88  S   UNL A   1      38.207  31.495  35.735  1.00  0.00     0.127 S 
ATOM     89  O   UNL A   1      37.083  31.968  34.931  1.00  0.00    -0.237 OA
ATOM     90  O   UNL A   1      39.112  30.564  35.064  1.00  0.00    -0.237 OA
ATOM     91  O   UNL A   1      37.868  31.173  37.112  1.00  0.00    -0.744 OA
ENDBRANCH  85  88
ENDBRANCH  57  81
BRANCH  69  92
ATOM     92  C   UNL A   1      46.493  28.786  35.409  1.00  0.00     0.023 A 
ATOM     93  C   UNL A   1      47.875  28.608  35.584  1.00  0.00     0.012 A 
ATOM     94  C   UNL A   1      45.645  27.847  36.063  1.00  0.00     0.148 A 
ATOM     95  C   UNL A   1      48.394  27.483  36.229  1.00  0.00     0.002 A 
ATOM     96  C   UNL A   1      46.168  26.816  36.833  1.00  0.00     0.091 A 
ATOM     97  F   UNL A   1      44.313  27.923  35.919  1.00  0.00    -0.205 F 
ATOM     98  C   UNL A   1      47.542  26.591  36.862  1.00  0.00     0.022 A 
BRANCH  96  99
ATOM     99  S   UNL A   1      45.127  25.824  37.912  1.00  0.00     0.127 S 
ATOM    100  O   UNL A   1      44.365  25.033  36.948  1.00  0.00    -0.237 OA
ATOM    101  O   UNL A   1      46.115  25.063  38.680  1.00  0.00    -0.237 OA
ATOM    102  O   UNL A   1      44.364  26.781  38.702  1.00  0.00    -0.744 OA
ENDBRANCH  96  99
ENDBRANCH  69  92
ENDBRANCH  43  44
ENDBRANCH  36  38
ENDBRANCH  35  36
ENDBRANCH  34  35
ENDBRANCH  33  34
ENDBRANCH  32  33
ENDBRANCH  31  32
ENDBRANCH   1  31
TORSDOF 26
ENDMDL
MODEL 3
REMARK VINA RESULT:      -9.8      6.241      8.489
REMARK SMILES COc1ccc(C)cc1Nc1nc(OCC(=O)OCCOCCOCCOC(=O)c2ccc(-c3c4nc(c(-c5cccc(S(=O)(=O)[O-])c5F)c5ccc([nH]5)c(-c5cccc(S(=O)(=O)[O-])c5F)c5nc(c(-c6cccc(S(=O)(=O)[O-])c6F)c6ccc3[nH]6)C=C5)C=C4)cc2)cc(C(C)(C)C)n1
REMARK SMILES IDX 22 1 21 2 20 3 19 4 18 5 16 6 17 7 15 8 14 9 13 10 11 11
REMARK SMILES IDX 12 12 99 13 94 14 93 15 10 16 9 18 3 19 4 20 5 21 8 22 6 23
REMARK SMILES IDX 7 24 2 25 1 26 95 27 96 28 97 29 98 30 23 31 24 32 25 33
REMARK SMILES IDX 26 34 27 35 28 36 29 37 30 38 31 39 92 40 32 41 91 42 33 43
REMARK SMILES IDX 34 44 35 45 85 46 36 47 90 48 84 49 86 50 37 51 89 52 83 53
REMARK SMILES IDX 82 54 38 56 70 57 50 58 69 59 51 60 54 61 68 62 87 63 52 64
REMARK SMILES IDX 53 65 67 67 88 68 55 69 39 70 40 71 48 72 41 73 43 74 49 75
REMARK SMILES IDX 42 76 44 77 45 78 46 79 47 80 71 81 72 82 80 83 73 84 75 85
REMARK SMILES IDX 81 86 74 87 76 88 77 89 78 90 79 91 56 92 57 93 65 94 58 95
REMARK SMILES IDX 60 96 66 97 59 98 61 99 62 100 63 101 64 102
REMARK H PARENT 10 17 86 55 54 66
REMARK Flexibility Score: inf
ROOT
ATOM      1  C   UNL A   1      32.705  28.803  25.354  1.00  0.00     0.188 C 
ENDROOT
BRANCH   1   2
ATOM      2  O   UNL A   1      31.367  28.304  25.462  1.00  0.00    -0.376 OA
BRANCH   2   3
ATOM      3  C   UNL A   1      31.175  26.929  25.132  1.00  0.00     0.202 C 
BRANCH   3   4
ATOM      4  C   UNL A   1      32.227  26.332  24.158  1.00  0.00     0.261 C 
BRANCH   4   5
ATOM      5  O   UNL A   1      31.968  26.494  22.711  1.00  0.00    -0.461 OA
BRANCH   5   6
ATOM      6  C   UNL A   1      32.770  25.680  21.976  1.00  0.00     0.344 C 
ATOM      7  O   UNL A   1      33.478  26.191  21.116  1.00  0.00    -0.248 OA
BRANCH   6   8
ATOM      8  C   UNL A   1      32.863  24.098  22.280  1.00  0.00     0.353 C 
BRANCH   8   9
ATOM      9  O   UNL A   1      33.868  23.351  22.903  1.00  0.00    -0.466 OA
BRANCH   9  10
ATOM     10  C   UNL A   1      33.808  22.302  23.849  1.00  0.00     0.218 A 
ATOM     11  C   UNL A   1      36.278  21.159  24.975  1.00  0.00     0.230 A 
ATOM     12  N   UNL A   1      35.421  22.494  24.447  1.00  0.00    -0.177 NA
ATOM     13  N   UNL A   1      35.668  19.552  25.079  1.00  0.00    -0.217 NA
ATOM     14  C   UNL A   1      34.091  19.113  24.518  1.00  0.00     0.055 A 
ATOM     15  C   UNL A   1      33.032  20.423  23.861  1.00  0.00     0.093 A 
BRANCH  11  16
ATOM     16  N   UNL A   1      37.687  21.354  24.888  1.00  0.00    -0.321 N 
ATOM     17  H   UNL A   1      38.114  21.019  24.068  1.00  0.00     0.170 HD
BRANCH  16  18
ATOM     18  C   UNL A   1      38.561  21.971  25.835  1.00  0.00     0.084 A 
ATOM     19  C   UNL A   1      39.730  21.313  26.242  1.00  0.00     0.142 A 
ATOM     20  C   UNL A   1      40.762  21.955  26.944  1.00  0.00     0.049 A 
ATOM     21  C   UNL A   1      40.623  23.278  27.316  1.00  0.00     0.007 A 
ATOM     22  C   UNL A   1      38.356  23.216  26.445  1.00  0.00     0.033 A 
ATOM     23  C   UNL A   1      39.410  23.913  27.094  1.00  0.00    -0.049 A 
ATOM     24  C   UNL A   1      39.341  25.379  27.385  1.00  0.00     0.044 C 
BRANCH  19  25
ATOM     25  O   UNL A   1      39.848  19.962  26.010  1.00  0.00    -0.495 OA
ATOM     26  C   UNL A   1      41.244  19.649  26.118  1.00  0.00     0.278 C 
ENDBRANCH  19  25
ENDBRANCH  16  18
ENDBRANCH  11  16
BRANCH  14  27
ATOM     27  C   UNL A   1      33.792  17.625  24.302  1.00  0.00     0.004 C 
ATOM     28  C   UNL A   1      33.621  17.208  22.821  1.00  0.00     0.017 C 
ATOM     29  C   UNL A   1      34.862  16.715  24.924  1.00  0.00     0.017 C 
ATOM     30  C   UNL A   1      32.487  17.339  25.002  1.00  0.00     0.017 C 
ENDBRANCH  14  27
ENDBRANCH   9  10
ENDBRANCH   8   9
ENDBRANCH   6   8
ENDBRANCH   5   6
ENDBRANCH   4   5
ENDBRANCH   3   4
ENDBRANCH   2   3
ENDBRANCH   1   2
BRANCH   1  31
ATOM     31  C   UNL A   1      33.417  28.891  26.699  1.00  0.00     0.188 C 
BRANCH  31  32
ATOM     32  O   UNL A   1      34.047  30.160  26.772  1.00  0.00    -0.376 OA
BRANCH  32  33
ATOM     33  C   UNL A   1      34.873  30.549  27.838  1.00  0.00     0.202 C 
BRANCH  33  34
ATOM     34  C   UNL A   1      35.833  29.500  28.344  1.00  0.00     0.261 C 
BRANCH  34  35
ATOM     35  O   UNL A   1      36.636  29.609  29.593  1.00  0.00    -0.460 OA
BRANCH  35  36
ATOM     36  C   UNL A   1      37.066  29.894  30.851  1.00  0.00     0.338 C 
ATOM     37  O   UNL A   1      36.219  29.665  31.709  1.00  0.00    -0.246 OA
BRANCH  36  38
ATOM     38  C   UNL A   1      38.573  30.558  31.068  1.00  0.00     0.060 A 
ATOM     39  C   UNL A   1      39.868  31.873  30.204  1.00  0.00     0.016 A 
ATOM     40  C   UNL A   1      39.314  29.185  31.881  1.00  0.00     0.016 A 
ATOM     41  C   UNL A   1      41.666  31.501  30.298  1.00  0.00     0.010 A 
ATOM     42  C   UNL A   1      41.061  28.945  31.787  1.00  0.00     0.010 A 
ATOM     43  C   UNL A   1      42.242  30.041  31.102  1.00  0.00    -0.014 A 
BRANCH  43  44
ATOM     44  C   UNL A   1      43.708  29.481  31.404  1.00  0.00     0.031 A 
ATOM     45  C   UNL A   1      44.713  29.990  32.604  1.00  0.00     0.074 A 
ATOM     46  C   UNL A   1      43.940  28.177  31.016  1.00  0.00     0.049 A 
ATOM     47  N   UNL A   1      46.017  29.822  32.711  1.00  0.00    -0.248 NA
ATOM     48  C   UNL A   1      44.275  30.672  33.851  1.00  0.00     0.031 C 
ATOM     49  C   UNL A   1      44.607  27.205  31.894  1.00  0.00     0.029 A 
ATOM     50  N   UNL A   1      43.476  27.327  29.995  1.00  0.00    -0.354 N 
ATOM     51  C   UNL A   1      46.367  30.145  34.060  1.00  0.00     0.074 A 
ATOM     52  C   UNL A   1      45.363  31.047  34.519  1.00  0.00     0.031 C 
ATOM     53  C   UNL A   1      44.536  25.968  31.389  1.00  0.00     0.029 A 
ATOM     54  C   UNL A   1      44.117  26.071  30.019  1.00  0.00     0.049 A 
ATOM     55  H   UNL A   1      42.785  27.581  29.339  1.00  0.00     0.167 HD
ATOM     56  C   UNL A   1      47.055  29.316  34.925  1.00  0.00     0.034 A 
ATOM     57  C   UNL A   1      44.784  25.412  29.012  1.00  0.00     0.034 A 
ATOM     58  C   UNL A   1      47.320  28.035  34.277  1.00  0.00     0.049 A 
ATOM     59  C   UNL A   1      46.288  25.367  29.259  1.00  0.00     0.074 A 
ATOM     60  C   UNL A   1      46.940  26.724  34.514  1.00  0.00     0.029 A 
ATOM     61  N   UNL A   1      47.918  28.046  33.038  1.00  0.00    -0.354 N 
ATOM     62  N   UNL A   1      46.828  25.469  30.442  1.00  0.00    -0.248 NA
ATOM     63  C   UNL A   1      47.315  25.290  28.214  1.00  0.00     0.031 C 
ATOM     64  C   UNL A   1      47.385  25.939  33.413  1.00  0.00     0.029 A 
ATOM     65  C   UNL A   1      48.036  26.774  32.522  1.00  0.00     0.049 A 
ATOM     66  H   UNL A   1      48.224  28.860  32.578  1.00  0.00     0.167 HD
ATOM     67  C   UNL A   1      48.116  25.909  30.291  1.00  0.00     0.074 A 
ATOM     68  C   UNL A   1      48.426  25.587  28.912  1.00  0.00     0.031 C 
ATOM     69  C   UNL A   1      48.755  26.624  31.267  1.00  0.00     0.034 A 
BRANCH  56  70
ATOM     70  C   UNL A   1      47.271  29.468  36.484  1.00  0.00     0.023 A 
ATOM     71  C   UNL A   1      48.541  29.957  36.898  1.00  0.00     0.012 A 
ATOM     72  C   UNL A   1      46.371  29.225  37.566  1.00  0.00     0.148 A 
ATOM     73  C   UNL A   1      48.926  30.113  38.242  1.00  0.00     0.002 A 
ATOM     74  C   UNL A   1      46.776  29.322  38.918  1.00  0.00     0.091 A 
ATOM     75  F   UNL A   1      45.076  28.984  37.332  1.00  0.00    -0.205 F 
ATOM     76  C   UNL A   1      48.052  29.771  39.256  1.00  0.00     0.022 A 
BRANCH  74  77
ATOM     77  S   UNL A   1      45.724  28.817  40.304  1.00  0.00     0.127 S 
ATOM     78  O   UNL A   1      46.617  28.972  41.458  1.00  0.00    -0.237 OA
ATOM     79  O   UNL A   1      44.635  29.789  40.255  1.00  0.00    -0.237 OA
ATOM     80  O   UNL A   1      45.359  27.431  40.034  1.00  0.00    -0.744 OA
ENDBRANCH  74  77
ENDBRANCH  56  70
BRANCH  57  81
ATOM     81  C   UNL A   1      44.148  25.508  27.681  1.00  0.00     0.023 A 
ATOM     82  C   UNL A   1      44.320  26.745  27.019  1.00  0.00     0.012 A 
ATOM     83  C   UNL A   1      44.069  24.320  26.958  1.00  0.00     0.148 A 
ATOM     84  C   UNL A   1      44.708  26.757  25.685  1.00  0.00     0.002 A 
ATOM     85  C   UNL A   1      44.571  24.325  25.677  1.00  0.00     0.091 A 
ATOM     86  F   UNL A   1      43.739  23.196  27.605  1.00  0.00    -0.205 F 
ATOM     87  C   UNL A   1      44.897  25.538  25.037  1.00  0.00     0.022 A 
BRANCH  85  88
ATOM     88  S   UNL A   1      45.178  22.782  24.990  1.00  0.00     0.127 S 
ATOM     89  O   UNL A   1      45.903  23.249  23.810  1.00  0.00    -0.237 OA
ATOM     90  O   UNL A   1      46.012  22.306  26.092  1.00  0.00    -0.237 OA
ATOM     91  O   UNL A   1      43.998  21.985  24.694  1.00  0.00    -0.744 OA
ENDBRANCH  85  88
ENDBRANCH  57  81
BRANCH  69  92
ATOM     92  C   UNL A   1      50.096  27.325  31.124  1.00  0.00     0.023 A 
ATOM     93  C   UNL A   1      50.264  28.470  30.329  1.00  0.00     0.012 A 
ATOM     94  C   UNL A   1      51.229  26.904  31.878  1.00  0.00     0.148 A 
ATOM     95  C   UNL A   1      51.515  29.071  30.163  1.00  0.00     0.002 A 
ATOM     96  C   UNL A   1      52.430  27.599  31.826  1.00  0.00     0.091 A 
ATOM     97  F   UNL A   1      51.164  25.798  32.635  1.00  0.00    -0.205 F 
ATOM     98  C   UNL A   1      52.597  28.642  30.917  1.00  0.00     0.022 A 
BRANCH  96  99
ATOM     99  S   UNL A   1      53.756  27.279  32.996  1.00  0.00     0.127 S 
ATOM    100  O   UNL A   1      54.241  25.975  32.548  1.00  0.00    -0.237 OA
ATOM    101  O   UNL A   1      54.672  28.391  32.737  1.00  0.00    -0.237 OA
ATOM    102  O   UNL A   1      53.130  27.314  34.311  1.00  0.00    -0.744 OA
ENDBRANCH  96  99
ENDBRANCH  69  92
ENDBRANCH  43  44
ENDBRANCH  36  38
ENDBRANCH  35  36
ENDBRANCH  34  35
ENDBRANCH  33  34
ENDBRANCH  32  33
ENDBRANCH  31  32
ENDBRANCH   1  31
TORSDOF 26
ENDMDL
