MODEL 1
REMARK VINA RESULT:      -9.0      0.000      0.000
REMARK SMILES O=C(COCC(=O)OCCOCCOCCOC(=O)c1ccc(-c2c3nc(c(-c4cccc(S(=O)(=O)[O-])c4F)c4ccc([nH]4)c(-c4cccc(S(=O)(=O)[O-])c4F)c4nc(c(-c5cccc(S(=O)(=O)[O-])c5F)c5ccc2[nH]5)C=C4)C=C3)cc1)Nc1cccc([N+](=O)[O-])c1
REMARK SMILES IDX 12 1 11 2 10 3 9 4 8 5 6 6 7 7 5 8 4 9 3 10 2 11 1 12 83 13
REMARK SMILES IDX 84 15 85 16 92 17 86 18 88 19 87 20 89 21 90 22 91 23 13 24
REMARK SMILES IDX 14 25 15 26 16 27 17 28 18 29 19 30 20 31 21 32 82 33 22 34
REMARK SMILES IDX 81 35 23 36 24 37 25 38 75 39 26 40 80 41 74 42 76 43 27 44
REMARK SMILES IDX 79 45 73 46 72 47 28 49 60 50 40 51 59 52 41 53 44 54 58 55
REMARK SMILES IDX 77 56 42 57 43 58 57 60 78 61 45 62 29 63 30 64 38 65 31 66
REMARK SMILES IDX 33 67 39 68 32 69 34 70 35 71 36 72 37 73 61 74 62 75 70 76
REMARK SMILES IDX 63 77 65 78 71 79 64 80 66 81 67 82 68 83 69 84 46 85 47 86
REMARK SMILES IDX 55 87 48 88 50 89 56 90 49 91 51 92 52 93 53 94 54 95
REMARK H PARENT 83 14 76 48 44 59
REMARK Flexibility Score: inf
ROOT
ATOM      1  C   UNL A   1      37.297  21.660  24.801  1.00  0.00     0.188 C 
ENDROOT
BRANCH   1   2
ATOM      2  O   UNL A   1      36.101  21.335  25.506  1.00  0.00    -0.376 OA
BRANCH   2   3
ATOM      3  C   UNL A   1      35.401  20.179  25.065  1.00  0.00     0.202 C 
BRANCH   3   4
ATOM      4  C   UNL A   1      33.969  20.401  24.548  1.00  0.00     0.261 C 
BRANCH   4   5
ATOM      5  O   UNL A   1      33.751  21.653  23.858  1.00  0.00    -0.462 OA
BRANCH   5   6
ATOM      6  C   UNL A   1      32.482  22.145  23.937  1.00  0.00     0.332 C 
ATOM      7  O   UNL A   1      31.794  22.451  22.967  1.00  0.00    -0.250 OA
BRANCH   6   8
ATOM      8  C   UNL A   1      31.916  22.226  25.373  1.00  0.00     0.283 C 
BRANCH   8   9
ATOM      9  O   UNL A   1      30.586  22.570  25.718  1.00  0.00    -0.360 OA
BRANCH   9  10
ATOM     10  C   UNL A   1      30.432  23.685  26.579  1.00  0.00     0.261 C 
BRANCH  10  11
ATOM     11  C   UNL A   1      30.216  25.105  26.000  1.00  0.00     0.250 C 
ATOM     12  O   UNL A   1      30.317  26.092  26.725  1.00  0.00    -0.272 OA
ATOM     13  N   UNL A   1      29.848  25.156  24.663  1.00  0.00    -0.324 N 
ATOM     14  H   UNL A   1      29.673  24.313  24.185  1.00  0.00     0.170 HD
BRANCH  13  15
ATOM     15  C   UNL A   1      29.716  26.378  23.963  1.00  0.00     0.048 A 
ATOM     16  C   UNL A   1      30.847  26.941  23.372  1.00  0.00     0.026 A 
ATOM     17  C   UNL A   1      28.492  27.048  23.874  1.00  0.00     0.111 A 
ATOM     18  C   UNL A   1      30.740  28.100  22.593  1.00  0.00     0.009 A 
ATOM     19  C   UNL A   1      28.402  28.247  23.140  1.00  0.00     0.271 A 
ATOM     20  C   UNL A   1      29.515  28.754  22.463  1.00  0.00     0.086 A 
BRANCH  19  21
ATOM     21  N   UNL A   1      27.152  29.017  23.143  1.00  0.00     0.062 N 
ATOM     22  O   UNL A   1      27.219  30.226  22.893  1.00  0.00    -0.258 OA
ATOM     23  O   UNL A   1      26.116  28.413  23.463  1.00  0.00    -0.258 OA
ENDBRANCH  19  21
ENDBRANCH  13  15
ENDBRANCH  10  11
ENDBRANCH   9  10
ENDBRANCH   8   9
ENDBRANCH   6   8
ENDBRANCH   5   6
ENDBRANCH   4   5
ENDBRANCH   3   4
ENDBRANCH   2   3
ENDBRANCH   1   2
BRANCH   1  24
ATOM     24  C   UNL A   1      38.603  21.426  25.560  1.00  0.00     0.188 C 
BRANCH  24  25
ATOM     25  O   UNL A   1      38.985  22.463  26.457  1.00  0.00    -0.376 OA
BRANCH  25  26
ATOM     26  C   UNL A   1      40.368  22.518  26.814  1.00  0.00     0.202 C 
BRANCH  26  27
ATOM     27  C   UNL A   1      41.425  21.936  25.845  1.00  0.00     0.261 C 
BRANCH  27  28
ATOM     28  O   UNL A   1      42.810  22.221  26.134  1.00  0.00    -0.460 OA
BRANCH  28  29
ATOM     29  C   UNL A   1      43.399  23.221  25.443  1.00  0.00     0.338 C 
ATOM     30  O   UNL A   1      43.738  23.175  24.266  1.00  0.00    -0.246 OA
BRANCH  29  31
ATOM     31  C   UNL A   1      43.296  24.478  26.230  1.00  0.00     0.060 A 
ATOM     32  C   UNL A   1      42.966  25.632  25.523  1.00  0.00     0.016 A 
ATOM     33  C   UNL A   1      43.455  24.557  27.615  1.00  0.00     0.016 A 
ATOM     34  C   UNL A   1      42.807  26.854  26.174  1.00  0.00     0.010 A 
ATOM     35  C   UNL A   1      43.359  25.808  28.262  1.00  0.00     0.010 A 
ATOM     36  C   UNL A   1      43.079  26.981  27.535  1.00  0.00    -0.014 A 
BRANCH  36  37
ATOM     37  C   UNL A   1      43.289  28.361  28.076  1.00  0.00     0.031 A 
ATOM     38  C   UNL A   1      42.136  29.054  28.770  1.00  0.00     0.074 A 
ATOM     39  C   UNL A   1      44.510  28.935  28.143  1.00  0.00     0.049 A 
ATOM     40  N   UNL A   1      42.100  30.221  29.361  1.00  0.00    -0.248 NA
ATOM     41  C   UNL A   1      40.866  28.314  28.832  1.00  0.00     0.031 C 
ATOM     42  C   UNL A   1      45.751  28.357  27.629  1.00  0.00     0.029 A 
ATOM     43  N   UNL A   1      44.906  30.134  28.695  1.00  0.00    -0.354 N 
ATOM     44  C   UNL A   1      40.811  30.351  29.867  1.00  0.00     0.074 A 
ATOM     45  C   UNL A   1      40.084  29.164  29.476  1.00  0.00     0.031 C 
ATOM     46  C   UNL A   1      46.765  29.203  27.881  1.00  0.00     0.029 A 
ATOM     47  C   UNL A   1      46.246  30.406  28.531  1.00  0.00     0.049 A 
ATOM     48  H   UNL A   1      44.288  30.741  29.164  1.00  0.00     0.167 HD
ATOM     49  C   UNL A   1      40.274  31.343  30.617  1.00  0.00     0.034 A 
ATOM     50  C   UNL A   1      46.970  31.505  28.834  1.00  0.00     0.034 A 
ATOM     51  C   UNL A   1      40.979  32.517  31.054  1.00  0.00     0.049 A 
ATOM     52  C   UNL A   1      46.306  32.678  29.511  1.00  0.00     0.074 A 
ATOM     53  C   UNL A   1      40.495  33.582  31.795  1.00  0.00     0.029 A 
ATOM     54  N   UNL A   1      42.311  32.786  30.793  1.00  0.00    -0.354 N 
ATOM     55  N   UNL A   1      45.093  32.777  29.995  1.00  0.00    -0.248 NA
ATOM     56  C   UNL A   1      47.123  33.890  29.699  1.00  0.00     0.031 C 
ATOM     57  C   UNL A   1      41.521  34.525  31.929  1.00  0.00     0.029 A 
ATOM     58  C   UNL A   1      42.656  34.023  31.314  1.00  0.00     0.049 A 
ATOM     59  H   UNL A   1      42.923  32.187  30.307  1.00  0.00     0.167 HD
ATOM     60  C   UNL A   1      45.013  34.040  30.578  1.00  0.00     0.074 A 
ATOM     61  C   UNL A   1      46.308  34.662  30.405  1.00  0.00     0.031 C 
ATOM     62  C   UNL A   1      43.956  34.630  31.190  1.00  0.00     0.034 A 
BRANCH  49  63
ATOM     63  C   UNL A   1      38.822  31.211  30.989  1.00  0.00     0.023 A 
ATOM     64  C   UNL A   1      38.444  30.480  32.134  1.00  0.00     0.012 A 
ATOM     65  C   UNL A   1      37.831  31.829  30.202  1.00  0.00     0.148 A 
ATOM     66  C   UNL A   1      37.097  30.335  32.467  1.00  0.00     0.002 A 
ATOM     67  C   UNL A   1      36.496  31.718  30.564  1.00  0.00     0.091 A 
ATOM     68  F   UNL A   1      38.212  32.497  29.104  1.00  0.00    -0.205 F 
ATOM     69  C   UNL A   1      36.125  30.963  31.689  1.00  0.00     0.022 A 
BRANCH  67  70
ATOM     70  S   UNL A   1      35.184  32.546  29.660  1.00  0.00     0.127 S 
ATOM     71  O   UNL A   1      34.860  31.553  28.636  1.00  0.00    -0.237 OA
ATOM     72  O   UNL A   1      34.158  32.715  30.689  1.00  0.00    -0.237 OA
ATOM     73  O   UNL A   1      35.759  33.790  29.167  1.00  0.00    -0.744 OA
ENDBRANCH  67  70
ENDBRANCH  49  63
BRANCH  50  74
ATOM     74  C   UNL A   1      48.421  31.574  28.484  1.00  0.00     0.023 A 
ATOM     75  C   UNL A   1      49.368  30.877  29.261  1.00  0.00     0.012 A 
ATOM     76  C   UNL A   1      48.870  32.359  27.403  1.00  0.00     0.148 A 
ATOM     77  C   UNL A   1      50.733  30.979  28.982  1.00  0.00     0.002 A 
ATOM     78  C   UNL A   1      50.224  32.409  27.095  1.00  0.00     0.091 A 
ATOM     79  F   UNL A   1      47.959  33.045  26.698  1.00  0.00    -0.205 F 
ATOM     80  C   UNL A   1      51.159  31.735  27.894  1.00  0.00     0.022 A 
BRANCH  78  81
ATOM     81  S   UNL A   1      50.852  33.264  25.646  1.00  0.00     0.127 S 
ATOM     82  O   UNL A   1      51.279  32.150  24.803  1.00  0.00    -0.237 OA
ATOM     83  O   UNL A   1      49.658  33.969  25.176  1.00  0.00    -0.237 OA
ATOM     84  O   UNL A   1      51.917  34.132  26.128  1.00  0.00    -0.744 OA
ENDBRANCH  78  81
ENDBRANCH  50  74
BRANCH  62  85
ATOM     85  C   UNL A   1      44.153  36.013  31.764  1.00  0.00     0.023 A 
ATOM     86  C   UNL A   1      44.562  36.170  33.104  1.00  0.00     0.012 A 
ATOM     87  C   UNL A   1      43.986  37.158  30.959  1.00  0.00     0.148 A 
ATOM     88  C   UNL A   1      44.755  37.443  33.644  1.00  0.00     0.002 A 
ATOM     89  C   UNL A   1      44.232  38.421  31.488  1.00  0.00     0.091 A 
ATOM     90  F   UNL A   1      43.582  36.996  29.690  1.00  0.00    -0.205 F 
ATOM     91  C   UNL A   1      44.601  38.566  32.835  1.00  0.00     0.022 A 
BRANCH  89  92
ATOM     92  S   UNL A   1      44.154  39.916  30.494  1.00  0.00     0.127 S 
ATOM     93  O   UNL A   1      45.307  39.748  29.612  1.00  0.00    -0.237 OA
ATOM     94  O   UNL A   1      42.856  39.783  29.833  1.00  0.00    -0.237 OA
ATOM     95  O   UNL A   1      44.242  41.027  31.433  1.00  0.00    -0.744 OA
ENDBRANCH  89  92
ENDBRANCH  62  85
ENDBRANCH  36  37
ENDBRANCH  29  31
ENDBRANCH  28  29
ENDBRANCH  27  28
ENDBRANCH  26  27
ENDBRANCH  25  26
ENDBRANCH  24  25
ENDBRANCH   1  24
TORSDOF 25
ENDMDL
MODEL 2
REMARK VINA RESULT:      -8.9      3.073      8.863
REMARK SMILES O=C(COCC(=O)OCCOCCOCCOC(=O)c1ccc(-c2c3nc(c(-c4cccc(S(=O)(=O)[O-])c4F)c4ccc([nH]4)c(-c4cccc(S(=O)(=O)[O-])c4F)c4nc(c(-c5cccc(S(=O)(=O)[O-])c5F)c5ccc2[nH]5)C=C4)C=C3)cc1)Nc1cccc([N+](=O)[O-])c1
REMARK SMILES IDX 12 1 11 2 10 3 9 4 8 5 6 6 7 7 5 8 4 9 3 10 2 11 1 12 83 13
REMARK SMILES IDX 84 15 85 16 92 17 86 18 88 19 87 20 89 21 90 22 91 23 13 24
REMARK SMILES IDX 14 25 15 26 16 27 17 28 18 29 19 30 20 31 21 32 82 33 22 34
REMARK SMILES IDX 81 35 23 36 24 37 25 38 75 39 26 40 80 41 74 42 76 43 27 44
REMARK SMILES IDX 79 45 73 46 72 47 28 49 60 50 40 51 59 52 41 53 44 54 58 55
REMARK SMILES IDX 77 56 42 57 43 58 57 60 78 61 45 62 29 63 30 64 38 65 31 66
REMARK SMILES IDX 33 67 39 68 32 69 34 70 35 71 36 72 37 73 61 74 62 75 70 76
REMARK SMILES IDX 63 77 65 78 71 79 64 80 66 81 67 82 68 83 69 84 46 85 47 86
REMARK SMILES IDX 55 87 48 88 50 89 56 90 49 91 51 92 52 93 53 94 54 95
REMARK H PARENT 83 14 76 48 44 59
REMARK Flexibility Score: inf
ROOT
ATOM      1  C   UNL A   1      37.960  22.222  25.373  1.00  0.00     0.188 C 
ENDROOT
BRANCH   1   2
ATOM      2  O   UNL A   1      36.601  22.034  25.764  1.00  0.00    -0.376 OA
BRANCH   2   3
ATOM      3  C   UNL A   1      35.861  23.211  26.062  1.00  0.00     0.202 C 
BRANCH   3   4
ATOM      4  C   UNL A   1      35.154  23.894  24.880  1.00  0.00     0.261 C 
BRANCH   4   5
ATOM      5  O   UNL A   1      34.794  23.017  23.788  1.00  0.00    -0.462 OA
BRANCH   5   6
ATOM      6  C   UNL A   1      33.709  23.411  23.062  1.00  0.00     0.332 C 
ATOM      7  O   UNL A   1      33.680  23.473  21.836  1.00  0.00    -0.250 OA
BRANCH   6   8
ATOM      8  C   UNL A   1      32.450  23.714  23.905  1.00  0.00     0.283 C 
BRANCH   8   9
ATOM      9  O   UNL A   1      31.386  22.812  24.154  1.00  0.00    -0.360 OA
BRANCH   9  10
ATOM     10  C   UNL A   1      31.453  22.088  25.370  1.00  0.00     0.261 C 
BRANCH  10  11
ATOM     11  C   UNL A   1      32.449  20.913  25.533  1.00  0.00     0.250 C 
ATOM     12  O   UNL A   1      33.340  20.969  26.378  1.00  0.00    -0.272 OA
ATOM     13  N   UNL A   1      32.293  19.867  24.635  1.00  0.00    -0.324 N 
ATOM     14  H   UNL A   1      31.629  19.955  23.914  1.00  0.00     0.170 HD
BRANCH  13  15
ATOM     15  C   UNL A   1      33.055  18.679  24.722  1.00  0.00     0.048 A 
ATOM     16  C   UNL A   1      34.394  18.708  24.331  1.00  0.00     0.026 A 
ATOM     17  C   UNL A   1      32.496  17.474  25.159  1.00  0.00     0.111 A 
ATOM     18  C   UNL A   1      35.205  17.577  24.489  1.00  0.00     0.009 A 
ATOM     19  C   UNL A   1      33.302  16.323  25.259  1.00  0.00     0.271 A 
ATOM     20  C   UNL A   1      34.667  16.381  24.964  1.00  0.00     0.086 A 
BRANCH  19  21
ATOM     21  N   UNL A   1      32.696  15.030  25.600  1.00  0.00     0.062 N 
ATOM     22  O   UNL A   1      33.402  14.020  25.506  1.00  0.00    -0.258 OA
ATOM     23  O   UNL A   1      31.491  15.031  25.898  1.00  0.00    -0.258 OA
ENDBRANCH  19  21
ENDBRANCH  13  15
ENDBRANCH  10  11
ENDBRANCH   9  10
ENDBRANCH   8   9
ENDBRANCH   6   8
ENDBRANCH   5   6
ENDBRANCH   4   5
ENDBRANCH   3   4
ENDBRANCH   2   3
ENDBRANCH   1   2
BRANCH   1  24
ATOM     24  C   UNL A   1      38.820  23.049  26.330  1.00  0.00     0.188 C 
BRANCH  24  25
ATOM     25  O   UNL A   1      39.967  22.386  26.850  1.00  0.00    -0.376 OA
BRANCH  25  26
ATOM     26  C   UNL A   1      40.963  23.216  27.452  1.00  0.00     0.202 C 
BRANCH  26  27
ATOM     27  C   UNL A   1      42.248  23.557  26.659  1.00  0.00     0.261 C 
BRANCH  27  28
ATOM     28  O   UNL A   1      42.770  24.896  26.796  1.00  0.00    -0.460 OA
BRANCH  28  29
ATOM     29  C   UNL A   1      42.292  25.840  25.956  1.00  0.00     0.338 C 
ATOM     30  O   UNL A   1      41.515  25.646  25.028  1.00  0.00    -0.246 OA
BRANCH  29  31
ATOM     31  C   UNL A   1      42.605  27.183  26.512  1.00  0.00     0.060 A 
ATOM     32  C   UNL A   1      43.537  27.228  27.546  1.00  0.00     0.016 A 
ATOM     33  C   UNL A   1      42.071  28.380  26.030  1.00  0.00     0.016 A 
ATOM     34  C   UNL A   1      43.928  28.441  28.110  1.00  0.00     0.010 A 
ATOM     35  C   UNL A   1      42.420  29.601  26.648  1.00  0.00     0.010 A 
ATOM     36  C   UNL A   1      43.320  29.637  27.729  1.00  0.00    -0.014 A 
BRANCH  36  37
ATOM     37  C   UNL A   1      43.480  30.817  28.636  1.00  0.00     0.031 A 
ATOM     38  C   UNL A   1      44.582  31.813  28.347  1.00  0.00     0.074 A 
ATOM     39  C   UNL A   1      42.568  31.133  29.581  1.00  0.00     0.049 A 
ATOM     40  N   UNL A   1      44.874  32.932  28.960  1.00  0.00    -0.248 NA
ATOM     41  C   UNL A   1      45.446  31.520  27.193  1.00  0.00     0.031 C 
ATOM     42  C   UNL A   1      41.381  30.347  29.914  1.00  0.00     0.029 A 
ATOM     43  N   UNL A   1      42.493  32.220  30.425  1.00  0.00    -0.354 N 
ATOM     44  C   UNL A   1      45.948  33.477  28.264  1.00  0.00     0.074 A 
ATOM     45  C   UNL A   1      46.283  32.545  27.211  1.00  0.00     0.031 C 
ATOM     46  C   UNL A   1      40.703  30.971  30.894  1.00  0.00     0.029 A 
ATOM     47  C   UNL A   1      41.427  32.175  31.296  1.00  0.00     0.049 A 
ATOM     48  H   UNL A   1      43.142  32.960  30.407  1.00  0.00     0.167 HD
ATOM     49  C   UNL A   1      46.588  34.656  28.449  1.00  0.00     0.034 A 
ATOM     50  C   UNL A   1      41.086  32.987  32.320  1.00  0.00     0.034 A 
ATOM     51  C   UNL A   1      46.257  35.622  29.461  1.00  0.00     0.049 A 
ATOM     52  C   UNL A   1      41.923  34.205  32.623  1.00  0.00     0.074 A 
ATOM     53  C   UNL A   1      46.876  36.830  29.730  1.00  0.00     0.029 A 
ATOM     54  N   UNL A   1      45.222  35.494  30.370  1.00  0.00    -0.354 N 
ATOM     55  N   UNL A   1      42.924  34.712  31.947  1.00  0.00    -0.248 NA
ATOM     56  C   UNL A   1      41.569  34.975  33.828  1.00  0.00     0.031 C 
ATOM     57  C   UNL A   1      46.252  37.405  30.843  1.00  0.00     0.029 A 
ATOM     58  C   UNL A   1      45.214  36.577  31.235  1.00  0.00     0.049 A 
ATOM     59  H   UNL A   1      44.585  34.743  30.400  1.00  0.00     0.167 HD
ATOM     60  C   UNL A   1      43.291  35.876  32.617  1.00  0.00     0.074 A 
ATOM     61  C   UNL A   1      42.392  36.011  33.743  1.00  0.00     0.031 C 
ATOM     62  C   UNL A   1      44.292  36.745  32.329  1.00  0.00     0.034 A 
BRANCH  49  63
ATOM     63  C   UNL A   1      47.750  34.955  27.540  1.00  0.00     0.023 A 
ATOM     64  C   UNL A   1      47.528  35.336  26.201  1.00  0.00     0.012 A 
ATOM     65  C   UNL A   1      49.069  34.869  28.029  1.00  0.00     0.148 A 
ATOM     66  C   UNL A   1      48.605  35.589  25.352  1.00  0.00     0.002 A 
ATOM     67  C   UNL A   1      50.134  35.165  27.189  1.00  0.00     0.091 A 
ATOM     68  F   UNL A   1      49.256  34.478  29.298  1.00  0.00    -0.205 F 
ATOM     69  C   UNL A   1      49.906  35.514  25.848  1.00  0.00     0.022 A 
BRANCH  67  70
ATOM     70  S   UNL A   1      51.836  35.157  27.760  1.00  0.00     0.127 S 
ATOM     71  O   UNL A   1      52.336  33.913  27.178  1.00  0.00    -0.237 OA
ATOM     72  O   UNL A   1      52.372  36.373  27.148  1.00  0.00    -0.237 OA
ATOM     73  O   UNL A   1      51.772  35.189  29.215  1.00  0.00    -0.744 OA
ENDBRANCH  67  70
ENDBRANCH  49  63
BRANCH  50  74
ATOM     74  C   UNL A   1      39.897  32.674  33.168  1.00  0.00     0.023 A 
ATOM     75  C   UNL A   1      40.006  31.744  34.221  1.00  0.00     0.012 A 
ATOM     76  C   UNL A   1      38.645  33.270  32.911  1.00  0.00     0.148 A 
ATOM     77  C   UNL A   1      38.890  31.396  34.984  1.00  0.00     0.002 A 
ATOM     78  C   UNL A   1      37.552  32.965  33.713  1.00  0.00     0.091 A 
ATOM     79  F   UNL A   1      38.550  34.125  31.883  1.00  0.00    -0.205 F 
ATOM     80  C   UNL A   1      37.667  32.014  34.739  1.00  0.00     0.022 A 
BRANCH  78  81
ATOM     81  S   UNL A   1      35.969  33.795  33.541  1.00  0.00     0.127 S 
ATOM     82  O   UNL A   1      36.378  35.188  33.383  1.00  0.00    -0.237 OA
ATOM     83  O   UNL A   1      35.434  33.168  32.332  1.00  0.00    -0.237 OA
ATOM     84  O   UNL A   1      35.228  33.493  34.758  1.00  0.00    -0.744 OA
ENDBRANCH  78  81
ENDBRANCH  50  74
BRANCH  62  85
ATOM     85  C   UNL A   1      44.455  37.955  33.217  1.00  0.00     0.023 A 
ATOM     86  C   UNL A   1      45.265  37.883  34.368  1.00  0.00     0.012 A 
ATOM     87  C   UNL A   1      43.848  39.183  32.882  1.00  0.00     0.148 A 
ATOM     88  C   UNL A   1      45.430  38.997  35.194  1.00  0.00     0.002 A 
ATOM     89  C   UNL A   1      44.060  40.303  33.679  1.00  0.00     0.091 A 
ATOM     90  F   UNL A   1      43.067  39.235  31.793  1.00  0.00    -0.205 F 
ATOM     91  C   UNL A   1      44.837  40.207  34.844  1.00  0.00     0.022 A 
BRANCH  89  92
ATOM     92  S   UNL A   1      43.417  41.926  33.254  1.00  0.00     0.127 S 
ATOM     93  O   UNL A   1      43.934  42.747  34.348  1.00  0.00    -0.237 OA
ATOM     94  O   UNL A   1      44.041  42.178  31.955  1.00  0.00    -0.237 OA
ATOM     95  O   UNL A   1      41.967  41.785  33.210  1.00  0.00    -0.744 OA
ENDBRANCH  89  92
ENDBRANCH  62  85
ENDBRANCH  36  37
ENDBRANCH  29  31
ENDBRANCH  28  29
ENDBRANCH  27  28
ENDBRANCH  26  27
ENDBRANCH  25  26
ENDBRANCH  24  25
ENDBRANCH   1  24
TORSDOF 25
ENDMDL
MODEL 3
REMARK VINA RESULT:      -8.8      2.936      4.869
REMARK SMILES O=C(COCC(=O)OCCOCCOCCOC(=O)c1ccc(-c2c3nc(c(-c4cccc(S(=O)(=O)[O-])c4F)c4ccc([nH]4)c(-c4cccc(S(=O)(=O)[O-])c4F)c4nc(c(-c5cccc(S(=O)(=O)[O-])c5F)c5ccc2[nH]5)C=C4)C=C3)cc1)Nc1cccc([N+](=O)[O-])c1
REMARK SMILES IDX 12 1 11 2 10 3 9 4 8 5 6 6 7 7 5 8 4 9 3 10 2 11 1 12 83 13
REMARK SMILES IDX 84 15 85 16 92 17 86 18 88 19 87 20 89 21 90 22 91 23 13 24
REMARK SMILES IDX 14 25 15 26 16 27 17 28 18 29 19 30 20 31 21 32 82 33 22 34
REMARK SMILES IDX 81 35 23 36 24 37 25 38 75 39 26 40 80 41 74 42 76 43 27 44
REMARK SMILES IDX 79 45 73 46 72 47 28 49 60 50 40 51 59 52 41 53 44 54 58 55
REMARK SMILES IDX 77 56 42 57 43 58 57 60 78 61 45 62 29 63 30 64 38 65 31 66
REMARK SMILES IDX 33 67 39 68 32 69 34 70 35 71 36 72 37 73 61 74 62 75 70 76
REMARK SMILES IDX 63 77 65 78 71 79 64 80 66 81 67 82 68 83 69 84 46 85 47 86
REMARK SMILES IDX 55 87 48 88 50 89 56 90 49 91 51 92 52 93 53 94 54 95
REMARK H PARENT 83 14 76 48 44 59
REMARK Flexibility Score: inf
ROOT
ATOM      1  C   UNL A   1      38.159  22.833  25.362  1.00  0.00     0.188 C 
ENDROOT
BRANCH   1   2
ATOM      2  O   UNL A   1      37.172  21.807  25.442  1.00  0.00    -0.376 OA
BRANCH   2   3
ATOM      3  C   UNL A   1      35.821  22.214  25.269  1.00  0.00     0.202 C 
BRANCH   3   4
ATOM      4  C   UNL A   1      35.581  23.410  24.331  1.00  0.00     0.261 C 
BRANCH   4   5
ATOM      5  O   UNL A   1      35.177  23.065  22.985  1.00  0.00    -0.462 OA
BRANCH   5   6
ATOM      6  C   UNL A   1      33.860  23.274  22.704  1.00  0.00     0.332 C 
ATOM      7  O   UNL A   1      33.393  23.337  21.570  1.00  0.00    -0.250 OA
BRANCH   6   8
ATOM      8  C   UNL A   1      32.945  23.358  23.948  1.00  0.00     0.283 C 
BRANCH   8   9
ATOM      9  O   UNL A   1      31.659  22.777  24.067  1.00  0.00    -0.360 OA
BRANCH   9  10
ATOM     10  C   UNL A   1      31.453  21.939  25.191  1.00  0.00     0.261 C 
BRANCH  10  11
ATOM     11  C   UNL A   1      32.397  20.743  25.465  1.00  0.00     0.250 C 
ATOM     12  O   UNL A   1      33.124  20.741  26.458  1.00  0.00    -0.272 OA
ATOM     13  N   UNL A   1      32.399  19.748  24.499  1.00  0.00    -0.324 N 
ATOM     14  H   UNL A   1      31.876  19.883  23.676  1.00  0.00     0.170 HD
BRANCH  13  15
ATOM     15  C   UNL A   1      33.127  18.546  24.655  1.00  0.00     0.048 A 
ATOM     16  C   UNL A   1      34.491  18.541  24.357  1.00  0.00     0.026 A 
ATOM     17  C   UNL A   1      32.514  17.360  25.071  1.00  0.00     0.111 A 
ATOM     18  C   UNL A   1      35.264  17.396  24.587  1.00  0.00     0.009 A 
ATOM     19  C   UNL A   1      33.285  16.195  25.243  1.00  0.00     0.271 A 
ATOM     20  C   UNL A   1      34.668  16.220  25.042  1.00  0.00     0.086 A 
BRANCH  19  21
ATOM     21  N   UNL A   1      32.629  14.920  25.561  1.00  0.00     0.062 N 
ATOM     22  O   UNL A   1      33.309  13.890  25.493  1.00  0.00    -0.258 OA
ATOM     23  O   UNL A   1      31.415  14.957  25.813  1.00  0.00    -0.258 OA
ENDBRANCH  19  21
ENDBRANCH  13  15
ENDBRANCH  10  11
ENDBRANCH   9  10
ENDBRANCH   8   9
ENDBRANCH   6   8
ENDBRANCH   5   6
ENDBRANCH   4   5
ENDBRANCH   3   4
ENDBRANCH   2   3
ENDBRANCH   1   2
BRANCH   1  24
ATOM     24  C   UNL A   1      39.091  22.957  26.568  1.00  0.00     0.188 C 
BRANCH  24  25
ATOM     25  O   UNL A   1      40.319  22.244  26.468  1.00  0.00    -0.376 OA
BRANCH  25  26
ATOM     26  C   UNL A   1      41.433  22.794  27.175  1.00  0.00     0.202 C 
BRANCH  26  27
ATOM     27  C   UNL A   1      42.611  23.403  26.377  1.00  0.00     0.261 C 
BRANCH  27  28
ATOM     28  O   UNL A   1      42.928  24.789  26.626  1.00  0.00    -0.460 OA
BRANCH  28  29
ATOM     29  C   UNL A   1      42.306  25.718  25.868  1.00  0.00     0.338 C 
ATOM     30  O   UNL A   1      41.419  25.499  25.051  1.00  0.00    -0.246 OA
BRANCH  29  31
ATOM     31  C   UNL A   1      42.641  27.070  26.390  1.00  0.00     0.060 A 
ATOM     32  C   UNL A   1      43.447  27.118  27.524  1.00  0.00     0.016 A 
ATOM     33  C   UNL A   1      42.246  28.267  25.790  1.00  0.00     0.016 A 
ATOM     34  C   UNL A   1      43.850  28.336  28.069  1.00  0.00     0.010 A 
ATOM     35  C   UNL A   1      42.600  29.499  26.383  1.00  0.00     0.010 A 
ATOM     36  C   UNL A   1      43.370  29.542  27.561  1.00  0.00    -0.014 A 
BRANCH  36  37
ATOM     37  C   UNL A   1      43.501  30.761  28.420  1.00  0.00     0.031 A 
ATOM     38  C   UNL A   1      42.376  31.103  29.373  1.00  0.00     0.074 A 
ATOM     39  C   UNL A   1      44.655  31.454  28.522  1.00  0.00     0.049 A 
ATOM     40  N   UNL A   1      42.293  32.073  30.249  1.00  0.00    -0.248 NA
ATOM     41  C   UNL A   1      41.206  30.211  29.358  1.00  0.00     0.031 C 
ATOM     42  C   UNL A   1      45.876  31.190  27.763  1.00  0.00     0.029 A 
ATOM     43  N   UNL A   1      44.990  32.521  29.327  1.00  0.00    -0.354 N 
ATOM     44  C   UNL A   1      41.069  31.904  30.888  1.00  0.00     0.074 A 
ATOM     45  C   UNL A   1      40.425  30.766  30.270  1.00  0.00     0.031 C 
ATOM     46  C   UNL A   1      46.821  32.072  28.132  1.00  0.00     0.029 A 
ATOM     47  C   UNL A   1      46.264  32.998  29.117  1.00  0.00     0.049 A 
ATOM     48  H   UNL A   1      44.375  32.907  29.992  1.00  0.00     0.167 HD
ATOM     49  C   UNL A   1      40.528  32.601  31.916  1.00  0.00     0.034 A 
ATOM     50  C   UNL A   1      46.903  34.073  29.628  1.00  0.00     0.034 A 
ATOM     51  C   UNL A   1      41.157  33.712  32.577  1.00  0.00     0.049 A 
ATOM     52  C   UNL A   1      46.209  34.946  30.644  1.00  0.00     0.074 A 
ATOM     53  C   UNL A   1      40.661  34.488  33.610  1.00  0.00     0.029 A 
ATOM     54  N   UNL A   1      42.412  34.209  32.272  1.00  0.00    -0.354 N 
ATOM     55  N   UNL A   1      45.061  34.762  31.247  1.00  0.00    -0.248 NA
ATOM     56  C   UNL A   1      46.914  36.169  31.065  1.00  0.00     0.031 C 
ATOM     57  C   UNL A   1      41.593  35.494  33.890  1.00  0.00     0.029 A 
ATOM     58  C   UNL A   1      42.689  35.313  33.063  1.00  0.00     0.049 A 
ATOM     59  H   UNL A   1      43.019  33.834  31.593  1.00  0.00     0.167 HD
ATOM     60  C   UNL A   1      44.924  35.820  32.143  1.00  0.00     0.074 A 
ATOM     61  C   UNL A   1      46.117  36.629  32.019  1.00  0.00     0.031 C 
ATOM     62  C   UNL A   1      43.895  36.097  32.982  1.00  0.00     0.034 A 
BRANCH  49  63
ATOM     63  C   UNL A   1      39.155  32.191  32.373  1.00  0.00     0.023 A 
ATOM     64  C   UNL A   1      38.998  31.359  33.500  1.00  0.00     0.012 A 
ATOM     65  C   UNL A   1      38.015  32.650  31.684  1.00  0.00     0.148 A 
ATOM     66  C   UNL A   1      37.726  30.959  33.911  1.00  0.00     0.002 A 
ATOM     67  C   UNL A   1      36.751  32.283  32.125  1.00  0.00     0.091 A 
ATOM     68  F   UNL A   1      38.190  33.418  30.600  1.00  0.00    -0.205 F 
ATOM     69  C   UNL A   1      36.603  31.428  33.230  1.00  0.00     0.022 A 
BRANCH  67  70
ATOM     70  S   UNL A   1      35.250  32.893  31.350  1.00  0.00     0.127 S 
ATOM     71  O   UNL A   1      35.529  34.325  31.256  1.00  0.00    -0.237 OA
ATOM     72  O   UNL A   1      35.255  32.186  30.069  1.00  0.00    -0.237 OA
ATOM     73  O   UNL A   1      34.159  32.523  32.242  1.00  0.00    -0.744 OA
ENDBRANCH  67  70
ENDBRANCH  49  63
BRANCH  50  74
ATOM     74  C   UNL A   1      48.286  34.416  29.175  1.00  0.00     0.023 A 
ATOM     75  C   UNL A   1      49.396  34.042  29.957  1.00  0.00     0.012 A 
ATOM     76  C   UNL A   1      48.500  35.144  27.988  1.00  0.00     0.148 A 
ATOM     77  C   UNL A   1      50.690  34.407  29.578  1.00  0.00     0.002 A 
ATOM     78  C   UNL A   1      49.794  35.452  27.585  1.00  0.00     0.091 A 
ATOM     79  F   UNL A   1      47.430  35.524  27.275  1.00  0.00    -0.205 F 
ATOM     80  C   UNL A   1      50.890  35.101  28.388  1.00  0.00     0.022 A 
BRANCH  78  81
ATOM     81  S   UNL A   1      50.153  36.244  26.013  1.00  0.00     0.127 S 
ATOM     82  O   UNL A   1      51.599  36.067  25.913  1.00  0.00    -0.237 OA
ATOM     83  O   UNL A   1      49.367  35.430  25.085  1.00  0.00    -0.237 OA
ATOM     84  O   UNL A   1      49.696  37.619  26.148  1.00  0.00    -0.744 OA
ENDBRANCH  78  81
ENDBRANCH  50  74
BRANCH  62  85
ATOM     85  C   UNL A   1      44.017  37.308  33.875  1.00  0.00     0.023 A 
ATOM     86  C   UNL A   1      44.555  37.179  35.172  1.00  0.00     0.012 A 
ATOM     87  C   UNL A   1      43.649  38.587  33.410  1.00  0.00     0.148 A 
ATOM     88  C   UNL A   1      44.680  38.292  36.005  1.00  0.00     0.002 A 
ATOM     89  C   UNL A   1      43.827  39.700  34.225  1.00  0.00     0.091 A 
ATOM     90  F   UNL A   1      43.124  38.695  32.180  1.00  0.00    -0.205 F 
ATOM     91  C   UNL A   1      44.327  39.552  35.528  1.00  0.00     0.022 A 
BRANCH  89  92
ATOM     92  S   UNL A   1      43.491  41.373  33.661  1.00  0.00     0.127 S 
ATOM     93  O   UNL A   1      44.355  41.471  32.486  1.00  0.00    -0.237 OA
ATOM     94  O   UNL A   1      42.060  41.320  33.362  1.00  0.00    -0.237 OA
ATOM     95  O   UNL A   1      43.844  42.249  34.770  1.00  0.00    -0.744 OA
ENDBRANCH  89  92
ENDBRANCH  62  85
ENDBRANCH  36  37
ENDBRANCH  29  31
ENDBRANCH  28  29
ENDBRANCH  27  28
ENDBRANCH  26  27
ENDBRANCH  25  26
ENDBRANCH  24  25
ENDBRANCH   1  24
TORSDOF 25
ENDMDL
