MODEL 1
REMARK VINA RESULT:      -8.5      0.000      0.000
REMARK SMILES CC(C)[C@@H](CO)NC(=O)CC(C)(C)CC(=O)OCCOCCOCCOC(=O)c1ccc(-c2c3nc(c(-c4cccc(S(=O)(=O)[O-])c4F)c4ccc([nH]4)c(-c4cccc(S(=O)(=O)[O-])c4F)c4nc(c(-c5cccc(S(=O)(=O)[O-])c5F)c5ccc2[nH]5)C=C4)C=C3)cc1
REMARK SMILES IDX 20 1 19 2 18 3 17 4 15 5 16 6 14 7 11 8 12 9 13 10 10 11
REMARK SMILES IDX 8 12 7 13 9 15 4 16 2 17 1 18 3 19 5 20 6 21 21 23 22 24
REMARK SMILES IDX 23 25 24 26 25 27 26 28 27 29 28 30 29 31 30 32 91 33 31 34
REMARK SMILES IDX 90 35 32 36 33 37 34 38 84 39 35 40 89 41 83 42 85 43 36 44
REMARK SMILES IDX 88 45 82 46 81 47 37 49 69 50 49 51 68 52 50 53 53 54 67 55
REMARK SMILES IDX 86 56 51 57 52 58 66 60 87 61 54 62 38 63 39 64 47 65 40 66
REMARK SMILES IDX 42 67 48 68 41 69 43 70 44 71 45 72 46 73 70 74 71 75 79 76
REMARK SMILES IDX 72 77 74 78 80 79 73 80 75 81 76 82 77 83 78 84 55 85 56 86
REMARK SMILES IDX 64 87 57 88 59 89 65 90 58 91 60 92 61 93 62 94 63 95
REMARK H PARENT 7 14 6 22 85 48 53 59
REMARK Flexibility Score: inf
ROOT
ATOM      1  O   UNL A   1      38.364  22.445  25.923  1.00  0.00    -0.376 OA
ENDROOT
BRANCH   1   2
ATOM      2  C   UNL A   1      37.429  22.118  24.894  1.00  0.00     0.202 C 
BRANCH   2   3
ATOM      3  C   UNL A   1      35.961  22.507  25.167  1.00  0.00     0.261 C 
BRANCH   3   4
ATOM      4  O   UNL A   1      35.595  23.778  24.572  1.00  0.00    -0.463 OA
BRANCH   4   5
ATOM      5  C   UNL A   1      34.730  23.754  23.522  1.00  0.00     0.306 C 
ATOM      6  O   UNL A   1      34.230  22.734  23.061  1.00  0.00    -0.252 OA
BRANCH   5   7
ATOM      7  C   UNL A   1      34.304  25.158  23.077  1.00  0.00     0.129 C 
BRANCH   7   8
ATOM      8  C   UNL A   1      33.098  25.877  23.749  1.00  0.00    -0.016 C 
ATOM      9  C   UNL A   1      31.781  25.263  23.242  1.00  0.00     0.012 C 
ATOM     10  C   UNL A   1      33.010  27.374  23.373  1.00  0.00     0.012 C 
BRANCH   8  11
ATOM     11  C   UNL A   1      33.130  25.816  25.307  1.00  0.00     0.107 C 
BRANCH  11  12
ATOM     12  C   UNL A   1      31.914  25.918  26.220  1.00  0.00     0.220 C 
ATOM     13  N   UNL A   1      31.498  24.905  27.021  1.00  0.00    -0.351 N 
ATOM     14  H   UNL A   1      31.584  24.983  27.999  1.00  0.00     0.163 HD
ATOM     15  O   UNL A   1      31.169  26.895  26.144  1.00  0.00    -0.275 OA
BRANCH  13  16
ATOM     16  C   UNL A   1      30.925  23.703  26.431  1.00  0.00     0.110 C 
BRANCH  16  17
ATOM     17  C   UNL A   1      31.792  22.441  26.689  1.00  0.00     0.007 C 
ATOM     18  C   UNL A   1      32.066  21.756  25.347  1.00  0.00     0.009 C 
ATOM     19  C   UNL A   1      33.110  22.681  27.437  1.00  0.00     0.009 C 
ENDBRANCH  16  17
BRANCH  16  20
ATOM     20  C   UNL A   1      29.467  23.511  26.948  1.00  0.00     0.181 C 
BRANCH  20  21
ATOM     21  O   UNL A   1      29.418  22.594  28.039  1.00  0.00    -0.394 OA
ATOM     22  H   UNL A   1      29.730  21.725  27.745  1.00  0.00     0.210 HD
ENDBRANCH  20  21
ENDBRANCH  16  20
ENDBRANCH  13  16
ENDBRANCH  11  12
ENDBRANCH   8  11
ENDBRANCH   7   8
ENDBRANCH   5   7
ENDBRANCH   4   5
ENDBRANCH   3   4
ENDBRANCH   2   3
ENDBRANCH   1   2
BRANCH   1  23
ATOM     23  C   UNL A   1      39.434  21.527  26.110  1.00  0.00     0.188 C 
BRANCH  23  24
ATOM     24  C   UNL A   1      39.229  20.133  25.503  1.00  0.00     0.188 C 
BRANCH  24  25
ATOM     25  O   UNL A   1      40.296  19.213  25.689  1.00  0.00    -0.376 OA
BRANCH  25  26
ATOM     26  C   UNL A   1      41.424  19.676  26.429  1.00  0.00     0.202 C 
BRANCH  26  27
ATOM     27  C   UNL A   1      42.788  19.092  26.018  1.00  0.00     0.261 C 
BRANCH  27  28
ATOM     28  O   UNL A   1      43.298  19.526  24.742  1.00  0.00    -0.460 OA
BRANCH  28  29
ATOM     29  C   UNL A   1      44.639  19.678  24.640  1.00  0.00     0.338 C 
ATOM     30  O   UNL A   1      45.427  18.817  24.281  1.00  0.00    -0.246 OA
BRANCH  29  31
ATOM     31  C   UNL A   1      44.950  21.118  24.820  1.00  0.00     0.060 A 
ATOM     32  C   UNL A   1      45.510  21.548  26.027  1.00  0.00     0.016 A 
ATOM     33  C   UNL A   1      44.723  22.044  23.807  1.00  0.00     0.016 A 
ATOM     34  C   UNL A   1      45.757  22.891  26.281  1.00  0.00     0.010 A 
ATOM     35  C   UNL A   1      45.001  23.396  24.044  1.00  0.00     0.010 A 
ATOM     36  C   UNL A   1      45.482  23.833  25.295  1.00  0.00    -0.014 A 
BRANCH  36  37
ATOM     37  C   UNL A   1      45.553  25.279  25.608  1.00  0.00     0.031 A 
ATOM     38  C   UNL A   1      46.889  25.957  25.514  1.00  0.00     0.074 A 
ATOM     39  C   UNL A   1      44.461  25.980  25.964  1.00  0.00     0.049 A 
ATOM     40  N   UNL A   1      47.266  27.117  25.976  1.00  0.00    -0.248 NA
ATOM     41  C   UNL A   1      47.951  25.210  24.815  1.00  0.00     0.031 C 
ATOM     42  C   UNL A   1      43.091  25.468  25.989  1.00  0.00     0.029 A 
ATOM     43  N   UNL A   1      44.343  27.275  26.409  1.00  0.00    -0.354 N 
ATOM     44  C   UNL A   1      48.624  27.207  25.697  1.00  0.00     0.074 A 
ATOM     45  C   UNL A   1      49.002  25.992  25.011  1.00  0.00     0.031 C 
ATOM     46  C   UNL A   1      42.274  26.425  26.461  1.00  0.00     0.029 A 
ATOM     47  C   UNL A   1      43.075  27.585  26.843  1.00  0.00     0.049 A 
ATOM     48  H   UNL A   1      45.090  27.915  26.415  1.00  0.00     0.167 HD
ATOM     49  C   UNL A   1      49.478  28.215  25.994  1.00  0.00     0.034 A 
ATOM     50  C   UNL A   1      42.627  28.653  27.532  1.00  0.00     0.034 A 
ATOM     51  C   UNL A   1      49.071  29.434  26.638  1.00  0.00     0.049 A 
ATOM     52  C   UNL A   1      43.605  29.733  27.916  1.00  0.00     0.074 A 
ATOM     53  C   UNL A   1      49.845  30.530  26.973  1.00  0.00     0.029 A 
ATOM     54  N   UNL A   1      47.776  29.718  27.045  1.00  0.00    -0.354 N 
ATOM     55  N   UNL A   1      44.887  29.820  27.647  1.00  0.00    -0.248 NA
ATOM     56  C   UNL A   1      43.077  30.868  28.685  1.00  0.00     0.031 C 
ATOM     57  C   UNL A   1      49.025  31.460  27.618  1.00  0.00     0.029 A 
ATOM     58  C   UNL A   1      47.729  30.966  27.638  1.00  0.00     0.049 A 
ATOM     59  H   UNL A   1      47.004  29.118  26.928  1.00  0.00     0.167 HD
ATOM     60  C   UNL A   1      45.306  31.036  28.174  1.00  0.00     0.074 A 
ATOM     61  C   UNL A   1      44.141  31.656  28.771  1.00  0.00     0.031 C 
ATOM     62  C   UNL A   1      46.544  31.588  28.170  1.00  0.00     0.034 A 
BRANCH  49  63
ATOM     63  C   UNL A   1      50.931  28.029  25.647  1.00  0.00     0.023 A 
ATOM     64  C   UNL A   1      51.406  28.368  24.365  1.00  0.00     0.012 A 
ATOM     65  C   UNL A   1      51.835  27.543  26.614  1.00  0.00     0.148 A 
ATOM     66  C   UNL A   1      52.750  28.187  24.037  1.00  0.00     0.002 A 
ATOM     67  C   UNL A   1      53.181  27.416  26.296  1.00  0.00     0.091 A 
ATOM     68  F   UNL A   1      51.360  27.205  27.821  1.00  0.00    -0.205 F 
ATOM     69  C   UNL A   1      53.638  27.723  25.004  1.00  0.00     0.022 A 
BRANCH  67  70
ATOM     70  S   UNL A   1      54.416  26.905  27.495  1.00  0.00     0.127 S 
ATOM     71  O   UNL A   1      54.117  25.481  27.640  1.00  0.00    -0.237 OA
ATOM     72  O   UNL A   1      55.665  27.197  26.793  1.00  0.00    -0.237 OA
ATOM     73  O   UNL A   1      54.183  27.714  28.684  1.00  0.00    -0.744 OA
ENDBRANCH  67  70
ENDBRANCH  49  63
BRANCH  50  74
ATOM     74  C   UNL A   1      41.191  28.747  27.925  1.00  0.00     0.023 A 
ATOM     75  C   UNL A   1      40.237  29.151  26.972  1.00  0.00     0.012 A 
ATOM     76  C   UNL A   1      40.764  28.429  29.230  1.00  0.00     0.148 A 
ATOM     77  C   UNL A   1      38.890  29.264  27.317  1.00  0.00     0.002 A 
ATOM     78  C   UNL A   1      39.413  28.489  29.552  1.00  0.00     0.091 A 
ATOM     79  F   UNL A   1      41.688  28.063  30.129  1.00  0.00    -0.205 F 
ATOM     80  C   UNL A   1      38.476  28.924  28.602  1.00  0.00     0.022 A 
BRANCH  78  81
ATOM     81  S   UNL A   1      38.772  27.955  31.143  1.00  0.00     0.127 S 
ATOM     82  O   UNL A   1      37.550  28.748  31.254  1.00  0.00    -0.237 OA
ATOM     83  O   UNL A   1      38.559  26.525  30.915  1.00  0.00    -0.237 OA
ATOM     84  O   UNL A   1      39.813  28.263  32.113  1.00  0.00    -0.744 OA
ENDBRANCH  78  81
ENDBRANCH  50  74
BRANCH  62  85
ATOM     85  C   UNL A   1      46.702  32.966  28.759  1.00  0.00     0.023 A 
ATOM     86  C   UNL A   1      47.084  33.124  30.105  1.00  0.00     0.012 A 
ATOM     87  C   UNL A   1      46.572  34.102  27.936  1.00  0.00     0.148 A 
ATOM     88  C   UNL A   1      47.309  34.397  30.628  1.00  0.00     0.002 A 
ATOM     89  C   UNL A   1      46.851  35.361  28.449  1.00  0.00     0.091 A 
ATOM     90  F   UNL A   1      46.193  33.927  26.661  1.00  0.00    -0.205 F 
ATOM     91  C   UNL A   1      47.208  35.512  29.800  1.00  0.00     0.022 A 
BRANCH  89  92
ATOM     92  S   UNL A   1      46.848  36.841  27.433  1.00  0.00     0.127 S 
ATOM     93  O   UNL A   1      45.549  36.746  26.769  1.00  0.00    -0.237 OA
ATOM     94  O   UNL A   1      46.945  37.903  28.435  1.00  0.00    -0.237 OA
ATOM     95  O   UNL A   1      48.003  36.731  26.551  1.00  0.00    -0.744 OA
ENDBRANCH  89  92
ENDBRANCH  62  85
ENDBRANCH  36  37
ENDBRANCH  29  31
ENDBRANCH  28  29
ENDBRANCH  27  28
ENDBRANCH  26  27
ENDBRANCH  25  26
ENDBRANCH  24  25
ENDBRANCH  23  24
ENDBRANCH   1  23
TORSDOF 27
ENDMDL
MODEL 2
REMARK VINA RESULT:      -8.4      1.622      2.472
REMARK SMILES CC(C)[C@@H](CO)NC(=O)CC(C)(C)CC(=O)OCCOCCOCCOC(=O)c1ccc(-c2c3nc(c(-c4cccc(S(=O)(=O)[O-])c4F)c4ccc([nH]4)c(-c4cccc(S(=O)(=O)[O-])c4F)c4nc(c(-c5cccc(S(=O)(=O)[O-])c5F)c5ccc2[nH]5)C=C4)C=C3)cc1
REMARK SMILES IDX 20 1 19 2 18 3 17 4 15 5 16 6 14 7 11 8 12 9 13 10 10 11
REMARK SMILES IDX 8 12 7 13 9 15 4 16 2 17 1 18 3 19 5 20 6 21 21 23 22 24
REMARK SMILES IDX 23 25 24 26 25 27 26 28 27 29 28 30 29 31 30 32 91 33 31 34
REMARK SMILES IDX 90 35 32 36 33 37 34 38 84 39 35 40 89 41 83 42 85 43 36 44
REMARK SMILES IDX 88 45 82 46 81 47 37 49 69 50 49 51 68 52 50 53 53 54 67 55
REMARK SMILES IDX 86 56 51 57 52 58 66 60 87 61 54 62 38 63 39 64 47 65 40 66
REMARK SMILES IDX 42 67 48 68 41 69 43 70 44 71 45 72 46 73 70 74 71 75 79 76
REMARK SMILES IDX 72 77 74 78 80 79 73 80 75 81 76 82 77 83 78 84 55 85 56 86
REMARK SMILES IDX 64 87 57 88 59 89 65 90 58 91 60 92 61 93 62 94 63 95
REMARK H PARENT 7 14 6 22 85 48 53 59
REMARK Flexibility Score: inf
ROOT
ATOM      1  O   UNL A   1      39.111  22.384  26.449  1.00  0.00    -0.376 OA
ENDROOT
BRANCH   1   2
ATOM      2  C   UNL A   1      38.062  22.236  25.491  1.00  0.00     0.202 C 
BRANCH   2   3
ATOM      3  C   UNL A   1      36.767  23.022  25.779  1.00  0.00     0.261 C 
BRANCH   3   4
ATOM      4  O   UNL A   1      35.869  23.066  24.640  1.00  0.00    -0.463 OA
BRANCH   4   5
ATOM      5  C   UNL A   1      34.661  22.454  24.770  1.00  0.00     0.306 C 
ATOM      6  O   UNL A   1      34.283  21.878  25.784  1.00  0.00    -0.252 OA
BRANCH   5   7
ATOM      7  C   UNL A   1      33.740  22.706  23.571  1.00  0.00     0.129 C 
BRANCH   7   8
ATOM      8  C   UNL A   1      32.734  23.894  23.572  1.00  0.00    -0.016 C 
ATOM      9  C   UNL A   1      31.302  23.360  23.755  1.00  0.00     0.012 C 
ATOM     10  C   UNL A   1      32.707  24.656  22.227  1.00  0.00     0.012 C 
BRANCH   8  11
ATOM     11  C   UNL A   1      33.032  24.957  24.674  1.00  0.00     0.107 C 
BRANCH  11  12
ATOM     12  C   UNL A   1      31.982  25.731  25.462  1.00  0.00     0.220 C 
ATOM     13  N   UNL A   1      31.326  26.810  24.965  1.00  0.00    -0.351 N 
ATOM     14  H   UNL A   1      30.367  26.750  24.754  1.00  0.00     0.163 HD
ATOM     15  O   UNL A   1      31.800  25.482  26.653  1.00  0.00    -0.275 OA
BRANCH  13  16
ATOM     16  C   UNL A   1      32.047  28.057  24.745  1.00  0.00     0.110 C 
BRANCH  16  17
ATOM     17  C   UNL A   1      31.996  28.521  23.265  1.00  0.00     0.007 C 
ATOM     18  C   UNL A   1      33.359  28.248  22.622  1.00  0.00     0.009 C 
ATOM     19  C   UNL A   1      30.879  27.906  22.412  1.00  0.00     0.009 C 
ENDBRANCH  16  17
BRANCH  16  20
ATOM     20  C   UNL A   1      31.499  29.154  25.708  1.00  0.00     0.181 C 
BRANCH  20  21
ATOM     21  O   UNL A   1      31.912  30.457  25.302  1.00  0.00    -0.394 OA
ATOM     22  H   UNL A   1      31.372  30.748  24.552  1.00  0.00     0.210 HD
ENDBRANCH  20  21
ENDBRANCH  16  20
ENDBRANCH  13  16
ENDBRANCH  11  12
ENDBRANCH   8  11
ENDBRANCH   7   8
ENDBRANCH   5   7
ENDBRANCH   4   5
ENDBRANCH   3   4
ENDBRANCH   2   3
ENDBRANCH   1   2
BRANCH   1  23
ATOM     23  C   UNL A   1      40.072  21.337  26.491  1.00  0.00     0.188 C 
BRANCH  23  24
ATOM     24  C   UNL A   1      39.697  20.058  25.731  1.00  0.00     0.188 C 
BRANCH  24  25
ATOM     25  O   UNL A   1      40.681  19.033  25.719  1.00  0.00    -0.376 OA
BRANCH  25  26
ATOM     26  C   UNL A   1      41.733  19.139  26.677  1.00  0.00     0.202 C 
BRANCH  26  27
ATOM     27  C   UNL A   1      43.161  18.938  26.138  1.00  0.00     0.261 C 
BRANCH  27  28
ATOM     28  O   UNL A   1      43.394  19.399  24.793  1.00  0.00    -0.460 OA
BRANCH  28  29
ATOM     29  C   UNL A   1      44.683  19.594  24.429  1.00  0.00     0.338 C 
ATOM     30  O   UNL A   1      45.397  18.774  23.874  1.00  0.00    -0.246 OA
BRANCH  29  31
ATOM     31  C   UNL A   1      45.000  21.032  24.618  1.00  0.00     0.060 A 
ATOM     32  C   UNL A   1      45.640  21.439  25.793  1.00  0.00     0.016 A 
ATOM     33  C   UNL A   1      44.697  21.977  23.644  1.00  0.00     0.016 A 
ATOM     34  C   UNL A   1      45.898  22.779  26.057  1.00  0.00     0.010 A 
ATOM     35  C   UNL A   1      44.984  23.326  23.890  1.00  0.00     0.010 A 
ATOM     36  C   UNL A   1      45.549  23.739  25.114  1.00  0.00    -0.014 A 
BRANCH  36  37
ATOM     37  C   UNL A   1      45.634  25.179  25.452  1.00  0.00     0.031 A 
ATOM     38  C   UNL A   1      46.981  25.839  25.392  1.00  0.00     0.074 A 
ATOM     39  C   UNL A   1      44.546  25.889  25.802  1.00  0.00     0.049 A 
ATOM     40  N   UNL A   1      47.366  26.987  25.880  1.00  0.00    -0.248 NA
ATOM     41  C   UNL A   1      48.044  25.090  24.698  1.00  0.00     0.031 C 
ATOM     42  C   UNL A   1      43.169  25.396  25.796  1.00  0.00     0.029 A 
ATOM     43  N   UNL A   1      44.438  27.177  26.266  1.00  0.00    -0.354 N 
ATOM     44  C   UNL A   1      48.730  27.062  25.625  1.00  0.00     0.074 A 
ATOM     45  C   UNL A   1      49.102  25.854  24.925  1.00  0.00     0.031 C 
ATOM     46  C   UNL A   1      42.358  26.356  26.270  1.00  0.00     0.029 A 
ATOM     47  C   UNL A   1      43.168  27.498  26.685  1.00  0.00     0.049 A 
ATOM     48  H   UNL A   1      45.194  27.807  26.296  1.00  0.00     0.167 HD
ATOM     49  C   UNL A   1      49.591  28.053  25.953  1.00  0.00     0.034 A 
ATOM     50  C   UNL A   1      42.722  28.560  27.385  1.00  0.00     0.034 A 
ATOM     51  C   UNL A   1      49.191  29.267  26.611  1.00  0.00     0.049 A 
ATOM     52  C   UNL A   1      43.709  29.620  27.802  1.00  0.00     0.074 A 
ATOM     53  C   UNL A   1      49.974  30.346  26.977  1.00  0.00     0.029 A 
ATOM     54  N   UNL A   1      47.893  29.562  27.001  1.00  0.00    -0.354 N 
ATOM     55  N   UNL A   1      44.996  29.694  27.556  1.00  0.00    -0.248 NA
ATOM     56  C   UNL A   1      43.183  30.750  28.582  1.00  0.00     0.031 C 
ATOM     57  C   UNL A   1      49.156  31.277  27.623  1.00  0.00     0.029 A 
ATOM     58  C   UNL A   1      47.853  30.800  27.614  1.00  0.00     0.049 A 
ATOM     59  H   UNL A   1      47.115  28.975  26.861  1.00  0.00     0.167 HD
ATOM     60  C   UNL A   1      45.423  30.895  28.111  1.00  0.00     0.074 A 
ATOM     61  C   UNL A   1      44.256  31.521  28.699  1.00  0.00     0.031 C 
ATOM     62  C   UNL A   1      46.668  31.430  28.137  1.00  0.00     0.034 A 
BRANCH  49  63
ATOM     63  C   UNL A   1      51.048  27.853  25.627  1.00  0.00     0.023 A 
ATOM     64  C   UNL A   1      51.970  27.544  26.645  1.00  0.00     0.012 A 
ATOM     65  C   UNL A   1      51.495  27.944  24.292  1.00  0.00     0.148 A 
ATOM     66  C   UNL A   1      53.322  27.369  26.348  1.00  0.00     0.002 A 
ATOM     67  C   UNL A   1      52.833  27.716  23.997  1.00  0.00     0.091 A 
ATOM     68  F   UNL A   1      50.606  28.261  23.340  1.00  0.00    -0.205 F 
ATOM     69  C   UNL A   1      53.751  27.443  25.025  1.00  0.00     0.022 A 
BRANCH  67  70
ATOM     70  S   UNL A   1      53.466  27.707  22.318  1.00  0.00     0.127 S 
ATOM     71  O   UNL A   1      52.684  28.777  21.700  1.00  0.00    -0.237 OA
ATOM     72  O   UNL A   1      54.879  28.025  22.521  1.00  0.00    -0.237 OA
ATOM     73  O   UNL A   1      53.213  26.371  21.796  1.00  0.00    -0.744 OA
ENDBRANCH  67  70
ENDBRANCH  49  63
BRANCH  50  74
ATOM     74  C   UNL A   1      41.282  28.668  27.755  1.00  0.00     0.023 A 
ATOM     75  C   UNL A   1      40.345  29.069  26.784  1.00  0.00     0.012 A 
ATOM     76  C   UNL A   1      40.833  28.364  29.057  1.00  0.00     0.148 A 
ATOM     77  C   UNL A   1      38.993  29.195  27.109  1.00  0.00     0.002 A 
ATOM     78  C   UNL A   1      39.478  28.437  29.358  1.00  0.00     0.091 A 
ATOM     79  F   UNL A   1      41.742  28.000  29.973  1.00  0.00    -0.205 F 
ATOM     80  C   UNL A   1      38.558  28.869  28.391  1.00  0.00     0.022 A 
BRANCH  78  81
ATOM     81  S   UNL A   1      38.810  27.921  30.943  1.00  0.00     0.127 S 
ATOM     82  O   UNL A   1      37.602  28.737  31.038  1.00  0.00    -0.237 OA
ATOM     83  O   UNL A   1      38.574  26.495  30.720  1.00  0.00    -0.237 OA
ATOM     84  O   UNL A   1      39.846  28.215  31.924  1.00  0.00    -0.744 OA
ENDBRANCH  78  81
ENDBRANCH  50  74
BRANCH  62  85
ATOM     85  C   UNL A   1      46.835  32.795  28.752  1.00  0.00     0.023 A 
ATOM     86  C   UNL A   1      47.223  32.926  30.099  1.00  0.00     0.012 A 
ATOM     87  C   UNL A   1      46.705  33.948  27.951  1.00  0.00     0.148 A 
ATOM     88  C   UNL A   1      47.457  34.188  30.645  1.00  0.00     0.002 A 
ATOM     89  C   UNL A   1      46.992  35.196  28.487  1.00  0.00     0.091 A 
ATOM     90  F   UNL A   1      46.320  33.799  26.675  1.00  0.00    -0.205 F 
ATOM     91  C   UNL A   1      47.356  35.319  29.839  1.00  0.00     0.022 A 
BRANCH  89  92
ATOM     92  S   UNL A   1      46.992  36.695  27.500  1.00  0.00     0.127 S 
ATOM     93  O   UNL A   1      47.933  36.352  26.434  1.00  0.00    -0.237 OA
ATOM     94  O   UNL A   1      45.594  36.783  27.076  1.00  0.00    -0.237 OA
ATOM     95  O   UNL A   1      47.426  37.767  28.387  1.00  0.00    -0.744 OA
ENDBRANCH  89  92
ENDBRANCH  62  85
ENDBRANCH  36  37
ENDBRANCH  29  31
ENDBRANCH  28  29
ENDBRANCH  27  28
ENDBRANCH  26  27
ENDBRANCH  25  26
ENDBRANCH  24  25
ENDBRANCH  23  24
ENDBRANCH   1  23
TORSDOF 27
ENDMDL
MODEL 3
REMARK VINA RESULT:      -8.0      5.064      9.239
REMARK SMILES CC(C)[C@@H](CO)NC(=O)CC(C)(C)CC(=O)OCCOCCOCCOC(=O)c1ccc(-c2c3nc(c(-c4cccc(S(=O)(=O)[O-])c4F)c4ccc([nH]4)c(-c4cccc(S(=O)(=O)[O-])c4F)c4nc(c(-c5cccc(S(=O)(=O)[O-])c5F)c5ccc2[nH]5)C=C4)C=C3)cc1
REMARK SMILES IDX 20 1 19 2 18 3 17 4 15 5 16 6 14 7 11 8 12 9 13 10 10 11
REMARK SMILES IDX 8 12 7 13 9 15 4 16 2 17 1 18 3 19 5 20 6 21 21 23 22 24
REMARK SMILES IDX 23 25 24 26 25 27 26 28 27 29 28 30 29 31 30 32 91 33 31 34
REMARK SMILES IDX 90 35 32 36 33 37 34 38 84 39 35 40 89 41 83 42 85 43 36 44
REMARK SMILES IDX 88 45 82 46 81 47 37 49 69 50 49 51 68 52 50 53 53 54 67 55
REMARK SMILES IDX 86 56 51 57 52 58 66 60 87 61 54 62 38 63 39 64 47 65 40 66
REMARK SMILES IDX 42 67 48 68 41 69 43 70 44 71 45 72 46 73 70 74 71 75 79 76
REMARK SMILES IDX 72 77 74 78 80 79 73 80 75 81 76 82 77 83 78 84 55 85 56 86
REMARK SMILES IDX 64 87 57 88 59 89 65 90 58 91 60 92 61 93 62 94 63 95
REMARK H PARENT 7 14 6 22 85 48 53 59
REMARK Flexibility Score: inf
ROOT
ATOM      1  O   UNL A   1      34.797  34.790  31.559  1.00  0.00    -0.376 OA
ENDROOT
BRANCH   1   2
ATOM      2  C   UNL A   1      34.660  33.878  30.468  1.00  0.00     0.202 C 
BRANCH   2   3
ATOM      3  C   UNL A   1      35.789  32.840  30.307  1.00  0.00     0.261 C 
BRANCH   3   4
ATOM      4  O   UNL A   1      35.545  31.621  31.054  1.00  0.00    -0.463 OA
BRANCH   4   5
ATOM      5  C   UNL A   1      36.285  30.527  30.728  1.00  0.00     0.306 C 
ATOM      6  O   UNL A   1      36.196  29.440  31.288  1.00  0.00    -0.252 OA
BRANCH   5   7
ATOM      7  C   UNL A   1      37.130  30.741  29.467  1.00  0.00     0.129 C 
BRANCH   7   8
ATOM      8  C   UNL A   1      37.217  29.641  28.368  1.00  0.00    -0.016 C 
ATOM      9  C   UNL A   1      38.011  28.436  28.902  1.00  0.00     0.012 C 
ATOM     10  C   UNL A   1      37.994  30.108  27.116  1.00  0.00     0.012 C 
BRANCH   8  11
ATOM     11  C   UNL A   1      35.821  29.157  27.865  1.00  0.00     0.107 C 
BRANCH  11  12
ATOM     12  C   UNL A   1      34.607  30.049  27.637  1.00  0.00     0.220 C 
ATOM     13  N   UNL A   1      33.344  29.569  27.516  1.00  0.00    -0.351 N 
ATOM     14  H   UNL A   1      32.681  29.739  28.223  1.00  0.00     0.163 HD
ATOM     15  O   UNL A   1      34.761  31.248  27.405  1.00  0.00    -0.275 OA
BRANCH  13  16
ATOM     16  C   UNL A   1      32.972  28.801  26.335  1.00  0.00     0.110 C 
BRANCH  16  17
ATOM     17  C   UNL A   1      32.985  27.270  26.592  1.00  0.00     0.007 C 
ATOM     18  C   UNL A   1      31.549  26.747  26.490  1.00  0.00     0.009 C 
ATOM     19  C   UNL A   1      33.909  26.450  25.683  1.00  0.00     0.009 C 
ENDBRANCH  16  17
BRANCH  16  20
ATOM     20  C   UNL A   1      31.584  29.282  25.814  1.00  0.00     0.181 C 
BRANCH  20  21
ATOM     21  O   UNL A   1      31.706  30.456  25.014  1.00  0.00    -0.394 OA
ATOM     22  H   UNL A   1      31.718  30.209  24.077  1.00  0.00     0.210 HD
ENDBRANCH  20  21
ENDBRANCH  16  20
ENDBRANCH  13  16
ENDBRANCH  11  12
ENDBRANCH   8  11
ENDBRANCH   7   8
ENDBRANCH   5   7
ENDBRANCH   4   5
ENDBRANCH   3   4
ENDBRANCH   2   3
ENDBRANCH   1   2
BRANCH   1  23
ATOM     23  C   UNL A   1      33.892  34.612  32.640  1.00  0.00     0.188 C 
BRANCH  23  24
ATOM     24  C   UNL A   1      34.169  33.407  33.550  1.00  0.00     0.188 C 
BRANCH  24  25
ATOM     25  O   UNL A   1      35.218  33.572  34.494  1.00  0.00    -0.376 OA
BRANCH  25  26
ATOM     26  C   UNL A   1      36.542  33.301  34.039  1.00  0.00     0.202 C 
BRANCH  26  27
ATOM     27  C   UNL A   1      37.174  31.989  34.540  1.00  0.00     0.261 C 
BRANCH  27  28
ATOM     28  O   UNL A   1      37.807  31.173  33.534  1.00  0.00    -0.460 OA
BRANCH  28  29
ATOM     29  C   UNL A   1      38.943  30.532  33.894  1.00  0.00     0.338 C 
ATOM     30  O   UNL A   1      39.037  29.690  34.772  1.00  0.00    -0.246 OA
BRANCH  29  31
ATOM     31  C   UNL A   1      39.990  30.863  32.896  1.00  0.00     0.060 A 
ATOM     32  C   UNL A   1      41.257  31.254  33.342  1.00  0.00     0.016 A 
ATOM     33  C   UNL A   1      39.749  30.769  31.529  1.00  0.00     0.016 A 
ATOM     34  C   UNL A   1      42.255  31.644  32.457  1.00  0.00     0.010 A 
ATOM     35  C   UNL A   1      40.761  31.130  30.631  1.00  0.00     0.010 A 
ATOM     36  C   UNL A   1      42.006  31.607  31.090  1.00  0.00    -0.014 A 
BRANCH  36  37
ATOM     37  C   UNL A   1      42.979  32.198  30.141  1.00  0.00     0.031 A 
ATOM     38  C   UNL A   1      44.176  31.379  29.756  1.00  0.00     0.074 A 
ATOM     39  C   UNL A   1      42.806  33.431  29.628  1.00  0.00     0.049 A 
ATOM     40  N   UNL A   1      45.281  31.749  29.169  1.00  0.00    -0.248 NA
ATOM     41  C   UNL A   1      44.122  29.946  30.097  1.00  0.00     0.031 C 
ATOM     42  C   UNL A   1      41.637  34.284  29.837  1.00  0.00     0.029 A 
ATOM     43  N   UNL A   1      43.643  34.192  28.849  1.00  0.00    -0.354 N 
ATOM     44  C   UNL A   1      46.086  30.617  29.142  1.00  0.00     0.074 A 
ATOM     45  C   UNL A   1      45.338  29.544  29.756  1.00  0.00     0.031 C 
ATOM     46  C   UNL A   1      41.845  35.467  29.233  1.00  0.00     0.029 A 
ATOM     47  C   UNL A   1      43.190  35.478  28.665  1.00  0.00     0.049 A 
ATOM     48  H   UNL A   1      44.481  33.852  28.461  1.00  0.00     0.167 HD
ATOM     49  C   UNL A   1      47.342  30.491  28.652  1.00  0.00     0.034 A 
ATOM     50  C   UNL A   1      43.816  36.559  28.158  1.00  0.00     0.034 A 
ATOM     51  C   UNL A   1      48.052  31.561  28.005  1.00  0.00     0.049 A 
ATOM     52  C   UNL A   1      45.238  36.417  27.681  1.00  0.00     0.074 A 
ATOM     53  C   UNL A   1      49.320  31.544  27.456  1.00  0.00     0.029 A 
ATOM     54  N   UNL A   1      47.552  32.842  27.822  1.00  0.00    -0.354 N 
ATOM     55  N   UNL A   1      45.997  35.346  27.651  1.00  0.00    -0.248 NA
ATOM     56  C   UNL A   1      45.890  37.626  27.156  1.00  0.00     0.031 C 
ATOM     57  C   UNL A   1      49.603  32.825  26.974  1.00  0.00     0.029 A 
ATOM     58  C   UNL A   1      48.489  33.627  27.178  1.00  0.00     0.049 A 
ATOM     59  H   UNL A   1      46.660  33.146  28.108  1.00  0.00     0.167 HD
ATOM     60  C   UNL A   1      47.194  35.742  27.065  1.00  0.00     0.074 A 
ATOM     61  C   UNL A   1      47.058  37.149  26.748  1.00  0.00     0.031 C 
ATOM     62  C   UNL A   1      48.308  35.010  26.817  1.00  0.00     0.034 A 
BRANCH  49  63
ATOM     63  C   UNL A   1      48.030  29.163  28.818  1.00  0.00     0.023 A 
ATOM     64  C   UNL A   1      48.747  28.873  29.995  1.00  0.00     0.012 A 
ATOM     65  C   UNL A   1      47.936  28.184  27.807  1.00  0.00     0.148 A 
ATOM     66  C   UNL A   1      49.395  27.647  30.148  1.00  0.00     0.002 A 
ATOM     67  C   UNL A   1      48.540  26.946  27.989  1.00  0.00     0.091 A 
ATOM     68  F   UNL A   1      47.269  28.486  26.685  1.00  0.00    -0.205 F 
ATOM     69  C   UNL A   1      49.282  26.681  29.151  1.00  0.00     0.022 A 
BRANCH  67  70
ATOM     70  S   UNL A   1      48.382  25.608  26.801  1.00  0.00     0.127 S 
ATOM     71  O   UNL A   1      49.001  24.497  27.523  1.00  0.00    -0.237 OA
ATOM     72  O   UNL A   1      46.931  25.503  26.649  1.00  0.00    -0.237 OA
ATOM     73  O   UNL A   1      49.089  26.045  25.605  1.00  0.00    -0.744 OA
ENDBRANCH  67  70
ENDBRANCH  49  63
BRANCH  50  74
ATOM     74  C   UNL A   1      43.116  37.874  28.094  1.00  0.00     0.023 A 
ATOM     75  C   UNL A   1      42.379  38.212  26.943  1.00  0.00     0.012 A 
ATOM     76  C   UNL A   1      43.165  38.786  29.169  1.00  0.00     0.148 A 
ATOM     77  C   UNL A   1      41.728  39.443  26.850  1.00  0.00     0.002 A 
ATOM     78  C   UNL A   1      42.468  39.986  29.093  1.00  0.00     0.091 A 
ATOM     79  F   UNL A   1      43.885  38.455  30.250  1.00  0.00    -0.205 F 
ATOM     80  C   UNL A   1      41.764  40.325  27.927  1.00  0.00     0.022 A 
BRANCH  78  81
ATOM     81  S   UNL A   1      42.355  41.129  30.473  1.00  0.00     0.127 S 
ATOM     82  O   UNL A   1      43.443  42.059  30.180  1.00  0.00    -0.237 OA
ATOM     83  O   UNL A   1      41.011  41.680  30.298  1.00  0.00    -0.237 OA
ATOM     84  O   UNL A   1      42.524  40.321  31.672  1.00  0.00    -0.744 OA
ENDBRANCH  78  81
ENDBRANCH  50  74
BRANCH  62  85
ATOM     85  C   UNL A   1      49.448  35.685  26.100  1.00  0.00     0.023 A 
ATOM     86  C   UNL A   1      49.537  35.631  24.695  1.00  0.00     0.012 A 
ATOM     87  C   UNL A   1      50.372  36.463  26.825  1.00  0.00     0.148 A 
ATOM     88  C   UNL A   1      50.546  36.323  24.026  1.00  0.00     0.002 A 
ATOM     89  C   UNL A   1      51.340  37.193  26.148  1.00  0.00     0.091 A 
ATOM     90  F   UNL A   1      50.276  36.487  28.163  1.00  0.00    -0.205 F 
ATOM     91  C   UNL A   1      51.436  37.114  24.749  1.00  0.00     0.022 A 
BRANCH  89  92
ATOM     92  S   UNL A   1      52.461  38.318  26.984  1.00  0.00     0.127 S 
ATOM     93  O   UNL A   1      53.239  38.851  25.866  1.00  0.00    -0.237 OA
ATOM     94  O   UNL A   1      51.538  39.274  27.596  1.00  0.00    -0.237 OA
ATOM     95  O   UNL A   1      53.216  37.510  27.933  1.00  0.00    -0.744 OA
ENDBRANCH  89  92
ENDBRANCH  62  85
ENDBRANCH  36  37
ENDBRANCH  29  31
ENDBRANCH  28  29
ENDBRANCH  27  28
ENDBRANCH  26  27
ENDBRANCH  25  26
ENDBRANCH  24  25
ENDBRANCH  23  24
ENDBRANCH   1  23
TORSDOF 27
ENDMDL
