MODEL 1
REMARK VINA RESULT:      -8.2      0.000      0.000
REMARK SMILES CN(C)C(=O)CCc1cccc(NC(=O)[C@H]2CCCC[C@@H]2C(=O)OCCOCCOCCOC(=O)c2ccc(-c3c4nc(c(-c5cccc(S(=O)(=O)[O-])c5F)c5ccc([nH]5)c(-c5cccc(S(=O)(=O)[O-])c5F)c5nc(c(-c6cccc(S(=O)(=O)[O-])c6F)c6ccc3[nH]6)C=C5)C=C4)cc2)c1
REMARK SMILES IDX 28 1 27 2 26 3 25 4 24 5 22 6 23 7 21 8 16 9 17 10 18 11
REMARK SMILES IDX 20 12 19 13 14 14 13 15 15 17 12 18 8 19 9 20 99 21 10 22
REMARK SMILES IDX 11 23 7 24 6 25 4 26 1 27 2 28 3 29 5 30 29 31 30 32 31 33
REMARK SMILES IDX 32 34 33 35 34 36 35 37 36 38 37 39 98 40 38 41 97 42 39 43
REMARK SMILES IDX 40 44 41 45 91 46 42 47 96 48 90 49 92 50 43 51 95 52 89 53
REMARK SMILES IDX 88 54 44 56 76 57 56 58 75 59 57 60 60 61 74 62 93 63 58 64
REMARK SMILES IDX 59 65 73 67 94 68 61 69 45 70 46 71 54 72 47 73 49 74 55 75
REMARK SMILES IDX 48 76 50 77 51 78 52 79 53 80 77 81 78 82 86 83 79 84 81 85
REMARK SMILES IDX 87 86 80 87 82 88 83 89 84 90 85 91 62 92 63 93 71 94 64 95
REMARK SMILES IDX 66 96 72 97 65 98 67 99 68 100 69 101 70 102
REMARK H PARENT 13 16 92 55 60 66
REMARK Flexibility Score: inf
ROOT
ATOM      1  C   UNL A   1      48.609  26.805  23.374  1.00  0.00     0.188 C 
ENDROOT
BRANCH   1   2
ATOM      2  O   UNL A   1      47.250  27.170  23.551  1.00  0.00    -0.376 OA
BRANCH   2   3
ATOM      3  C   UNL A   1      46.772  26.979  24.878  1.00  0.00     0.202 C 
BRANCH   3   4
ATOM      4  C   UNL A   1      45.255  26.802  24.993  1.00  0.00     0.261 C 
BRANCH   4   5
ATOM      5  O   UNL A   1      44.493  27.996  25.258  1.00  0.00    -0.463 OA
BRANCH   5   6
ATOM      6  C   UNL A   1      43.146  27.922  25.467  1.00  0.00     0.309 C 
ATOM      7  O   UNL A   1      42.304  28.202  24.626  1.00  0.00    -0.252 OA
BRANCH   6   8
ATOM      8  C   UNL A   1      42.883  27.479  26.916  1.00  0.00     0.111 C 
ATOM      9  C   UNL A   1      42.468  26.018  27.136  1.00  0.00     0.093 C 
ATOM     10  C   UNL A   1      40.976  25.924  26.713  1.00  0.00     0.014 C 
ATOM     11  C   UNL A   1      40.080  26.946  27.424  1.00  0.00     0.001 C 
ATOM     12  C   UNL A   1      42.062  28.467  27.722  1.00  0.00     0.016 C 
ATOM     13  C   UNL A   1      40.597  28.381  27.363  1.00  0.00     0.001 C 
BRANCH   9  14
ATOM     14  C   UNL A   1      42.681  25.300  28.530  1.00  0.00     0.228 C 
ATOM     15  N   UNL A   1      42.549  23.974  28.861  1.00  0.00    -0.326 N 
ATOM     16  H   UNL A   1      42.764  23.788  29.804  1.00  0.00     0.169 HD
ATOM     17  O   UNL A   1      42.986  26.009  29.505  1.00  0.00    -0.274 OA
BRANCH  15  18
ATOM     18  C   UNL A   1      42.175  22.828  28.149  1.00  0.00     0.041 A 
ATOM     19  C   UNL A   1      42.646  21.143  26.512  1.00  0.00    -0.045 A 
ATOM     20  C   UNL A   1      41.394  21.395  25.961  1.00  0.00     0.004 A 
ATOM     21  C   UNL A   1      43.100  21.982  27.543  1.00  0.00     0.029 A 
ATOM     22  C   UNL A   1      40.451  21.929  26.803  1.00  0.00     0.002 A 
ATOM     23  C   UNL A   1      40.863  22.477  28.005  1.00  0.00     0.026 A 
BRANCH  19  24
ATOM     24  C   UNL A   1      43.297  19.840  26.115  1.00  0.00     0.045 C 
BRANCH  24  25
ATOM     25  C   UNL A   1      44.107  20.002  24.793  1.00  0.00     0.105 C 
BRANCH  25  26
ATOM     26  C   UNL A   1      45.364  20.876  24.933  1.00  0.00     0.222 C 
ATOM     27  C   UNL A   1      46.432  23.086  25.043  1.00  0.00     0.146 C 
ATOM     28  N   UNL A   1      45.305  22.242  24.656  1.00  0.00    -0.349 N 
ATOM     29  C   UNL A   1      44.212  22.927  23.974  1.00  0.00     0.146 C 
ATOM     30  O   UNL A   1      46.398  20.356  25.372  1.00  0.00    -0.275 OA
ENDBRANCH  25  26
ENDBRANCH  24  25
ENDBRANCH  19  24
ENDBRANCH  15  18
ENDBRANCH   9  14
ENDBRANCH   6   8
ENDBRANCH   5   6
ENDBRANCH   4   5
ENDBRANCH   3   4
ENDBRANCH   2   3
ENDBRANCH   1   2
BRANCH   1  31
ATOM     31  C   UNL A   1      49.332  27.735  22.396  1.00  0.00     0.188 C 
BRANCH  31  32
ATOM     32  O   UNL A   1      50.513  28.418  22.773  1.00  0.00    -0.376 OA
BRANCH  32  33
ATOM     33  C   UNL A   1      51.713  27.678  22.920  1.00  0.00     0.202 C 
BRANCH  33  34
ATOM     34  C   UNL A   1      52.481  27.573  24.261  1.00  0.00     0.261 C 
BRANCH  34  35
ATOM     35  O   UNL A   1      51.900  26.792  25.314  1.00  0.00    -0.460 OA
BRANCH  35  36
ATOM     36  C   UNL A   1      52.281  27.101  26.580  1.00  0.00     0.338 C 
ATOM     37  O   UNL A   1      53.402  27.406  26.946  1.00  0.00    -0.246 OA
BRANCH  36  38
ATOM     38  C   UNL A   1      51.067  27.242  27.427  1.00  0.00     0.060 A 
ATOM     39  C   UNL A   1      49.929  26.490  27.094  1.00  0.00     0.016 A 
ATOM     40  C   UNL A   1      51.040  28.094  28.533  1.00  0.00     0.016 A 
ATOM     41  C   UNL A   1      48.759  26.601  27.847  1.00  0.00     0.010 A 
ATOM     42  C   UNL A   1      49.853  28.232  29.266  1.00  0.00     0.010 A 
ATOM     43  C   UNL A   1      48.696  27.512  28.906  1.00  0.00    -0.014 A 
BRANCH  43  44
ATOM     44  C   UNL A   1      47.375  27.864  29.492  1.00  0.00     0.031 A 
ATOM     45  C   UNL A   1      46.678  29.102  28.992  1.00  0.00     0.074 A 
ATOM     46  C   UNL A   1      46.790  27.105  30.437  1.00  0.00     0.049 A 
ATOM     47  N   UNL A   1      45.539  29.625  29.367  1.00  0.00    -0.248 NA
ATOM     48  C   UNL A   1      47.362  29.853  27.926  1.00  0.00     0.031 C 
ATOM     49  C   UNL A   1      47.341  25.873  30.998  1.00  0.00     0.029 A 
ATOM     50  N   UNL A   1      45.604  27.280  31.109  1.00  0.00    -0.354 N 
ATOM     51  C   UNL A   1      45.384  30.779  28.607  1.00  0.00     0.074 A 
ATOM     52  C   UNL A   1      46.552  30.888  27.760  1.00  0.00     0.031 C 
ATOM     53  C   UNL A   1      46.509  25.421  31.955  1.00  0.00     0.029 A 
ATOM     54  C   UNL A   1      45.380  26.342  32.088  1.00  0.00     0.049 A 
ATOM     55  H   UNL A   1      44.973  28.010  30.907  1.00  0.00     0.167 HD
ATOM     56  C   UNL A   1      44.361  31.666  28.605  1.00  0.00     0.034 A 
ATOM     57  C   UNL A   1      44.392  26.249  33.002  1.00  0.00     0.034 A 
ATOM     58  C   UNL A   1      43.192  31.557  29.435  1.00  0.00     0.049 A 
ATOM     59  C   UNL A   1      43.278  27.267  33.001  1.00  0.00     0.074 A 
ATOM     60  C   UNL A   1      42.083  32.384  29.468  1.00  0.00     0.029 A 
ATOM     61  N   UNL A   1      42.987  30.575  30.390  1.00  0.00    -0.354 N 
ATOM     62  N   UNL A   1      43.090  28.291  32.203  1.00  0.00    -0.248 NA
ATOM     63  C   UNL A   1      42.219  27.096  34.008  1.00  0.00     0.031 C 
ATOM     64  C   UNL A   1      41.225  31.924  30.473  1.00  0.00     0.029 A 
ATOM     65  C   UNL A   1      41.778  30.783  31.031  1.00  0.00     0.049 A 
ATOM     66  H   UNL A   1      43.610  29.837  30.584  1.00  0.00     0.167 HD
ATOM     67  C   UNL A   1      41.877  28.857  32.582  1.00  0.00     0.074 A 
ATOM     68  C   UNL A   1      41.363  28.053  33.670  1.00  0.00     0.031 C 
ATOM     69  C   UNL A   1      41.248  29.950  32.081  1.00  0.00     0.034 A 
BRANCH  56  70
ATOM     70  C   UNL A   1      44.456  32.838  27.662  1.00  0.00     0.023 A 
ATOM     71  C   UNL A   1      44.090  32.684  26.309  1.00  0.00     0.012 A 
ATOM     72  C   UNL A   1      44.862  34.103  28.129  1.00  0.00     0.148 A 
ATOM     73  C   UNL A   1      44.158  33.762  25.429  1.00  0.00     0.002 A 
ATOM     74  C   UNL A   1      44.881  35.184  27.257  1.00  0.00     0.091 A 
ATOM     75  F   UNL A   1      45.227  34.223  29.413  1.00  0.00    -0.205 F 
ATOM     76  C   UNL A   1      44.544  35.013  25.905  1.00  0.00     0.022 A 
BRANCH  74  77
ATOM     77  S   UNL A   1      45.283  36.852  27.790  1.00  0.00     0.127 S 
ATOM     78  O   UNL A   1      44.327  37.053  28.878  1.00  0.00    -0.237 OA
ATOM     79  O   UNL A   1      46.673  36.708  28.220  1.00  0.00    -0.237 OA
ATOM     80  O   UNL A   1      45.090  37.705  26.625  1.00  0.00    -0.744 OA
ENDBRANCH  74  77
ENDBRANCH  56  70
BRANCH  57  81
ATOM     81  C   UNL A   1      44.393  25.136  33.996  1.00  0.00     0.023 A 
ATOM     82  C   UNL A   1      43.873  23.878  33.635  1.00  0.00     0.012 A 
ATOM     83  C   UNL A   1      44.895  25.324  35.298  1.00  0.00     0.148 A 
ATOM     84  C   UNL A   1      43.820  22.837  34.564  1.00  0.00     0.002 A 
ATOM     85  C   UNL A   1      44.893  24.267  36.200  1.00  0.00     0.091 A 
ATOM     86  F   UNL A   1      45.368  26.533  35.627  1.00  0.00    -0.205 F 
ATOM     87  C   UNL A   1      44.338  23.028  35.842  1.00  0.00     0.022 A 
BRANCH  85  88
ATOM     88  S   UNL A   1      45.643  24.384  37.827  1.00  0.00     0.127 S 
ATOM     89  O   UNL A   1      44.700  25.250  38.530  1.00  0.00    -0.237 OA
ATOM     90  O   UNL A   1      45.638  22.987  38.261  1.00  0.00    -0.237 OA
ATOM     91  O   UNL A   1      46.971  24.943  37.612  1.00  0.00    -0.744 OA
ENDBRANCH  85  88
ENDBRANCH  57  81
BRANCH  69  92
ATOM     92  C   UNL A   1      39.904  30.322  32.660  1.00  0.00     0.023 A 
ATOM     93  C   UNL A   1      38.720  29.833  32.076  1.00  0.00     0.012 A 
ATOM     94  C   UNL A   1      39.822  31.105  33.831  1.00  0.00     0.148 A 
ATOM     95  C   UNL A   1      37.475  30.150  32.622  1.00  0.00     0.002 A 
ATOM     96  C   UNL A   1      38.582  31.371  34.399  1.00  0.00     0.091 A 
ATOM     97  F   UNL A   1      40.958  31.575  34.367  1.00  0.00    -0.205 F 
ATOM     98  C   UNL A   1      37.407  30.908  33.788  1.00  0.00     0.022 A 
BRANCH  96  99
ATOM     99  S   UNL A   1      38.403  32.255  35.954  1.00  0.00     0.127 S 
ATOM    100  O   UNL A   1      37.014  32.703  35.884  1.00  0.00    -0.237 OA
ATOM    101  O   UNL A   1      38.657  31.202  36.939  1.00  0.00    -0.237 OA
ATOM    102  O   UNL A   1      39.403  33.314  35.933  1.00  0.00    -0.744 OA
ENDBRANCH  96  99
ENDBRANCH  69  92
ENDBRANCH  43  44
ENDBRANCH  36  38
ENDBRANCH  35  36
ENDBRANCH  34  35
ENDBRANCH  33  34
ENDBRANCH  32  33
ENDBRANCH  31  32
ENDBRANCH   1  31
TORSDOF 25
ENDMDL
MODEL 2
REMARK VINA RESULT:      -8.0      6.160      8.972
REMARK SMILES CN(C)C(=O)CCc1cccc(NC(=O)[C@H]2CCCC[C@@H]2C(=O)OCCOCCOCCOC(=O)c2ccc(-c3c4nc(c(-c5cccc(S(=O)(=O)[O-])c5F)c5ccc([nH]5)c(-c5cccc(S(=O)(=O)[O-])c5F)c5nc(c(-c6cccc(S(=O)(=O)[O-])c6F)c6ccc3[nH]6)C=C5)C=C4)cc2)c1
REMARK SMILES IDX 28 1 27 2 26 3 25 4 24 5 22 6 23 7 21 8 16 9 17 10 18 11
REMARK SMILES IDX 20 12 19 13 14 14 13 15 15 17 12 18 8 19 9 20 99 21 10 22
REMARK SMILES IDX 11 23 7 24 6 25 4 26 1 27 2 28 3 29 5 30 29 31 30 32 31 33
REMARK SMILES IDX 32 34 33 35 34 36 35 37 36 38 37 39 98 40 38 41 97 42 39 43
REMARK SMILES IDX 40 44 41 45 91 46 42 47 96 48 90 49 92 50 43 51 95 52 89 53
REMARK SMILES IDX 88 54 44 56 76 57 56 58 75 59 57 60 60 61 74 62 93 63 58 64
REMARK SMILES IDX 59 65 73 67 94 68 61 69 45 70 46 71 54 72 47 73 49 74 55 75
REMARK SMILES IDX 48 76 50 77 51 78 52 79 53 80 77 81 78 82 86 83 79 84 81 85
REMARK SMILES IDX 87 86 80 87 82 88 83 89 84 90 85 91 62 92 63 93 71 94 64 95
REMARK SMILES IDX 66 96 72 97 65 98 67 99 68 100 69 101 70 102
REMARK H PARENT 13 16 92 55 60 66
REMARK Flexibility Score: inf
ROOT
ATOM      1  C   UNL A   1      39.895  22.659  27.089  1.00  0.00     0.188 C 
ENDROOT
BRANCH   1   2
ATOM      2  O   UNL A   1      39.297  23.507  26.122  1.00  0.00    -0.376 OA
BRANCH   2   3
ATOM      3  C   UNL A   1      37.887  23.634  26.263  1.00  0.00     0.202 C 
BRANCH   3   4
ATOM      4  C   UNL A   1      37.094  23.444  24.967  1.00  0.00     0.261 C 
BRANCH   4   5
ATOM      5  O   UNL A   1      35.781  24.036  24.930  1.00  0.00    -0.463 OA
BRANCH   5   6
ATOM      6  C   UNL A   1      34.893  23.686  23.955  1.00  0.00     0.309 C 
ATOM      7  O   UNL A   1      35.213  23.347  22.824  1.00  0.00    -0.252 OA
BRANCH   6   8
ATOM      8  C   UNL A   1      33.462  23.829  24.499  1.00  0.00     0.111 C 
ATOM      9  C   UNL A   1      33.233  23.456  25.969  1.00  0.00     0.093 C 
ATOM     10  C   UNL A   1      33.224  21.903  26.026  1.00  0.00     0.014 C 
ATOM     11  C   UNL A   1      32.222  21.268  25.053  1.00  0.00     0.001 C 
ATOM     12  C   UNL A   1      32.393  23.292  23.567  1.00  0.00     0.016 C 
ATOM     13  C   UNL A   1      32.330  21.784  23.620  1.00  0.00     0.001 C 
BRANCH   9  14
ATOM     14  C   UNL A   1      32.007  24.033  26.788  1.00  0.00     0.228 C 
ATOM     15  N   UNL A   1      31.485  25.303  26.806  1.00  0.00    -0.326 N 
ATOM     16  H   UNL A   1      30.698  25.389  27.392  1.00  0.00     0.169 HD
ATOM     17  O   UNL A   1      31.416  23.261  27.564  1.00  0.00    -0.274 OA
BRANCH  15  18
ATOM     18  C   UNL A   1      31.829  26.502  26.171  1.00  0.00     0.041 A 
ATOM     19  C   UNL A   1      31.403  28.187  24.521  1.00  0.00    -0.045 A 
ATOM     20  C   UNL A   1      32.734  28.076  24.132  1.00  0.00     0.004 A 
ATOM     21  C   UNL A   1      30.909  27.274  25.467  1.00  0.00     0.029 A 
ATOM     22  C   UNL A   1      33.611  27.608  25.078  1.00  0.00     0.002 A 
ATOM     23  C   UNL A   1      33.108  26.984  26.205  1.00  0.00     0.026 A 
BRANCH  19  24
ATOM     24  C   UNL A   1      30.680  29.433  24.070  1.00  0.00     0.045 C 
BRANCH  24  25
ATOM     25  C   UNL A   1      29.487  29.076  23.131  1.00  0.00     0.105 C 
BRANCH  25  26
ATOM     26  C   UNL A   1      29.124  30.187  22.133  1.00  0.00     0.222 C 
ATOM     27  C   UNL A   1      28.184  32.404  21.648  1.00  0.00     0.146 C 
ATOM     28  N   UNL A   1      28.301  31.242  22.525  1.00  0.00    -0.349 N 
ATOM     29  C   UNL A   1      27.501  31.293  23.744  1.00  0.00     0.146 C 
ATOM     30  O   UNL A   1      29.640  30.161  21.009  1.00  0.00    -0.275 OA
ENDBRANCH  25  26
ENDBRANCH  24  25
ENDBRANCH  19  24
ENDBRANCH  15  18
ENDBRANCH   9  14
ENDBRANCH   6   8
ENDBRANCH   5   6
ENDBRANCH   4   5
ENDBRANCH   3   4
ENDBRANCH   2   3
ENDBRANCH   1   2
BRANCH   1  31
ATOM     31  C   UNL A   1      41.278  23.160  27.517  1.00  0.00     0.188 C 
BRANCH  31  32
ATOM     32  O   UNL A   1      42.241  23.558  26.561  1.00  0.00    -0.376 OA
BRANCH  32  33
ATOM     33  C   UNL A   1      43.324  22.687  26.277  1.00  0.00     0.202 C 
BRANCH  33  34
ATOM     34  C   UNL A   1      44.803  23.146  26.296  1.00  0.00     0.261 C 
BRANCH  34  35
ATOM     35  O   UNL A   1      45.248  23.952  27.396  1.00  0.00    -0.460 OA
BRANCH  35  36
ATOM     36  C   UNL A   1      45.509  25.257  27.125  1.00  0.00     0.338 C 
ATOM     37  O   UNL A   1      46.042  25.697  26.123  1.00  0.00    -0.246 OA
BRANCH  36  38
ATOM     38  C   UNL A   1      44.828  26.104  28.139  1.00  0.00     0.060 A 
ATOM     39  C   UNL A   1      45.162  27.467  28.204  1.00  0.00     0.016 A 
ATOM     40  C   UNL A   1      43.873  25.579  29.014  1.00  0.00     0.016 A 
ATOM     41  C   UNL A   1      44.565  28.300  29.151  1.00  0.00     0.010 A 
ATOM     42  C   UNL A   1      43.301  26.410  29.987  1.00  0.00     0.010 A 
ATOM     43  C   UNL A   1      43.669  27.767  30.083  1.00  0.00    -0.014 A 
BRANCH  43  44
ATOM     44  C   UNL A   1      43.288  28.569  31.276  1.00  0.00     0.031 A 
ATOM     45  C   UNL A   1      42.195  29.595  31.129  1.00  0.00     0.074 A 
ATOM     46  C   UNL A   1      43.881  28.394  32.471  1.00  0.00     0.049 A 
ATOM     47  N   UNL A   1      41.711  30.428  32.013  1.00  0.00    -0.248 NA
ATOM     48  C   UNL A   1      41.565  29.695  29.801  1.00  0.00     0.031 C 
ATOM     49  C   UNL A   1      44.937  27.426  32.762  1.00  0.00     0.029 A 
ATOM     50  N   UNL A   1      43.688  29.049  33.664  1.00  0.00    -0.354 N 
ATOM     51  C   UNL A   1      40.745  31.171  31.343  1.00  0.00     0.074 A 
ATOM     52  C   UNL A   1      40.719  30.699  29.976  1.00  0.00     0.031 C 
ATOM     53  C   UNL A   1      45.323  27.575  34.042  1.00  0.00     0.029 A 
ATOM     54  C   UNL A   1      44.558  28.661  34.655  1.00  0.00     0.049 A 
ATOM     55  H   UNL A   1      42.992  29.733  33.796  1.00  0.00     0.167 HD
ATOM     56  C   UNL A   1      39.941  32.151  31.821  1.00  0.00     0.034 A 
ATOM     57  C   UNL A   1      44.733  29.142  35.903  1.00  0.00     0.034 A 
ATOM     58  C   UNL A   1      39.952  32.615  33.182  1.00  0.00     0.049 A 
ATOM     59  C   UNL A   1      43.847  30.256  36.404  1.00  0.00     0.074 A 
ATOM     60  C   UNL A   1      39.142  33.573  33.768  1.00  0.00     0.029 A 
ATOM     61  N   UNL A   1      40.824  32.174  34.164  1.00  0.00    -0.354 N 
ATOM     62  N   UNL A   1      42.863  30.872  35.793  1.00  0.00    -0.248 NA
ATOM     63  C   UNL A   1      44.074  30.719  37.783  1.00  0.00     0.031 C 
ATOM     64  C   UNL A   1      39.553  33.739  35.095  1.00  0.00     0.029 A 
ATOM     65  C   UNL A   1      40.586  32.851  35.348  1.00  0.00     0.049 A 
ATOM     66  H   UNL A   1      41.512  31.481  34.038  1.00  0.00     0.167 HD
ATOM     67  C   UNL A   1      42.329  31.760  36.723  1.00  0.00     0.074 A 
ATOM     68  C   UNL A   1      43.086  31.590  37.944  1.00  0.00     0.031 C 
ATOM     69  C   UNL A   1      41.310  32.643  36.575  1.00  0.00     0.034 A 
BRANCH  56  70
ATOM     70  C   UNL A   1      38.970  32.786  30.861  1.00  0.00     0.023 A 
ATOM     71  C   UNL A   1      39.362  33.909  30.104  1.00  0.00     0.012 A 
ATOM     72  C   UNL A   1      37.686  32.240  30.673  1.00  0.00     0.148 A 
ATOM     73  C   UNL A   1      38.479  34.499  29.200  1.00  0.00     0.002 A 
ATOM     74  C   UNL A   1      36.829  32.803  29.735  1.00  0.00     0.091 A 
ATOM     75  F   UNL A   1      37.325  31.185  31.417  1.00  0.00    -0.205 F 
ATOM     76  C   UNL A   1      37.218  33.940  29.009  1.00  0.00     0.022 A 
BRANCH  74  77
ATOM     77  S   UNL A   1      35.217  32.109  29.355  1.00  0.00     0.127 S 
ATOM     78  O   UNL A   1      35.555  30.716  29.066  1.00  0.00    -0.237 OA
ATOM     79  O   UNL A   1      34.493  32.312  30.610  1.00  0.00    -0.237 OA
ATOM     80  O   UNL A   1      34.705  32.873  28.225  1.00  0.00    -0.744 OA
ENDBRANCH  74  77
ENDBRANCH  56  70
BRANCH  57  81
ATOM     81  C   UNL A   1      45.786  28.561  36.788  1.00  0.00     0.023 A 
ATOM     82  C   UNL A   1      47.061  29.157  36.840  1.00  0.00     0.012 A 
ATOM     83  C   UNL A   1      45.530  27.416  37.566  1.00  0.00     0.148 A 
ATOM     84  C   UNL A   1      48.073  28.602  37.624  1.00  0.00     0.002 A 
ATOM     85  C   UNL A   1      46.526  26.902  38.389  1.00  0.00     0.091 A 
ATOM     86  F   UNL A   1      44.317  26.853  37.488  1.00  0.00    -0.205 F 
ATOM     87  C   UNL A   1      47.804  27.481  38.405  1.00  0.00     0.022 A 
BRANCH  85  88
ATOM     88  S   UNL A   1      46.237  25.534  39.516  1.00  0.00     0.127 S 
ATOM     89  O   UNL A   1      45.848  24.467  38.598  1.00  0.00    -0.237 OA
ATOM     90  O   UNL A   1      47.554  25.369  40.131  1.00  0.00    -0.237 OA
ATOM     91  O   UNL A   1      45.197  25.988  40.431  1.00  0.00    -0.744 OA
ENDBRANCH  85  88
ENDBRANCH  57  81
BRANCH  69  92
ATOM     92  C   UNL A   1      40.906  33.465  37.776  1.00  0.00     0.023 A 
ATOM     93  C   UNL A   1      39.811  33.072  38.570  1.00  0.00     0.012 A 
ATOM     94  C   UNL A   1      41.661  34.595  38.155  1.00  0.00     0.148 A 
ATOM     95  C   UNL A   1      39.448  33.811  39.696  1.00  0.00     0.002 A 
ATOM     96  C   UNL A   1      41.326  35.294  39.309  1.00  0.00     0.091 A 
ATOM     97  F   UNL A   1      42.692  34.965  37.382  1.00  0.00    -0.205 F 
ATOM     98  C   UNL A   1      40.212  34.913  40.072  1.00  0.00     0.022 A 
BRANCH  96  99
ATOM     99  S   UNL A   1      42.311  36.667  39.925  1.00  0.00     0.127 S 
ATOM    100  O   UNL A   1      41.574  37.045  41.129  1.00  0.00    -0.237 OA
ATOM    101  O   UNL A   1      43.605  36.031  40.176  1.00  0.00    -0.237 OA
ATOM    102  O   UNL A   1      42.324  37.662  38.861  1.00  0.00    -0.744 OA
ENDBRANCH  96  99
ENDBRANCH  69  92
ENDBRANCH  43  44
ENDBRANCH  36  38
ENDBRANCH  35  36
ENDBRANCH  34  35
ENDBRANCH  33  34
ENDBRANCH  32  33
ENDBRANCH  31  32
ENDBRANCH   1  31
TORSDOF 25
ENDMDL
MODEL 3
REMARK VINA RESULT:      -7.9      6.059     10.457
REMARK SMILES CN(C)C(=O)CCc1cccc(NC(=O)[C@H]2CCCC[C@@H]2C(=O)OCCOCCOCCOC(=O)c2ccc(-c3c4nc(c(-c5cccc(S(=O)(=O)[O-])c5F)c5ccc([nH]5)c(-c5cccc(S(=O)(=O)[O-])c5F)c5nc(c(-c6cccc(S(=O)(=O)[O-])c6F)c6ccc3[nH]6)C=C5)C=C4)cc2)c1
REMARK SMILES IDX 28 1 27 2 26 3 25 4 24 5 22 6 23 7 21 8 16 9 17 10 18 11
REMARK SMILES IDX 20 12 19 13 14 14 13 15 15 17 12 18 8 19 9 20 99 21 10 22
REMARK SMILES IDX 11 23 7 24 6 25 4 26 1 27 2 28 3 29 5 30 29 31 30 32 31 33
REMARK SMILES IDX 32 34 33 35 34 36 35 37 36 38 37 39 98 40 38 41 97 42 39 43
REMARK SMILES IDX 40 44 41 45 91 46 42 47 96 48 90 49 92 50 43 51 95 52 89 53
REMARK SMILES IDX 88 54 44 56 76 57 56 58 75 59 57 60 60 61 74 62 93 63 58 64
REMARK SMILES IDX 59 65 73 67 94 68 61 69 45 70 46 71 54 72 47 73 49 74 55 75
REMARK SMILES IDX 48 76 50 77 51 78 52 79 53 80 77 81 78 82 86 83 79 84 81 85
REMARK SMILES IDX 87 86 80 87 82 88 83 89 84 90 85 91 62 92 63 93 71 94 64 95
REMARK SMILES IDX 66 96 72 97 65 98 67 99 68 100 69 101 70 102
REMARK H PARENT 13 16 92 55 60 66
REMARK Flexibility Score: inf
ROOT
ATOM      1  C   UNL A   1      39.983  22.634  27.134  1.00  0.00     0.188 C 
ENDROOT
BRANCH   1   2
ATOM      2  O   UNL A   1      39.566  23.768  26.392  1.00  0.00    -0.376 OA
BRANCH   2   3
ATOM      3  C   UNL A   1      38.175  24.049  26.506  1.00  0.00     0.202 C 
BRANCH   3   4
ATOM      4  C   UNL A   1      37.297  23.377  25.446  1.00  0.00     0.261 C 
BRANCH   4   5
ATOM      5  O   UNL A   1      36.080  24.065  25.097  1.00  0.00    -0.463 OA
BRANCH   5   6
ATOM      6  C   UNL A   1      35.283  23.592  24.095  1.00  0.00     0.309 C 
ATOM      7  O   UNL A   1      35.657  23.420  22.944  1.00  0.00    -0.252 OA
BRANCH   6   8
ATOM      8  C   UNL A   1      33.865  23.361  24.644  1.00  0.00     0.111 C 
ATOM      9  C   UNL A   1      33.727  23.153  26.158  1.00  0.00     0.093 C 
ATOM     10  C   UNL A   1      34.200  21.700  26.440  1.00  0.00     0.014 C 
ATOM     11  C   UNL A   1      33.470  20.651  25.592  1.00  0.00     0.001 C 
ATOM     12  C   UNL A   1      33.040  22.389  23.824  1.00  0.00     0.016 C 
ATOM     13  C   UNL A   1      33.447  20.960  24.098  1.00  0.00     0.001 C 
BRANCH   9  14
ATOM     14  C   UNL A   1      32.363  23.433  26.909  1.00  0.00     0.228 C 
ATOM     15  N   UNL A   1      31.321  24.254  26.557  1.00  0.00    -0.326 N 
ATOM     16  H   UNL A   1      30.574  24.227  27.198  1.00  0.00     0.169 HD
ATOM     17  O   UNL A   1      32.178  22.866  28.001  1.00  0.00    -0.274 OA
BRANCH  15  18
ATOM     18  C   UNL A   1      31.090  25.123  25.484  1.00  0.00     0.041 A 
ATOM     19  C   UNL A   1      30.824  27.340  24.613  1.00  0.00    -0.045 A 
ATOM     20  C   UNL A   1      29.670  26.899  23.974  1.00  0.00     0.004 A 
ATOM     21  C   UNL A   1      31.466  26.463  25.504  1.00  0.00     0.029 A 
ATOM     22  C   UNL A   1      29.595  25.556  23.703  1.00  0.00     0.002 A 
ATOM     23  C   UNL A   1      30.468  24.696  24.344  1.00  0.00     0.026 A 
BRANCH  19  24
ATOM     24  C   UNL A   1      31.414  28.633  24.105  1.00  0.00     0.045 C 
BRANCH  24  25
ATOM     25  C   UNL A   1      30.317  29.733  23.977  1.00  0.00     0.105 C 
BRANCH  25  26
ATOM     26  C   UNL A   1      29.698  29.838  22.573  1.00  0.00     0.222 C 
ATOM     27  C   UNL A   1      28.111  30.867  21.006  1.00  0.00     0.146 C 
ATOM     28  N   UNL A   1      28.529  30.571  22.373  1.00  0.00    -0.349 N 
ATOM     29  C   UNL A   1      27.641  31.063  23.421  1.00  0.00     0.146 C 
ATOM     30  O   UNL A   1      30.304  29.326  21.623  1.00  0.00    -0.275 OA
ENDBRANCH  25  26
ENDBRANCH  24  25
ENDBRANCH  19  24
ENDBRANCH  15  18
ENDBRANCH   9  14
ENDBRANCH   6   8
ENDBRANCH   5   6
ENDBRANCH   4   5
ENDBRANCH   3   4
ENDBRANCH   2   3
ENDBRANCH   1   2
BRANCH   1  31
ATOM     31  C   UNL A   1      41.387  22.814  27.719  1.00  0.00     0.188 C 
BRANCH  31  32
ATOM     32  O   UNL A   1      42.517  22.964  26.880  1.00  0.00    -0.376 OA
BRANCH  32  33
ATOM     33  C   UNL A   1      43.109  21.805  26.317  1.00  0.00     0.202 C 
BRANCH  33  34
ATOM     34  C   UNL A   1      44.362  21.855  25.408  1.00  0.00     0.261 C 
BRANCH  34  35
ATOM     35  O   UNL A   1      45.469  22.666  25.825  1.00  0.00    -0.460 OA
BRANCH  35  36
ATOM     36  C   UNL A   1      45.772  23.730  25.039  1.00  0.00     0.338 C 
ATOM     37  O   UNL A   1      46.085  23.698  23.863  1.00  0.00    -0.246 OA
BRANCH  36  38
ATOM     38  C   UNL A   1      45.432  24.980  25.769  1.00  0.00     0.060 A 
ATOM     39  C   UNL A   1      44.693  25.967  25.097  1.00  0.00     0.016 A 
ATOM     40  C   UNL A   1      45.825  25.186  27.094  1.00  0.00     0.016 A 
ATOM     41  C   UNL A   1      44.365  27.165  25.734  1.00  0.00     0.010 A 
ATOM     42  C   UNL A   1      45.526  26.404  27.719  1.00  0.00     0.010 A 
ATOM     43  C   UNL A   1      44.824  27.414  27.031  1.00  0.00    -0.014 A 
BRANCH  43  44
ATOM     44  C   UNL A   1      44.756  28.794  27.580  1.00  0.00     0.031 A 
ATOM     45  C   UNL A   1      43.500  29.219  28.295  1.00  0.00     0.074 A 
ATOM     46  C   UNL A   1      45.783  29.657  27.467  1.00  0.00     0.049 A 
ATOM     47  N   UNL A   1      43.196  30.372  28.831  1.00  0.00    -0.248 NA
ATOM     48  C   UNL A   1      42.440  28.203  28.416  1.00  0.00     0.031 C 
ATOM     49  C   UNL A   1      47.062  29.374  26.820  1.00  0.00     0.029 A 
ATOM     50  N   UNL A   1      45.894  30.964  27.878  1.00  0.00    -0.354 N 
ATOM     51  C   UNL A   1      41.904  30.232  29.325  1.00  0.00     0.074 A 
ATOM     52  C   UNL A   1      41.476  28.886  29.013  1.00  0.00     0.031 C 
ATOM     53  C   UNL A   1      47.818  30.487  26.848  1.00  0.00     0.029 A 
ATOM     54  C   UNL A   1      47.070  31.565  27.494  1.00  0.00     0.049 A 
ATOM     55  H   UNL A   1      45.198  31.426  28.400  1.00  0.00     0.167 HD
ATOM     56  C   UNL A   1      41.143  31.135  29.987  1.00  0.00     0.034 A 
ATOM     57  C   UNL A   1      47.483  32.842  27.627  1.00  0.00     0.034 A 
ATOM     58  C   UNL A   1      41.568  32.471  30.311  1.00  0.00     0.049 A 
ATOM     59  C   UNL A   1      46.605  33.840  28.342  1.00  0.00     0.074 A 
ATOM     60  C   UNL A   1      40.882  33.441  31.020  1.00  0.00     0.029 A 
ATOM     61  N   UNL A   1      42.778  33.031  29.934  1.00  0.00    -0.354 N 
ATOM     62  N   UNL A   1      45.431  33.661  28.900  1.00  0.00    -0.248 NA
ATOM     63  C   UNL A   1      47.124  35.210  28.474  1.00  0.00     0.031 C 
ATOM     64  C   UNL A   1      41.660  34.603  31.036  1.00  0.00     0.029 A 
ATOM     65  C   UNL A   1      42.852  34.340  30.380  1.00  0.00     0.049 A 
ATOM     66  H   UNL A   1      43.481  32.567  29.425  1.00  0.00     0.167 HD
ATOM     67  C   UNL A   1      45.095  34.879  29.484  1.00  0.00     0.074 A 
ATOM     68  C   UNL A   1      46.195  35.783  29.228  1.00  0.00     0.031 C 
ATOM     69  C   UNL A   1      43.971  35.221  30.164  1.00  0.00     0.034 A 
BRANCH  56  70
ATOM     70  C   UNL A   1      39.765  30.704  30.417  1.00  0.00     0.023 A 
ATOM     71  C   UNL A   1      39.579  30.089  31.672  1.00  0.00     0.012 A 
ATOM     72  C   UNL A   1      38.648  30.953  29.597  1.00  0.00     0.148 A 
ATOM     73  C   UNL A   1      38.308  29.698  32.089  1.00  0.00     0.002 A 
ATOM     74  C   UNL A   1      37.378  30.606  30.041  1.00  0.00     0.091 A 
ATOM     75  F   UNL A   1      38.848  31.520  28.398  1.00  0.00    -0.205 F 
ATOM     76  C   UNL A   1      37.207  29.965  31.279  1.00  0.00     0.022 A 
BRANCH  74  77
ATOM     77  S   UNL A   1      35.889  30.981  29.108  1.00  0.00     0.127 S 
ATOM     78  O   UNL A   1      35.369  29.643  28.831  1.00  0.00    -0.237 OA
ATOM     79  O   UNL A   1      35.107  31.749  30.076  1.00  0.00    -0.237 OA
ATOM     80  O   UNL A   1      36.324  31.735  27.940  1.00  0.00    -0.744 OA
ENDBRANCH  74  77
ENDBRANCH  56  70
BRANCH  57  81
ATOM     81  C   UNL A   1      48.810  33.260  27.087  1.00  0.00     0.023 A 
ATOM     82  C   UNL A   1      48.884  33.902  25.836  1.00  0.00     0.012 A 
ATOM     83  C   UNL A   1      49.997  33.010  27.801  1.00  0.00     0.148 A 
ATOM     84  C   UNL A   1      50.119  34.258  25.290  1.00  0.00     0.002 A 
ATOM     85  C   UNL A   1      51.219  33.418  27.278  1.00  0.00     0.091 A 
ATOM     86  F   UNL A   1      49.908  32.380  28.980  1.00  0.00    -0.205 F 
ATOM     87  C   UNL A   1      51.284  34.024  26.014  1.00  0.00     0.022 A 
BRANCH  85  88
ATOM     88  S   UNL A   1      52.759  33.266  28.190  1.00  0.00     0.127 S 
ATOM     89  O   UNL A   1      52.946  31.817  28.222  1.00  0.00    -0.237 OA
ATOM     90  O   UNL A   1      53.692  33.988  27.324  1.00  0.00    -0.237 OA
ATOM     91  O   UNL A   1      52.520  33.899  29.479  1.00  0.00    -0.744 OA
ENDBRANCH  85  88
ENDBRANCH  57  81
BRANCH  69  92
ATOM     92  C   UNL A   1      43.884  36.617  30.732  1.00  0.00     0.023 A 
ATOM     93  C   UNL A   1      44.231  36.860  32.075  1.00  0.00     0.012 A 
ATOM     94  C   UNL A   1      43.522  37.703  29.908  1.00  0.00     0.148 A 
ATOM     95  C   UNL A   1      44.179  38.151  32.601  1.00  0.00     0.002 A 
ATOM     96  C   UNL A   1      43.525  38.994  30.424  1.00  0.00     0.091 A 
ATOM     97  F   UNL A   1      43.180  37.455  28.635  1.00  0.00    -0.205 F 
ATOM     98  C   UNL A   1      43.838  39.218  31.773  1.00  0.00     0.022 A 
BRANCH  96  99
ATOM     99  S   UNL A   1      43.195  40.440  29.408  1.00  0.00     0.127 S 
ATOM    100  O   UNL A   1      43.936  41.479  30.120  1.00  0.00    -0.237 OA
ATOM    101  O   UNL A   1      43.774  40.051  28.120  1.00  0.00    -0.237 OA
ATOM    102  O   UNL A   1      41.748  40.600  29.394  1.00  0.00    -0.744 OA
ENDBRANCH  96  99
ENDBRANCH  69  92
ENDBRANCH  43  44
ENDBRANCH  36  38
ENDBRANCH  35  36
ENDBRANCH  34  35
ENDBRANCH  33  34
ENDBRANCH  32  33
ENDBRANCH  31  32
ENDBRANCH   1  31
TORSDOF 25
ENDMDL
