MODEL 1
REMARK VINA RESULT:      -9.7      0.000      0.000
REMARK SMILES C[C@@H]1CCC[C@H](S[C@@H]2CCC[C@]([NH2+]C3CC3)(C(=O)OCCOCCOCCOC(=O)c3ccc(-c4c5nc(c(-c6cccc(S(=O)(=O)[O-])c6F)c6ccc([nH]6)c(-c6cccc(S(=O)(=O)[O-])c6F)c6nc(c(-c7cccc(S(=O)(=O)[O-])c7F)c7ccc4[nH]7)C=C6)C=C5)cc3)C2)C1
REMARK SMILES IDX 24 1 23 2 22 3 21 4 20 5 19 6 17 7 18 8 12 9 8 10 9 11 94 12
REMARK SMILES IDX 10 13 11 14 7 15 6 16 1 17 2 18 3 19 95 20 4 21 5 22 13 23
REMARK SMILES IDX 14 26 15 27 16 28 25 29 26 30 27 31 28 32 29 33 30 34 31 35
REMARK SMILES IDX 32 36 93 37 33 38 92 39 34 40 35 41 36 42 86 43 37 44 91 45
REMARK SMILES IDX 85 46 87 47 38 48 90 49 84 50 83 51 39 53 71 54 51 55 70 56
REMARK SMILES IDX 52 57 55 58 69 59 88 60 53 61 54 62 68 64 89 65 56 66 40 67
REMARK SMILES IDX 41 68 49 69 42 70 44 71 50 72 43 73 45 74 46 75 47 76 48 77
REMARK SMILES IDX 72 78 73 79 81 80 74 81 76 82 82 83 75 84 77 85 78 86 79 87
REMARK SMILES IDX 80 88 57 89 58 90 66 91 59 92 61 93 67 94 60 95 62 96 63 97
REMARK SMILES IDX 64 98 65 99
REMARK H PARENT 13 24 13 25 87 52 55 63
REMARK Flexibility Score: inf
ROOT
ATOM      1  C   UNL A   1      37.055  21.373  25.351  1.00  0.00     0.188 C 
ENDROOT
BRANCH   1   2
ATOM      2  C   UNL A   1      35.668  21.852  25.760  1.00  0.00     0.188 C 
BRANCH   2   3
ATOM      3  O   UNL A   1      35.096  21.396  26.980  1.00  0.00    -0.376 OA
BRANCH   3   4
ATOM      4  C   UNL A   1      33.955  22.066  27.483  1.00  0.00     0.202 C 
BRANCH   4   5
ATOM      5  C   UNL A   1      32.927  22.483  26.424  1.00  0.00     0.261 C 
BRANCH   5   6
ATOM      6  O   UNL A   1      32.287  23.766  26.632  1.00  0.00    -0.459 OA
BRANCH   6   7
ATOM      7  C   UNL A   1      31.128  23.957  25.935  1.00  0.00     0.368 C 
ATOM      8  O   UNL A   1      30.075  23.394  26.224  1.00  0.00    -0.245 OA
BRANCH   7   9
ATOM      9  C   UNL A   1      31.250  24.897  24.682  1.00  0.00     0.195 C 
ATOM     10  C   UNL A   1      32.349  27.255  24.248  1.00  0.00     0.053 C 
ATOM     11  C   UNL A   1      30.967  27.878  24.038  1.00  0.00     0.015 C 
ATOM     12  C   UNL A   1      32.363  25.924  24.995  1.00  0.00     0.095 C 
ATOM     13  C   UNL A   1      29.915  26.834  23.649  1.00  0.00     0.008 C 
ATOM     14  C   UNL A   1      29.896  25.647  24.610  1.00  0.00     0.081 C 
BRANCH  10  15
ATOM     15  S   UNL A   1      33.683  28.441  24.811  1.00  0.00    -0.155 SA
BRANCH  15  16
ATOM     16  C   UNL A   1      33.704  28.703  26.668  1.00  0.00     0.047 C 
ATOM     17  C   UNL A   1      31.538  31.331  26.213  1.00  0.00     0.007 C 
ATOM     18  C   UNL A   1      32.329  30.788  27.402  1.00  0.00    -0.013 C 
ATOM     19  C   UNL A   1      33.667  31.497  27.705  1.00  0.00     0.003 C 
ATOM     20  C   UNL A   1      32.426  29.265  27.320  1.00  0.00     0.017 C 
ATOM     21  C   UNL A   1      34.975  30.798  27.326  1.00  0.00     0.001 C 
ATOM     22  C   UNL A   1      34.927  29.283  27.361  1.00  0.00     0.014 C 
ENDBRANCH  15  16
ENDBRANCH  10  15
BRANCH   9  23
ATOM     23  N   UNL A   1      31.329  24.116  23.428  1.00  0.00    -0.330 N 
ATOM     24  H   UNL A   1      30.587  24.479  22.829  1.00  0.00     0.347 HD
ATOM     25  H   UNL A   1      31.288  23.163  23.791  1.00  0.00     0.347 HD
BRANCH  23  26
ATOM     26  C   UNL A   1      32.513  24.043  22.591  1.00  0.00     0.183 C 
ATOM     27  C   UNL A   1      33.778  23.357  22.986  1.00  0.00     0.071 C 
ATOM     28  C   UNL A   1      32.856  22.679  22.030  1.00  0.00     0.071 C 
ENDBRANCH  23  26
ENDBRANCH   9  23
ENDBRANCH   7   9
ENDBRANCH   6   7
ENDBRANCH   5   6
ENDBRANCH   4   5
ENDBRANCH   3   4
ENDBRANCH   2   3
ENDBRANCH   1   2
BRANCH   1  29
ATOM     29  O   UNL A   1      37.098  19.985  25.034  1.00  0.00    -0.376 OA
BRANCH  29  30
ATOM     30  C   UNL A   1      38.442  19.519  24.895  1.00  0.00     0.202 C 
BRANCH  30  31
ATOM     31  C   UNL A   1      39.382  20.467  25.643  1.00  0.00     0.261 C 
BRANCH  31  32
ATOM     32  O   UNL A   1      40.240  19.792  26.583  1.00  0.00    -0.460 OA
BRANCH  32  33
ATOM     33  C   UNL A   1      41.528  19.617  26.200  1.00  0.00     0.338 C 
ATOM     34  O   UNL A   1      41.993  18.634  25.658  1.00  0.00    -0.246 OA
BRANCH  33  35
ATOM     35  C   UNL A   1      42.253  20.903  26.359  1.00  0.00     0.060 A 
ATOM     36  C   UNL A   1      42.523  21.360  27.656  1.00  0.00     0.016 A 
ATOM     37  C   UNL A   1      42.639  21.667  25.259  1.00  0.00     0.016 A 
ATOM     38  C   UNL A   1      43.140  22.592  27.867  1.00  0.00     0.010 A 
ATOM     39  C   UNL A   1      43.237  22.913  25.467  1.00  0.00     0.010 A 
ATOM     40  C   UNL A   1      43.455  23.398  26.771  1.00  0.00    -0.014 A 
BRANCH  40  41
ATOM     41  C   UNL A   1      43.793  24.826  26.967  1.00  0.00     0.031 A 
ATOM     42  C   UNL A   1      45.213  25.251  26.715  1.00  0.00     0.074 A 
ATOM     43  C   UNL A   1      42.879  25.724  27.375  1.00  0.00     0.049 A 
ATOM     44  N   UNL A   1      45.810  26.376  27.000  1.00  0.00    -0.248 NA
ATOM     45  C   UNL A   1      46.080  24.258  26.055  1.00  0.00     0.031 C 
ATOM     46  C   UNL A   1      41.456  25.456  27.573  1.00  0.00     0.029 A 
ATOM     47  N   UNL A   1      43.028  27.042  27.728  1.00  0.00    -0.354 N 
ATOM     48  C   UNL A   1      47.136  26.204  26.621  1.00  0.00     0.074 A 
ATOM     49  C   UNL A   1      47.253  24.873  26.067  1.00  0.00     0.031 C 
ATOM     50  C   UNL A   1      40.868  26.567  28.050  1.00  0.00     0.029 A 
ATOM     51  C   UNL A   1      41.882  27.601  28.244  1.00  0.00     0.049 A 
ATOM     52  H   UNL A   1      43.872  27.538  27.623  1.00  0.00     0.167 HD
ATOM     53  C   UNL A   1      48.166  27.075  26.733  1.00  0.00     0.034 A 
ATOM     54  C   UNL A   1      41.692  28.792  28.849  1.00  0.00     0.034 A 
ATOM     55  C   UNL A   1      48.031  28.405  27.261  1.00  0.00     0.049 A 
ATOM     56  C   UNL A   1      42.865  29.726  29.013  1.00  0.00     0.074 A 
ATOM     57  C   UNL A   1      49.002  29.378  27.400  1.00  0.00     0.029 A 
ATOM     58  N   UNL A   1      46.849  28.942  27.749  1.00  0.00    -0.354 N 
ATOM     59  N   UNL A   1      44.107  29.573  28.621  1.00  0.00    -0.248 NA
ATOM     60  C   UNL A   1      42.606  31.007  29.688  1.00  0.00     0.031 C 
ATOM     61  C   UNL A   1      48.418  30.490  28.011  1.00  0.00     0.029 A 
ATOM     62  C   UNL A   1      47.069  30.230  28.203  1.00  0.00     0.049 A 
ATOM     63  H   UNL A   1      45.982  28.476  27.769  1.00  0.00     0.167 HD
ATOM     64  C   UNL A   1      44.764  30.754  28.955  1.00  0.00     0.074 A 
ATOM     65  C   UNL A   1      43.781  31.614  29.580  1.00  0.00     0.031 C 
ATOM     66  C   UNL A   1      46.063  31.094  28.764  1.00  0.00     0.034 A 
BRANCH  53  67
ATOM     67  C   UNL A   1      49.530  26.603  26.307  1.00  0.00     0.023 A 
ATOM     68  C   UNL A   1      50.260  25.707  27.114  1.00  0.00     0.012 A 
ATOM     69  C   UNL A   1      50.079  27.034  25.083  1.00  0.00     0.148 A 
ATOM     70  C   UNL A   1      51.531  25.281  26.728  1.00  0.00     0.002 A 
ATOM     71  C   UNL A   1      51.323  26.566  24.682  1.00  0.00     0.091 A 
ATOM     72  F   UNL A   1      49.381  27.906  24.342  1.00  0.00    -0.205 F 
ATOM     73  C   UNL A   1      52.057  25.702  25.510  1.00  0.00     0.022 A 
BRANCH  71  74
ATOM     74  S   UNL A   1      52.050  26.988  23.095  1.00  0.00     0.127 S 
ATOM     75  O   UNL A   1      52.840  25.792  22.805  1.00  0.00    -0.237 OA
ATOM     76  O   UNL A   1      50.866  27.157  22.252  1.00  0.00    -0.237 OA
ATOM     77  O   UNL A   1      52.819  28.205  23.314  1.00  0.00    -0.744 OA
ENDBRANCH  71  74
ENDBRANCH  53  67
BRANCH  54  78
ATOM     78  C   UNL A   1      40.339  29.173  29.346  1.00  0.00     0.023 A 
ATOM     79  C   UNL A   1      39.430  29.800  28.471  1.00  0.00     0.012 A 
ATOM     80  C   UNL A   1      39.946  28.919  30.675  1.00  0.00     0.148 A 
ATOM     81  C   UNL A   1      38.167  30.193  28.918  1.00  0.00     0.002 A 
ATOM     82  C   UNL A   1      38.666  29.261  31.097  1.00  0.00     0.091 A 
ATOM     83  F   UNL A   1      40.830  28.337  31.497  1.00  0.00    -0.205 F 
ATOM     84  C   UNL A   1      37.782  29.915  30.226  1.00  0.00     0.022 A 
BRANCH  82  85
ATOM     85  S   UNL A   1      38.039  28.842  32.728  1.00  0.00     0.127 S 
ATOM     86  O   UNL A   1      36.681  29.376  32.672  1.00  0.00    -0.237 OA
ATOM     87  O   UNL A   1      38.128  27.382  32.714  1.00  0.00    -0.237 OA
ATOM     88  O   UNL A   1      38.933  29.493  33.675  1.00  0.00    -0.744 OA
ENDBRANCH  82  85
ENDBRANCH  54  78
BRANCH  66  89
ATOM     89  C   UNL A   1      46.496  32.483  29.158  1.00  0.00     0.023 A 
ATOM     90  C   UNL A   1      47.092  32.718  30.410  1.00  0.00     0.012 A 
ATOM     91  C   UNL A   1      46.403  33.538  28.226  1.00  0.00     0.148 A 
ATOM     92  C   UNL A   1      47.564  33.988  30.741  1.00  0.00     0.002 A 
ATOM     93  C   UNL A   1      46.925  34.785  28.541  1.00  0.00     0.091 A 
ATOM     94  F   UNL A   1      45.816  33.295  27.044  1.00  0.00    -0.205 F 
ATOM     95  C   UNL A   1      47.494  35.016  29.802  1.00  0.00     0.022 A 
BRANCH  93  96
ATOM     96  S   UNL A   1      46.976  36.135  27.357  1.00  0.00     0.127 S 
ATOM     97  O   UNL A   1      47.319  35.435  26.120  1.00  0.00    -0.237 OA
ATOM     98  O   UNL A   1      45.605  36.643  27.410  1.00  0.00    -0.237 OA
ATOM     99  O   UNL A   1      47.986  37.064  27.846  1.00  0.00    -0.744 OA
ENDBRANCH  93  96
ENDBRANCH  66  89
ENDBRANCH  40  41
ENDBRANCH  33  35
ENDBRANCH  32  33
ENDBRANCH  31  32
ENDBRANCH  30  31
ENDBRANCH  29  30
ENDBRANCH   1  29
TORSDOF 24
ENDMDL
MODEL 2
REMARK VINA RESULT:      -9.4      1.650      1.858
REMARK SMILES C[C@@H]1CCC[C@H](S[C@@H]2CCC[C@]([NH2+]C3CC3)(C(=O)OCCOCCOCCOC(=O)c3ccc(-c4c5nc(c(-c6cccc(S(=O)(=O)[O-])c6F)c6ccc([nH]6)c(-c6cccc(S(=O)(=O)[O-])c6F)c6nc(c(-c7cccc(S(=O)(=O)[O-])c7F)c7ccc4[nH]7)C=C6)C=C5)cc3)C2)C1
REMARK SMILES IDX 24 1 23 2 22 3 21 4 20 5 19 6 17 7 18 8 12 9 8 10 9 11 94 12
REMARK SMILES IDX 10 13 11 14 7 15 6 16 1 17 2 18 3 19 95 20 4 21 5 22 13 23
REMARK SMILES IDX 14 26 15 27 16 28 25 29 26 30 27 31 28 32 29 33 30 34 31 35
REMARK SMILES IDX 32 36 93 37 33 38 92 39 34 40 35 41 36 42 86 43 37 44 91 45
REMARK SMILES IDX 85 46 87 47 38 48 90 49 84 50 83 51 39 53 71 54 51 55 70 56
REMARK SMILES IDX 52 57 55 58 69 59 88 60 53 61 54 62 68 64 89 65 56 66 40 67
REMARK SMILES IDX 41 68 49 69 42 70 44 71 50 72 43 73 45 74 46 75 47 76 48 77
REMARK SMILES IDX 72 78 73 79 81 80 74 81 76 82 82 83 75 84 77 85 78 86 79 87
REMARK SMILES IDX 80 88 57 89 58 90 66 91 59 92 61 93 67 94 60 95 62 96 63 97
REMARK SMILES IDX 64 98 65 99
REMARK H PARENT 13 24 13 25 87 52 55 63
REMARK Flexibility Score: inf
ROOT
ATOM      1  C   UNL A   1      36.147  21.475  25.394  1.00  0.00     0.188 C 
ENDROOT
BRANCH   1   2
ATOM      2  C   UNL A   1      34.755  21.674  25.981  1.00  0.00     0.188 C 
BRANCH   2   3
ATOM      3  O   UNL A   1      34.548  21.500  27.378  1.00  0.00    -0.376 OA
BRANCH   3   4
ATOM      4  C   UNL A   1      33.473  22.187  27.991  1.00  0.00     0.202 C 
BRANCH   4   5
ATOM      5  C   UNL A   1      32.352  22.623  27.040  1.00  0.00     0.261 C 
BRANCH   5   6
ATOM      6  O   UNL A   1      31.774  23.926  27.295  1.00  0.00    -0.459 OA
BRANCH   6   7
ATOM      7  C   UNL A   1      30.660  24.222  26.562  1.00  0.00     0.368 C 
ATOM      8  O   UNL A   1      29.527  23.902  26.910  1.00  0.00    -0.245 OA
BRANCH   7   9
ATOM      9  C   UNL A   1      30.936  24.940  25.192  1.00  0.00     0.195 C 
ATOM     10  C   UNL A   1      32.329  27.061  24.471  1.00  0.00     0.053 C 
ATOM     11  C   UNL A   1      31.041  27.801  24.104  1.00  0.00     0.015 C 
ATOM     12  C   UNL A   1      32.156  25.866  25.405  1.00  0.00     0.095 C 
ATOM     13  C   UNL A   1      29.882  26.840  23.822  1.00  0.00     0.008 C 
ATOM     14  C   UNL A   1      29.687  25.823  24.944  1.00  0.00     0.081 C 
BRANCH  10  15
ATOM     15  S   UNL A   1      33.780  28.155  24.919  1.00  0.00    -0.155 SA
BRANCH  15  16
ATOM     16  C   UNL A   1      33.865  28.557  26.749  1.00  0.00     0.047 C 
ATOM     17  C   UNL A   1      31.548  31.033  26.202  1.00  0.00     0.007 C 
ATOM     18  C   UNL A   1      32.416  30.621  27.390  1.00  0.00    -0.013 C 
ATOM     19  C   UNL A   1      33.727  31.416  27.578  1.00  0.00     0.003 C 
ATOM     20  C   UNL A   1      32.588  29.103  27.416  1.00  0.00     0.017 C 
ATOM     21  C   UNL A   1      35.052  30.755  27.192  1.00  0.00     0.001 C 
ATOM     22  C   UNL A   1      35.085  29.248  27.340  1.00  0.00     0.014 C 
ENDBRANCH  15  16
ENDBRANCH  10  15
BRANCH   9  23
ATOM     23  N   UNL A   1      30.957  23.974  24.071  1.00  0.00    -0.330 N 
ATOM     24  H   UNL A   1      30.074  24.104  23.578  1.00  0.00     0.347 HD
ATOM     25  H   UNL A   1      31.156  23.106  24.568  1.00  0.00     0.347 HD
BRANCH  23  26
ATOM     26  C   UNL A   1      31.983  23.947  23.044  1.00  0.00     0.183 C 
ATOM     27  C   UNL A   1      33.396  23.528  23.281  1.00  0.00     0.071 C 
ATOM     28  C   UNL A   1      32.462  22.577  22.611  1.00  0.00     0.071 C 
ENDBRANCH  23  26
ENDBRANCH   9  23
ENDBRANCH   7   9
ENDBRANCH   6   7
ENDBRANCH   5   6
ENDBRANCH   4   5
ENDBRANCH   3   4
ENDBRANCH   2   3
ENDBRANCH   1   2
BRANCH   1  29
ATOM     29  O   UNL A   1      36.408  20.126  25.016  1.00  0.00    -0.376 OA
BRANCH  29  30
ATOM     30  C   UNL A   1      37.811  19.858  24.962  1.00  0.00     0.202 C 
BRANCH  30  31
ATOM     31  C   UNL A   1      38.574  21.060  25.521  1.00  0.00     0.261 C 
BRANCH  31  32
ATOM     32  O   UNL A   1      39.424  20.726  26.635  1.00  0.00    -0.460 OA
BRANCH  32  33
ATOM     33  C   UNL A   1      40.719  20.456  26.340  1.00  0.00     0.338 C 
ATOM     34  O   UNL A   1      41.144  19.449  25.811  1.00  0.00    -0.246 OA
BRANCH  33  35
ATOM     35  C   UNL A   1      41.528  21.677  26.579  1.00  0.00     0.060 A 
ATOM     36  C   UNL A   1      41.737  22.091  27.903  1.00  0.00     0.016 A 
ATOM     37  C   UNL A   1      42.054  22.426  25.528  1.00  0.00     0.016 A 
ATOM     38  C   UNL A   1      42.430  23.267  28.184  1.00  0.00     0.010 A 
ATOM     39  C   UNL A   1      42.730  23.617  25.805  1.00  0.00     0.010 A 
ATOM     40  C   UNL A   1      42.887  24.062  27.132  1.00  0.00    -0.014 A 
BRANCH  40  41
ATOM     41  C   UNL A   1      43.320  25.456  27.384  1.00  0.00     0.031 A 
ATOM     42  C   UNL A   1      44.780  25.776  27.219  1.00  0.00     0.074 A 
ATOM     43  C   UNL A   1      42.455  26.412  27.764  1.00  0.00     0.049 A 
ATOM     44  N   UNL A   1      45.443  26.846  27.566  1.00  0.00    -0.248 NA
ATOM     45  C   UNL A   1      45.606  24.735  26.581  1.00  0.00     0.031 C 
ATOM     46  C   UNL A   1      41.007  26.249  27.878  1.00  0.00     0.029 A 
ATOM     47  N   UNL A   1      42.683  27.707  28.159  1.00  0.00    -0.354 N 
ATOM     48  C   UNL A   1      46.772  26.581  27.254  1.00  0.00     0.074 A 
ATOM     49  C   UNL A   1      46.819  25.258  26.673  1.00  0.00     0.031 C 
ATOM     50  C   UNL A   1      40.478  27.391  28.351  1.00  0.00     0.029 A 
ATOM     51  C   UNL A   1      41.554  28.340  28.626  1.00  0.00     0.049 A 
ATOM     52  H   UNL A   1      43.566  28.139  28.113  1.00  0.00     0.167 HD
ATOM     53  C   UNL A   1      47.856  27.369  27.444  1.00  0.00     0.034 A 
ATOM     54  C   UNL A   1      41.421  29.528  29.251  1.00  0.00     0.034 A 
ATOM     55  C   UNL A   1      47.792  28.693  27.999  1.00  0.00     0.049 A 
ATOM     56  C   UNL A   1      42.650  30.367  29.503  1.00  0.00     0.074 A 
ATOM     57  C   UNL A   1      48.825  29.586  28.215  1.00  0.00     0.029 A 
ATOM     58  N   UNL A   1      46.628  29.308  28.436  1.00  0.00    -0.354 N 
ATOM     59  N   UNL A   1      43.897  30.127  29.175  1.00  0.00    -0.248 NA
ATOM     60  C   UNL A   1      42.451  31.649  30.196  1.00  0.00     0.031 C 
ATOM     61  C   UNL A   1      48.292  30.726  28.822  1.00  0.00     0.029 A 
ATOM     62  C   UNL A   1      46.919  30.565  28.934  1.00  0.00     0.049 A 
ATOM     63  H   UNL A   1      45.729  28.910  28.397  1.00  0.00     0.167 HD
ATOM     64  C   UNL A   1      44.621  31.247  29.574  1.00  0.00     0.074 A 
ATOM     65  C   UNL A   1      43.673  32.166  30.167  1.00  0.00     0.031 C 
ATOM     66  C   UNL A   1      45.951  31.491  29.463  1.00  0.00     0.034 A 
BRANCH  53  67
ATOM     67  C   UNL A   1      49.203  26.803  27.081  1.00  0.00     0.023 A 
ATOM     68  C   UNL A   1      49.825  25.849  27.911  1.00  0.00     0.012 A 
ATOM     69  C   UNL A   1      49.841  27.204  25.891  1.00  0.00     0.148 A 
ATOM     70  C   UNL A   1      51.080  25.336  27.584  1.00  0.00     0.002 A 
ATOM     71  C   UNL A   1      51.067  26.651  25.546  1.00  0.00     0.091 A 
ATOM     72  F   UNL A   1      49.246  28.130  25.127  1.00  0.00    -0.205 F 
ATOM     73  C   UNL A   1      51.695  25.729  26.399  1.00  0.00     0.022 A 
BRANCH  71  74
ATOM     74  S   UNL A   1      51.901  27.033  24.002  1.00  0.00     0.127 S 
ATOM     75  O   UNL A   1      52.879  25.949  23.919  1.00  0.00    -0.237 OA
ATOM     76  O   UNL A   1      50.808  26.944  23.034  1.00  0.00    -0.237 OA
ATOM     77  O   UNL A   1      52.462  28.367  24.165  1.00  0.00    -0.744 OA
ENDBRANCH  71  74
ENDBRANCH  53  67
BRANCH  54  78
ATOM     78  C   UNL A   1      40.075  30.001  29.684  1.00  0.00     0.023 A 
ATOM     79  C   UNL A   1      39.237  30.651  28.757  1.00  0.00     0.012 A 
ATOM     80  C   UNL A   1      39.618  29.811  31.003  1.00  0.00     0.148 A 
ATOM     81  C   UNL A   1      37.983  31.129  29.142  1.00  0.00     0.002 A 
ATOM     82  C   UNL A   1      38.346  30.238  31.366  1.00  0.00     0.091 A 
ATOM     83  F   UNL A   1      40.437  29.205  31.876  1.00  0.00    -0.205 F 
ATOM     84  C   UNL A   1      37.534  30.914  30.442  1.00  0.00     0.022 A 
BRANCH  82  85
ATOM     85  S   UNL A   1      37.636  29.906  32.982  1.00  0.00     0.127 S 
ATOM     86  O   UNL A   1      38.666  30.430  33.875  1.00  0.00    -0.237 OA
ATOM     87  O   UNL A   1      36.404  30.694  32.932  1.00  0.00    -0.237 OA
ATOM     88  O   UNL A   1      37.430  28.465  33.035  1.00  0.00    -0.744 OA
ENDBRANCH  82  85
ENDBRANCH  54  78
BRANCH  66  89
ATOM     89  C   UNL A   1      46.464  32.834  29.915  1.00  0.00     0.023 A 
ATOM     90  C   UNL A   1      46.494  33.924  29.025  1.00  0.00     0.012 A 
ATOM     91  C   UNL A   1      46.818  33.032  31.266  1.00  0.00     0.148 A 
ATOM     92  C   UNL A   1      46.894  35.186  29.467  1.00  0.00     0.002 A 
ATOM     93  C   UNL A   1      47.162  34.302  31.710  1.00  0.00     0.091 A 
ATOM     94  F   UNL A   1      46.798  31.976  32.093  1.00  0.00    -0.205 F 
ATOM     95  C   UNL A   1      47.214  35.377  30.810  1.00  0.00     0.022 A 
BRANCH  93  96
ATOM     96  S   UNL A   1      47.483  34.663  33.440  1.00  0.00     0.127 S 
ATOM     97  O   UNL A   1      47.885  36.068  33.382  1.00  0.00    -0.237 OA
ATOM     98  O   UNL A   1      46.175  34.427  34.052  1.00  0.00    -0.237 OA
ATOM     99  O   UNL A   1      48.525  33.736  33.860  1.00  0.00    -0.744 OA
ENDBRANCH  93  96
ENDBRANCH  66  89
ENDBRANCH  40  41
ENDBRANCH  33  35
ENDBRANCH  32  33
ENDBRANCH  31  32
ENDBRANCH  30  31
ENDBRANCH  29  30
ENDBRANCH   1  29
TORSDOF 24
ENDMDL
MODEL 3
REMARK VINA RESULT:      -9.4      4.091      6.361
REMARK SMILES C[C@@H]1CCC[C@H](S[C@@H]2CCC[C@]([NH2+]C3CC3)(C(=O)OCCOCCOCCOC(=O)c3ccc(-c4c5nc(c(-c6cccc(S(=O)(=O)[O-])c6F)c6ccc([nH]6)c(-c6cccc(S(=O)(=O)[O-])c6F)c6nc(c(-c7cccc(S(=O)(=O)[O-])c7F)c7ccc4[nH]7)C=C6)C=C5)cc3)C2)C1
REMARK SMILES IDX 24 1 23 2 22 3 21 4 20 5 19 6 17 7 18 8 12 9 8 10 9 11 94 12
REMARK SMILES IDX 10 13 11 14 7 15 6 16 1 17 2 18 3 19 95 20 4 21 5 22 13 23
REMARK SMILES IDX 14 26 15 27 16 28 25 29 26 30 27 31 28 32 29 33 30 34 31 35
REMARK SMILES IDX 32 36 93 37 33 38 92 39 34 40 35 41 36 42 86 43 37 44 91 45
REMARK SMILES IDX 85 46 87 47 38 48 90 49 84 50 83 51 39 53 71 54 51 55 70 56
REMARK SMILES IDX 52 57 55 58 69 59 88 60 53 61 54 62 68 64 89 65 56 66 40 67
REMARK SMILES IDX 41 68 49 69 42 70 44 71 50 72 43 73 45 74 46 75 47 76 48 77
REMARK SMILES IDX 72 78 73 79 81 80 74 81 76 82 82 83 75 84 77 85 78 86 79 87
REMARK SMILES IDX 80 88 57 89 58 90 66 91 59 92 61 93 67 94 60 95 62 96 63 97
REMARK SMILES IDX 64 98 65 99
REMARK H PARENT 13 24 13 25 87 52 55 63
REMARK Flexibility Score: inf
ROOT
ATOM      1  C   UNL A   1      35.281  23.510  23.415  1.00  0.00     0.188 C 
ENDROOT
BRANCH   1   2
ATOM      2  C   UNL A   1      34.274  23.940  22.355  1.00  0.00     0.188 C 
BRANCH   2   3
ATOM      3  O   UNL A   1      33.905  25.310  22.250  1.00  0.00    -0.376 OA
BRANCH   3   4
ATOM      4  C   UNL A   1      32.907  25.669  21.312  1.00  0.00     0.202 C 
BRANCH   4   5
ATOM      5  C   UNL A   1      31.582  26.144  21.922  1.00  0.00     0.261 C 
BRANCH   5   6
ATOM      6  O   UNL A   1      30.749  25.117  22.512  1.00  0.00    -0.459 OA
BRANCH   6   7
ATOM      7  C   UNL A   1      30.467  25.288  23.838  1.00  0.00     0.368 C 
ATOM      8  O   UNL A   1      29.574  26.027  24.240  1.00  0.00    -0.245 OA
BRANCH   7   9
ATOM      9  C   UNL A   1      31.421  24.525  24.826  1.00  0.00     0.195 C 
ATOM     10  C   UNL A   1      32.063  21.991  25.179  1.00  0.00     0.053 C 
ATOM     11  C   UNL A   1      31.363  21.987  26.540  1.00  0.00     0.015 C 
ATOM     12  C   UNL A   1      31.653  23.115  24.232  1.00  0.00     0.095 C 
ATOM     13  C   UNL A   1      31.230  23.396  27.126  1.00  0.00     0.008 C 
ATOM     14  C   UNL A   1      30.607  24.378  26.136  1.00  0.00     0.081 C 
BRANCH  10  15
ATOM     15  S   UNL A   1      32.194  20.321  24.342  1.00  0.00    -0.155 SA
BRANCH  15  16
ATOM     16  C   UNL A   1      33.345  19.137  25.232  1.00  0.00     0.047 C 
ATOM     17  C   UNL A   1      33.625  17.374  22.297  1.00  0.00     0.007 C 
ATOM     18  C   UNL A   1      34.075  17.136  23.738  1.00  0.00    -0.013 C 
ATOM     19  C   UNL A   1      33.159  16.232  24.592  1.00  0.00     0.003 C 
ATOM     20  C   UNL A   1      34.451  18.461  24.400  1.00  0.00     0.017 C 
ATOM     21  C   UNL A   1      32.261  16.881  25.648  1.00  0.00     0.001 C 
ATOM     22  C   UNL A   1      32.809  18.154  26.262  1.00  0.00     0.014 C 
ENDBRANCH  15  16
ENDBRANCH  10  15
BRANCH   9  23
ATOM     23  N   UNL A   1      32.594  25.350  25.188  1.00  0.00    -0.330 N 
ATOM     24  H   UNL A   1      33.211  25.326  24.376  1.00  0.00     0.347 HD
ATOM     25  H   UNL A   1      32.872  24.916  26.069  1.00  0.00     0.347 HD
BRANCH  23  26
ATOM     26  C   UNL A   1      32.514  26.746  25.581  1.00  0.00     0.183 C 
ATOM     27  C   UNL A   1      33.578  27.466  26.340  1.00  0.00     0.071 C 
ATOM     28  C   UNL A   1      33.454  27.698  24.872  1.00  0.00     0.071 C 
ENDBRANCH  23  26
ENDBRANCH   9  23
ENDBRANCH   7   9
ENDBRANCH   6   7
ENDBRANCH   5   6
ENDBRANCH   4   5
ENDBRANCH   3   4
ENDBRANCH   2   3
ENDBRANCH   1   2
BRANCH   1  29
ATOM     29  O   UNL A   1      35.147  22.142  23.793  1.00  0.00    -0.376 OA
BRANCH  29  30
ATOM     30  C   UNL A   1      35.991  21.819  24.900  1.00  0.00     0.202 C 
BRANCH  30  31
ATOM     31  C   UNL A   1      37.336  22.527  24.730  1.00  0.00     0.261 C 
BRANCH  31  32
ATOM     32  O   UNL A   1      37.740  23.268  25.898  1.00  0.00    -0.460 OA
BRANCH  32  33
ATOM     33  C   UNL A   1      38.945  22.943  26.426  1.00  0.00     0.338 C 
ATOM     34  O   UNL A   1      39.463  21.845  26.421  1.00  0.00    -0.246 OA
BRANCH  33  35
ATOM     35  C   UNL A   1      39.638  24.190  26.838  1.00  0.00     0.060 A 
ATOM     36  C   UNL A   1      39.711  24.492  28.205  1.00  0.00     0.016 A 
ATOM     37  C   UNL A   1      40.184  25.067  25.903  1.00  0.00     0.016 A 
ATOM     38  C   UNL A   1      40.289  25.681  28.646  1.00  0.00     0.010 A 
ATOM     39  C   UNL A   1      40.744  26.272  26.340  1.00  0.00     0.010 A 
ATOM     40  C   UNL A   1      40.764  26.601  27.709  1.00  0.00    -0.014 A 
BRANCH  40  41
ATOM     41  C   UNL A   1      41.069  27.992  28.117  1.00  0.00     0.031 A 
ATOM     42  C   UNL A   1      42.509  28.422  28.115  1.00  0.00     0.074 A 
ATOM     43  C   UNL A   1      40.105  28.849  28.496  1.00  0.00     0.049 A 
ATOM     44  N   UNL A   1      43.058  29.497  28.611  1.00  0.00    -0.248 NA
ATOM     45  C   UNL A   1      43.462  27.501  27.470  1.00  0.00     0.031 C 
ATOM     46  C   UNL A   1      38.669  28.580  28.462  1.00  0.00     0.029 A 
ATOM     47  N   UNL A   1      40.201  30.114  29.018  1.00  0.00    -0.354 N 
ATOM     48  C   UNL A   1      44.425  29.352  28.401  1.00  0.00     0.074 A 
ATOM     49  C   UNL A   1      44.620  28.093  27.717  1.00  0.00     0.031 C 
ATOM     50  C   UNL A   1      38.017  29.636  28.979  1.00  0.00     0.029 A 
ATOM     51  C   UNL A   1      38.992  30.626  29.432  1.00  0.00     0.049 A 
ATOM     52  H   UNL A   1      41.050  30.607  29.091  1.00  0.00     0.167 HD
ATOM     53  C   UNL A   1      45.427  30.190  28.757  1.00  0.00     0.034 A 
ATOM     54  C   UNL A   1      38.718  31.741  30.140  1.00  0.00     0.034 A 
ATOM     55  C   UNL A   1      45.217  31.450  29.413  1.00  0.00     0.049 A 
ATOM     56  C   UNL A   1      39.854  32.633  30.575  1.00  0.00     0.074 A 
ATOM     57  C   UNL A   1      46.158  32.387  29.799  1.00  0.00     0.029 A 
ATOM     58  N   UNL A   1      43.977  31.944  29.793  1.00  0.00    -0.354 N 
ATOM     59  N   UNL A   1      41.139  32.508  30.344  1.00  0.00    -0.248 NA
ATOM     60  C   UNL A   1      39.501  33.830  31.353  1.00  0.00     0.031 C 
ATOM     61  C   UNL A   1      45.491  33.428  30.449  1.00  0.00     0.029 A 
ATOM     62  C   UNL A   1      44.130  33.167  30.420  1.00  0.00     0.049 A 
ATOM     63  H   UNL A   1      43.117  31.492  29.637  1.00  0.00     0.167 HD
ATOM     64  C   UNL A   1      41.741  33.633  30.901  1.00  0.00     0.074 A 
ATOM     65  C   UNL A   1      40.679  34.428  31.480  1.00  0.00     0.031 C 
ATOM     66  C   UNL A   1      43.053  33.974  30.934  1.00  0.00     0.034 A 
BRANCH  53  67
ATOM     67  C   UNL A   1      46.838  29.751  28.472  1.00  0.00     0.023 A 
ATOM     68  C   UNL A   1      47.512  30.213  27.324  1.00  0.00     0.012 A 
ATOM     69  C   UNL A   1      47.508  28.894  29.367  1.00  0.00     0.148 A 
ATOM     70  C   UNL A   1      48.815  29.796  27.050  1.00  0.00     0.002 A 
ATOM     71  C   UNL A   1      48.822  28.523  29.114  1.00  0.00     0.091 A 
ATOM     72  F   UNL A   1      46.843  28.445  30.440  1.00  0.00    -0.205 F 
ATOM     73  C   UNL A   1      49.472  28.960  27.949  1.00  0.00     0.022 A 
BRANCH  71  74
ATOM     74  S   UNL A   1      49.778  27.514  30.251  1.00  0.00     0.127 S 
ATOM     75  O   UNL A   1      49.731  28.318  31.471  1.00  0.00    -0.237 OA
ATOM     76  O   UNL A   1      48.992  26.281  30.302  1.00  0.00    -0.237 OA
ATOM     77  O   UNL A   1      51.097  27.369  29.651  1.00  0.00    -0.744 OA
ENDBRANCH  71  74
ENDBRANCH  53  67
BRANCH  54  78
ATOM     78  C   UNL A   1      37.308  32.081  30.487  1.00  0.00     0.023 A 
ATOM     79  C   UNL A   1      36.804  31.738  31.756  1.00  0.00     0.012 A 
ATOM     80  C   UNL A   1      36.465  32.742  29.571  1.00  0.00     0.148 A 
ATOM     81  C   UNL A   1      35.479  32.019  32.097  1.00  0.00     0.002 A 
ATOM     82  C   UNL A   1      35.165  33.070  29.937  1.00  0.00     0.091 A 
ATOM     83  F   UNL A   1      36.958  33.045  28.361  1.00  0.00    -0.205 F 
ATOM     84  C   UNL A   1      34.664  32.694  31.192  1.00  0.00     0.022 A 
BRANCH  82  85
ATOM     85  S   UNL A   1      34.076  34.037  28.884  1.00  0.00     0.127 S 
ATOM     86  O   UNL A   1      33.104  34.547  29.848  1.00  0.00    -0.237 OA
ATOM     87  O   UNL A   1      34.997  35.040  28.347  1.00  0.00    -0.237 OA
ATOM     88  O   UNL A   1      33.552  33.106  27.895  1.00  0.00    -0.744 OA
ENDBRANCH  82  85
ENDBRANCH  54  78
BRANCH  66  89
ATOM     89  C   UNL A   1      43.424  35.301  31.544  1.00  0.00     0.023 A 
ATOM     90  C   UNL A   1      43.697  36.413  30.725  1.00  0.00     0.012 A 
ATOM     91  C   UNL A   1      43.395  35.464  32.945  1.00  0.00     0.148 A 
ATOM     92  C   UNL A   1      43.963  37.660  31.292  1.00  0.00     0.002 A 
ATOM     93  C   UNL A   1      43.605  36.719  33.499  1.00  0.00     0.091 A 
ATOM     94  F   UNL A   1      43.148  34.387  33.707  1.00  0.00    -0.205 F 
ATOM     95  C   UNL A   1      43.902  37.815  32.675  1.00  0.00     0.022 A 
BRANCH  93  96
ATOM     96  S   UNL A   1      43.440  37.035  35.260  1.00  0.00     0.127 S 
ATOM     97  O   UNL A   1      42.032  36.713  35.490  1.00  0.00    -0.237 OA
ATOM     98  O   UNL A   1      44.387  36.080  35.834  1.00  0.00    -0.237 OA
ATOM     99  O   UNL A   1      43.796  38.435  35.454  1.00  0.00    -0.744 OA
ENDBRANCH  93  96
ENDBRANCH  66  89
ENDBRANCH  40  41
ENDBRANCH  33  35
ENDBRANCH  32  33
ENDBRANCH  31  32
ENDBRANCH  30  31
ENDBRANCH  29  30
ENDBRANCH   1  29
TORSDOF 24
ENDMDL
