MODEL 1
REMARK VINA RESULT:     -10.5      0.000      0.000
REMARK SMILES Cc1ccccc1NC(=O)CSc1nc(C(=O)OCCOCCOCCOC(=O)c2ccc(-c3c4nc(c(-c5cccc(S(=O)(=O)[O-])c5F)c5ccc([nH]5)c(-c5cccc(S(=O)(=O)[O-])c5F)c5nc(c(-c6cccc(S(=O)(=O)[O-])c6F)c6ccc3[nH]6)C=C5)C=C4)cc2)c2ccccc2n1
REMARK SMILES IDX 22 1 21 2 20 3 19 4 18 5 16 6 17 7 15 8 13 9 14 10 99 11
REMARK SMILES IDX 98 12 93 13 97 14 94 15 96 16 95 17 12 18 11 19 9 20 8 21
REMARK SMILES IDX 10 23 7 24 1 25 2 26 3 27 4 28 6 29 5 30 23 31 24 32 25 33
REMARK SMILES IDX 26 34 27 35 28 36 29 37 30 38 31 39 92 40 32 41 91 42 33 43
REMARK SMILES IDX 34 44 35 45 85 46 36 47 90 48 84 49 86 50 37 51 89 52 83 53
REMARK SMILES IDX 82 54 38 56 70 57 50 58 69 59 51 60 54 61 68 62 87 63 52 64
REMARK SMILES IDX 53 65 67 67 88 68 55 69 39 70 40 71 48 72 41 73 43 74 49 75
REMARK SMILES IDX 42 76 44 77 45 78 46 79 47 80 71 81 72 82 80 83 73 84 75 85
REMARK SMILES IDX 81 86 74 87 76 88 77 89 78 90 79 91 56 92 57 93 65 94 58 95
REMARK SMILES IDX 60 96 66 97 59 98 61 99 62 100 63 101 64 102
REMARK H PARENT 8 22 86 55 54 66
REMARK Flexibility Score: inf
ROOT
ATOM      1  C   UNL A   1      43.735  24.712  25.168  1.00  0.00     0.188 C 
ENDROOT
BRANCH   1   2
ATOM      2  O   UNL A   1      44.008  26.095  25.484  1.00  0.00    -0.376 OA
BRANCH   2   3
ATOM      3  C   UNL A   1      43.049  27.158  25.707  1.00  0.00     0.202 C 
BRANCH   3   4
ATOM      4  C   UNL A   1      41.328  27.112  25.969  1.00  0.00     0.261 C 
BRANCH   4   5
ATOM      5  O   UNL A   1      40.177  28.333  26.593  1.00  0.00    -0.458 OA
BRANCH   5   6
ATOM      6  C   UNL A   1      39.789  29.009  27.861  1.00  0.00     0.357 C 
ATOM      7  O   UNL A   1      40.505  29.611  28.664  1.00  0.00    -0.244 OA
BRANCH   6   8
ATOM      8  C   UNL A   1      38.439  29.170  28.455  1.00  0.00     0.160 A 
ATOM      9  C   UNL A   1      36.877  30.894  28.703  1.00  0.00     0.189 A 
ATOM     10  N   UNL A   1      37.677  30.196  27.895  1.00  0.00    -0.215 NA
ATOM     11  N   UNL A   1      36.696  30.562  29.992  1.00  0.00    -0.222 NA
ATOM     12  C   UNL A   1      37.403  29.544  30.497  1.00  0.00     0.076 A 
ATOM     13  C   UNL A   1      38.334  28.799  29.771  1.00  0.00     0.034 A 
ATOM     14  C   UNL A   1      37.232  29.219  31.829  1.00  0.00     0.029 A 
ATOM     15  C   UNL A   1      39.139  27.821  30.383  1.00  0.00     0.013 A 
ATOM     16  C   UNL A   1      37.980  28.204  32.435  1.00  0.00     0.002 A 
ATOM     17  C   UNL A   1      38.949  27.518  31.716  1.00  0.00     0.001 A 
BRANCH   9  18
ATOM     18  S   UNL A   1      35.716  32.121  28.136  1.00  0.00    -0.076 SA
BRANCH  18  19
ATOM     19  C   UNL A   1      34.565  32.510  29.510  1.00  0.00     0.178 C 
BRANCH  19  20
ATOM     20  C   UNL A   1      34.658  33.934  30.067  1.00  0.00     0.234 C 
ATOM     21  N   UNL A   1      35.580  34.368  30.982  1.00  0.00    -0.325 N 
ATOM     22  H   UNL A   1      35.551  35.340  31.139  1.00  0.00     0.169 HD
ATOM     23  O   UNL A   1      33.829  34.793  29.732  1.00  0.00    -0.274 OA
BRANCH  21  24
ATOM     24  C   UNL A   1      36.557  33.707  31.742  1.00  0.00     0.044 A 
ATOM     25  C   UNL A   1      38.360  34.318  30.002  1.00  0.00     0.046 C 
ATOM     26  C   UNL A   1      37.885  33.656  31.270  1.00  0.00    -0.027 A 
ATOM     27  C   UNL A   1      38.832  32.893  31.981  1.00  0.00     0.005 A 
ATOM     28  C   UNL A   1      38.485  32.235  33.158  1.00  0.00     0.000 A 
ATOM     29  C   UNL A   1      36.244  33.114  32.970  1.00  0.00     0.026 A 
ATOM     30  C   UNL A   1      37.199  32.370  33.667  1.00  0.00     0.002 A 
ENDBRANCH  21  24
ENDBRANCH  19  20
ENDBRANCH  18  19
ENDBRANCH   9  18
ENDBRANCH   6   8
ENDBRANCH   5   6
ENDBRANCH   4   5
ENDBRANCH   3   4
ENDBRANCH   2   3
ENDBRANCH   1   2
BRANCH   1  31
ATOM     31  C   UNL A   1      44.794  23.690  24.797  1.00  0.00     0.188 C 
BRANCH  31  32
ATOM     32  O   UNL A   1      44.747  22.590  25.673  1.00  0.00    -0.376 OA
BRANCH  32  33
ATOM     33  C   UNL A   1      44.072  21.452  25.183  1.00  0.00     0.202 C 
BRANCH  33  34
ATOM     34  C   UNL A   1      42.928  20.943  26.084  1.00  0.00     0.261 C 
BRANCH  34  35
ATOM     35  O   UNL A   1      42.096  22.024  26.571  1.00  0.00    -0.460 OA
BRANCH  35  36
ATOM     36  C   UNL A   1      41.748  22.003  27.921  1.00  0.00     0.338 C 
ATOM     37  O   UNL A   1      40.841  21.347  28.351  1.00  0.00    -0.246 OA
BRANCH  36  38
ATOM     38  C   UNL A   1      42.545  23.069  28.649  1.00  0.00     0.060 A 
ATOM     39  C   UNL A   1      42.424  24.470  28.615  1.00  0.00     0.016 A 
ATOM     40  C   UNL A   1      43.717  22.629  29.118  1.00  0.00     0.016 A 
ATOM     41  C   UNL A   1      43.565  25.394  28.842  1.00  0.00     0.010 A 
ATOM     42  C   UNL A   1      44.776  23.504  28.958  1.00  0.00     0.010 A 
ATOM     43  C   UNL A   1      44.877  24.932  28.956  1.00  0.00    -0.014 A 
BRANCH  43  44
ATOM     44  C   UNL A   1      46.353  25.818  29.103  1.00  0.00     0.031 A 
ATOM     45  C   UNL A   1      47.857  25.803  28.192  1.00  0.00     0.074 A 
ATOM     46  C   UNL A   1      46.419  26.712  30.109  1.00  0.00     0.049 A 
ATOM     47  N   UNL A   1      49.065  25.740  28.717  1.00  0.00    -0.248 NA
ATOM     48  C   UNL A   1      48.066  25.637  26.671  1.00  0.00     0.031 C 
ATOM     49  C   UNL A   1      47.446  27.709  30.401  1.00  0.00     0.029 A 
ATOM     50  N   UNL A   1      45.516  26.873  31.159  1.00  0.00    -0.354 N 
ATOM     51  C   UNL A   1      49.976  25.585  27.639  1.00  0.00     0.074 A 
ATOM     52  C   UNL A   1      49.249  25.077  26.564  1.00  0.00     0.031 C 
ATOM     53  C   UNL A   1      47.300  28.093  31.684  1.00  0.00     0.029 A 
ATOM     54  C   UNL A   1      46.275  27.239  32.268  1.00  0.00     0.049 A 
ATOM     55  H   UNL A   1      44.540  26.753  31.122  1.00  0.00     0.167 HD
ATOM     56  C   UNL A   1      51.162  26.250  27.514  1.00  0.00     0.034 A 
ATOM     57  C   UNL A   1      46.396  26.333  33.280  1.00  0.00     0.034 A 
ATOM     58  C   UNL A   1      51.422  26.872  28.797  1.00  0.00     0.049 A 
ATOM     59  C   UNL A   1      47.849  25.939  33.453  1.00  0.00     0.074 A 
ATOM     60  C   UNL A   1      51.119  28.116  29.319  1.00  0.00     0.029 A 
ATOM     61  N   UNL A   1      51.579  26.016  29.875  1.00  0.00    -0.354 N 
ATOM     62  N   UNL A   1      48.795  26.233  32.592  1.00  0.00    -0.248 NA
ATOM     63  C   UNL A   1      48.379  25.282  34.638  1.00  0.00     0.031 C 
ATOM     64  C   UNL A   1      50.921  27.942  30.726  1.00  0.00     0.029 A 
ATOM     65  C   UNL A   1      51.162  26.615  31.055  1.00  0.00     0.049 A 
ATOM     66  H   UNL A   1      51.938  25.101  29.813  1.00  0.00     0.167 HD
ATOM     67  C   UNL A   1      50.002  25.769  33.028  1.00  0.00     0.074 A 
ATOM     68  C   UNL A   1      49.693  25.242  34.349  1.00  0.00     0.031 C 
ATOM     69  C   UNL A   1      51.148  25.808  32.276  1.00  0.00     0.034 A 
BRANCH  56  70
ATOM     70  C   UNL A   1      51.823  26.622  26.143  1.00  0.00     0.023 A 
ATOM     71  C   UNL A   1      53.013  25.939  25.821  1.00  0.00     0.012 A 
ATOM     72  C   UNL A   1      51.446  27.620  25.179  1.00  0.00     0.148 A 
ATOM     73  C   UNL A   1      53.809  26.267  24.705  1.00  0.00     0.002 A 
ATOM     74  C   UNL A   1      52.286  28.012  24.119  1.00  0.00     0.091 A 
ATOM     75  F   UNL A   1      50.217  28.137  25.167  1.00  0.00    -0.205 F 
ATOM     76  C   UNL A   1      53.471  27.329  23.877  1.00  0.00     0.022 A 
BRANCH  74  77
ATOM     77  S   UNL A   1      51.940  29.448  23.062  1.00  0.00     0.127 S 
ATOM     78  O   UNL A   1      53.181  29.580  22.294  1.00  0.00    -0.237 OA
ATOM     79  O   UNL A   1      50.792  29.001  22.277  1.00  0.00    -0.237 OA
ATOM     80  O   UNL A   1      51.693  30.567  23.965  1.00  0.00    -0.744 OA
ENDBRANCH  74  77
ENDBRANCH  56  70
BRANCH  57  81
ATOM     81  C   UNL A   1      45.105  25.576  33.548  1.00  0.00     0.023 A 
ATOM     82  C   UNL A   1      45.136  24.187  33.211  1.00  0.00     0.012 A 
ATOM     83  C   UNL A   1      44.016  26.008  34.332  1.00  0.00     0.148 A 
ATOM     84  C   UNL A   1      44.251  23.254  33.761  1.00  0.00     0.002 A 
ATOM     85  C   UNL A   1      43.085  25.067  34.829  1.00  0.00     0.091 A 
ATOM     86  F   UNL A   1      43.907  27.309  34.633  1.00  0.00    -0.205 F 
ATOM     87  C   UNL A   1      43.242  23.691  34.598  1.00  0.00     0.022 A 
BRANCH  85  88
ATOM     88  S   UNL A   1      41.675  25.546  35.853  1.00  0.00     0.127 S 
ATOM     89  O   UNL A   1      42.325  26.180  36.995  1.00  0.00    -0.237 OA
ATOM     90  O   UNL A   1      40.932  26.474  34.998  1.00  0.00    -0.237 OA
ATOM     91  O   UNL A   1      40.979  24.299  36.115  1.00  0.00    -0.744 OA
ENDBRANCH  85  88
ENDBRANCH  57  81
BRANCH  69  92
ATOM     92  C   UNL A   1      52.384  24.983  32.598  1.00  0.00     0.023 A 
ATOM     93  C   UNL A   1      53.583  25.583  33.021  1.00  0.00     0.012 A 
ATOM     94  C   UNL A   1      52.313  23.569  32.703  1.00  0.00     0.148 A 
ATOM     95  C   UNL A   1      54.683  24.830  33.436  1.00  0.00     0.002 A 
ATOM     96  C   UNL A   1      53.345  22.843  33.286  1.00  0.00     0.091 A 
ATOM     97  F   UNL A   1      51.236  22.908  32.250  1.00  0.00    -0.205 F 
ATOM     98  C   UNL A   1      54.555  23.459  33.601  1.00  0.00     0.022 A 
BRANCH  96  99
ATOM     99  S   UNL A   1      53.045  21.167  33.870  1.00  0.00     0.127 S 
ATOM    100  O   UNL A   1      51.830  21.325  34.663  1.00  0.00    -0.237 OA
ATOM    101  O   UNL A   1      52.865  20.419  32.625  1.00  0.00    -0.237 OA
ATOM    102  O   UNL A   1      54.257  20.818  34.601  1.00  0.00    -0.744 OA
ENDBRANCH  96  99
ENDBRANCH  69  92
ENDBRANCH  43  44
ENDBRANCH  36  38
ENDBRANCH  35  36
ENDBRANCH  34  35
ENDBRANCH  33  34
ENDBRANCH  32  33
ENDBRANCH  31  32
ENDBRANCH   1  31
TORSDOF 24
ENDMDL
MODEL 2
REMARK VINA RESULT:     -10.0      4.181      6.233
REMARK SMILES Cc1ccccc1NC(=O)CSc1nc(C(=O)OCCOCCOCCOC(=O)c2ccc(-c3c4nc(c(-c5cccc(S(=O)(=O)[O-])c5F)c5ccc([nH]5)c(-c5cccc(S(=O)(=O)[O-])c5F)c5nc(c(-c6cccc(S(=O)(=O)[O-])c6F)c6ccc3[nH]6)C=C5)C=C4)cc2)c2ccccc2n1
REMARK SMILES IDX 22 1 21 2 20 3 19 4 18 5 16 6 17 7 15 8 13 9 14 10 99 11
REMARK SMILES IDX 98 12 93 13 97 14 94 15 96 16 95 17 12 18 11 19 9 20 8 21
REMARK SMILES IDX 10 23 7 24 1 25 2 26 3 27 4 28 6 29 5 30 23 31 24 32 25 33
REMARK SMILES IDX 26 34 27 35 28 36 29 37 30 38 31 39 92 40 32 41 91 42 33 43
REMARK SMILES IDX 34 44 35 45 85 46 36 47 90 48 84 49 86 50 37 51 89 52 83 53
REMARK SMILES IDX 82 54 38 56 70 57 50 58 69 59 51 60 54 61 68 62 87 63 52 64
REMARK SMILES IDX 53 65 67 67 88 68 55 69 39 70 40 71 48 72 41 73 43 74 49 75
REMARK SMILES IDX 42 76 44 77 45 78 46 79 47 80 71 81 72 82 80 83 73 84 75 85
REMARK SMILES IDX 81 86 74 87 76 88 77 89 78 90 79 91 56 92 57 93 65 94 58 95
REMARK SMILES IDX 60 96 66 97 59 98 61 99 62 100 63 101 64 102
REMARK H PARENT 8 22 86 55 54 66
REMARK Flexibility Score: inf
ROOT
ATOM      1  C   UNL A   1      38.611  29.534  28.431  1.00  0.00     0.188 C 
ENDROOT
BRANCH   1   2
ATOM      2  O   UNL A   1      37.305  29.027  28.787  1.00  0.00    -0.376 OA
BRANCH   2   3
ATOM      3  C   UNL A   1      36.021  29.655  28.562  1.00  0.00     0.202 C 
BRANCH   3   4
ATOM      4  C   UNL A   1      34.891  29.516  27.244  1.00  0.00     0.261 C 
BRANCH   4   5
ATOM      5  O   UNL A   1      33.664  28.276  26.843  1.00  0.00    -0.458 OA
BRANCH   5   6
ATOM      6  C   UNL A   1      32.266  27.887  27.177  1.00  0.00     0.357 C 
ATOM      7  O   UNL A   1      31.577  28.236  28.139  1.00  0.00    -0.244 OA
BRANCH   6   8
ATOM      8  C   UNL A   1      31.334  27.019  26.416  1.00  0.00     0.160 A 
ATOM      9  C   UNL A   1      31.105  24.734  25.973  1.00  0.00     0.189 A 
ATOM     10  N   UNL A   1      31.259  25.703  26.876  1.00  0.00    -0.215 NA
ATOM     11  N   UNL A   1      30.900  24.993  24.672  1.00  0.00    -0.222 NA
ATOM     12  C   UNL A   1      30.929  26.266  24.260  1.00  0.00     0.076 A 
ATOM     13  C   UNL A   1      31.170  27.356  25.097  1.00  0.00     0.034 A 
ATOM     14  C   UNL A   1      30.740  26.529  22.916  1.00  0.00     0.029 A 
ATOM     15  C   UNL A   1      31.312  28.662  24.592  1.00  0.00     0.013 A 
ATOM     16  C   UNL A   1      30.815  27.831  22.409  1.00  0.00     0.002 A 
ATOM     17  C   UNL A   1      31.121  28.896  23.245  1.00  0.00     0.001 A 
BRANCH   9  18
ATOM     18  S   UNL A   1      30.825  23.023  26.389  1.00  0.00    -0.076 SA
BRANCH  18  19
ATOM     19  C   UNL A   1      32.451  22.188  26.538  1.00  0.00     0.178 C 
BRANCH  19  20
ATOM     20  C   UNL A   1      32.688  21.026  25.569  1.00  0.00     0.234 C 
ATOM     21  N   UNL A   1      33.840  20.807  24.862  1.00  0.00    -0.325 N 
ATOM     22  H   UNL A   1      33.846  19.951  24.374  1.00  0.00     0.169 HD
ATOM     23  O   UNL A   1      31.782  20.213  25.332  1.00  0.00    -0.274 OA
BRANCH  21  24
ATOM     24  C   UNL A   1      35.014  21.555  24.691  1.00  0.00     0.044 A 
ATOM     25  C   UNL A   1      33.858  23.012  22.905  1.00  0.00     0.046 C 
ATOM     26  C   UNL A   1      35.041  22.597  23.741  1.00  0.00    -0.027 A 
ATOM     27  C   UNL A   1      36.256  23.265  23.496  1.00  0.00     0.005 A 
ATOM     28  C   UNL A   1      37.409  22.943  24.210  1.00  0.00     0.000 A 
ATOM     29  C   UNL A   1      36.155  21.303  25.461  1.00  0.00     0.026 A 
ATOM     30  C   UNL A   1      37.349  21.983  25.212  1.00  0.00     0.002 A 
ENDBRANCH  21  24
ENDBRANCH  19  20
ENDBRANCH  18  19
ENDBRANCH   9  18
ENDBRANCH   6   8
ENDBRANCH   5   6
ENDBRANCH   4   5
ENDBRANCH   3   4
ENDBRANCH   2   3
ENDBRANCH   1   2
BRANCH   1  31
ATOM     31  C   UNL A   1      39.460  28.999  27.293  1.00  0.00     0.188 C 
BRANCH  31  32
ATOM     32  O   UNL A   1      39.202  27.632  27.083  1.00  0.00    -0.376 OA
BRANCH  32  33
ATOM     33  C   UNL A   1      40.098  26.741  27.710  1.00  0.00     0.202 C 
BRANCH  33  34
ATOM     34  C   UNL A   1      39.451  25.448  28.248  1.00  0.00     0.261 C 
BRANCH  34  35
ATOM     35  O   UNL A   1      40.435  24.526  28.777  1.00  0.00    -0.460 OA
BRANCH  35  36
ATOM     36  C   UNL A   1      41.059  23.669  27.872  1.00  0.00     0.338 C 
ATOM     37  O   UNL A   1      40.452  22.974  27.106  1.00  0.00    -0.246 OA
BRANCH  36  38
ATOM     38  C   UNL A   1      42.544  23.629  28.180  1.00  0.00     0.060 A 
ATOM     39  C   UNL A   1      43.209  23.422  29.402  1.00  0.00     0.016 A 
ATOM     40  C   UNL A   1      43.299  24.190  27.230  1.00  0.00     0.016 A 
ATOM     41  C   UNL A   1      44.548  23.988  29.709  1.00  0.00     0.010 A 
ATOM     42  C   UNL A   1      44.342  24.970  27.697  1.00  0.00     0.010 A 
ATOM     43  C   UNL A   1      45.178  24.897  28.857  1.00  0.00    -0.014 A 
BRANCH  43  44
ATOM     44  C   UNL A   1      46.659  25.762  29.062  1.00  0.00     0.031 A 
ATOM     45  C   UNL A   1      48.192  25.736  28.202  1.00  0.00     0.074 A 
ATOM     46  C   UNL A   1      46.703  26.645  30.079  1.00  0.00     0.049 A 
ATOM     47  N   UNL A   1      49.381  25.652  28.766  1.00  0.00    -0.248 NA
ATOM     48  C   UNL A   1      48.451  25.582  26.687  1.00  0.00     0.031 C 
ATOM     49  C   UNL A   1      47.731  27.625  30.416  1.00  0.00     0.029 A 
ATOM     50  N   UNL A   1      45.767  26.808  31.100  1.00  0.00    -0.354 N 
ATOM     51  C   UNL A   1      50.326  25.497  27.719  1.00  0.00     0.074 A 
ATOM     52  C   UNL A   1      49.629  25.008  26.614  1.00  0.00     0.031 C 
ATOM     53  C   UNL A   1      47.547  28.000  31.697  1.00  0.00     0.029 A 
ATOM     54  C   UNL A   1      46.492  27.153  32.237  1.00  0.00     0.049 A 
ATOM     55  H   UNL A   1      44.791  26.701  31.029  1.00  0.00     0.167 HD
ATOM     56  C   UNL A   1      51.524  26.147  27.640  1.00  0.00     0.034 A 
ATOM     57  C   UNL A   1      46.567  26.236  33.244  1.00  0.00     0.034 A 
ATOM     58  C   UNL A   1      51.749  26.753  28.938  1.00  0.00     0.049 A 
ATOM     59  C   UNL A   1      48.009  25.821  33.461  1.00  0.00     0.074 A 
ATOM     60  C   UNL A   1      51.444  27.996  29.462  1.00  0.00     0.029 A 
ATOM     61  N   UNL A   1      51.858  25.885  30.011  1.00  0.00    -0.354 N 
ATOM     62  N   UNL A   1      48.986  26.111  32.636  1.00  0.00    -0.248 NA
ATOM     63  C   UNL A   1      48.490  25.146  34.656  1.00  0.00     0.031 C 
ATOM     64  C   UNL A   1      51.196  27.811  30.860  1.00  0.00     0.029 A 
ATOM     65  C   UNL A   1      51.409  26.478  31.183  1.00  0.00     0.049 A 
ATOM     66  H   UNL A   1      52.208  24.966  29.952  1.00  0.00     0.167 HD
ATOM     67  C   UNL A   1      50.172  25.628  33.107  1.00  0.00     0.074 A 
ATOM     68  C   UNL A   1      49.812  25.091  34.412  1.00  0.00     0.031 C 
ATOM     69  C   UNL A   1      51.344  25.659  32.394  1.00  0.00     0.034 A 
BRANCH  56  70
ATOM     70  C   UNL A   1      52.235  26.524  26.296  1.00  0.00     0.023 A 
ATOM     71  C   UNL A   1      53.427  25.829  26.007  1.00  0.00     0.012 A 
ATOM     72  C   UNL A   1      51.904  27.536  25.331  1.00  0.00     0.148 A 
ATOM     73  C   UNL A   1      54.265  26.157  24.923  1.00  0.00     0.002 A 
ATOM     74  C   UNL A   1      52.784  27.928  24.304  1.00  0.00     0.091 A 
ATOM     75  F   UNL A   1      50.682  28.069  25.283  1.00  0.00    -0.205 F 
ATOM     76  C   UNL A   1      53.968  27.232  24.094  1.00  0.00     0.022 A 
BRANCH  74  77
ATOM     77  S   UNL A   1      52.493  29.379  23.250  1.00  0.00     0.127 S 
ATOM     78  O   UNL A   1      51.690  30.243  24.119  1.00  0.00    -0.237 OA
ATOM     79  O   UNL A   1      53.846  29.870  22.998  1.00  0.00    -0.237 OA
ATOM     80  O   UNL A   1      51.768  28.892  22.081  1.00  0.00    -0.744 OA
ENDBRANCH  74  77
ENDBRANCH  56  70
BRANCH  57  81
ATOM     81  C   UNL A   1      45.259  25.493  33.460  1.00  0.00     0.023 A 
ATOM     82  C   UNL A   1      45.275  24.114  33.082  1.00  0.00     0.012 A 
ATOM     83  C   UNL A   1      44.159  25.920  34.232  1.00  0.00     0.148 A 
ATOM     84  C   UNL A   1      44.362  23.180  33.584  1.00  0.00     0.002 A 
ATOM     85  C   UNL A   1      43.203  24.980  34.681  1.00  0.00     0.091 A 
ATOM     86  F   UNL A   1      44.065  27.212  34.570  1.00  0.00    -0.205 F 
ATOM     87  C   UNL A   1      43.343  23.609  34.412  1.00  0.00     0.022 A 
BRANCH  85  88
ATOM     88  S   UNL A   1      41.777  25.452  35.687  1.00  0.00     0.127 S 
ATOM     89  O   UNL A   1      42.412  26.018  36.873  1.00  0.00    -0.237 OA
ATOM     90  O   UNL A   1      41.083  26.437  34.855  1.00  0.00    -0.237 OA
ATOM     91  O   UNL A   1      41.043  24.214  35.874  1.00  0.00    -0.744 OA
ENDBRANCH  85  88
ENDBRANCH  57  81
BRANCH  69  92
ATOM     92  C   UNL A   1      52.557  24.815  32.750  1.00  0.00     0.023 A 
ATOM     93  C   UNL A   1      53.742  25.394  33.240  1.00  0.00     0.012 A 
ATOM     94  C   UNL A   1      52.471  23.400  32.816  1.00  0.00     0.148 A 
ATOM     95  C   UNL A   1      54.816  24.620  33.684  1.00  0.00     0.002 A 
ATOM     96  C   UNL A   1      53.471  22.650  33.425  1.00  0.00     0.091 A 
ATOM     97  F   UNL A   1      51.409  22.760  32.300  1.00  0.00    -0.205 F 
ATOM     98  C   UNL A   1      54.670  23.247  33.808  1.00  0.00     0.022 A 
BRANCH  96  99
ATOM     99  S   UNL A   1      53.131  20.963  33.953  1.00  0.00     0.127 S 
ATOM    100  O   UNL A   1      51.889  21.114  34.705  1.00  0.00    -0.237 OA
ATOM    101  O   UNL A   1      52.990  20.249  32.683  1.00  0.00    -0.237 OA
ATOM    102  O   UNL A   1      54.312  20.581  34.718  1.00  0.00    -0.744 OA
ENDBRANCH  96  99
ENDBRANCH  69  92
ENDBRANCH  43  44
ENDBRANCH  36  38
ENDBRANCH  35  36
ENDBRANCH  34  35
ENDBRANCH  33  34
ENDBRANCH  32  33
ENDBRANCH  31  32
ENDBRANCH   1  31
TORSDOF 24
ENDMDL
MODEL 3
REMARK VINA RESULT:     -10.0      4.641      8.454
REMARK SMILES Cc1ccccc1NC(=O)CSc1nc(C(=O)OCCOCCOCCOC(=O)c2ccc(-c3c4nc(c(-c5cccc(S(=O)(=O)[O-])c5F)c5ccc([nH]5)c(-c5cccc(S(=O)(=O)[O-])c5F)c5nc(c(-c6cccc(S(=O)(=O)[O-])c6F)c6ccc3[nH]6)C=C5)C=C4)cc2)c2ccccc2n1
REMARK SMILES IDX 22 1 21 2 20 3 19 4 18 5 16 6 17 7 15 8 13 9 14 10 99 11
REMARK SMILES IDX 98 12 93 13 97 14 94 15 96 16 95 17 12 18 11 19 9 20 8 21
REMARK SMILES IDX 10 23 7 24 1 25 2 26 3 27 4 28 6 29 5 30 23 31 24 32 25 33
REMARK SMILES IDX 26 34 27 35 28 36 29 37 30 38 31 39 92 40 32 41 91 42 33 43
REMARK SMILES IDX 34 44 35 45 85 46 36 47 90 48 84 49 86 50 37 51 89 52 83 53
REMARK SMILES IDX 82 54 38 56 70 57 50 58 69 59 51 60 54 61 68 62 87 63 52 64
REMARK SMILES IDX 53 65 67 67 88 68 55 69 39 70 40 71 48 72 41 73 43 74 49 75
REMARK SMILES IDX 42 76 44 77 45 78 46 79 47 80 71 81 72 82 80 83 73 84 75 85
REMARK SMILES IDX 81 86 74 87 76 88 77 89 78 90 79 91 56 92 57 93 65 94 58 95
REMARK SMILES IDX 60 96 66 97 59 98 61 99 62 100 63 101 64 102
REMARK H PARENT 8 22 86 55 54 66
REMARK Flexibility Score: inf
ROOT
ATOM      1  C   UNL A   1      46.603  21.302  24.129  1.00  0.00     0.188 C 
ENDROOT
BRANCH   1   2
ATOM      2  O   UNL A   1      46.682  20.086  24.905  1.00  0.00    -0.376 OA
BRANCH   2   3
ATOM      3  C   UNL A   1      45.621  19.138  25.176  1.00  0.00     0.202 C 
BRANCH   3   4
ATOM      4  C   UNL A   1      43.891  19.283  25.034  1.00  0.00     0.261 C 
BRANCH   4   5
ATOM      5  O   UNL A   1      42.642  19.889  26.163  1.00  0.00    -0.458 OA
BRANCH   5   6
ATOM      6  C   UNL A   1      41.183  20.184  26.219  1.00  0.00     0.357 C 
ATOM      7  O   UNL A   1      40.248  19.546  25.729  1.00  0.00    -0.244 OA
BRANCH   6   8
ATOM      8  C   UNL A   1      40.483  21.291  26.916  1.00  0.00     0.160 A 
ATOM      9  C   UNL A   1      38.943  22.959  26.353  1.00  0.00     0.189 A 
ATOM     10  N   UNL A   1      39.270  21.666  26.336  1.00  0.00    -0.215 NA
ATOM     11  N   UNL A   1      39.675  23.874  27.008  1.00  0.00    -0.222 NA
ATOM     12  C   UNL A   1      40.812  23.484  27.597  1.00  0.00     0.076 A 
ATOM     13  C   UNL A   1      41.300  22.177  27.570  1.00  0.00     0.034 A 
ATOM     14  C   UNL A   1      41.576  24.431  28.251  1.00  0.00     0.029 A 
ATOM     15  C   UNL A   1      42.561  21.845  28.100  1.00  0.00     0.013 A 
ATOM     16  C   UNL A   1      42.802  24.103  28.839  1.00  0.00     0.002 A 
ATOM     17  C   UNL A   1      43.304  22.812  28.746  1.00  0.00     0.001 A 
BRANCH   9  18
ATOM     18  S   UNL A   1      37.368  23.594  25.811  1.00  0.00    -0.076 SA
BRANCH  18  19
ATOM     19  C   UNL A   1      36.565  22.328  24.754  1.00  0.00     0.178 C 
BRANCH  19  20
ATOM     20  C   UNL A   1      35.754  22.871  23.573  1.00  0.00     0.234 C 
ATOM     21  N   UNL A   1      34.438  23.248  23.622  1.00  0.00    -0.325 N 
ATOM     22  H   UNL A   1      34.120  23.673  22.792  1.00  0.00     0.169 HD
ATOM     23  O   UNL A   1      36.267  22.955  22.447  1.00  0.00    -0.274 OA
BRANCH  21  24
ATOM     24  C   UNL A   1      33.452  23.151  24.615  1.00  0.00     0.044 A 
ATOM     25  C   UNL A   1      32.707  20.863  23.688  1.00  0.00     0.046 C 
ATOM     26  C   UNL A   1      32.603  22.025  24.641  1.00  0.00    -0.027 A 
ATOM     27  C   UNL A   1      31.544  21.992  25.568  1.00  0.00     0.005 A 
ATOM     28  C   UNL A   1      31.358  23.027  26.482  1.00  0.00     0.000 A 
ATOM     29  C   UNL A   1      33.307  24.139  25.594  1.00  0.00     0.026 A 
ATOM     30  C   UNL A   1      32.257  24.085  26.513  1.00  0.00     0.002 A 
ENDBRANCH  21  24
ENDBRANCH  19  20
ENDBRANCH  18  19
ENDBRANCH   9  18
ENDBRANCH   6   8
ENDBRANCH   5   6
ENDBRANCH   4   5
ENDBRANCH   3   4
ENDBRANCH   2   3
ENDBRANCH   1   2
BRANCH   1  31
ATOM     31  C   UNL A   1      45.960  22.589  24.612  1.00  0.00     0.188 C 
BRANCH  31  32
ATOM     32  O   UNL A   1      46.232  22.796  25.977  1.00  0.00    -0.376 OA
BRANCH  32  33
ATOM     33  C   UNL A   1      46.473  24.133  26.353  1.00  0.00     0.202 C 
BRANCH  33  34
ATOM     34  C   UNL A   1      46.040  25.185  25.310  1.00  0.00     0.261 C 
BRANCH  34  35
ATOM     35  O   UNL A   1      46.722  26.449  25.494  1.00  0.00    -0.460 OA
BRANCH  35  36
ATOM     36  C   UNL A   1      45.939  27.557  25.813  1.00  0.00     0.338 C 
ATOM     37  O   UNL A   1      45.363  28.209  24.988  1.00  0.00    -0.246 OA
BRANCH  36  38
ATOM     38  C   UNL A   1      46.128  27.883  27.283  1.00  0.00     0.060 A 
ATOM     39  C   UNL A   1      47.077  28.709  27.912  1.00  0.00     0.016 A 
ATOM     40  C   UNL A   1      45.525  27.015  28.101  1.00  0.00     0.016 A 
ATOM     41  C   UNL A   1      47.558  28.490  29.301  1.00  0.00     0.010 A 
ATOM     42  C   UNL A   1      46.261  26.655  29.217  1.00  0.00     0.010 A 
ATOM     43  C   UNL A   1      47.211  27.352  30.031  1.00  0.00    -0.014 A 
BRANCH  43  44
ATOM     44  C   UNL A   1      47.738  26.837  31.593  1.00  0.00     0.031 A 
ATOM     45  C   UNL A   1      48.953  25.683  32.129  1.00  0.00     0.074 A 
ATOM     46  C   UNL A   1      47.121  27.399  32.650  1.00  0.00     0.049 A 
ATOM     47  N   UNL A   1      48.765  24.747  33.039  1.00  0.00    -0.248 NA
ATOM     48  C   UNL A   1      50.342  25.388  31.523  1.00  0.00     0.031 C 
ATOM     49  C   UNL A   1      47.435  27.296  34.073  1.00  0.00     0.029 A 
ATOM     50  N   UNL A   1      45.981  28.202  32.638  1.00  0.00    -0.354 N 
ATOM     51  C   UNL A   1      49.934  23.942  33.051  1.00  0.00     0.074 A 
ATOM     52  C   UNL A   1      50.567  24.129  31.822  1.00  0.00     0.031 C 
ATOM     53  C   UNL A   1      46.349  27.685  34.769  1.00  0.00     0.029 A 
ATOM     54  C   UNL A   1      45.281  27.897  33.801  1.00  0.00     0.049 A 
ATOM     55  H   UNL A   1      45.725  28.853  31.944  1.00  0.00     0.167 HD
ATOM     56  C   UNL A   1      50.565  23.492  34.174  1.00  0.00     0.034 A 
ATOM     57  C   UNL A   1      44.101  27.226  33.675  1.00  0.00     0.034 A 
ATOM     58  C   UNL A   1      49.658  23.734  35.279  1.00  0.00     0.049 A 
ATOM     59  C   UNL A   1      44.193  25.880  34.365  1.00  0.00     0.074 A 
ATOM     60  C   UNL A   1      49.498  24.795  36.151  1.00  0.00     0.029 A 
ATOM     61  N   UNL A   1      48.443  23.070  35.235  1.00  0.00    -0.354 N 
ATOM     62  N   UNL A   1      45.315  25.351  34.791  1.00  0.00    -0.248 NA
ATOM     63  C   UNL A   1      43.039  25.071  34.727  1.00  0.00     0.031 C 
ATOM     64  C   UNL A   1      48.108  24.855  36.487  1.00  0.00     0.029 A 
ATOM     65  C   UNL A   1      47.449  23.802  35.868  1.00  0.00     0.049 A 
ATOM     66  H   UNL A   1      48.302  22.194  34.809  1.00  0.00     0.167 HD
ATOM     67  C   UNL A   1      45.081  24.148  35.391  1.00  0.00     0.074 A 
ATOM     68  C   UNL A   1      43.628  24.055  35.384  1.00  0.00     0.031 C 
ATOM     69  C   UNL A   1      46.075  23.301  35.811  1.00  0.00     0.034 A 
BRANCH  56  70
ATOM     70  C   UNL A   1      52.104  23.218  34.271  1.00  0.00     0.023 A 
ATOM     71  C   UNL A   1      52.551  21.990  33.743  1.00  0.00     0.012 A 
ATOM     72  C   UNL A   1      53.142  23.996  34.890  1.00  0.00     0.148 A 
ATOM     73  C   UNL A   1      53.873  21.525  33.890  1.00  0.00     0.002 A 
ATOM     74  C   UNL A   1      54.437  23.495  35.121  1.00  0.00     0.091 A 
ATOM     75  F   UNL A   1      52.963  25.289  35.164  1.00  0.00    -0.205 F 
ATOM     76  C   UNL A   1      54.807  22.256  34.614  1.00  0.00     0.022 A 
BRANCH  74  77
ATOM     77  S   UNL A   1      55.668  24.363  36.136  1.00  0.00     0.127 S 
ATOM     78  O   UNL A   1      54.900  24.712  37.333  1.00  0.00    -0.237 OA
ATOM     79  O   UNL A   1      56.687  23.337  36.354  1.00  0.00    -0.237 OA
ATOM     80  O   UNL A   1      56.094  25.521  35.356  1.00  0.00    -0.744 OA
ENDBRANCH  74  77
ENDBRANCH  56  70
BRANCH  57  81
ATOM     81  C   UNL A   1      43.283  27.696  32.482  1.00  0.00     0.023 A 
ATOM     82  C   UNL A   1      43.636  27.097  31.232  1.00  0.00     0.012 A 
ATOM     83  C   UNL A   1      42.070  28.413  32.515  1.00  0.00     0.148 A 
ATOM     84  C   UNL A   1      42.763  27.056  30.139  1.00  0.00     0.002 A 
ATOM     85  C   UNL A   1      41.223  28.422  31.383  1.00  0.00     0.091 A 
ATOM     86  F   UNL A   1      41.716  29.039  33.645  1.00  0.00    -0.205 F 
ATOM     87  C   UNL A   1      41.540  27.692  30.226  1.00  0.00     0.022 A 
BRANCH  85  88
ATOM     88  S   UNL A   1      39.646  29.306  31.359  1.00  0.00     0.127 S 
ATOM     89  O   UNL A   1      38.909  28.647  32.433  1.00  0.00    -0.237 OA
ATOM     90  O   UNL A   1      40.025  30.689  31.656  1.00  0.00    -0.237 OA
ATOM     91  O   UNL A   1      39.142  29.107  30.012  1.00  0.00    -0.744 OA
ENDBRANCH  85  88
ENDBRANCH  57  81
BRANCH  69  92
ATOM     92  C   UNL A   1      45.837  21.835  36.137  1.00  0.00     0.023 A 
ATOM     93  C   UNL A   1      45.672  20.871  35.126  1.00  0.00     0.012 A 
ATOM     94  C   UNL A   1      45.995  21.344  37.459  1.00  0.00     0.148 A 
ATOM     95  C   UNL A   1      45.575  19.507  35.411  1.00  0.00     0.002 A 
ATOM     96  C   UNL A   1      46.078  19.979  37.710  1.00  0.00     0.091 A 
ATOM     97  F   UNL A   1      46.081  22.196  38.494  1.00  0.00    -0.205 F 
ATOM     98  C   UNL A   1      45.811  19.056  36.700  1.00  0.00     0.022 A 
BRANCH  96  99
ATOM     99  S   UNL A   1      46.774  19.393  39.263  1.00  0.00     0.127 S 
ATOM    100  O   UNL A   1      48.160  19.842  39.175  1.00  0.00    -0.237 OA
ATOM    101  O   UNL A   1      45.969  20.096  40.263  1.00  0.00    -0.237 OA
ATOM    102  O   UNL A   1      46.555  17.952  39.234  1.00  0.00    -0.744 OA
ENDBRANCH  96  99
ENDBRANCH  69  92
ENDBRANCH  43  44
ENDBRANCH  36  38
ENDBRANCH  35  36
ENDBRANCH  34  35
ENDBRANCH  33  34
ENDBRANCH  32  33
ENDBRANCH  31  32
ENDBRANCH   1  31
TORSDOF 24
ENDMDL
