MODEL 1
REMARK VINA RESULT:      -8.3      0.000      0.000
REMARK SMILES Cc1ccc(C(=O)OCCOCCOCCOC(=O)c2ccc(-c3c4nc(c(-c5cccc(S(=O)(=O)[O-])c5F)c5ccc([nH]5)c(-c5cccc(S(=O)(=O)[O-])c5F)c5nc(c(-c6cccc(S(=O)(=O)[O-])c6F)c6ccc3[nH]6)C=C5)C=C4)cc2)c2c1N[C@H](c1ccccc1F)[C@H]1CC=C[C@@H]21
REMARK SMILES IDX 13 1 12 2 11 3 10 4 9 5 8 6 6 7 7 8 5 9 1 10 2 11 3 12 84 13
REMARK SMILES IDX 4 14 83 15 85 16 98 17 86 18 94 20 97 21 95 22 96 23 87 24
REMARK SMILES IDX 88 25 92 26 89 27 91 28 93 29 90 30 14 31 15 32 16 33 17 34
REMARK SMILES IDX 18 35 19 36 20 37 21 38 82 39 22 40 81 41 23 42 24 43 25 44
REMARK SMILES IDX 75 45 26 46 80 47 74 48 76 49 27 50 79 51 73 52 72 53 28 55
REMARK SMILES IDX 60 56 40 57 59 58 41 59 44 60 58 61 77 62 42 63 43 64 57 66
REMARK SMILES IDX 78 67 45 68 29 69 30 70 38 71 31 72 33 73 39 74 32 75 34 76
REMARK SMILES IDX 35 77 36 78 37 79 61 80 62 81 70 82 63 83 65 84 71 85 64 86
REMARK SMILES IDX 66 87 67 88 68 89 69 90 46 91 47 92 55 93 48 94 50 95 56 96
REMARK SMILES IDX 49 97 51 98 52 99 53 100 54 101
REMARK H PARENT 85 19 76 54 44 65
REMARK Flexibility Score: inf
ROOT
ATOM      1  C   UNL A   1      46.398  20.329  24.605  1.00  0.00     0.188 C 
ENDROOT
BRANCH   1   2
ATOM      2  C   UNL A   1      45.767  21.734  24.677  1.00  0.00     0.188 C 
BRANCH   2   3
ATOM      3  O   UNL A   1      46.615  22.731  25.235  1.00  0.00    -0.376 OA
BRANCH   3   4
ATOM      4  C   UNL A   1      46.066  24.043  25.273  1.00  0.00     0.202 C 
BRANCH   4   5
ATOM      5  C   UNL A   1      46.958  25.070  24.578  1.00  0.00     0.261 C 
BRANCH   5   6
ATOM      6  O   UNL A   1      46.432  26.406  24.649  1.00  0.00    -0.460 OA
BRANCH   6   7
ATOM      7  C   UNL A   1      46.372  26.980  25.874  1.00  0.00     0.338 C 
ATOM      8  O   UNL A   1      47.272  27.004  26.692  1.00  0.00    -0.246 OA
BRANCH   7   9
ATOM      9  C   UNL A   1      45.014  27.574  26.039  1.00  0.00     0.065 A 
ATOM     10  C   UNL A   1      40.950  28.986  26.351  1.00  0.00     0.046 C 
ATOM     11  C   UNL A   1      42.384  28.537  26.231  1.00  0.00    -0.028 A 
ATOM     12  C   UNL A   1      42.634  27.257  25.719  1.00  0.00     0.006 A 
ATOM     13  C   UNL A   1      43.459  29.360  26.646  1.00  0.00     0.042 A 
ATOM     14  C   UNL A   1      43.935  26.778  25.629  1.00  0.00     0.016 A 
ATOM     15  C   UNL A   1      44.791  28.882  26.536  1.00  0.00    -0.003 A 
ATOM     16  N   UNL A   1      43.203  30.644  27.113  1.00  0.00    -0.377 N 
ATOM     17  C   UNL A   1      45.940  29.831  26.808  1.00  0.00     0.050 C 
ATOM     18  C   UNL A   1      44.233  31.381  27.836  1.00  0.00     0.117 C 
ATOM     19  H   UNL A   1      42.324  31.057  26.954  1.00  0.00     0.161 HD
ATOM     20  C   UNL A   1      45.539  31.311  27.022  1.00  0.00     0.031 C 
ATOM     21  C   UNL A   1      46.778  29.577  28.029  1.00  0.00    -0.023 C 
ATOM     22  C   UNL A   1      46.737  31.903  27.781  1.00  0.00     0.034 C 
ATOM     23  C   UNL A   1      47.250  30.722  28.538  1.00  0.00    -0.030 C 
BRANCH  18  24
ATOM     24  C   UNL A   1      43.694  32.755  28.208  1.00  0.00     0.010 A 
ATOM     25  C   UNL A   1      43.078  32.921  29.465  1.00  0.00     0.009 A 
ATOM     26  C   UNL A   1      43.803  33.887  27.393  1.00  0.00     0.128 A 
ATOM     27  C   UNL A   1      42.633  34.175  29.894  1.00  0.00     0.001 A 
ATOM     28  C   UNL A   1      43.372  35.143  27.817  1.00  0.00     0.039 A 
ATOM     29  F   UNL A   1      44.353  33.802  26.177  1.00  0.00    -0.207 F 
ATOM     30  C   UNL A   1      42.790  35.290  29.074  1.00  0.00     0.003 A 
ENDBRANCH  18  24
ENDBRANCH   7   9
ENDBRANCH   6   7
ENDBRANCH   5   6
ENDBRANCH   4   5
ENDBRANCH   3   4
ENDBRANCH   2   3
ENDBRANCH   1   2
BRANCH   1  31
ATOM     31  O   UNL A   1      45.584  19.201  24.303  1.00  0.00    -0.376 OA
BRANCH  31  32
ATOM     32  C   UNL A   1      45.064  18.432  25.378  1.00  0.00     0.202 C 
BRANCH  32  33
ATOM     33  C   UNL A   1      43.589  18.627  25.747  1.00  0.00     0.261 C 
BRANCH  33  34
ATOM     34  O   UNL A   1      43.079  19.938  25.455  1.00  0.00    -0.460 OA
BRANCH  34  35
ATOM     35  C   UNL A   1      41.813  20.175  25.879  1.00  0.00     0.338 C 
ATOM     36  O   UNL A   1      40.862  19.415  25.829  1.00  0.00    -0.246 OA
BRANCH  35  37
ATOM     37  C   UNL A   1      41.750  21.475  26.575  1.00  0.00     0.060 A 
ATOM     38  C   UNL A   1      42.239  22.603  25.909  1.00  0.00     0.016 A 
ATOM     39  C   UNL A   1      41.334  21.562  27.905  1.00  0.00     0.016 A 
ATOM     40  C   UNL A   1      42.336  23.819  26.579  1.00  0.00     0.010 A 
ATOM     41  C   UNL A   1      41.460  22.781  28.585  1.00  0.00     0.010 A 
ATOM     42  C   UNL A   1      41.988  23.908  27.933  1.00  0.00    -0.014 A 
BRANCH  42  43
ATOM     43  C   UNL A   1      42.370  25.122  28.692  1.00  0.00     0.031 A 
ATOM     44  C   UNL A   1      43.818  25.321  29.047  1.00  0.00     0.074 A 
ATOM     45  C   UNL A   1      41.462  26.054  29.030  1.00  0.00     0.049 A 
ATOM     46  N   UNL A   1      44.378  26.303  29.704  1.00  0.00    -0.248 NA
ATOM     47  C   UNL A   1      44.758  24.280  28.598  1.00  0.00     0.031 C 
ATOM     48  C   UNL A   1      40.039  25.998  28.710  1.00  0.00     0.029 A 
ATOM     49  N   UNL A   1      41.609  27.232  29.720  1.00  0.00    -0.354 N 
ATOM     50  C   UNL A   1      45.728  25.984  29.773  1.00  0.00     0.074 A 
ATOM     51  C   UNL A   1      45.910  24.733  29.071  1.00  0.00     0.031 C 
ATOM     52  C   UNL A   1      39.439  27.096  29.204  1.00  0.00     0.029 A 
ATOM     53  C   UNL A   1      40.429  27.914  29.903  1.00  0.00     0.049 A 
ATOM     54  H   UNL A   1      42.476  27.559  30.051  1.00  0.00     0.167 HD
ATOM     55  C   UNL A   1      46.729  26.669  30.371  1.00  0.00     0.034 A 
ATOM     56  C   UNL A   1      40.174  29.055  30.576  1.00  0.00     0.034 A 
ATOM     57  C   UNL A   1      46.559  27.910  31.069  1.00  0.00     0.049 A 
ATOM     58  C   UNL A   1      41.301  29.779  31.266  1.00  0.00     0.074 A 
ATOM     59  C   UNL A   1      47.523  28.676  31.700  1.00  0.00     0.029 A 
ATOM     60  N   UNL A   1      45.349  28.560  31.243  1.00  0.00    -0.354 N 
ATOM     61  N   UNL A   1      42.582  29.505  31.261  1.00  0.00    -0.248 NA
ATOM     62  C   UNL A   1      40.948  30.973  32.052  1.00  0.00     0.031 C 
ATOM     63  C   UNL A   1      46.892  29.787  32.266  1.00  0.00     0.029 A 
ATOM     64  C   UNL A   1      45.539  29.715  31.978  1.00  0.00     0.049 A 
ATOM     65  H   UNL A   1      44.483  28.246  30.895  1.00  0.00     0.167 HD
ATOM     66  C   UNL A   1      43.188  30.490  32.035  1.00  0.00     0.074 A 
ATOM     67  C   UNL A   1      42.139  31.386  32.472  1.00  0.00     0.031 C 
ATOM     68  C   UNL A   1      44.494  30.625  32.369  1.00  0.00     0.034 A 
BRANCH  55  69
ATOM     69  C   UNL A   1      48.112  26.095  30.293  1.00  0.00     0.023 A 
ATOM     70  C   UNL A   1      48.892  26.330  29.145  1.00  0.00     0.012 A 
ATOM     71  C   UNL A   1      48.665  25.402  31.387  1.00  0.00     0.148 A 
ATOM     72  C   UNL A   1      50.208  25.877  29.085  1.00  0.00     0.002 A 
ATOM     73  C   UNL A   1      49.985  24.978  31.329  1.00  0.00     0.091 A 
ATOM     74  F   UNL A   1      47.889  25.181  32.458  1.00  0.00    -0.205 F 
ATOM     75  C   UNL A   1      50.757  25.211  30.179  1.00  0.00     0.022 A 
BRANCH  73  76
ATOM     76  S   UNL A   1      50.801  24.154  32.700  1.00  0.00     0.127 S 
ATOM     77  O   UNL A   1      51.460  25.276  33.369  1.00  0.00    -0.237 OA
ATOM     78  O   UNL A   1      49.668  23.586  33.431  1.00  0.00    -0.237 OA
ATOM     79  O   UNL A   1      51.702  23.177  32.108  1.00  0.00    -0.744 OA
ENDBRANCH  73  76
ENDBRANCH  55  69
BRANCH  56  80
ATOM     80  C   UNL A   1      38.787  29.590  30.623  1.00  0.00     0.023 A 
ATOM     81  C   UNL A   1      37.893  29.113  31.601  1.00  0.00     0.012 A 
ATOM     82  C   UNL A   1      38.360  30.589  29.727  1.00  0.00     0.148 A 
ATOM     83  C   UNL A   1      36.593  29.617  31.679  1.00  0.00     0.002 A 
ATOM     84  C   UNL A   1      37.081  31.116  29.838  1.00  0.00     0.091 A 
ATOM     85  F   UNL A   1      39.225  31.014  28.796  1.00  0.00    -0.205 F 
ATOM     86  C   UNL A   1      36.191  30.624  30.806  1.00  0.00     0.022 A 
BRANCH  84  87
ATOM     87  S   UNL A   1      36.505  32.484  28.825  1.00  0.00     0.127 S 
ATOM     88  O   UNL A   1      36.226  31.818  27.554  1.00  0.00    -0.237 OA
ATOM     89  O   UNL A   1      35.321  32.924  29.564  1.00  0.00    -0.237 OA
ATOM     90  O   UNL A   1      37.596  33.448  28.801  1.00  0.00    -0.744 OA
ENDBRANCH  84  87
ENDBRANCH  56  80
BRANCH  68  91
ATOM     91  C   UNL A   1      44.893  31.775  33.250  1.00  0.00     0.023 A 
ATOM     92  C   UNL A   1      44.867  31.611  34.648  1.00  0.00     0.012 A 
ATOM     93  C   UNL A   1      45.431  32.954  32.696  1.00  0.00     0.148 A 
ATOM     94  C   UNL A   1      45.372  32.605  35.485  1.00  0.00     0.002 A 
ATOM     95  C   UNL A   1      45.963  33.925  33.536  1.00  0.00     0.091 A 
ATOM     96  F   UNL A   1      45.436  33.086  31.362  1.00  0.00    -0.205 F 
ATOM     97  C   UNL A   1      45.931  33.754  34.930  1.00  0.00     0.022 A 
BRANCH  95  98
ATOM     98  S   UNL A   1      46.778  35.401  32.913  1.00  0.00     0.127 S 
ATOM     99  O   UNL A   1      45.744  35.969  32.050  1.00  0.00    -0.237 OA
ATOM    100  O   UNL A   1      47.033  36.156  34.140  1.00  0.00    -0.237 OA
ATOM    101  O   UNL A   1      47.976  34.940  32.223  1.00  0.00    -0.744 OA
ENDBRANCH  95  98
ENDBRANCH  68  91
ENDBRANCH  42  43
ENDBRANCH  35  37
ENDBRANCH  34  35
ENDBRANCH  33  34
ENDBRANCH  32  33
ENDBRANCH  31  32
ENDBRANCH   1  31
TORSDOF 21
ENDMDL
MODEL 2
REMARK VINA RESULT:      -7.8      5.898      8.689
REMARK SMILES Cc1ccc(C(=O)OCCOCCOCCOC(=O)c2ccc(-c3c4nc(c(-c5cccc(S(=O)(=O)[O-])c5F)c5ccc([nH]5)c(-c5cccc(S(=O)(=O)[O-])c5F)c5nc(c(-c6cccc(S(=O)(=O)[O-])c6F)c6ccc3[nH]6)C=C5)C=C4)cc2)c2c1N[C@H](c1ccccc1F)[C@H]1CC=C[C@@H]21
REMARK SMILES IDX 13 1 12 2 11 3 10 4 9 5 8 6 6 7 7 8 5 9 1 10 2 11 3 12 84 13
REMARK SMILES IDX 4 14 83 15 85 16 98 17 86 18 94 20 97 21 95 22 96 23 87 24
REMARK SMILES IDX 88 25 92 26 89 27 91 28 93 29 90 30 14 31 15 32 16 33 17 34
REMARK SMILES IDX 18 35 19 36 20 37 21 38 82 39 22 40 81 41 23 42 24 43 25 44
REMARK SMILES IDX 75 45 26 46 80 47 74 48 76 49 27 50 79 51 73 52 72 53 28 55
REMARK SMILES IDX 60 56 40 57 59 58 41 59 44 60 58 61 77 62 42 63 43 64 57 66
REMARK SMILES IDX 78 67 45 68 29 69 30 70 38 71 31 72 33 73 39 74 32 75 34 76
REMARK SMILES IDX 35 77 36 78 37 79 61 80 62 81 70 82 63 83 65 84 71 85 64 86
REMARK SMILES IDX 66 87 67 88 68 89 69 90 46 91 47 92 55 93 48 94 50 95 56 96
REMARK SMILES IDX 49 97 51 98 52 99 53 100 54 101
REMARK H PARENT 85 19 76 54 44 65
REMARK Flexibility Score: inf
ROOT
ATOM      1  C   UNL A   1      39.744  21.260  26.241  1.00  0.00     0.188 C 
ENDROOT
BRANCH   1   2
ATOM      2  C   UNL A   1      39.173  22.651  25.900  1.00  0.00     0.188 C 
BRANCH   2   3
ATOM      3  O   UNL A   1      37.804  22.645  25.511  1.00  0.00    -0.376 OA
BRANCH   3   4
ATOM      4  C   UNL A   1      36.974  23.575  26.197  1.00  0.00     0.202 C 
BRANCH   4   5
ATOM      5  C   UNL A   1      35.488  23.246  26.057  1.00  0.00     0.261 C 
BRANCH   5   6
ATOM      6  O   UNL A   1      34.995  23.444  24.721  1.00  0.00    -0.460 OA
BRANCH   6   7
ATOM      7  C   UNL A   1      33.723  23.055  24.470  1.00  0.00     0.338 C 
ATOM      8  O   UNL A   1      33.077  22.268  25.135  1.00  0.00    -0.246 OA
BRANCH   7   9
ATOM      9  C   UNL A   1      33.261  23.760  23.240  1.00  0.00     0.065 A 
ATOM     10  C   UNL A   1      32.148  25.576  19.488  1.00  0.00     0.046 C 
ATOM     11  C   UNL A   1      32.536  24.985  20.820  1.00  0.00    -0.028 A 
ATOM     12  C   UNL A   1      33.399  23.881  20.825  1.00  0.00     0.006 A 
ATOM     13  C   UNL A   1      32.031  25.498  22.039  1.00  0.00     0.042 A 
ATOM     14  C   UNL A   1      33.753  23.271  22.022  1.00  0.00     0.016 A 
ATOM     15  C   UNL A   1      32.407  24.891  23.266  1.00  0.00    -0.003 A 
ATOM     16  N   UNL A   1      31.210  26.620  22.026  1.00  0.00    -0.377 N 
ATOM     17  C   UNL A   1      32.012  25.555  24.569  1.00  0.00     0.050 C 
ATOM     18  C   UNL A   1      30.429  26.971  23.206  1.00  0.00     0.117 C 
ATOM     19  H   UNL A   1      31.157  27.179  21.218  1.00  0.00     0.161 HD
ATOM     20  C   UNL A   1      31.365  26.954  24.428  1.00  0.00     0.031 C 
ATOM     21  C   UNL A   1      31.002  24.852  25.430  1.00  0.00    -0.023 C 
ATOM     22  C   UNL A   1      30.606  27.134  25.754  1.00  0.00     0.034 C 
ATOM     23  C   UNL A   1      30.257  25.728  26.114  1.00  0.00    -0.030 C 
BRANCH  18  24
ATOM     24  C   UNL A   1      29.643  28.245  22.923  1.00  0.00     0.010 A 
ATOM     25  C   UNL A   1      30.308  29.325  22.309  1.00  0.00     0.009 A 
ATOM     26  C   UNL A   1      28.281  28.403  23.201  1.00  0.00     0.128 A 
ATOM     27  C   UNL A   1      29.622  30.491  21.955  1.00  0.00     0.001 A 
ATOM     28  C   UNL A   1      27.587  29.558  22.841  1.00  0.00     0.039 A 
ATOM     29  F   UNL A   1      27.589  27.431  23.805  1.00  0.00    -0.207 F 
ATOM     30  C   UNL A   1      28.257  30.603  22.212  1.00  0.00     0.003 A 
ENDBRANCH  18  24
ENDBRANCH   7   9
ENDBRANCH   6   7
ENDBRANCH   5   6
ENDBRANCH   4   5
ENDBRANCH   3   4
ENDBRANCH   2   3
ENDBRANCH   1   2
BRANCH   1  31
ATOM     31  O   UNL A   1      41.102  21.132  26.647  1.00  0.00    -0.376 OA
BRANCH  31  32
ATOM     32  C   UNL A   1      41.548  19.876  27.139  1.00  0.00     0.202 C 
BRANCH  32  33
ATOM     33  C   UNL A   1      42.373  18.992  26.199  1.00  0.00     0.261 C 
BRANCH  33  34
ATOM     34  O   UNL A   1      42.814  19.657  25.003  1.00  0.00    -0.460 OA
BRANCH  34  35
ATOM     35  C   UNL A   1      44.156  19.678  24.812  1.00  0.00     0.338 C 
ATOM     36  O   UNL A   1      44.861  18.762  24.425  1.00  0.00    -0.246 OA
BRANCH  35  37
ATOM     37  C   UNL A   1      44.671  21.048  25.000  1.00  0.00     0.060 A 
ATOM     38  C   UNL A   1      45.182  21.393  26.255  1.00  0.00     0.016 A 
ATOM     39  C   UNL A   1      44.538  22.012  23.999  1.00  0.00     0.016 A 
ATOM     40  C   UNL A   1      45.541  22.711  26.521  1.00  0.00     0.010 A 
ATOM     41  C   UNL A   1      44.872  23.344  24.280  1.00  0.00     0.010 A 
ATOM     42  C   UNL A   1      45.350  23.703  25.551  1.00  0.00    -0.014 A 
BRANCH  42  43
ATOM     43  C   UNL A   1      45.462  25.127  25.951  1.00  0.00     0.031 A 
ATOM     44  C   UNL A   1      46.809  25.792  25.869  1.00  0.00     0.074 A 
ATOM     45  C   UNL A   1      44.388  25.833  26.343  1.00  0.00     0.049 A 
ATOM     46  N   UNL A   1      47.141  27.020  26.167  1.00  0.00    -0.248 NA
ATOM     47  C   UNL A   1      47.926  24.964  25.382  1.00  0.00     0.031 C 
ATOM     48  C   UNL A   1      43.025  25.317  26.427  1.00  0.00     0.029 A 
ATOM     49  N   UNL A   1      44.280  27.142  26.746  1.00  0.00    -0.354 N 
ATOM     50  C   UNL A   1      48.508  27.106  25.933  1.00  0.00     0.074 A 
ATOM     51  C   UNL A   1      48.941  25.815  25.445  1.00  0.00     0.031 C 
ATOM     52  C   UNL A   1      42.213  26.300  26.856  1.00  0.00     0.029 A 
ATOM     53  C   UNL A   1      43.005  27.503  27.109  1.00  0.00     0.049 A 
ATOM     54  H   UNL A   1      45.044  27.762  26.772  1.00  0.00     0.167 HD
ATOM     55  C   UNL A   1      49.331  28.162  26.111  1.00  0.00     0.034 A 
ATOM     56  C   UNL A   1      42.534  28.664  27.609  1.00  0.00     0.034 A 
ATOM     57  C   UNL A   1      48.912  29.446  26.594  1.00  0.00     0.049 A 
ATOM     58  C   UNL A   1      43.479  29.815  27.834  1.00  0.00     0.074 A 
ATOM     59  C   UNL A   1      49.682  30.577  26.800  1.00  0.00     0.029 A 
ATOM     60  N   UNL A   1      47.616  29.768  26.962  1.00  0.00    -0.354 N 
ATOM     61  N   UNL A   1      44.754  29.904  27.540  1.00  0.00    -0.248 NA
ATOM     62  C   UNL A   1      42.923  31.028  28.457  1.00  0.00     0.031 C 
ATOM     63  C   UNL A   1      48.852  31.582  27.303  1.00  0.00     0.029 A 
ATOM     64  C   UNL A   1      47.565  31.078  27.400  1.00  0.00     0.049 A 
ATOM     65  H   UNL A   1      46.847  29.155  26.917  1.00  0.00     0.167 HD
ATOM     66  C   UNL A   1      45.150  31.178  27.936  1.00  0.00     0.074 A 
ATOM     67  C   UNL A   1      43.976  31.838  28.466  1.00  0.00     0.031 C 
ATOM     68  C   UNL A   1      46.382  31.740  27.883  1.00  0.00     0.034 A 
BRANCH  55  69
ATOM     69  C   UNL A   1      50.782  27.983  25.776  1.00  0.00     0.023 A 
ATOM     70  C   UNL A   1      51.240  28.332  24.491  1.00  0.00     0.012 A 
ATOM     71  C   UNL A   1      51.697  27.552  26.754  1.00  0.00     0.148 A 
ATOM     72  C   UNL A   1      52.596  28.252  24.183  1.00  0.00     0.002 A 
ATOM     73  C   UNL A   1      53.050  27.500  26.447  1.00  0.00     0.091 A 
ATOM     74  F   UNL A   1      51.225  27.211  27.962  1.00  0.00    -0.205 F 
ATOM     75  C   UNL A   1      53.500  27.846  25.162  1.00  0.00     0.022 A 
BRANCH  73  76
ATOM     76  S   UNL A   1      54.301  27.036  27.648  1.00  0.00     0.127 S 
ATOM     77  O   UNL A   1      55.487  27.704  27.112  1.00  0.00    -0.237 OA
ATOM     78  O   UNL A   1      53.773  27.624  28.879  1.00  0.00    -0.237 OA
ATOM     79  O   UNL A   1      54.356  25.582  27.636  1.00  0.00    -0.744 OA
ENDBRANCH  73  76
ENDBRANCH  55  69
BRANCH  56  80
ATOM     80  C   UNL A   1      41.086  28.800  27.924  1.00  0.00     0.023 A 
ATOM     81  C   UNL A   1      40.181  29.123  26.894  1.00  0.00     0.012 A 
ATOM     82  C   UNL A   1      40.599  28.581  29.227  1.00  0.00     0.148 A 
ATOM     83  C   UNL A   1      38.815  29.233  27.161  1.00  0.00     0.002 A 
ATOM     84  C   UNL A   1      39.235  28.650  29.476  1.00  0.00     0.091 A 
ATOM     85  F   UNL A   1      41.483  28.292  30.191  1.00  0.00    -0.205 F 
ATOM     86  C   UNL A   1      38.341  28.988  28.447  1.00  0.00     0.022 A 
BRANCH  84  87
ATOM     87  S   UNL A   1      38.520  28.253  31.075  1.00  0.00     0.127 S 
ATOM     88  O   UNL A   1      38.523  26.792  31.049  1.00  0.00    -0.237 OA
ATOM     89  O   UNL A   1      39.488  28.856  31.992  1.00  0.00    -0.237 OA
ATOM     90  O   UNL A   1      37.204  28.876  31.088  1.00  0.00    -0.744 OA
ENDBRANCH  84  87
ENDBRANCH  56  80
BRANCH  68  91
ATOM     91  C   UNL A   1      46.554  33.138  28.405  1.00  0.00     0.023 A 
ATOM     92  C   UNL A   1      47.103  33.330  29.687  1.00  0.00     0.012 A 
ATOM     93  C   UNL A   1      46.316  34.252  27.575  1.00  0.00     0.148 A 
ATOM     94  C   UNL A   1      47.413  34.613  30.138  1.00  0.00     0.002 A 
ATOM     95  C   UNL A   1      46.659  35.524  28.018  1.00  0.00     0.091 A 
ATOM     96  F   UNL A   1      45.786  34.040  26.362  1.00  0.00    -0.205 F 
ATOM     97  C   UNL A   1      47.204  35.706  29.300  1.00  0.00     0.022 A 
BRANCH  95  98
ATOM     98  S   UNL A   1      46.504  36.983  26.982  1.00  0.00     0.127 S 
ATOM     99  O   UNL A   1      47.174  36.550  25.756  1.00  0.00    -0.237 OA
ATOM    100  O   UNL A   1      45.053  37.130  26.867  1.00  0.00    -0.237 OA
ATOM    101  O   UNL A   1      47.168  38.063  27.702  1.00  0.00    -0.744 OA
ENDBRANCH  95  98
ENDBRANCH  68  91
ENDBRANCH  42  43
ENDBRANCH  35  37
ENDBRANCH  34  35
ENDBRANCH  33  34
ENDBRANCH  32  33
ENDBRANCH  31  32
ENDBRANCH   1  31
TORSDOF 21
ENDMDL
MODEL 3
REMARK VINA RESULT:      -7.5      5.915      8.866
REMARK SMILES Cc1ccc(C(=O)OCCOCCOCCOC(=O)c2ccc(-c3c4nc(c(-c5cccc(S(=O)(=O)[O-])c5F)c5ccc([nH]5)c(-c5cccc(S(=O)(=O)[O-])c5F)c5nc(c(-c6cccc(S(=O)(=O)[O-])c6F)c6ccc3[nH]6)C=C5)C=C4)cc2)c2c1N[C@H](c1ccccc1F)[C@H]1CC=C[C@@H]21
REMARK SMILES IDX 13 1 12 2 11 3 10 4 9 5 8 6 6 7 7 8 5 9 1 10 2 11 3 12 84 13
REMARK SMILES IDX 4 14 83 15 85 16 98 17 86 18 94 20 97 21 95 22 96 23 87 24
REMARK SMILES IDX 88 25 92 26 89 27 91 28 93 29 90 30 14 31 15 32 16 33 17 34
REMARK SMILES IDX 18 35 19 36 20 37 21 38 82 39 22 40 81 41 23 42 24 43 25 44
REMARK SMILES IDX 75 45 26 46 80 47 74 48 76 49 27 50 79 51 73 52 72 53 28 55
REMARK SMILES IDX 60 56 40 57 59 58 41 59 44 60 58 61 77 62 42 63 43 64 57 66
REMARK SMILES IDX 78 67 45 68 29 69 30 70 38 71 31 72 33 73 39 74 32 75 34 76
REMARK SMILES IDX 35 77 36 78 37 79 61 80 62 81 70 82 63 83 65 84 71 85 64 86
REMARK SMILES IDX 66 87 67 88 68 89 69 90 46 91 47 92 55 93 48 94 50 95 56 96
REMARK SMILES IDX 49 97 51 98 52 99 53 100 54 101
REMARK H PARENT 85 19 76 54 44 65
REMARK Flexibility Score: inf
ROOT
ATOM      1  C   UNL A   1      35.936  19.391  24.673  1.00  0.00     0.188 C 
ENDROOT
BRANCH   1   2
ATOM      2  C   UNL A   1      35.158  18.060  24.648  1.00  0.00     0.188 C 
BRANCH   2   3
ATOM      3  O   UNL A   1      33.744  18.208  24.594  1.00  0.00    -0.376 OA
BRANCH   3   4
ATOM      4  C   UNL A   1      33.282  19.510  24.257  1.00  0.00     0.202 C 
BRANCH   4   5
ATOM      5  C   UNL A   1      32.771  20.282  25.472  1.00  0.00     0.261 C 
BRANCH   5   6
ATOM      6  O   UNL A   1      32.307  21.602  25.141  1.00  0.00    -0.460 OA
BRANCH   6   7
ATOM      7  C   UNL A   1      33.240  22.581  25.059  1.00  0.00     0.338 C 
ATOM      8  O   UNL A   1      34.106  22.807  25.882  1.00  0.00    -0.246 OA
BRANCH   7   9
ATOM      9  C   UNL A   1      33.015  23.325  23.787  1.00  0.00     0.065 A 
ATOM     10  C   UNL A   1      32.607  25.249  19.947  1.00  0.00     0.046 C 
ATOM     11  C   UNL A   1      32.747  24.620  21.310  1.00  0.00    -0.028 A 
ATOM     12  C   UNL A   1      33.549  23.477  21.430  1.00  0.00     0.006 A 
ATOM     13  C   UNL A   1      32.073  25.138  22.443  1.00  0.00     0.042 A 
ATOM     14  C   UNL A   1      33.677  22.833  22.654  1.00  0.00     0.016 A 
ATOM     15  C   UNL A   1      32.218  24.495  23.700  1.00  0.00    -0.003 A 
ATOM     16  N   UNL A   1      31.315  26.297  22.323  1.00  0.00    -0.377 N 
ATOM     17  C   UNL A   1      31.646  25.156  24.937  1.00  0.00     0.050 C 
ATOM     18  C   UNL A   1      30.368  26.665  23.368  1.00  0.00     0.117 C 
ATOM     19  H   UNL A   1      31.418  26.870  21.529  1.00  0.00     0.161 HD
ATOM     20  C   UNL A   1      31.092  26.586  24.725  1.00  0.00     0.031 C 
ATOM     21  C   UNL A   1      30.480  24.487  25.607  1.00  0.00    -0.023 C 
ATOM     22  C   UNL A   1      30.136  26.781  25.914  1.00  0.00     0.034 C 
ATOM     23  C   UNL A   1      29.672  25.386  26.181  1.00  0.00    -0.030 C 
BRANCH  18  24
ATOM     24  C   UNL A   1      29.695  27.978  22.991  1.00  0.00     0.010 A 
ATOM     25  C   UNL A   1      30.471  28.982  22.376  1.00  0.00     0.009 A 
ATOM     26  C   UNL A   1      28.335  28.245  23.182  1.00  0.00     0.128 A 
ATOM     27  C   UNL A   1      29.892  30.177  21.938  1.00  0.00     0.001 A 
ATOM     28  C   UNL A   1      27.749  29.429  22.739  1.00  0.00     0.039 A 
ATOM     29  F   UNL A   1      27.541  27.350  23.782  1.00  0.00    -0.207 F 
ATOM     30  C   UNL A   1      28.527  30.396  22.110  1.00  0.00     0.003 A 
ENDBRANCH  18  24
ENDBRANCH   7   9
ENDBRANCH   6   7
ENDBRANCH   5   6
ENDBRANCH   4   5
ENDBRANCH   3   4
ENDBRANCH   2   3
ENDBRANCH   1   2
BRANCH   1  31
ATOM     31  O   UNL A   1      37.313  19.400  25.034  1.00  0.00    -0.376 OA
BRANCH  31  32
ATOM     32  C   UNL A   1      38.045  20.609  24.889  1.00  0.00     0.202 C 
BRANCH  32  33
ATOM     33  C   UNL A   1      38.686  21.212  26.143  1.00  0.00     0.261 C 
BRANCH  33  34
ATOM     34  O   UNL A   1      39.286  22.501  25.935  1.00  0.00    -0.460 OA
BRANCH  34  35
ATOM     35  C   UNL A   1      38.483  23.562  26.190  1.00  0.00     0.338 C 
ATOM     36  O   UNL A   1      37.277  23.632  26.027  1.00  0.00    -0.246 OA
BRANCH  35  37
ATOM     37  C   UNL A   1      39.253  24.630  26.856  1.00  0.00     0.060 A 
ATOM     38  C   UNL A   1      39.121  24.773  28.240  1.00  0.00     0.016 A 
ATOM     39  C   UNL A   1      39.994  25.554  26.115  1.00  0.00     0.016 A 
ATOM     40  C   UNL A   1      39.710  25.856  28.888  1.00  0.00     0.010 A 
ATOM     41  C   UNL A   1      40.561  26.658  26.766  1.00  0.00     0.010 A 
ATOM     42  C   UNL A   1      40.398  26.828  28.151  1.00  0.00    -0.014 A 
BRANCH  42  43
ATOM     43  C   UNL A   1      40.760  28.105  28.813  1.00  0.00     0.031 A 
ATOM     44  C   UNL A   1      42.217  28.435  28.989  1.00  0.00     0.074 A 
ATOM     45  C   UNL A   1      39.821  28.976  29.217  1.00  0.00     0.049 A 
ATOM     46  N   UNL A   1      42.763  29.488  29.537  1.00  0.00    -0.248 NA
ATOM     47  C   UNL A   1      43.184  27.451  28.474  1.00  0.00     0.031 C 
ATOM     48  C   UNL A   1      38.380  28.793  29.068  1.00  0.00     0.029 A 
ATOM     49  N   UNL A   1      39.945  30.195  29.839  1.00  0.00    -0.354 N 
ATOM     50  C   UNL A   1      44.134  29.281  29.461  1.00  0.00     0.074 A 
ATOM     51  C   UNL A   1      44.340  28.016  28.791  1.00  0.00     0.031 C 
ATOM     52  C   UNL A   1      37.749  29.862  29.586  1.00  0.00     0.029 A 
ATOM     53  C   UNL A   1      38.740  30.789  30.132  1.00  0.00     0.049 A 
ATOM     54  H   UNL A   1      40.813  30.605  30.054  1.00  0.00     0.167 HD
ATOM     55  C   UNL A   1      45.134  30.071  29.910  1.00  0.00     0.034 A 
ATOM     56  C   UNL A   1      38.467  31.937  30.785  1.00  0.00     0.034 A 
ATOM     57  C   UNL A   1      44.940  31.328  30.574  1.00  0.00     0.049 A 
ATOM     58  C   UNL A   1      39.599  32.781  31.310  1.00  0.00     0.074 A 
ATOM     59  C   UNL A   1      45.901  32.196  31.059  1.00  0.00     0.029 A 
ATOM     60  N   UNL A   1      43.707  31.887  30.863  1.00  0.00    -0.354 N 
ATOM     61  N   UNL A   1      40.891  32.609  31.166  1.00  0.00    -0.248 NA
ATOM     62  C   UNL A   1      39.239  33.980  32.085  1.00  0.00     0.031 C 
ATOM     63  C   UNL A   1      45.248  33.280  31.651  1.00  0.00     0.029 A 
ATOM     64  C   UNL A   1      43.881  33.088  31.525  1.00  0.00     0.049 A 
ATOM     65  H   UNL A   1      42.838  31.489  30.631  1.00  0.00     0.167 HD
ATOM     66  C   UNL A   1      41.495  33.675  31.825  1.00  0.00     0.074 A 
ATOM     67  C   UNL A   1      40.430  34.506  32.347  1.00  0.00     0.031 C 
ATOM     68  C   UNL A   1      42.815  33.929  31.999  1.00  0.00     0.034 A 
BRANCH  55  69
ATOM     69  C   UNL A   1      46.543  29.605  29.694  1.00  0.00     0.023 A 
ATOM     70  C   UNL A   1      47.260  29.053  30.773  1.00  0.00     0.012 A 
ATOM     71  C   UNL A   1      47.122  29.636  28.412  1.00  0.00     0.148 A 
ATOM     72  C   UNL A   1      48.539  28.539  30.578  1.00  0.00     0.002 A 
ATOM     73  C   UNL A   1      48.387  29.097  28.220  1.00  0.00     0.091 A 
ATOM     74  F   UNL A   1      46.419  30.184  27.409  1.00  0.00    -0.205 F 
ATOM     75  C   UNL A   1      49.098  28.552  29.302  1.00  0.00     0.022 A 
BRANCH  73  76
ATOM     76  S   UNL A   1      49.176  29.023  26.610  1.00  0.00     0.127 S 
ATOM     77  O   UNL A   1      48.027  29.135  25.712  1.00  0.00    -0.237 OA
ATOM     78  O   UNL A   1      50.044  30.200  26.642  1.00  0.00    -0.237 OA
ATOM     79  O   UNL A   1      49.874  27.746  26.558  1.00  0.00    -0.744 OA
ENDBRANCH  73  76
ENDBRANCH  55  69
BRANCH  56  80
ATOM     80  C   UNL A   1      37.054  32.363  30.973  1.00  0.00     0.023 A 
ATOM     81  C   UNL A   1      36.455  32.238  32.241  1.00  0.00     0.012 A 
ATOM     82  C   UNL A   1      36.313  32.918  29.912  1.00  0.00     0.148 A 
ATOM     83  C   UNL A   1      35.138  32.652  32.447  1.00  0.00     0.002 A 
ATOM     84  C   UNL A   1      35.018  33.367  30.134  1.00  0.00     0.091 A 
ATOM     85  F   UNL A   1      36.900  33.010  28.711  1.00  0.00    -0.205 F 
ATOM     86  C   UNL A   1      34.424  33.225  31.398  1.00  0.00     0.022 A 
BRANCH  84  87
ATOM     87  S   UNL A   1      34.054  34.209  28.873  1.00  0.00     0.127 S 
ATOM     88  O   UNL A   1      32.896  34.666  29.638  1.00  0.00    -0.237 OA
ATOM     89  O   UNL A   1      34.973  35.268  28.453  1.00  0.00    -0.237 OA
ATOM     90  O   UNL A   1      33.775  33.209  27.852  1.00  0.00    -0.744 OA
ENDBRANCH  84  87
ENDBRANCH  56  80
BRANCH  68  91
ATOM     91  C   UNL A   1      43.212  35.149  32.782  1.00  0.00     0.023 A 
ATOM     92  C   UNL A   1      43.450  36.357  32.100  1.00  0.00     0.012 A 
ATOM     93  C   UNL A   1      43.199  35.136  34.191  1.00  0.00     0.148 A 
ATOM     94  C   UNL A   1      43.673  37.537  32.809  1.00  0.00     0.002 A 
ATOM     95  C   UNL A   1      43.388  36.322  34.890  1.00  0.00     0.091 A 
ATOM     96  F   UNL A   1      42.976  33.970  34.815  1.00  0.00    -0.205 F 
ATOM     97  C   UNL A   1      43.628  37.522  34.201  1.00  0.00     0.022 A 
BRANCH  95  98
ATOM     98  S   UNL A   1      43.267  36.419  36.681  1.00  0.00     0.127 S 
ATOM     99  O   UNL A   1      43.576  37.828  36.923  1.00  0.00    -0.237 OA
ATOM    100  O   UNL A   1      41.872  36.049  36.918  1.00  0.00    -0.237 OA
ATOM    101  O   UNL A   1      44.244  35.472  37.203  1.00  0.00    -0.744 OA
ENDBRANCH  95  98
ENDBRANCH  68  91
ENDBRANCH  42  43
ENDBRANCH  35  37
ENDBRANCH  34  35
ENDBRANCH  33  34
ENDBRANCH  32  33
ENDBRANCH  31  32
ENDBRANCH   1  31
TORSDOF 21
ENDMDL
