MODEL 1
REMARK VINA RESULT:      -9.7      0.000      0.000
REMARK SMILES CCCc1cc(OCC(=O)OCCOCCOCCOC(=O)c2ccc(-c3c4nc(c(-c5cccc(S(=O)(=O)[O-])c5F)c5ccc([nH]5)c(-c5cccc(S(=O)(=O)[O-])c5F)c5nc(c(-c6cccc(S(=O)(=O)[O-])c6F)c6ccc3[nH]6)C=C5)C=C4)cc2)nc(Nc2ccc(C#N)cc2)n1
REMARK SMILES IDX 15 1 14 2 13 3 12 4 11 5 9 6 10 7 8 8 7 9 6 10 4 11 5 12
REMARK SMILES IDX 97 13 87 14 86 15 3 16 2 17 1 18 88 19 89 21 90 22 96 23
REMARK SMILES IDX 91 24 95 25 92 26 93 27 94 28 16 29 17 30 18 31 19 32 20 33
REMARK SMILES IDX 21 34 22 35 23 36 24 37 85 38 25 39 84 40 26 41 27 42 28 43
REMARK SMILES IDX 78 44 29 45 83 46 77 47 79 48 30 49 82 50 76 51 75 52 31 54
REMARK SMILES IDX 63 55 43 56 62 57 44 58 47 59 61 60 80 61 45 62 46 63 60 65
REMARK SMILES IDX 81 66 48 67 32 68 33 69 41 70 34 71 36 72 42 73 35 74 37 75
REMARK SMILES IDX 38 76 39 77 40 78 64 79 65 80 73 81 66 82 68 83 74 84 67 85
REMARK SMILES IDX 69 86 70 87 71 88 72 89 49 90 50 91 58 92 51 93 53 94 59 95
REMARK SMILES IDX 52 96 54 97 55 98 56 99 57 100
REMARK H PARENT 88 20 79 53 47 64
REMARK Flexibility Score: inf
ROOT
ATOM      1  C   UNL A   1      35.533  23.106  26.083  1.00  0.00     0.188 C 
ENDROOT
BRANCH   1   2
ATOM      2  O   UNL A   1      35.015  23.923  25.051  1.00  0.00    -0.376 OA
BRANCH   2   3
ATOM      3  C   UNL A   1      35.427  23.608  23.737  1.00  0.00     0.202 C 
BRANCH   3   4
ATOM      4  C   UNL A   1      34.496  24.129  22.635  1.00  0.00     0.261 C 
BRANCH   4   5
ATOM      5  O   UNL A   1      33.765  25.336  22.990  1.00  0.00    -0.461 OA
BRANCH   5   6
ATOM      6  C   UNL A   1      33.523  26.218  21.979  1.00  0.00     0.344 C 
ATOM      7  O   UNL A   1      33.306  25.887  20.817  1.00  0.00    -0.248 OA
BRANCH   6   8
ATOM      8  C   UNL A   1      33.610  27.708  22.382  1.00  0.00     0.353 C 
BRANCH   8   9
ATOM      9  O   UNL A   1      33.050  28.251  23.568  1.00  0.00    -0.466 OA
BRANCH   9  10
ATOM     10  C   UNL A   1      31.716  28.041  23.827  1.00  0.00     0.218 A 
ATOM     11  C   UNL A   1      29.498  28.590  23.501  1.00  0.00     0.050 A 
ATOM     12  C   UNL A   1      30.778  29.027  23.681  1.00  0.00     0.092 A 
ATOM     13  N   UNL A   1      29.158  27.283  23.675  1.00  0.00    -0.218 NA
ATOM     14  C   UNL A   1      30.102  26.396  24.012  1.00  0.00     0.230 A 
ATOM     15  N   UNL A   1      31.400  26.741  24.046  1.00  0.00    -0.177 NA
BRANCH  11  16
ATOM     16  C   UNL A   1      28.554  29.443  22.699  1.00  0.00     0.056 C 
BRANCH  16  17
ATOM     17  C   UNL A   1      28.522  30.952  22.706  1.00  0.00     0.003 C 
ATOM     18  C   UNL A   1      27.485  31.717  23.497  1.00  0.00     0.004 C 
ENDBRANCH  16  17
ENDBRANCH  11  16
BRANCH  14  19
ATOM     19  N   UNL A   1      29.780  25.069  24.334  1.00  0.00    -0.324 N 
ATOM     20  H   UNL A   1      28.822  24.923  24.511  1.00  0.00     0.170 HD
BRANCH  19  21
ATOM     21  C   UNL A   1      30.563  23.908  24.453  1.00  0.00     0.041 A 
ATOM     22  C   UNL A   1      31.052  23.501  25.704  1.00  0.00     0.027 A 
ATOM     23  C   UNL A   1      31.046  23.229  23.328  1.00  0.00     0.027 A 
ATOM     24  C   UNL A   1      31.898  22.383  25.837  1.00  0.00     0.021 A 
ATOM     25  C   UNL A   1      31.899  22.117  23.450  1.00  0.00     0.021 A 
ATOM     26  C   UNL A   1      32.304  21.671  24.709  1.00  0.00     0.052 A 
BRANCH  26  27
ATOM     27  C   UNL A   1      33.133  20.500  24.836  1.00  0.00     0.099 C 
ATOM     28  N   UNL A   1      33.783  19.547  24.930  1.00  0.00    -0.192 NA
ENDBRANCH  26  27
ENDBRANCH  19  21
ENDBRANCH  14  19
ENDBRANCH   9  10
ENDBRANCH   8   9
ENDBRANCH   6   8
ENDBRANCH   5   6
ENDBRANCH   4   5
ENDBRANCH   3   4
ENDBRANCH   2   3
ENDBRANCH   1   2
BRANCH   1  29
ATOM     29  C   UNL A   1      36.915  22.462  25.892  1.00  0.00     0.188 C 
BRANCH  29  30
ATOM     30  O   UNL A   1      36.830  21.052  25.758  1.00  0.00    -0.376 OA
BRANCH  30  31
ATOM     31  C   UNL A   1      37.816  20.540  24.854  1.00  0.00     0.202 C 
BRANCH  31  32
ATOM     32  C   UNL A   1      38.807  19.614  25.582  1.00  0.00     0.261 C 
BRANCH  32  33
ATOM     33  O   UNL A   1      40.148  20.151  25.715  1.00  0.00    -0.460 OA
BRANCH  33  34
ATOM     34  C   UNL A   1      40.650  20.259  26.988  1.00  0.00     0.338 C 
ATOM     35  O   UNL A   1      40.717  19.359  27.809  1.00  0.00    -0.246 OA
BRANCH  34  36
ATOM     36  C   UNL A   1      40.897  21.692  27.326  1.00  0.00     0.060 A 
ATOM     37  C   UNL A   1      41.635  22.100  28.446  1.00  0.00     0.016 A 
ATOM     38  C   UNL A   1      40.501  22.657  26.392  1.00  0.00     0.016 A 
ATOM     39  C   UNL A   1      42.140  23.424  28.513  1.00  0.00     0.010 A 
ATOM     40  C   UNL A   1      40.933  23.995  26.506  1.00  0.00     0.010 A 
ATOM     41  C   UNL A   1      41.802  24.393  27.536  1.00  0.00    -0.014 A 
BRANCH  41  42
ATOM     42  C   UNL A   1      42.047  25.855  27.801  1.00  0.00     0.031 A 
ATOM     43  C   UNL A   1      43.407  26.337  27.368  1.00  0.00     0.074 A 
ATOM     44  C   UNL A   1      41.213  26.735  28.412  1.00  0.00     0.049 A 
ATOM     45  N   UNL A   1      43.948  27.518  27.481  1.00  0.00    -0.248 NA
ATOM     46  C   UNL A   1      44.282  25.330  26.738  1.00  0.00     0.031 C 
ATOM     47  C   UNL A   1      39.893  26.441  28.945  1.00  0.00     0.029 A 
ATOM     48  N   UNL A   1      41.350  28.082  28.703  1.00  0.00    -0.354 N 
ATOM     49  C   UNL A   1      45.221  27.387  26.948  1.00  0.00     0.074 A 
ATOM     50  C   UNL A   1      45.378  26.024  26.507  1.00  0.00     0.031 C 
ATOM     51  C   UNL A   1      39.305  27.552  29.420  1.00  0.00     0.029 A 
ATOM     52  C   UNL A   1      40.262  28.644  29.355  1.00  0.00     0.049 A 
ATOM     53  H   UNL A   1      42.155  28.598  28.468  1.00  0.00     0.167 HD
ATOM     54  C   UNL A   1      46.202  28.308  26.846  1.00  0.00     0.034 A 
ATOM     55  C   UNL A   1      40.069  29.869  29.897  1.00  0.00     0.034 A 
ATOM     56  C   UNL A   1      46.106  29.633  27.370  1.00  0.00     0.049 A 
ATOM     57  C   UNL A   1      41.214  30.851  29.844  1.00  0.00     0.074 A 
ATOM     58  C   UNL A   1      47.069  30.620  27.378  1.00  0.00     0.029 A 
ATOM     59  N   UNL A   1      44.992  30.140  28.019  1.00  0.00    -0.354 N 
ATOM     60  N   UNL A   1      42.384  30.720  29.268  1.00  0.00    -0.248 NA
ATOM     61  C   UNL A   1      41.021  32.147  30.516  1.00  0.00     0.031 C 
ATOM     62  C   UNL A   1      46.546  31.724  28.057  1.00  0.00     0.029 A 
ATOM     63  C   UNL A   1      45.240  31.437  28.424  1.00  0.00     0.049 A 
ATOM     64  H   UNL A   1      44.151  29.651  28.168  1.00  0.00     0.167 HD
ATOM     65  C   UNL A   1      43.045  31.927  29.468  1.00  0.00     0.074 A 
ATOM     66  C   UNL A   1      42.139  32.785  30.200  1.00  0.00     0.031 C 
ATOM     67  C   UNL A   1      44.295  32.289  29.093  1.00  0.00     0.034 A 
BRANCH  54  68
ATOM     68  C   UNL A   1      47.461  27.858  26.168  1.00  0.00     0.023 A 
ATOM     69  C   UNL A   1      47.559  27.938  24.762  1.00  0.00     0.012 A 
ATOM     70  C   UNL A   1      48.515  27.296  26.910  1.00  0.00     0.148 A 
ATOM     71  C   UNL A   1      48.669  27.420  24.101  1.00  0.00     0.002 A 
ATOM     72  C   UNL A   1      49.642  26.833  26.249  1.00  0.00     0.091 A 
ATOM     73  F   UNL A   1      48.376  27.195  28.239  1.00  0.00    -0.205 F 
ATOM     74  C   UNL A   1      49.713  26.877  24.845  1.00  0.00     0.022 A 
BRANCH  72  75
ATOM     75  S   UNL A   1      51.069  26.178  27.113  1.00  0.00     0.127 S 
ATOM     76  O   UNL A   1      52.105  26.262  26.085  1.00  0.00    -0.237 OA
ATOM     77  O   UNL A   1      51.217  27.132  28.211  1.00  0.00    -0.237 OA
ATOM     78  O   UNL A   1      50.713  24.826  27.519  1.00  0.00    -0.744 OA
ENDBRANCH  72  75
ENDBRANCH  54  68
BRANCH  55  79
ATOM     79  C   UNL A   1      38.782  30.272  30.570  1.00  0.00     0.023 A 
ATOM     80  C   UNL A   1      38.497  29.797  31.870  1.00  0.00     0.012 A 
ATOM     81  C   UNL A   1      37.800  31.042  29.913  1.00  0.00     0.148 A 
ATOM     82  C   UNL A   1      37.255  30.029  32.472  1.00  0.00     0.002 A 
ATOM     83  C   UNL A   1      36.588  31.323  30.543  1.00  0.00     0.091 A 
ATOM     84  F   UNL A   1      38.056  31.472  28.670  1.00  0.00    -0.205 F 
ATOM     85  C   UNL A   1      36.303  30.798  31.812  1.00  0.00     0.022 A 
BRANCH  83  86
ATOM     86  S   UNL A   1      35.340  32.397  29.818  1.00  0.00     0.127 S 
ATOM     87  O   UNL A   1      34.892  31.608  28.674  1.00  0.00    -0.237 OA
ATOM     88  O   UNL A   1      34.369  32.509  30.907  1.00  0.00    -0.237 OA
ATOM     89  O   UNL A   1      36.031  33.639  29.499  1.00  0.00    -0.744 OA
ENDBRANCH  83  86
ENDBRANCH  55  79
BRANCH  67  90
ATOM     90  C   UNL A   1      44.734  33.697  29.382  1.00  0.00     0.023 A 
ATOM     91  C   UNL A   1      45.358  34.015  30.602  1.00  0.00     0.012 A 
ATOM     92  C   UNL A   1      44.610  34.681  28.383  1.00  0.00     0.148 A 
ATOM     93  C   UNL A   1      45.829  35.307  30.835  1.00  0.00     0.002 A 
ATOM     94  C   UNL A   1      45.134  35.947  28.597  1.00  0.00     0.091 A 
ATOM     95  F   UNL A   1      43.995  34.354  27.237  1.00  0.00    -0.205 F 
ATOM     96  C   UNL A   1      45.730  36.266  29.827  1.00  0.00     0.022 A 
BRANCH  94  97
ATOM     97  S   UNL A   1      45.157  37.203  27.316  1.00  0.00     0.127 S 
ATOM     98  O   UNL A   1      45.946  36.550  26.273  1.00  0.00    -0.237 OA
ATOM     99  O   UNL A   1      43.736  37.353  27.007  1.00  0.00    -0.237 OA
ATOM    100  O   UNL A   1      45.773  38.380  27.915  1.00  0.00    -0.744 OA
ENDBRANCH  94  97
ENDBRANCH  67  90
ENDBRANCH  41  42
ENDBRANCH  34  36
ENDBRANCH  33  34
ENDBRANCH  32  33
ENDBRANCH  31  32
ENDBRANCH  30  31
ENDBRANCH  29  30
ENDBRANCH   1  29
TORSDOF 27
ENDMDL
MODEL 2
REMARK VINA RESULT:      -9.2      1.878      2.221
REMARK SMILES CCCc1cc(OCC(=O)OCCOCCOCCOC(=O)c2ccc(-c3c4nc(c(-c5cccc(S(=O)(=O)[O-])c5F)c5ccc([nH]5)c(-c5cccc(S(=O)(=O)[O-])c5F)c5nc(c(-c6cccc(S(=O)(=O)[O-])c6F)c6ccc3[nH]6)C=C5)C=C4)cc2)nc(Nc2ccc(C#N)cc2)n1
REMARK SMILES IDX 15 1 14 2 13 3 12 4 11 5 9 6 10 7 8 8 7 9 6 10 4 11 5 12
REMARK SMILES IDX 97 13 87 14 86 15 3 16 2 17 1 18 88 19 89 21 90 22 96 23
REMARK SMILES IDX 91 24 95 25 92 26 93 27 94 28 16 29 17 30 18 31 19 32 20 33
REMARK SMILES IDX 21 34 22 35 23 36 24 37 85 38 25 39 84 40 26 41 27 42 28 43
REMARK SMILES IDX 78 44 29 45 83 46 77 47 79 48 30 49 82 50 76 51 75 52 31 54
REMARK SMILES IDX 63 55 43 56 62 57 44 58 47 59 61 60 80 61 45 62 46 63 60 65
REMARK SMILES IDX 81 66 48 67 32 68 33 69 41 70 34 71 36 72 42 73 35 74 37 75
REMARK SMILES IDX 38 76 39 77 40 78 64 79 65 80 73 81 66 82 68 83 74 84 67 85
REMARK SMILES IDX 69 86 70 87 71 88 72 89 49 90 50 91 58 92 51 93 53 94 59 95
REMARK SMILES IDX 52 96 54 97 55 98 56 99 57 100
REMARK H PARENT 88 20 79 53 47 64
REMARK Flexibility Score: inf
ROOT
ATOM      1  C   UNL A   1      35.294  23.484  26.005  1.00  0.00     0.188 C 
ENDROOT
BRANCH   1   2
ATOM      2  O   UNL A   1      34.873  24.144  24.826  1.00  0.00    -0.376 OA
BRANCH   2   3
ATOM      3  C   UNL A   1      35.099  23.460  23.611  1.00  0.00     0.202 C 
BRANCH   3   4
ATOM      4  C   UNL A   1      34.556  24.173  22.367  1.00  0.00     0.261 C 
BRANCH   4   5
ATOM      5  O   UNL A   1      33.438  25.067  22.630  1.00  0.00    -0.461 OA
BRANCH   5   6
ATOM      6  C   UNL A   1      33.326  26.154  21.814  1.00  0.00     0.344 C 
ATOM      7  O   UNL A   1      33.151  26.087  20.601  1.00  0.00    -0.248 OA
BRANCH   6   8
ATOM      8  C   UNL A   1      33.507  27.517  22.520  1.00  0.00     0.353 C 
BRANCH   8   9
ATOM      9  O   UNL A   1      32.975  27.835  23.797  1.00  0.00    -0.466 OA
BRANCH   9  10
ATOM     10  C   UNL A   1      31.692  27.442  24.097  1.00  0.00     0.218 A 
ATOM     11  C   UNL A   1      29.415  27.594  23.752  1.00  0.00     0.050 A 
ATOM     12  C   UNL A   1      30.608  28.246  23.868  1.00  0.00     0.092 A 
ATOM     13  N   UNL A   1      29.289  26.274  24.060  1.00  0.00    -0.218 NA
ATOM     14  C   UNL A   1      30.362  25.588  24.468  1.00  0.00     0.230 A 
ATOM     15  N   UNL A   1      31.588  26.137  24.448  1.00  0.00    -0.177 NA
BRANCH  11  16
ATOM     16  C   UNL A   1      28.346  28.201  22.884  1.00  0.00     0.056 C 
BRANCH  16  17
ATOM     17  C   UNL A   1      28.253  29.660  22.507  1.00  0.00     0.003 C 
ATOM     18  C   UNL A   1      27.652  30.681  23.445  1.00  0.00     0.004 C 
ENDBRANCH  16  17
ENDBRANCH  11  16
BRANCH  14  19
ATOM     19  N   UNL A   1      30.257  24.265  24.926  1.00  0.00    -0.324 N 
ATOM     20  H   UNL A   1      29.406  24.067  25.380  1.00  0.00     0.170 HD
BRANCH  19  21
ATOM     21  C   UNL A   1      31.134  23.169  24.859  1.00  0.00     0.041 A 
ATOM     22  C   UNL A   1      31.431  22.565  23.627  1.00  0.00     0.027 A 
ATOM     23  C   UNL A   1      31.585  22.518  26.013  1.00  0.00     0.027 A 
ATOM     24  C   UNL A   1      32.248  21.422  23.543  1.00  0.00     0.021 A 
ATOM     25  C   UNL A   1      32.394  21.368  25.940  1.00  0.00     0.021 A 
ATOM     26  C   UNL A   1      32.754  20.833  24.703  1.00  0.00     0.052 A 
BRANCH  26  27
ATOM     27  C   UNL A   1      33.627  19.691  24.627  1.00  0.00     0.099 C 
ATOM     28  N   UNL A   1      34.345  18.784  24.575  1.00  0.00    -0.192 NA
ENDBRANCH  26  27
ENDBRANCH  19  21
ENDBRANCH  14  19
ENDBRANCH   9  10
ENDBRANCH   8   9
ENDBRANCH   6   8
ENDBRANCH   5   6
ENDBRANCH   4   5
ENDBRANCH   3   4
ENDBRANCH   2   3
ENDBRANCH   1   2
BRANCH   1  29
ATOM     29  C   UNL A   1      36.684  22.830  26.029  1.00  0.00     0.188 C 
BRANCH  29  30
ATOM     30  O   UNL A   1      36.611  21.422  25.866  1.00  0.00    -0.376 OA
BRANCH  30  31
ATOM     31  C   UNL A   1      37.615  20.936  24.967  1.00  0.00     0.202 C 
BRANCH  31  32
ATOM     32  C   UNL A   1      38.534  19.916  25.664  1.00  0.00     0.261 C 
BRANCH  32  33
ATOM     33  O   UNL A   1      39.935  20.291  25.696  1.00  0.00    -0.460 OA
BRANCH  33  34
ATOM     34  C   UNL A   1      40.526  20.381  26.931  1.00  0.00     0.338 C 
ATOM     35  O   UNL A   1      40.636  19.475  27.740  1.00  0.00    -0.246 OA
BRANCH  34  36
ATOM     36  C   UNL A   1      40.816  21.808  27.261  1.00  0.00     0.060 A 
ATOM     37  C   UNL A   1      41.621  22.199  28.340  1.00  0.00     0.016 A 
ATOM     38  C   UNL A   1      40.388  22.785  26.353  1.00  0.00     0.016 A 
ATOM     39  C   UNL A   1      42.154  23.512  28.385  1.00  0.00     0.010 A 
ATOM     40  C   UNL A   1      40.851  24.114  26.448  1.00  0.00     0.010 A 
ATOM     41  C   UNL A   1      41.781  24.492  27.431  1.00  0.00    -0.014 A 
BRANCH  41  42
ATOM     42  C   UNL A   1      42.067  25.948  27.687  1.00  0.00     0.031 A 
ATOM     43  C   UNL A   1      43.407  26.408  27.178  1.00  0.00     0.074 A 
ATOM     44  C   UNL A   1      41.285  26.839  28.350  1.00  0.00     0.049 A 
ATOM     45  N   UNL A   1      43.974  27.580  27.263  1.00  0.00    -0.248 NA
ATOM     46  C   UNL A   1      44.226  25.390  26.493  1.00  0.00     0.031 C 
ATOM     47  C   UNL A   1      39.994  26.565  28.958  1.00  0.00     0.029 A 
ATOM     48  N   UNL A   1      41.463  28.182  28.638  1.00  0.00    -0.354 N 
ATOM     49  C   UNL A   1      45.212  27.429  26.656  1.00  0.00     0.074 A 
ATOM     50  C   UNL A   1      45.318  26.066  26.201  1.00  0.00     0.031 C 
ATOM     51  C   UNL A   1      39.455  27.683  29.471  1.00  0.00     0.029 A 
ATOM     52  C   UNL A   1      40.425  28.759  29.355  1.00  0.00     0.049 A 
ATOM     53  H   UNL A   1      42.262  28.685  28.359  1.00  0.00     0.167 HD
ATOM     54  C   UNL A   1      46.201  28.334  26.500  1.00  0.00     0.034 A 
ATOM     55  C   UNL A   1      40.285  29.984  29.912  1.00  0.00     0.034 A 
ATOM     56  C   UNL A   1      46.159  29.657  27.036  1.00  0.00     0.049 A 
ATOM     57  C   UNL A   1      41.443  30.947  29.797  1.00  0.00     0.074 A 
ATOM     58  C   UNL A   1      47.139  30.628  26.991  1.00  0.00     0.029 A 
ATOM     59  N   UNL A   1      45.094  30.181  27.750  1.00  0.00    -0.354 N 
ATOM     60  N   UNL A   1      42.574  30.799  29.152  1.00  0.00    -0.248 NA
ATOM     61  C   UNL A   1      41.312  32.242  30.484  1.00  0.00     0.031 C 
ATOM     62  C   UNL A   1      46.675  31.737  27.704  1.00  0.00     0.029 A 
ATOM     63  C   UNL A   1      45.388  31.471  28.145  1.00  0.00     0.049 A 
ATOM     64  H   UNL A   1      44.255  29.705  27.946  1.00  0.00     0.167 HD
ATOM     65  C   UNL A   1      43.266  31.993  29.318  1.00  0.00     0.074 A 
ATOM     66  C   UNL A   1      42.421  32.863  30.106  1.00  0.00     0.031 C 
ATOM     67  C   UNL A   1      44.499  32.335  28.873  1.00  0.00     0.034 A 
BRANCH  54  68
ATOM     68  C   UNL A   1      47.411  27.866  25.748  1.00  0.00     0.023 A 
ATOM     69  C   UNL A   1      48.519  27.361  26.462  1.00  0.00     0.012 A 
ATOM     70  C   UNL A   1      47.478  27.988  24.349  1.00  0.00     0.148 A 
ATOM     71  C   UNL A   1      49.695  27.029  25.796  1.00  0.00     0.002 A 
ATOM     72  C   UNL A   1      48.634  27.602  23.687  1.00  0.00     0.091 A 
ATOM     73  F   UNL A   1      46.427  28.511  23.702  1.00  0.00    -0.205 F 
ATOM     74  C   UNL A   1      49.749  27.141  24.410  1.00  0.00     0.022 A 
BRANCH  72  75
ATOM     75  S   UNL A   1      48.784  27.643  21.902  1.00  0.00     0.127 S 
ATOM     76  O   UNL A   1      47.404  27.899  21.492  1.00  0.00    -0.237 OA
ATOM     77  O   UNL A   1      49.699  28.768  21.705  1.00  0.00    -0.237 OA
ATOM     78  O   UNL A   1      49.314  26.346  21.508  1.00  0.00    -0.744 OA
ENDBRANCH  72  75
ENDBRANCH  54  68
BRANCH  55  79
ATOM     79  C   UNL A   1      39.047  30.406  30.661  1.00  0.00     0.023 A 
ATOM     80  C   UNL A   1      38.887  30.025  32.013  1.00  0.00     0.012 A 
ATOM     81  C   UNL A   1      37.991  31.100  30.036  1.00  0.00     0.148 A 
ATOM     82  C   UNL A   1      37.693  30.272  32.700  1.00  0.00     0.002 A 
ATOM     83  C   UNL A   1      36.827  31.398  30.745  1.00  0.00     0.091 A 
ATOM     84  F   UNL A   1      38.128  31.439  28.747  1.00  0.00    -0.205 F 
ATOM     85  C   UNL A   1      36.665  30.964  32.069  1.00  0.00     0.022 A 
BRANCH  83  86
ATOM     86  S   UNL A   1      35.491  32.382  30.051  1.00  0.00     0.127 S 
ATOM     87  O   UNL A   1      36.169  33.639  29.747  1.00  0.00    -0.237 OA
ATOM     88  O   UNL A   1      35.109  31.590  28.881  1.00  0.00    -0.237 OA
ATOM     89  O   UNL A   1      34.473  32.448  31.091  1.00  0.00    -0.744 OA
ENDBRANCH  83  86
ENDBRANCH  55  79
BRANCH  67  90
ATOM     90  C   UNL A   1      44.979  33.734  29.142  1.00  0.00     0.023 A 
ATOM     91  C   UNL A   1      44.728  34.766  28.220  1.00  0.00     0.012 A 
ATOM     92  C   UNL A   1      45.596  34.030  30.372  1.00  0.00     0.148 A 
ATOM     93  C   UNL A   1      45.112  36.075  28.509  1.00  0.00     0.002 A 
ATOM     94  C   UNL A   1      45.920  35.343  30.679  1.00  0.00     0.091 A 
ATOM     95  F   UNL A   1      45.840  33.023  31.224  1.00  0.00    -0.205 F 
ATOM     96  C   UNL A   1      45.693  36.365  29.743  1.00  0.00     0.022 A 
BRANCH  94  97
ATOM     97  S   UNL A   1      46.561  35.821  32.285  1.00  0.00     0.127 S 
ATOM     98  O   UNL A   1      45.590  35.205  33.188  1.00  0.00    -0.237 OA
ATOM     99  O   UNL A   1      47.882  35.195  32.288  1.00  0.00    -0.237 OA
ATOM    100  O   UNL A   1      46.581  37.278  32.295  1.00  0.00    -0.744 OA
ENDBRANCH  94  97
ENDBRANCH  67  90
ENDBRANCH  41  42
ENDBRANCH  34  36
ENDBRANCH  33  34
ENDBRANCH  32  33
ENDBRANCH  31  32
ENDBRANCH  30  31
ENDBRANCH  29  30
ENDBRANCH   1  29
TORSDOF 27
ENDMDL
MODEL 3
REMARK VINA RESULT:      -8.7      2.505      4.252
REMARK SMILES CCCc1cc(OCC(=O)OCCOCCOCCOC(=O)c2ccc(-c3c4nc(c(-c5cccc(S(=O)(=O)[O-])c5F)c5ccc([nH]5)c(-c5cccc(S(=O)(=O)[O-])c5F)c5nc(c(-c6cccc(S(=O)(=O)[O-])c6F)c6ccc3[nH]6)C=C5)C=C4)cc2)nc(Nc2ccc(C#N)cc2)n1
REMARK SMILES IDX 15 1 14 2 13 3 12 4 11 5 9 6 10 7 8 8 7 9 6 10 4 11 5 12
REMARK SMILES IDX 97 13 87 14 86 15 3 16 2 17 1 18 88 19 89 21 90 22 96 23
REMARK SMILES IDX 91 24 95 25 92 26 93 27 94 28 16 29 17 30 18 31 19 32 20 33
REMARK SMILES IDX 21 34 22 35 23 36 24 37 85 38 25 39 84 40 26 41 27 42 28 43
REMARK SMILES IDX 78 44 29 45 83 46 77 47 79 48 30 49 82 50 76 51 75 52 31 54
REMARK SMILES IDX 63 55 43 56 62 57 44 58 47 59 61 60 80 61 45 62 46 63 60 65
REMARK SMILES IDX 81 66 48 67 32 68 33 69 41 70 34 71 36 72 42 73 35 74 37 75
REMARK SMILES IDX 38 76 39 77 40 78 64 79 65 80 73 81 66 82 68 83 74 84 67 85
REMARK SMILES IDX 69 86 70 87 71 88 72 89 49 90 50 91 58 92 51 93 53 94 59 95
REMARK SMILES IDX 52 96 54 97 55 98 56 99 57 100
REMARK H PARENT 88 20 79 53 47 64
REMARK Flexibility Score: inf
ROOT
ATOM      1  C   UNL A   1      34.595  23.518  25.919  1.00  0.00     0.188 C 
ENDROOT
BRANCH   1   2
ATOM      2  O   UNL A   1      34.074  24.199  24.792  1.00  0.00    -0.376 OA
BRANCH   2   3
ATOM      3  C   UNL A   1      34.190  23.534  23.552  1.00  0.00     0.202 C 
BRANCH   3   4
ATOM      4  C   UNL A   1      33.467  24.225  22.388  1.00  0.00     0.261 C 
BRANCH   4   5
ATOM      5  O   UNL A   1      32.359  25.078  22.794  1.00  0.00    -0.461 OA
BRANCH   5   6
ATOM      6  C   UNL A   1      32.117  26.169  22.014  1.00  0.00     0.344 C 
ATOM      7  O   UNL A   1      31.119  26.303  21.313  1.00  0.00    -0.248 OA
BRANCH   6   8
ATOM      8  C   UNL A   1      33.243  27.228  22.011  1.00  0.00     0.353 C 
BRANCH   8   9
ATOM      9  O   UNL A   1      34.086  27.504  23.119  1.00  0.00    -0.466 OA
BRANCH   9  10
ATOM     10  C   UNL A   1      33.513  27.911  24.301  1.00  0.00     0.218 A 
ATOM     11  C   UNL A   1      33.714  28.705  26.459  1.00  0.00     0.050 A 
ATOM     12  C   UNL A   1      34.184  27.864  25.493  1.00  0.00     0.092 A 
ATOM     13  N   UNL A   1      32.537  29.374  26.313  1.00  0.00    -0.218 NA
ATOM     14  C   UNL A   1      31.828  29.221  25.189  1.00  0.00     0.230 A 
ATOM     15  N   UNL A   1      32.319  28.532  24.145  1.00  0.00    -0.177 NA
BRANCH  11  16
ATOM     16  C   UNL A   1      34.681  29.234  27.483  1.00  0.00     0.056 C 
BRANCH  16  17
ATOM     17  C   UNL A   1      34.888  30.692  27.816  1.00  0.00     0.003 C 
ATOM     18  C   UNL A   1      36.272  31.285  27.940  1.00  0.00     0.004 C 
ENDBRANCH  16  17
ENDBRANCH  11  16
BRANCH  14  19
ATOM     19  N   UNL A   1      30.548  29.779  25.047  1.00  0.00    -0.324 N 
ATOM     20  H   UNL A   1      30.026  29.797  25.883  1.00  0.00     0.170 HD
BRANCH  19  21
ATOM     21  C   UNL A   1      29.869  30.318  23.942  1.00  0.00     0.041 A 
ATOM     22  C   UNL A   1      29.877  29.655  22.705  1.00  0.00     0.027 A 
ATOM     23  C   UNL A   1      29.332  31.610  23.968  1.00  0.00     0.027 A 
ATOM     24  C   UNL A   1      29.266  30.210  21.565  1.00  0.00     0.021 A 
ATOM     25  C   UNL A   1      28.727  32.179  22.831  1.00  0.00     0.021 A 
ATOM     26  C   UNL A   1      28.664  31.468  21.632  1.00  0.00     0.052 A 
BRANCH  26  27
ATOM     27  C   UNL A   1      27.997  32.027  20.485  1.00  0.00     0.099 C 
ATOM     28  N   UNL A   1      27.442  32.477  19.574  1.00  0.00    -0.192 NA
ENDBRANCH  26  27
ENDBRANCH  19  21
ENDBRANCH  14  19
ENDBRANCH   9  10
ENDBRANCH   8   9
ENDBRANCH   6   8
ENDBRANCH   5   6
ENDBRANCH   4   5
ENDBRANCH   3   4
ENDBRANCH   2   3
ENDBRANCH   1   2
BRANCH   1  29
ATOM     29  C   UNL A   1      36.108  23.259  25.991  1.00  0.00     0.188 C 
BRANCH  29  30
ATOM     30  O   UNL A   1      36.421  21.888  25.806  1.00  0.00    -0.376 OA
BRANCH  30  31
ATOM     31  C   UNL A   1      37.661  21.712  25.112  1.00  0.00     0.202 C 
BRANCH  31  32
ATOM     32  C   UNL A   1      38.575  20.721  25.854  1.00  0.00     0.261 C 
BRANCH  32  33
ATOM     33  O   UNL A   1      39.978  21.091  25.871  1.00  0.00    -0.460 OA
BRANCH  33  34
ATOM     34  C   UNL A   1      40.595  21.127  27.096  1.00  0.00     0.338 C 
ATOM     35  O   UNL A   1      40.637  20.214  27.904  1.00  0.00    -0.246 OA
BRANCH  34  36
ATOM     36  C   UNL A   1      41.019  22.522  27.419  1.00  0.00     0.060 A 
ATOM     37  C   UNL A   1      41.807  22.847  28.532  1.00  0.00     0.016 A 
ATOM     38  C   UNL A   1      40.742  23.520  26.476  1.00  0.00     0.016 A 
ATOM     39  C   UNL A   1      42.473  24.098  28.584  1.00  0.00     0.010 A 
ATOM     40  C   UNL A   1      41.337  24.795  26.575  1.00  0.00     0.010 A 
ATOM     41  C   UNL A   1      42.253  25.092  27.599  1.00  0.00    -0.014 A 
BRANCH  41  42
ATOM     42  C   UNL A   1      42.679  26.516  27.848  1.00  0.00     0.031 A 
ATOM     43  C   UNL A   1      44.064  26.837  27.351  1.00  0.00     0.074 A 
ATOM     44  C   UNL A   1      41.981  27.484  28.494  1.00  0.00     0.049 A 
ATOM     45  N   UNL A   1      44.743  27.947  27.435  1.00  0.00    -0.248 NA
ATOM     46  C   UNL A   1      44.786  25.736  26.684  1.00  0.00     0.031 C 
ATOM     47  C   UNL A   1      40.662  27.345  29.088  1.00  0.00     0.029 A 
ATOM     48  N   UNL A   1      42.288  28.806  28.774  1.00  0.00    -0.354 N 
ATOM     49  C   UNL A   1      45.967  27.669  26.845  1.00  0.00     0.074 A 
ATOM     50  C   UNL A   1      45.943  26.299  26.401  1.00  0.00     0.031 C 
ATOM     51  C   UNL A   1      40.230  28.515  29.586  1.00  0.00     0.029 A 
ATOM     52  C   UNL A   1      41.304  29.489  29.474  1.00  0.00     0.049 A 
ATOM     53  H   UNL A   1      43.135  29.225  28.501  1.00  0.00     0.167 HD
ATOM     54  C   UNL A   1      47.042  28.471  26.694  1.00  0.00     0.034 A 
ATOM     55  C   UNL A   1      41.279  30.727  30.021  1.00  0.00     0.034 A 
ATOM     56  C   UNL A   1      47.125  29.796  27.219  1.00  0.00     0.049 A 
ATOM     57  C   UNL A   1      42.528  31.569  29.912  1.00  0.00     0.074 A 
ATOM     58  C   UNL A   1      48.196  30.665  27.180  1.00  0.00     0.029 A 
ATOM     59  N   UNL A   1      46.109  30.429  27.917  1.00  0.00    -0.354 N 
ATOM     60  N   UNL A   1      43.647  31.305  29.283  1.00  0.00    -0.248 NA
ATOM     61  C   UNL A   1      42.518  32.877  30.588  1.00  0.00     0.031 C 
ATOM     62  C   UNL A   1      47.837  31.820  27.879  1.00  0.00     0.029 A 
ATOM     63  C   UNL A   1      46.524  31.686  28.306  1.00  0.00     0.049 A 
ATOM     64  H   UNL A   1      45.224  30.040  28.106  1.00  0.00     0.167 HD
ATOM     65  C   UNL A   1      44.451  32.426  29.449  1.00  0.00     0.074 A 
ATOM     66  C   UNL A   1      43.687  33.382  30.220  1.00  0.00     0.031 C 
ATOM     67  C   UNL A   1      45.716  32.641  29.016  1.00  0.00     0.034 A 
BRANCH  54  68
ATOM     68  C   UNL A   1      48.208  27.879  25.960  1.00  0.00     0.023 A 
ATOM     69  C   UNL A   1      49.300  27.367  26.693  1.00  0.00     0.012 A 
ATOM     70  C   UNL A   1      48.253  27.891  24.556  1.00  0.00     0.148 A 
ATOM     71  C   UNL A   1      50.443  26.919  26.035  1.00  0.00     0.002 A 
ATOM     72  C   UNL A   1      49.372  27.391  23.906  1.00  0.00     0.091 A 
ATOM     73  F   UNL A   1      47.220  28.422  23.888  1.00  0.00    -0.205 F 
ATOM     74  C   UNL A   1      50.474  26.923  24.644  1.00  0.00     0.022 A 
BRANCH  72  75
ATOM     75  S   UNL A   1      49.488  27.288  22.121  1.00  0.00     0.127 S 
ATOM     76  O   UNL A   1      49.430  28.699  21.737  1.00  0.00    -0.237 OA
ATOM     77  O   UNL A   1      50.796  26.659  21.942  1.00  0.00    -0.237 OA
ATOM     78  O   UNL A   1      48.355  26.484  21.685  1.00  0.00    -0.744 OA
ENDBRANCH  72  75
ENDBRANCH  54  68
BRANCH  55  79
ATOM     79  C   UNL A   1      40.081  31.275  30.751  1.00  0.00     0.023 A 
ATOM     80  C   UNL A   1      39.153  32.086  30.058  1.00  0.00     0.012 A 
ATOM     81  C   UNL A   1      39.890  31.081  32.135  1.00  0.00     0.148 A 
ATOM     82  C   UNL A   1      38.109  32.731  30.729  1.00  0.00     0.002 A 
ATOM     83  C   UNL A   1      38.810  31.676  32.787  1.00  0.00     0.091 A 
ATOM     84  F   UNL A   1      40.782  30.335  32.800  1.00  0.00    -0.205 F 
ATOM     85  C   UNL A   1      37.932  32.521  32.092  1.00  0.00     0.022 A 
BRANCH  83  86
ATOM     86  S   UNL A   1      38.436  31.376  34.521  1.00  0.00     0.127 S 
ATOM     87  O   UNL A   1      38.363  29.918  34.565  1.00  0.00    -0.237 OA
ATOM     88  O   UNL A   1      39.605  31.954  35.186  1.00  0.00    -0.237 OA
ATOM     89  O   UNL A   1      37.188  32.081  34.779  1.00  0.00    -0.744 OA
ENDBRANCH  83  86
ENDBRANCH  55  79
BRANCH  67  90
ATOM     90  C   UNL A   1      46.330  33.987  29.281  1.00  0.00     0.023 A 
ATOM     91  C   UNL A   1      47.088  34.212  30.444  1.00  0.00     0.012 A 
ATOM     92  C   UNL A   1      46.227  34.999  28.307  1.00  0.00     0.148 A 
ATOM     93  C   UNL A   1      47.714  35.441  30.648  1.00  0.00     0.002 A 
ATOM     94  C   UNL A   1      46.902  36.197  28.487  1.00  0.00     0.091 A 
ATOM     95  F   UNL A   1      45.483  34.764  27.216  1.00  0.00    -0.205 F 
ATOM     96  C   UNL A   1      47.634  36.426  29.664  1.00  0.00     0.022 A 
BRANCH  94  97
ATOM     97  S   UNL A   1      46.950  37.469  27.224  1.00  0.00     0.127 S 
ATOM     98  O   UNL A   1      46.843  36.677  26.000  1.00  0.00    -0.237 OA
ATOM     99  O   UNL A   1      45.766  38.265  27.544  1.00  0.00    -0.237 OA
ATOM    100  O   UNL A   1      48.216  38.169  27.402  1.00  0.00    -0.744 OA
ENDBRANCH  94  97
ENDBRANCH  67  90
ENDBRANCH  41  42
ENDBRANCH  34  36
ENDBRANCH  33  34
ENDBRANCH  32  33
ENDBRANCH  31  32
ENDBRANCH  30  31
ENDBRANCH  29  30
ENDBRANCH   1  29
TORSDOF 27
ENDMDL
