MODEL 1
REMARK VINA RESULT:      -9.7      0.000      0.000
REMARK SMILES O=C(OCCOCCOCCOC(=O)c1cc(Cl)cn(Cc2ccc(Cl)cc2)c1=O)c1ccc(-c2c3nc(c(-c4cccc(S(=O)(=O)[O-])c4F)c4ccc([nH]4)c(-c4cccc(S(=O)(=O)[O-])c4F)c4nc(c(-c5cccc(S(=O)(=O)[O-])c5F)c5ccc2[nH]5)C=C4)C=C3)cc1
REMARK SMILES IDX 7 1 6 2 5 3 4 4 3 5 2 6 1 7 31 8 32 9 93 10 33 11 92 12
REMARK SMILES IDX 34 13 35 14 36 15 86 16 37 17 91 18 85 19 87 20 38 21 90 22
REMARK SMILES IDX 84 23 83 24 39 26 71 27 51 28 70 29 52 30 55 31 69 32 88 33
REMARK SMILES IDX 53 34 54 35 68 37 89 38 56 39 40 40 41 41 49 42 42 43 44 44
REMARK SMILES IDX 50 45 43 46 45 47 46 48 47 49 48 50 72 51 73 52 81 53 74 54
REMARK SMILES IDX 76 55 82 56 75 57 77 58 78 59 79 60 80 61 57 62 58 63 66 64
REMARK SMILES IDX 59 65 61 66 67 67 60 68 62 69 63 70 64 71 65 72 8 73 9 74
REMARK SMILES IDX 10 75 11 76 12 77 13 78 14 79 15 80 16 81 29 82 17 83 20 84
REMARK SMILES IDX 30 85 18 86 19 87 21 88 22 89 23 90 28 91 24 92 27 93 25 94
REMARK SMILES IDX 26 95
REMARK H PARENT 87 25 55 36
REMARK Flexibility Score: inf
ROOT
ATOM      1  C   UNL A   1      40.041  21.461  26.661  1.00  0.00     0.188 C 
ENDROOT
BRANCH   1   2
ATOM      2  O   UNL A   1      40.407  20.726  27.819  1.00  0.00    -0.376 OA
BRANCH   2   3
ATOM      3  C   UNL A   1      41.237  19.594  27.609  1.00  0.00     0.202 C 
BRANCH   3   4
ATOM      4  C   UNL A   1      41.533  19.307  26.138  1.00  0.00     0.261 C 
BRANCH   4   5
ATOM      5  O   UNL A   1      42.925  19.444  25.817  1.00  0.00    -0.460 OA
BRANCH   5   6
ATOM      6  C   UNL A   1      43.580  20.490  25.257  1.00  0.00     0.338 C 
ATOM      7  O   UNL A   1      44.404  20.231  24.379  1.00  0.00    -0.246 OA
BRANCH   6   8
ATOM      8  C   UNL A   1      43.500  21.917  25.739  1.00  0.00     0.060 A 
ATOM      9  C   UNL A   1      43.641  22.107  27.126  1.00  0.00     0.016 A 
ATOM     10  C   UNL A   1      43.296  23.061  24.961  1.00  0.00     0.016 A 
ATOM     11  C   UNL A   1      43.585  23.384  27.703  1.00  0.00     0.010 A 
ATOM     12  C   UNL A   1      43.238  24.341  25.530  1.00  0.00     0.010 A 
ATOM     13  C   UNL A   1      43.394  24.517  26.904  1.00  0.00    -0.014 A 
BRANCH  13  14
ATOM     14  C   UNL A   1      43.619  25.874  27.453  1.00  0.00     0.031 A 
ATOM     15  C   UNL A   1      44.979  26.491  27.600  1.00  0.00     0.074 A 
ATOM     16  C   UNL A   1      42.535  26.517  27.932  1.00  0.00     0.049 A 
ATOM     17  N   UNL A   1      45.279  27.743  27.836  1.00  0.00    -0.248 NA
ATOM     18  C   UNL A   1      46.153  25.611  27.492  1.00  0.00     0.031 C 
ATOM     19  C   UNL A   1      41.186  25.944  28.008  1.00  0.00     0.029 A 
ATOM     20  N   UNL A   1      42.396  27.768  28.471  1.00  0.00    -0.354 N 
ATOM     21  C   UNL A   1      46.669  27.816  27.855  1.00  0.00     0.074 A 
ATOM     22  C   UNL A   1      47.155  26.465  27.690  1.00  0.00     0.031 C 
ATOM     23  C   UNL A   1      40.359  26.841  28.563  1.00  0.00     0.029 A 
ATOM     24  C   UNL A   1      41.111  28.053  28.865  1.00  0.00     0.049 A 
ATOM     25  H   UNL A   1      43.144  28.402  28.566  1.00  0.00     0.167 HD
ATOM     26  C   UNL A   1      47.436  28.930  27.942  1.00  0.00     0.034 A 
ATOM     27  C   UNL A   1      40.589  29.176  29.391  1.00  0.00     0.034 A 
ATOM     28  C   UNL A   1      46.898  30.239  28.192  1.00  0.00     0.049 A 
ATOM     29  C   UNL A   1      41.468  30.378  29.549  1.00  0.00     0.074 A 
ATOM     30  C   UNL A   1      47.571  31.448  28.210  1.00  0.00     0.029 A 
ATOM     31  N   UNL A   1      45.586  30.499  28.545  1.00  0.00    -0.354 N 
ATOM     32  N   UNL A   1      42.728  30.512  29.216  1.00  0.00    -0.248 NA
ATOM     33  C   UNL A   1      40.859  31.589  30.116  1.00  0.00     0.031 C 
ATOM     34  C   UNL A   1      46.674  32.435  28.609  1.00  0.00     0.029 A 
ATOM     35  C   UNL A   1      45.443  31.839  28.837  1.00  0.00     0.049 A 
ATOM     36  H   UNL A   1      44.865  29.830  28.582  1.00  0.00     0.167 HD
ATOM     37  C   UNL A   1      43.056  31.829  29.503  1.00  0.00     0.074 A 
ATOM     38  C   UNL A   1      41.866  32.453  30.041  1.00  0.00     0.031 C 
ATOM     39  C   UNL A   1      44.242  32.456  29.334  1.00  0.00     0.034 A 
BRANCH  26  40
ATOM     40  C   UNL A   1      48.916  28.882  27.658  1.00  0.00     0.023 A 
ATOM     41  C   UNL A   1      49.781  28.920  28.775  1.00  0.00     0.012 A 
ATOM     42  C   UNL A   1      49.449  28.572  26.399  1.00  0.00     0.148 A 
ATOM     43  C   UNL A   1      51.153  28.726  28.641  1.00  0.00     0.002 A 
ATOM     44  C   UNL A   1      50.819  28.332  26.277  1.00  0.00     0.091 A 
ATOM     45  F   UNL A   1      48.617  28.496  25.351  1.00  0.00    -0.205 F 
ATOM     46  C   UNL A   1      51.674  28.432  27.389  1.00  0.00     0.022 A 
BRANCH  44  47
ATOM     47  S   UNL A   1      51.554  27.762  24.738  1.00  0.00     0.127 S 
ATOM     48  O   UNL A   1      51.109  26.372  24.694  1.00  0.00    -0.237 OA
ATOM     49  O   UNL A   1      50.927  28.636  23.744  1.00  0.00    -0.237 OA
ATOM     50  O   UNL A   1      52.987  27.968  24.897  1.00  0.00    -0.744 OA
ENDBRANCH  44  47
ENDBRANCH  26  40
BRANCH  27  51
ATOM     51  C   UNL A   1      39.135  29.212  29.691  1.00  0.00     0.023 A 
ATOM     52  C   UNL A   1      38.693  28.851  30.976  1.00  0.00     0.012 A 
ATOM     53  C   UNL A   1      38.216  29.729  28.758  1.00  0.00     0.148 A 
ATOM     54  C   UNL A   1      37.354  29.007  31.331  1.00  0.00     0.002 A 
ATOM     55  C   UNL A   1      36.889  29.910  29.128  1.00  0.00     0.091 A 
ATOM     56  F   UNL A   1      38.673  30.075  27.547  1.00  0.00    -0.205 F 
ATOM     57  C   UNL A   1      36.455  29.545  30.412  1.00  0.00     0.022 A 
BRANCH  55  58
ATOM     58  S   UNL A   1      35.679  30.683  28.049  1.00  0.00     0.127 S 
ATOM     59  O   UNL A   1      35.534  29.679  26.998  1.00  0.00    -0.237 OA
ATOM     60  O   UNL A   1      34.527  30.814  28.941  1.00  0.00    -0.237 OA
ATOM     61  O   UNL A   1      36.269  31.946  27.630  1.00  0.00    -0.744 OA
ENDBRANCH  55  58
ENDBRANCH  27  51
BRANCH  39  62
ATOM     62  C   UNL A   1      44.366  33.895  29.731  1.00  0.00     0.023 A 
ATOM     63  C   UNL A   1      44.947  34.210  30.973  1.00  0.00     0.012 A 
ATOM     64  C   UNL A   1      44.142  34.908  28.779  1.00  0.00     0.148 A 
ATOM     65  C   UNL A   1      45.324  35.521  31.256  1.00  0.00     0.002 A 
ATOM     66  C   UNL A   1      44.557  36.204  29.053  1.00  0.00     0.091 A 
ATOM     67  F   UNL A   1      43.597  34.567  27.602  1.00  0.00    -0.205 F 
ATOM     68  C   UNL A   1      45.147  36.512  30.291  1.00  0.00     0.022 A 
BRANCH  66  69
ATOM     69  S   UNL A   1      44.472  37.521  27.836  1.00  0.00     0.127 S 
ATOM     70  O   UNL A   1      44.837  38.688  28.637  1.00  0.00    -0.237 OA
ATOM     71  O   UNL A   1      45.481  37.104  26.863  1.00  0.00    -0.237 OA
ATOM     72  O   UNL A   1      43.104  37.521  27.334  1.00  0.00    -0.744 OA
ENDBRANCH  66  69
ENDBRANCH  39  62
ENDBRANCH  13  14
ENDBRANCH   6   8
ENDBRANCH   5   6
ENDBRANCH   4   5
ENDBRANCH   3   4
ENDBRANCH   2   3
ENDBRANCH   1   2
BRANCH   1  73
ATOM     73  C   UNL A   1      39.717  22.955  26.811  1.00  0.00     0.188 C 
BRANCH  73  74
ATOM     74  O   UNL A   1      38.607  23.521  26.136  1.00  0.00    -0.376 OA
BRANCH  74  75
ATOM     75  C   UNL A   1      37.540  22.686  25.706  1.00  0.00     0.202 C 
BRANCH  75  76
ATOM     76  C   UNL A   1      36.134  22.998  26.211  1.00  0.00     0.261 C 
BRANCH  76  77
ATOM     77  O   UNL A   1      35.250  21.872  26.149  1.00  0.00    -0.459 OA
BRANCH  77  78
ATOM     78  C   UNL A   1      34.071  22.011  26.807  1.00  0.00     0.343 C 
ATOM     79  O   UNL A   1      33.872  21.870  28.000  1.00  0.00    -0.246 OA
BRANCH  78  80
ATOM     80  C   UNL A   1      33.054  22.478  25.863  1.00  0.00     0.126 A 
ATOM     81  C   UNL A   1      33.106  22.082  24.579  1.00  0.00     0.043 A 
ATOM     82  C   UNL A   1      32.012  23.425  26.323  1.00  0.00     0.265 A 
ATOM     83  C   UNL A   1      32.094  22.502  23.647  1.00  0.00     0.058 A 
ATOM     84  N   UNL A   1      31.138  23.870  25.334  1.00  0.00    -0.309 N 
ATOM     85  O   UNL A   1      31.978  23.780  27.498  1.00  0.00    -0.268 OA
ATOM     86  Cl  UNL A   1      32.144  21.907  22.036  1.00  0.00    -0.083 Cl
ATOM     87  C   UNL A   1      31.154  23.364  24.041  1.00  0.00     0.110 A 
BRANCH  84  88
ATOM     88  C   UNL A   1      30.181  24.907  25.678  1.00  0.00     0.161 C 
BRANCH  88  89
ATOM     89  C   UNL A   1      30.225  26.081  24.726  1.00  0.00    -0.028 A 
ATOM     90  C   UNL A   1      29.078  26.450  24.007  1.00  0.00     0.007 A 
ATOM     91  C   UNL A   1      31.395  26.840  24.583  1.00  0.00     0.007 A 
ATOM     92  C   UNL A   1      29.096  27.554  23.158  1.00  0.00     0.021 A 
ATOM     93  C   UNL A   1      31.408  27.957  23.745  1.00  0.00     0.021 A 
ATOM     94  C   UNL A   1      30.261  28.306  23.033  1.00  0.00     0.041 A 
ATOM     95  Cl  UNL A   1      30.277  29.681  21.999  1.00  0.00    -0.084 Cl
ENDBRANCH  88  89
ENDBRANCH  84  88
ENDBRANCH  78  80
ENDBRANCH  77  78
ENDBRANCH  76  77
ENDBRANCH  75  76
ENDBRANCH  74  75
ENDBRANCH  73  74
ENDBRANCH   1  73
TORSDOF 22
ENDMDL
MODEL 2
REMARK VINA RESULT:      -9.6      1.939      2.316
REMARK SMILES O=C(OCCOCCOCCOC(=O)c1cc(Cl)cn(Cc2ccc(Cl)cc2)c1=O)c1ccc(-c2c3nc(c(-c4cccc(S(=O)(=O)[O-])c4F)c4ccc([nH]4)c(-c4cccc(S(=O)(=O)[O-])c4F)c4nc(c(-c5cccc(S(=O)(=O)[O-])c5F)c5ccc2[nH]5)C=C4)C=C3)cc1
REMARK SMILES IDX 7 1 6 2 5 3 4 4 3 5 2 6 1 7 31 8 32 9 93 10 33 11 92 12
REMARK SMILES IDX 34 13 35 14 36 15 86 16 37 17 91 18 85 19 87 20 38 21 90 22
REMARK SMILES IDX 84 23 83 24 39 26 71 27 51 28 70 29 52 30 55 31 69 32 88 33
REMARK SMILES IDX 53 34 54 35 68 37 89 38 56 39 40 40 41 41 49 42 42 43 44 44
REMARK SMILES IDX 50 45 43 46 45 47 46 48 47 49 48 50 72 51 73 52 81 53 74 54
REMARK SMILES IDX 76 55 82 56 75 57 77 58 78 59 79 60 80 61 57 62 58 63 66 64
REMARK SMILES IDX 59 65 61 66 67 67 60 68 62 69 63 70 64 71 65 72 8 73 9 74
REMARK SMILES IDX 10 75 11 76 12 77 13 78 14 79 15 80 16 81 29 82 17 83 20 84
REMARK SMILES IDX 30 85 18 86 19 87 21 88 22 89 23 90 28 91 24 92 27 93 25 94
REMARK SMILES IDX 26 95
REMARK H PARENT 87 25 55 36
REMARK Flexibility Score: inf
ROOT
ATOM      1  C   UNL A   1      40.075  22.221  26.710  1.00  0.00     0.188 C 
ENDROOT
BRANCH   1   2
ATOM      2  O   UNL A   1      40.402  21.317  27.756  1.00  0.00    -0.376 OA
BRANCH   2   3
ATOM      3  C   UNL A   1      41.047  20.114  27.367  1.00  0.00     0.202 C 
BRANCH   3   4
ATOM      4  C   UNL A   1      41.087  19.892  25.856  1.00  0.00     0.261 C 
BRANCH   4   5
ATOM      5  O   UNL A   1      42.405  19.584  25.378  1.00  0.00    -0.460 OA
BRANCH   5   6
ATOM      6  C   UNL A   1      43.543  20.315  25.459  1.00  0.00     0.338 C 
ATOM      7  O   UNL A   1      44.608  19.713  25.315  1.00  0.00    -0.246 OA
BRANCH   6   8
ATOM      8  C   UNL A   1      43.612  21.763  25.875  1.00  0.00     0.060 A 
ATOM      9  C   UNL A   1      43.799  22.000  27.250  1.00  0.00     0.016 A 
ATOM     10  C   UNL A   1      43.504  22.886  25.049  1.00  0.00     0.016 A 
ATOM     11  C   UNL A   1      43.878  23.301  27.767  1.00  0.00     0.010 A 
ATOM     12  C   UNL A   1      43.582  24.189  25.558  1.00  0.00     0.010 A 
ATOM     13  C   UNL A   1      43.783  24.410  26.920  1.00  0.00    -0.014 A 
BRANCH  13  14
ATOM     14  C   UNL A   1      44.149  25.762  27.402  1.00  0.00     0.031 A 
ATOM     15  C   UNL A   1      45.567  26.232  27.546  1.00  0.00     0.074 A 
ATOM     16  C   UNL A   1      43.137  26.546  27.823  1.00  0.00     0.049 A 
ATOM     17  N   UNL A   1      46.002  27.454  27.721  1.00  0.00    -0.248 NA
ATOM     18  C   UNL A   1      46.637  25.223  27.510  1.00  0.00     0.031 C 
ATOM     19  C   UNL A   1      41.731  26.132  27.900  1.00  0.00     0.029 A 
ATOM     20  N   UNL A   1      43.130  27.833  28.292  1.00  0.00    -0.354 N 
ATOM     21  C   UNL A   1      47.390  27.373  27.767  1.00  0.00     0.074 A 
ATOM     22  C   UNL A   1      47.725  25.970  27.683  1.00  0.00     0.031 C 
ATOM     23  C   UNL A   1      41.001  27.143  28.389  1.00  0.00     0.029 A 
ATOM     24  C   UNL A   1      41.879  28.280  28.643  1.00  0.00     0.049 A 
ATOM     25  H   UNL A   1      43.942  28.384  28.370  1.00  0.00     0.167 HD
ATOM     26  C   UNL A   1      48.276  28.398  27.812  1.00  0.00     0.034 A 
ATOM     27  C   UNL A   1      41.478  29.481  29.098  1.00  0.00     0.034 A 
ATOM     28  C   UNL A   1      47.883  29.771  27.981  1.00  0.00     0.049 A 
ATOM     29  C   UNL A   1      42.483  30.584  29.212  1.00  0.00     0.074 A 
ATOM     30  C   UNL A   1      48.687  30.896  27.949  1.00  0.00     0.029 A 
ATOM     31  N   UNL A   1      46.604  30.193  28.292  1.00  0.00    -0.354 N 
ATOM     32  N   UNL A   1      43.755  30.560  28.899  1.00  0.00    -0.248 NA
ATOM     33  C   UNL A   1      42.004  31.885  29.700  1.00  0.00     0.031 C 
ATOM     34  C   UNL A   1      47.900  31.997  28.277  1.00  0.00     0.029 A 
ATOM     35  C   UNL A   1      46.607  31.555  28.510  1.00  0.00     0.049 A 
ATOM     36  H   UNL A   1      45.812  29.611  28.348  1.00  0.00     0.167 HD
ATOM     37  C   UNL A   1      44.224  31.845  29.124  1.00  0.00     0.074 A 
ATOM     38  C   UNL A   1      43.102  32.626  29.602  1.00  0.00     0.031 C 
ATOM     39  C   UNL A   1      45.475  32.327  28.948  1.00  0.00     0.034 A 
BRANCH  26  40
ATOM     40  C   UNL A   1      49.745  28.171  27.563  1.00  0.00     0.023 A 
ATOM     41  C   UNL A   1      50.521  27.745  28.665  1.00  0.00     0.012 A 
ATOM     42  C   UNL A   1      50.313  28.133  26.281  1.00  0.00     0.148 A 
ATOM     43  C   UNL A   1      51.849  27.357  28.515  1.00  0.00     0.002 A 
ATOM     44  C   UNL A   1      51.631  27.699  26.130  1.00  0.00     0.091 A 
ATOM     45  F   UNL A   1      49.559  28.499  25.235  1.00  0.00    -0.205 F 
ATOM     46  C   UNL A   1      52.406  27.335  27.245  1.00  0.00     0.022 A 
BRANCH  44  47
ATOM     47  S   UNL A   1      52.376  27.459  24.511  1.00  0.00     0.127 S 
ATOM     48  O   UNL A   1      53.756  27.141  24.865  1.00  0.00    -0.237 OA
ATOM     49  O   UNL A   1      51.608  26.335  23.972  1.00  0.00    -0.237 OA
ATOM     50  O   UNL A   1      52.173  28.717  23.804  1.00  0.00    -0.744 OA
ENDBRANCH  44  47
ENDBRANCH  26  40
BRANCH  27  51
ATOM     51  C   UNL A   1      40.032  29.694  29.364  1.00  0.00     0.023 A 
ATOM     52  C   UNL A   1      39.138  29.743  28.281  1.00  0.00     0.012 A 
ATOM     53  C   UNL A   1      39.534  29.710  30.681  1.00  0.00     0.148 A 
ATOM     54  C   UNL A   1      37.762  29.801  28.504  1.00  0.00     0.002 A 
ATOM     55  C   UNL A   1      38.161  29.737  30.896  1.00  0.00     0.091 A 
ATOM     56  F   UNL A   1      40.413  29.649  31.690  1.00  0.00    -0.205 F 
ATOM     57  C   UNL A   1      37.274  29.788  29.808  1.00  0.00     0.022 A 
BRANCH  55  58
ATOM     58  S   UNL A   1      37.434  29.627  32.534  1.00  0.00     0.127 S 
ATOM     59  O   UNL A   1      38.282  30.539  33.297  1.00  0.00    -0.237 OA
ATOM     60  O   UNL A   1      36.074  30.109  32.289  1.00  0.00    -0.237 OA
ATOM     61  O   UNL A   1      37.522  28.225  32.915  1.00  0.00    -0.744 OA
ENDBRANCH  55  58
ENDBRANCH  27  51
BRANCH  39  62
ATOM     62  C   UNL A   1      45.753  33.764  29.271  1.00  0.00     0.023 A 
ATOM     63  C   UNL A   1      46.353  34.079  30.504  1.00  0.00     0.012 A 
ATOM     64  C   UNL A   1      45.652  34.743  28.264  1.00  0.00     0.148 A 
ATOM     65  C   UNL A   1      46.868  35.353  30.725  1.00  0.00     0.002 A 
ATOM     66  C   UNL A   1      46.204  35.998  28.477  1.00  0.00     0.091 A 
ATOM     67  F   UNL A   1      45.085  34.400  27.098  1.00  0.00    -0.205 F 
ATOM     68  C   UNL A   1      46.812  36.305  29.706  1.00  0.00     0.022 A 
BRANCH  66  69
ATOM     69  S   UNL A   1      46.278  37.249  27.191  1.00  0.00     0.127 S 
ATOM     70  O   UNL A   1      47.003  38.324  27.866  1.00  0.00    -0.237 OA
ATOM     71  O   UNL A   1      47.032  36.565  26.142  1.00  0.00    -0.237 OA
ATOM     72  O   UNL A   1      44.897  37.558  26.847  1.00  0.00    -0.744 OA
ENDBRANCH  66  69
ENDBRANCH  39  62
ENDBRANCH  13  14
ENDBRANCH   6   8
ENDBRANCH   5   6
ENDBRANCH   4   5
ENDBRANCH   3   4
ENDBRANCH   2   3
ENDBRANCH   1   2
BRANCH   1  73
ATOM     73  C   UNL A   1      38.905  23.194  26.920  1.00  0.00     0.188 C 
BRANCH  73  74
ATOM     74  O   UNL A   1      38.249  23.780  25.808  1.00  0.00    -0.376 OA
BRANCH  74  75
ATOM     75  C   UNL A   1      37.546  22.956  24.887  1.00  0.00     0.202 C 
BRANCH  75  76
ATOM     76  C   UNL A   1      36.182  22.413  25.306  1.00  0.00     0.261 C 
BRANCH  76  77
ATOM     77  O   UNL A   1      35.414  21.910  24.205  1.00  0.00    -0.459 OA
BRANCH  77  78
ATOM     78  C   UNL A   1      34.094  21.715  24.449  1.00  0.00     0.343 C 
ATOM     79  O   UNL A   1      33.564  20.703  24.874  1.00  0.00    -0.246 OA
BRANCH  78  80
ATOM     80  C   UNL A   1      33.380  22.973  24.226  1.00  0.00     0.126 A 
ATOM     81  C   UNL A   1      33.446  23.571  23.023  1.00  0.00     0.043 A 
ATOM     82  C   UNL A   1      32.637  23.600  25.344  1.00  0.00     0.265 A 
ATOM     83  C   UNL A   1      32.721  24.788  22.775  1.00  0.00     0.058 A 
ATOM     84  N   UNL A   1      32.057  24.832  25.053  1.00  0.00    -0.309 N 
ATOM     85  O   UNL A   1      32.588  23.045  26.438  1.00  0.00    -0.268 OA
ATOM     86  Cl  UNL A   1      32.759  25.477  21.202  1.00  0.00    -0.083 Cl
ATOM     87  C   UNL A   1      32.056  25.373  23.775  1.00  0.00     0.110 A 
BRANCH  84  88
ATOM     88  C   UNL A   1      31.436  25.573  26.137  1.00  0.00     0.161 C 
BRANCH  88  89
ATOM     89  C   UNL A   1      32.183  26.843  26.479  1.00  0.00    -0.028 A 
ATOM     90  C   UNL A   1      33.542  26.970  26.156  1.00  0.00     0.007 A 
ATOM     91  C   UNL A   1      31.518  27.920  27.080  1.00  0.00     0.007 A 
ATOM     92  C   UNL A   1      34.229  28.151  26.431  1.00  0.00     0.021 A 
ATOM     93  C   UNL A   1      32.203  29.110  27.340  1.00  0.00     0.021 A 
ATOM     94  C   UNL A   1      33.555  29.218  27.019  1.00  0.00     0.041 A 
ATOM     95  Cl  UNL A   1      34.400  30.682  27.340  1.00  0.00    -0.084 Cl
ENDBRANCH  88  89
ENDBRANCH  84  88
ENDBRANCH  78  80
ENDBRANCH  77  78
ENDBRANCH  76  77
ENDBRANCH  75  76
ENDBRANCH  74  75
ENDBRANCH  73  74
ENDBRANCH   1  73
TORSDOF 22
ENDMDL
MODEL 3
REMARK VINA RESULT:      -9.1      7.184     13.172
REMARK SMILES O=C(OCCOCCOCCOC(=O)c1cc(Cl)cn(Cc2ccc(Cl)cc2)c1=O)c1ccc(-c2c3nc(c(-c4cccc(S(=O)(=O)[O-])c4F)c4ccc([nH]4)c(-c4cccc(S(=O)(=O)[O-])c4F)c4nc(c(-c5cccc(S(=O)(=O)[O-])c5F)c5ccc2[nH]5)C=C4)C=C3)cc1
REMARK SMILES IDX 7 1 6 2 5 3 4 4 3 5 2 6 1 7 31 8 32 9 93 10 33 11 92 12
REMARK SMILES IDX 34 13 35 14 36 15 86 16 37 17 91 18 85 19 87 20 38 21 90 22
REMARK SMILES IDX 84 23 83 24 39 26 71 27 51 28 70 29 52 30 55 31 69 32 88 33
REMARK SMILES IDX 53 34 54 35 68 37 89 38 56 39 40 40 41 41 49 42 42 43 44 44
REMARK SMILES IDX 50 45 43 46 45 47 46 48 47 49 48 50 72 51 73 52 81 53 74 54
REMARK SMILES IDX 76 55 82 56 75 57 77 58 78 59 79 60 80 61 57 62 58 63 66 64
REMARK SMILES IDX 59 65 61 66 67 67 60 68 62 69 63 70 64 71 65 72 8 73 9 74
REMARK SMILES IDX 10 75 11 76 12 77 13 78 14 79 15 80 16 81 29 82 17 83 20 84
REMARK SMILES IDX 30 85 18 86 19 87 21 88 22 89 23 90 28 91 24 92 27 93 25 94
REMARK SMILES IDX 26 95
REMARK H PARENT 87 25 55 36
REMARK Flexibility Score: inf
ROOT
ATOM      1  C   UNL A   1      34.355  34.102  32.239  1.00  0.00     0.188 C 
ENDROOT
BRANCH   1   2
ATOM      2  O   UNL A   1      34.031  33.584  30.957  1.00  0.00    -0.376 OA
BRANCH   2   3
ATOM      3  C   UNL A   1      34.044  34.512  29.884  1.00  0.00     0.202 C 
BRANCH   3   4
ATOM      4  C   UNL A   1      33.461  33.964  28.582  1.00  0.00     0.261 C 
BRANCH   4   5
ATOM      5  O   UNL A   1      34.375  33.104  27.886  1.00  0.00    -0.460 OA
BRANCH   5   6
ATOM      6  C   UNL A   1      34.483  31.754  27.920  1.00  0.00     0.338 C 
ATOM      7  O   UNL A   1      33.454  31.104  27.726  1.00  0.00    -0.246 OA
BRANCH   6   8
ATOM      8  C   UNL A   1      35.718  30.997  28.339  1.00  0.00     0.060 A 
ATOM      9  C   UNL A   1      36.949  31.593  28.003  1.00  0.00     0.016 A 
ATOM     10  C   UNL A   1      35.771  29.773  29.014  1.00  0.00     0.016 A 
ATOM     11  C   UNL A   1      38.171  30.991  28.333  1.00  0.00     0.010 A 
ATOM     12  C   UNL A   1      36.989  29.166  29.348  1.00  0.00     0.010 A 
ATOM     13  C   UNL A   1      38.201  29.773  29.023  1.00  0.00    -0.014 A 
BRANCH  13  14
ATOM     14  C   UNL A   1      39.460  29.277  29.624  1.00  0.00     0.031 A 
ATOM     15  C   UNL A   1      40.125  29.929  30.802  1.00  0.00     0.074 A 
ATOM     16  C   UNL A   1      40.066  28.252  28.993  1.00  0.00     0.049 A 
ATOM     17  N   UNL A   1      41.082  29.452  31.557  1.00  0.00    -0.248 NA
ATOM     18  C   UNL A   1      39.692  31.283  31.180  1.00  0.00     0.031 C 
ATOM     19  C   UNL A   1      39.608  27.653  27.734  1.00  0.00     0.029 A 
ATOM     20  N   UNL A   1      41.205  27.555  29.298  1.00  0.00    -0.354 N 
ATOM     21  C   UNL A   1      41.333  30.417  32.527  1.00  0.00     0.074 A 
ATOM     22  C   UNL A   1      40.485  31.545  32.216  1.00  0.00     0.031 C 
ATOM     23  C   UNL A   1      40.458  26.682  27.375  1.00  0.00     0.029 A 
ATOM     24  C   UNL A   1      41.508  26.578  28.381  1.00  0.00     0.049 A 
ATOM     25  H   UNL A   1      41.753  27.737  30.095  1.00  0.00     0.167 HD
ATOM     26  C   UNL A   1      42.156  30.315  33.599  1.00  0.00     0.034 A 
ATOM     27  C   UNL A   1      42.509  25.678  28.364  1.00  0.00     0.034 A 
ATOM     28  C   UNL A   1      43.041  29.203  33.810  1.00  0.00     0.049 A 
ATOM     29  C   UNL A   1      43.455  25.626  29.522  1.00  0.00     0.074 A 
ATOM     30  C   UNL A   1      43.850  28.953  34.904  1.00  0.00     0.029 A 
ATOM     31  N   UNL A   1      43.293  28.208  32.883  1.00  0.00    -0.354 N 
ATOM     32  N   UNL A   1      43.441  26.348  30.616  1.00  0.00    -0.248 NA
ATOM     33  C   UNL A   1      44.528  24.623  29.473  1.00  0.00     0.031 C 
ATOM     34  C   UNL A   1      44.619  27.826  34.624  1.00  0.00     0.029 A 
ATOM     35  C   UNL A   1      44.285  27.375  33.356  1.00  0.00     0.049 A 
ATOM     36  H   UNL A   1      42.834  28.109  32.018  1.00  0.00     0.167 HD
ATOM     37  C   UNL A   1      44.481  25.869  31.398  1.00  0.00     0.074 A 
ATOM     38  C   UNL A   1      45.109  24.797  30.655  1.00  0.00     0.031 C 
ATOM     39  C   UNL A   1      44.874  26.287  32.623  1.00  0.00     0.034 A 
BRANCH  26  40
ATOM     40  C   UNL A   1      42.106  31.324  34.719  1.00  0.00     0.023 A 
ATOM     41  C   UNL A   1      41.239  31.037  35.797  1.00  0.00     0.012 A 
ATOM     42  C   UNL A   1      43.024  32.376  34.849  1.00  0.00     0.148 A 
ATOM     43  C   UNL A   1      41.228  31.817  36.951  1.00  0.00     0.002 A 
ATOM     44  C   UNL A   1      43.042  33.126  36.027  1.00  0.00     0.091 A 
ATOM     45  F   UNL A   1      43.872  32.617  33.840  1.00  0.00    -0.205 F 
ATOM     46  C   UNL A   1      42.131  32.863  37.066  1.00  0.00     0.022 A 
BRANCH  44  47
ATOM     47  S   UNL A   1      44.295  34.376  36.343  1.00  0.00     0.127 S 
ATOM     48  O   UNL A   1      44.103  35.279  35.211  1.00  0.00    -0.237 OA
ATOM     49  O   UNL A   1      43.879  34.922  37.637  1.00  0.00    -0.237 OA
ATOM     50  O   UNL A   1      45.559  33.654  36.375  1.00  0.00    -0.744 OA
ENDBRANCH  44  47
ENDBRANCH  26  40
BRANCH  27  51
ATOM     51  C   UNL A   1      42.568  24.702  27.247  1.00  0.00     0.023 A 
ATOM     52  C   UNL A   1      43.336  25.008  26.110  1.00  0.00     0.012 A 
ATOM     53  C   UNL A   1      41.983  23.427  27.369  1.00  0.00     0.148 A 
ATOM     54  C   UNL A   1      43.525  24.057  25.108  1.00  0.00     0.002 A 
ATOM     55  C   UNL A   1      42.200  22.473  26.382  1.00  0.00     0.091 A 
ATOM     56  F   UNL A   1      41.267  23.163  28.470  1.00  0.00    -0.205 F 
ATOM     57  C   UNL A   1      42.966  22.788  25.248  1.00  0.00     0.022 A 
BRANCH  55  58
ATOM     58  S   UNL A   1      41.603  20.785  26.517  1.00  0.00     0.127 S 
ATOM     59  O   UNL A   1      40.158  20.971  26.411  1.00  0.00    -0.237 OA
ATOM     60  O   UNL A   1      42.231  20.154  25.355  1.00  0.00    -0.237 OA
ATOM     61  O   UNL A   1      42.077  20.297  27.803  1.00  0.00    -0.744 OA
ENDBRANCH  55  58
ENDBRANCH  27  51
BRANCH  39  62
ATOM     62  C   UNL A   1      46.045  25.619  33.278  1.00  0.00     0.023 A 
ATOM     63  C   UNL A   1      47.305  26.241  33.213  1.00  0.00     0.012 A 
ATOM     64  C   UNL A   1      45.837  24.533  34.149  1.00  0.00     0.148 A 
ATOM     65  C   UNL A   1      48.345  25.799  34.027  1.00  0.00     0.002 A 
ATOM     66  C   UNL A   1      46.867  24.125  34.985  1.00  0.00     0.091 A 
ATOM     67  F   UNL A   1      44.619  23.974  34.191  1.00  0.00    -0.205 F 
ATOM     68  C   UNL A   1      48.121  24.756  34.925  1.00  0.00     0.022 A 
BRANCH  66  69
ATOM     69  S   UNL A   1      46.641  22.868  36.248  1.00  0.00     0.127 S 
ATOM     70  O   UNL A   1      45.524  23.417  37.015  1.00  0.00    -0.237 OA
ATOM     71  O   UNL A   1      46.316  21.687  35.450  1.00  0.00    -0.237 OA
ATOM     72  O   UNL A   1      47.904  22.788  36.970  1.00  0.00    -0.744 OA
ENDBRANCH  66  69
ENDBRANCH  39  62
ENDBRANCH  13  14
ENDBRANCH   6   8
ENDBRANCH   5   6
ENDBRANCH   4   5
ENDBRANCH   3   4
ENDBRANCH   2   3
ENDBRANCH   1   2
BRANCH   1  73
ATOM     73  C   UNL A   1      35.764  34.670  32.467  1.00  0.00     0.188 C 
BRANCH  73  74
ATOM     74  O   UNL A   1      36.887  33.806  32.525  1.00  0.00    -0.376 OA
BRANCH  74  75
ATOM     75  C   UNL A   1      38.190  34.351  32.685  1.00  0.00     0.202 C 
BRANCH  75  76
ATOM     76  C   UNL A   1      38.699  34.589  34.105  1.00  0.00     0.261 C 
BRANCH  76  77
ATOM     77  O   UNL A   1      38.505  33.462  34.969  1.00  0.00    -0.459 OA
BRANCH  77  78
ATOM     78  C   UNL A   1      37.523  33.593  35.896  1.00  0.00     0.343 C 
ATOM     79  O   UNL A   1      36.324  33.459  35.724  1.00  0.00    -0.246 OA
BRANCH  78  80
ATOM     80  C   UNL A   1      38.135  33.819  37.206  1.00  0.00     0.126 A 
ATOM     81  C   UNL A   1      38.971  34.858  37.379  1.00  0.00     0.043 A 
ATOM     82  C   UNL A   1      37.868  32.868  38.311  1.00  0.00     0.265 A 
ATOM     83  C   UNL A   1      39.553  35.117  38.669  1.00  0.00     0.058 A 
ATOM     84  N   UNL A   1      38.557  33.126  39.493  1.00  0.00    -0.309 N 
ATOM     85  O   UNL A   1      37.105  31.923  38.138  1.00  0.00    -0.268 OA
ATOM     86  Cl  UNL A   1      40.547  36.502  38.875  1.00  0.00    -0.083 Cl
ATOM     87  C   UNL A   1      39.332  34.263  39.673  1.00  0.00     0.110 A 
BRANCH  84  88
ATOM     88  C   UNL A   1      38.457  32.159  40.572  1.00  0.00     0.161 C 
BRANCH  88  89
ATOM     89  C   UNL A   1      37.219  32.351  41.418  1.00  0.00    -0.028 A 
ATOM     90  C   UNL A   1      36.614  31.249  42.042  1.00  0.00     0.007 A 
ATOM     91  C   UNL A   1      36.687  33.630  41.623  1.00  0.00     0.007 A 
ATOM     92  C   UNL A   1      35.495  31.420  42.855  1.00  0.00     0.021 A 
ATOM     93  C   UNL A   1      35.577  33.804  42.452  1.00  0.00     0.021 A 
ATOM     94  C   UNL A   1      34.983  32.699  43.060  1.00  0.00     0.041 A 
ATOM     95  Cl  UNL A   1      33.615  32.911  44.081  1.00  0.00    -0.084 Cl
ENDBRANCH  88  89
ENDBRANCH  84  88
ENDBRANCH  78  80
ENDBRANCH  77  78
ENDBRANCH  76  77
ENDBRANCH  75  76
ENDBRANCH  74  75
ENDBRANCH  73  74
ENDBRANCH   1  73
TORSDOF 22
ENDMDL
