MODEL 1
REMARK VINA RESULT:     -11.3      0.000      0.000
REMARK SMILES Cc1cc(/C=C2/C(=O)NC(=S)N=C2OCCOCCOCCOC(=O)c2ccc(-c3c4nc(c(-c5cccc(S(=O)(=O)[O-])c5F)c5ccc([nH]5)c(-c5cccc(S(=O)(=O)[O-])c5F)c5nc(c(-c6cccc(S(=O)(=O)[O-])c6F)c6ccc3[nH]6)C=C5)C=C4)cc2)c(C)n1-c1cccc(C(=O)[O-])c1
REMARK SMILES IDX 19 1 18 2 17 3 16 4 15 5 14 6 13 7 5 8 6 9 7 10 8 11 9 12
REMARK SMILES IDX 12 13 10 14 11 16 4 17 1 18 2 19 3 20 91 21 89 22 90 23
REMARK SMILES IDX 92 24 93 25 100 26 94 27 96 28 95 29 97 30 98 31 99 32 20 33
REMARK SMILES IDX 21 34 22 35 23 36 24 37 25 38 26 39 27 40 88 41 28 42 87 43
REMARK SMILES IDX 29 44 30 45 31 46 81 47 32 48 86 49 80 50 82 51 33 52 85 53
REMARK SMILES IDX 79 54 78 55 34 57 66 58 46 59 65 60 47 61 50 62 64 63 83 64
REMARK SMILES IDX 48 65 49 66 63 68 84 69 51 70 35 71 36 72 44 73 37 74 39 75
REMARK SMILES IDX 45 76 38 77 40 78 41 79 42 80 43 81 67 82 68 83 76 84 69 85
REMARK SMILES IDX 71 86 77 87 70 88 72 89 73 90 74 91 75 92 52 93 53 94 61 95
REMARK SMILES IDX 54 96 56 97 62 98 55 99 57 100 58 101 59 102 60 103
REMARK H PARENT 9 15 82 56 50 67
REMARK Flexibility Score: inf
ROOT
ATOM      1  C   UNL A   1      34.218  31.971  27.946  1.00  0.00     0.188 C 
ENDROOT
BRANCH   1   2
ATOM      2  C   UNL A   1      33.677  30.701  27.273  1.00  0.00     0.188 C 
BRANCH   2   3
ATOM      3  O   UNL A   1      34.203  29.420  27.593  1.00  0.00    -0.376 OA
BRANCH   3   4
ATOM      4  C   UNL A   1      33.957  28.290  26.770  1.00  0.00     0.201 C 
BRANCH   4   5
ATOM      5  C   UNL A   1      32.591  27.632  26.934  1.00  0.00     0.260 C 
BRANCH   5   6
ATOM      6  O   UNL A   1      32.356  26.681  25.870  1.00  0.00    -0.475 OA
BRANCH   6   7
ATOM      7  C   UNL A   1      32.089  27.149  24.636  1.00  0.00     0.229 C 
ATOM      8  C   UNL A   1      33.897  25.670  23.523  1.00  0.00     0.029 C 
ATOM      9  C   UNL A   1      33.060  26.726  23.610  1.00  0.00     0.103 C 
ATOM     10  C   UNL A   1      33.106  27.658  22.442  1.00  0.00     0.262 C 
ATOM     11  O   UNL A   1      33.954  27.617  21.556  1.00  0.00    -0.269 OA
ATOM     12  N   UNL A   1      32.089  28.569  22.395  1.00  0.00    -0.297 N 
ATOM     13  N   UNL A   1      31.126  27.985  24.451  1.00  0.00    -0.184 NA
ATOM     14  C   UNL A   1      31.061  28.690  23.289  1.00  0.00     0.203 C 
ATOM     15  H   UNL A   1      32.097  29.204  21.642  1.00  0.00     0.172 HD
ATOM     16  S   UNL A   1      29.843  29.785  22.944  1.00  0.00    -0.038 S 
BRANCH   8  17
ATOM     17  C   UNL A   1      34.213  24.544  24.354  1.00  0.00    -0.003 A 
ATOM     18  C   UNL A   1      34.047  22.782  27.638  1.00  0.00     0.065 C 
ATOM     19  C   UNL A   1      34.178  23.263  26.233  1.00  0.00     0.020 A 
ATOM     20  C   UNL A   1      33.738  24.452  25.693  1.00  0.00     0.031 A 
ATOM     21  N   UNL A   1      34.808  22.559  25.216  1.00  0.00    -0.318 N 
ATOM     22  C   UNL A   1      35.069  23.466  24.172  1.00  0.00     0.027 A 
ATOM     23  C   UNL A   1      36.026  23.175  23.070  1.00  0.00     0.065 C 
BRANCH  21  24
ATOM     24  C   UNL A   1      34.983  21.139  25.165  1.00  0.00     0.046 A 
ATOM     25  C   UNL A   1      36.258  20.564  25.183  1.00  0.00     0.026 A 
ATOM     26  C   UNL A   1      33.863  20.325  24.921  1.00  0.00     0.036 A 
ATOM     27  C   UNL A   1      36.437  19.224  24.844  1.00  0.00     0.003 A 
ATOM     28  C   UNL A   1      34.043  18.970  24.602  1.00  0.00    -0.001 A 
ATOM     29  C   UNL A   1      35.335  18.434  24.528  1.00  0.00     0.010 A 
BRANCH  28  30
ATOM     30  C   UNL A   1      32.910  18.067  24.287  1.00  0.00     0.072 C 
ATOM     31  O   UNL A   1      32.751  17.467  23.241  1.00  0.00    -0.545 OA
ATOM     32  O   UNL A   1      32.057  17.921  25.315  1.00  0.00    -0.545 OA
ENDBRANCH  28  30
ENDBRANCH  21  24
ENDBRANCH   8  17
ENDBRANCH   6   7
ENDBRANCH   5   6
ENDBRANCH   4   5
ENDBRANCH   3   4
ENDBRANCH   2   3
ENDBRANCH   1   2
BRANCH   1  33
ATOM     33  O   UNL A   1      33.340  33.060  28.134  1.00  0.00    -0.376 OA
BRANCH  33  34
ATOM     34  C   UNL A   1      33.903  34.243  28.684  1.00  0.00     0.202 C 
BRANCH  34  35
ATOM     35  C   UNL A   1      33.268  34.891  29.962  1.00  0.00     0.261 C 
BRANCH  35  36
ATOM     36  O   UNL A   1      33.955  35.021  31.278  1.00  0.00    -0.460 OA
BRANCH  36  37
ATOM     37  C   UNL A   1      34.499  33.900  31.911  1.00  0.00     0.338 C 
ATOM     38  O   UNL A   1      33.785  33.039  32.410  1.00  0.00    -0.246 OA
BRANCH  37  39
ATOM     39  C   UNL A   1      36.072  33.793  31.965  1.00  0.00     0.060 A 
ATOM     40  C   UNL A   1      36.987  32.949  31.254  1.00  0.00     0.016 A 
ATOM     41  C   UNL A   1      36.761  34.572  32.827  1.00  0.00     0.016 A 
ATOM     42  C   UNL A   1      38.569  32.963  31.355  1.00  0.00     0.010 A 
ATOM     43  C   UNL A   1      38.236  34.533  32.847  1.00  0.00     0.010 A 
ATOM     44  C   UNL A   1      39.340  33.788  32.215  1.00  0.00    -0.014 A 
BRANCH  44  45
ATOM     45  C   UNL A   1      40.999  34.553  31.910  1.00  0.00     0.031 A 
ATOM     46  C   UNL A   1      41.395  34.720  33.362  1.00  0.00     0.074 A 
ATOM     47  C   UNL A   1      42.226  34.673  31.002  1.00  0.00     0.049 A 
ATOM     48  N   UNL A   1      40.992  33.730  34.128  1.00  0.00    -0.248 NA
ATOM     49  C   UNL A   1      42.675  35.201  33.846  1.00  0.00     0.031 C 
ATOM     50  C   UNL A   1      42.454  34.305  29.560  1.00  0.00     0.029 A 
ATOM     51  N   UNL A   1      43.709  35.067  31.231  1.00  0.00    -0.354 N 
ATOM     52  C   UNL A   1      42.117  32.964  33.997  1.00  0.00     0.074 A 
ATOM     53  C   UNL A   1      43.115  34.021  34.322  1.00  0.00     0.031 C 
ATOM     54  C   UNL A   1      43.762  34.390  29.112  1.00  0.00     0.029 A 
ATOM     55  C   UNL A   1      44.729  34.851  30.126  1.00  0.00     0.049 A 
ATOM     56  H   UNL A   1      43.989  35.457  32.091  1.00  0.00     0.167 HD
ATOM     57  C   UNL A   1      42.310  31.898  33.115  1.00  0.00     0.034 A 
ATOM     58  C   UNL A   1      46.195  34.893  30.108  1.00  0.00     0.034 A 
ATOM     59  C   UNL A   1      43.638  31.488  33.102  1.00  0.00     0.049 A 
ATOM     60  C   UNL A   1      46.424  33.466  30.508  1.00  0.00     0.074 A 
ATOM     61  C   UNL A   1      44.666  31.364  33.986  1.00  0.00     0.029 A 
ATOM     62  N   UNL A   1      44.055  31.173  31.864  1.00  0.00    -0.354 N 
ATOM     63  N   UNL A   1      46.402  32.480  29.646  1.00  0.00    -0.248 NA
ATOM     64  C   UNL A   1      47.094  33.204  31.795  1.00  0.00     0.031 C 
ATOM     65  C   UNL A   1      45.704  30.778  33.239  1.00  0.00     0.029 A 
ATOM     66  C   UNL A   1      45.270  30.603  31.916  1.00  0.00     0.049 A 
ATOM     67  H   UNL A   1      43.545  31.337  31.039  1.00  0.00     0.167 HD
ATOM     68  C   UNL A   1      46.788  31.397  30.404  1.00  0.00     0.074 A 
ATOM     69  C   UNL A   1      47.509  31.957  31.534  1.00  0.00     0.031 C 
ATOM     70  C   UNL A   1      45.831  30.454  30.600  1.00  0.00     0.034 A 
BRANCH  57  71
ATOM     71  C   UNL A   1      41.428  31.040  31.983  1.00  0.00     0.023 A 
ATOM     72  C   UNL A   1      41.566  31.170  30.568  1.00  0.00     0.012 A 
ATOM     73  C   UNL A   1      40.473  30.079  32.366  1.00  0.00     0.148 A 
ATOM     74  C   UNL A   1      40.719  30.582  29.610  1.00  0.00     0.002 A 
ATOM     75  C   UNL A   1      39.667  29.423  31.404  1.00  0.00     0.091 A 
ATOM     76  F   UNL A   1      40.318  29.837  33.673  1.00  0.00    -0.205 F 
ATOM     77  C   UNL A   1      39.749  29.709  30.037  1.00  0.00     0.022 A 
BRANCH  75  78
ATOM     78  S   UNL A   1      38.498  28.154  31.891  1.00  0.00     0.127 S 
ATOM     79  O   UNL A   1      37.283  28.935  32.122  1.00  0.00    -0.237 OA
ATOM     80  O   UNL A   1      38.429  27.267  30.728  1.00  0.00    -0.237 OA
ATOM     81  O   UNL A   1      39.094  27.540  33.072  1.00  0.00    -0.744 OA
ENDBRANCH  75  78
ENDBRANCH  57  71
BRANCH  58  82
ATOM     82  C   UNL A   1      47.785  35.067  29.345  1.00  0.00     0.023 A 
ATOM     83  C   UNL A   1      49.047  34.953  29.948  1.00  0.00     0.012 A 
ATOM     84  C   UNL A   1      47.985  35.241  27.872  1.00  0.00     0.148 A 
ATOM     85  C   UNL A   1      50.291  34.961  29.171  1.00  0.00     0.002 A 
ATOM     86  C   UNL A   1      49.157  35.073  27.104  1.00  0.00     0.091 A 
ATOM     87  F   UNL A   1      47.126  35.953  27.165  1.00  0.00    -0.205 F 
ATOM     88  C   UNL A   1      50.350  34.967  27.765  1.00  0.00     0.022 A 
BRANCH  86  89
ATOM     89  S   UNL A   1      49.133  35.113  25.259  1.00  0.00     0.127 S 
ATOM     90  O   UNL A   1      50.319  34.339  24.888  1.00  0.00    -0.237 OA
ATOM     91  O   UNL A   1      47.864  34.446  24.965  1.00  0.00    -0.237 OA
ATOM     92  O   UNL A   1      49.176  36.515  24.857  1.00  0.00    -0.744 OA
ENDBRANCH  86  89
ENDBRANCH  58  82
BRANCH  70  93
ATOM     93  C   UNL A   1      45.111  30.041  29.321  1.00  0.00     0.023 A 
ATOM     94  C   UNL A   1      44.745  31.123  28.510  1.00  0.00     0.012 A 
ATOM     95  C   UNL A   1      44.641  28.748  28.942  1.00  0.00     0.148 A 
ATOM     96  C   UNL A   1      43.959  30.944  27.372  1.00  0.00     0.002 A 
ATOM     97  C   UNL A   1      43.836  28.571  27.810  1.00  0.00     0.091 A 
ATOM     98  F   UNL A   1      44.966  27.696  29.697  1.00  0.00    -0.205 F 
ATOM     99  C   UNL A   1      43.503  29.677  27.023  1.00  0.00     0.022 A 
BRANCH  97 100
ATOM    100  S   UNL A   1      43.048  27.008  27.343  1.00  0.00     0.127 S 
ATOM    101  O   UNL A   1      42.165  26.746  28.482  1.00  0.00    -0.237 OA
ATOM    102  O   UNL A   1      42.339  27.350  26.106  1.00  0.00    -0.237 OA
ATOM    103  O   UNL A   1      44.110  26.027  27.186  1.00  0.00    -0.744 OA
ENDBRANCH  97 100
ENDBRANCH  70  93
ENDBRANCH  44  45
ENDBRANCH  37  39
ENDBRANCH  36  37
ENDBRANCH  35  36
ENDBRANCH  34  35
ENDBRANCH  33  34
ENDBRANCH   1  33
TORSDOF 22
ENDMDL
MODEL 2
REMARK VINA RESULT:     -11.0      3.495      6.451
REMARK SMILES Cc1cc(/C=C2/C(=O)NC(=S)N=C2OCCOCCOCCOC(=O)c2ccc(-c3c4nc(c(-c5cccc(S(=O)(=O)[O-])c5F)c5ccc([nH]5)c(-c5cccc(S(=O)(=O)[O-])c5F)c5nc(c(-c6cccc(S(=O)(=O)[O-])c6F)c6ccc3[nH]6)C=C5)C=C4)cc2)c(C)n1-c1cccc(C(=O)[O-])c1
REMARK SMILES IDX 19 1 18 2 17 3 16 4 15 5 14 6 13 7 5 8 6 9 7 10 8 11 9 12
REMARK SMILES IDX 12 13 10 14 11 16 4 17 1 18 2 19 3 20 91 21 89 22 90 23
REMARK SMILES IDX 92 24 93 25 100 26 94 27 96 28 95 29 97 30 98 31 99 32 20 33
REMARK SMILES IDX 21 34 22 35 23 36 24 37 25 38 26 39 27 40 88 41 28 42 87 43
REMARK SMILES IDX 29 44 30 45 31 46 81 47 32 48 86 49 80 50 82 51 33 52 85 53
REMARK SMILES IDX 79 54 78 55 34 57 66 58 46 59 65 60 47 61 50 62 64 63 83 64
REMARK SMILES IDX 48 65 49 66 63 68 84 69 51 70 35 71 36 72 44 73 37 74 39 75
REMARK SMILES IDX 45 76 38 77 40 78 41 79 42 80 43 81 67 82 68 83 76 84 69 85
REMARK SMILES IDX 71 86 77 87 70 88 72 89 73 90 74 91 75 92 52 93 53 94 61 95
REMARK SMILES IDX 54 96 56 97 62 98 55 99 57 100 58 101 59 102 60 103
REMARK H PARENT 9 15 82 56 50 67
REMARK Flexibility Score: inf
ROOT
ATOM      1  C   UNL A   1      33.631  30.203  27.154  1.00  0.00     0.188 C 
ENDROOT
BRANCH   1   2
ATOM      2  C   UNL A   1      32.659  29.390  26.287  1.00  0.00     0.188 C 
BRANCH   2   3
ATOM      3  O   UNL A   1      33.078  28.197  25.636  1.00  0.00    -0.376 OA
BRANCH   3   4
ATOM      4  C   UNL A   1      33.698  27.140  26.353  1.00  0.00     0.201 C 
BRANCH   4   5
ATOM      5  C   UNL A   1      34.229  25.986  25.509  1.00  0.00     0.260 C 
BRANCH   5   6
ATOM      6  O   UNL A   1      33.413  24.806  25.695  1.00  0.00    -0.475 OA
BRANCH   6   7
ATOM      7  C   UNL A   1      33.703  23.704  24.976  1.00  0.00     0.229 C 
ATOM      8  C   UNL A   1      31.902  24.215  23.190  1.00  0.00     0.029 C 
ATOM      9  C   UNL A   1      32.745  23.426  23.890  1.00  0.00     0.103 C 
ATOM     10  C   UNL A   1      32.724  21.985  23.495  1.00  0.00     0.262 C 
ATOM     11  O   UNL A   1      31.890  21.483  22.748  1.00  0.00    -0.269 OA
ATOM     12  N   UNL A   1      33.749  21.236  24.002  1.00  0.00    -0.297 N 
ATOM     13  N   UNL A   1      34.675  22.935  25.327  1.00  0.00    -0.184 NA
ATOM     14  C   UNL A   1      34.764  21.682  24.804  1.00  0.00     0.203 C 
ATOM     15  H   UNL A   1      33.758  20.280  23.767  1.00  0.00     0.172 HD
ATOM     16  S   UNL A   1      35.996  20.613  25.180  1.00  0.00    -0.038 S 
BRANCH   8  17
ATOM     17  C   UNL A   1      31.564  25.610  23.196  1.00  0.00    -0.003 A 
ATOM     18  C   UNL A   1      32.225  29.117  22.109  1.00  0.00     0.065 C 
ATOM     19  C   UNL A   1      31.734  27.800  22.606  1.00  0.00     0.020 A 
ATOM     20  C   UNL A   1      32.293  26.554  22.420  1.00  0.00     0.031 A 
ATOM     21  N   UNL A   1      30.596  27.626  23.381  1.00  0.00    -0.318 N 
ATOM     22  C   UNL A   1      30.670  26.346  23.962  1.00  0.00     0.027 A 
ATOM     23  C   UNL A   1      29.824  25.932  25.113  1.00  0.00     0.065 C 
BRANCH  21  24
ATOM     24  C   UNL A   1      29.470  28.509  23.425  1.00  0.00     0.046 A 
ATOM     25  C   UNL A   1      28.180  28.054  23.134  1.00  0.00     0.026 A 
ATOM     26  C   UNL A   1      29.692  29.886  23.598  1.00  0.00     0.036 A 
ATOM     27  C   UNL A   1      27.146  28.958  22.894  1.00  0.00     0.003 A 
ATOM     28  C   UNL A   1      28.645  30.794  23.379  1.00  0.00    -0.001 A 
ATOM     29  C   UNL A   1      27.383  30.326  22.990  1.00  0.00     0.010 A 
BRANCH  28  30
ATOM     30  C   UNL A   1      28.823  32.261  23.496  1.00  0.00     0.072 C 
ATOM     31  O   UNL A   1      29.696  32.822  24.129  1.00  0.00    -0.545 OA
ATOM     32  O   UNL A   1      27.926  32.956  22.774  1.00  0.00    -0.545 OA
ENDBRANCH  28  30
ENDBRANCH  21  24
ENDBRANCH   8  17
ENDBRANCH   6   7
ENDBRANCH   5   6
ENDBRANCH   4   5
ENDBRANCH   3   4
ENDBRANCH   2   3
ENDBRANCH   1   2
BRANCH   1  33
ATOM     33  O   UNL A   1      33.172  31.406  27.733  1.00  0.00    -0.376 OA
BRANCH  33  34
ATOM     34  C   UNL A   1      34.134  32.437  27.902  1.00  0.00     0.202 C 
BRANCH  34  35
ATOM     35  C   UNL A   1      33.665  33.916  28.128  1.00  0.00     0.261 C 
BRANCH  35  36
ATOM     36  O   UNL A   1      32.743  34.357  29.212  1.00  0.00    -0.460 OA
BRANCH  36  37
ATOM     37  C   UNL A   1      33.182  35.236  30.206  1.00  0.00     0.338 C 
ATOM     38  O   UNL A   1      32.656  36.331  30.369  1.00  0.00    -0.246 OA
BRANCH  37  39
ATOM     39  C   UNL A   1      34.389  34.764  31.107  1.00  0.00     0.060 A 
ATOM     40  C   UNL A   1      35.647  34.170  30.765  1.00  0.00     0.016 A 
ATOM     41  C   UNL A   1      34.295  34.872  32.450  1.00  0.00     0.016 A 
ATOM     42  C   UNL A   1      36.817  33.777  31.762  1.00  0.00     0.010 A 
ATOM     43  C   UNL A   1      35.438  34.496  33.306  1.00  0.00     0.010 A 
ATOM     44  C   UNL A   1      36.782  33.907  33.175  1.00  0.00    -0.014 A 
BRANCH  44  45
ATOM     45  C   UNL A   1      38.162  34.329  34.335  1.00  0.00     0.031 A 
ATOM     46  C   UNL A   1      37.628  33.580  35.538  1.00  0.00     0.074 A 
ATOM     47  C   UNL A   1      39.647  34.657  34.523  1.00  0.00     0.049 A 
ATOM     48  N   UNL A   1      37.036  32.449  35.225  1.00  0.00    -0.248 NA
ATOM     49  C   UNL A   1      38.303  33.423  36.813  1.00  0.00     0.031 C 
ATOM     50  C   UNL A   1      40.712  35.102  33.557  1.00  0.00     0.029 A 
ATOM     51  N   UNL A   1      40.644  34.525  35.705  1.00  0.00    -0.354 N 
ATOM     52  C   UNL A   1      38.145  31.658  35.331  1.00  0.00     0.074 A 
ATOM     53  C   UNL A   1      38.586  32.114  36.679  1.00  0.00     0.031 C 
ATOM     54  C   UNL A   1      42.006  35.130  34.051  1.00  0.00     0.029 A 
ATOM     55  C   UNL A   1      42.130  34.734  35.467  1.00  0.00     0.049 A 
ATOM     56  H   UNL A   1      40.315  34.306  36.607  1.00  0.00     0.167 HD
ATOM     57  C   UNL A   1      38.981  31.239  34.293  1.00  0.00     0.034 A 
ATOM     58  C   UNL A   1      43.314  34.458  36.288  1.00  0.00     0.034 A 
ATOM     59  C   UNL A   1      40.127  30.625  34.785  1.00  0.00     0.049 A 
ATOM     60  C   UNL A   1      43.512  33.037  35.851  1.00  0.00     0.074 A 
ATOM     61  C   UNL A   1      40.474  29.815  35.823  1.00  0.00     0.029 A 
ATOM     62  N   UNL A   1      41.220  30.960  34.078  1.00  0.00    -0.354 N 
ATOM     63  N   UNL A   1      44.150  32.720  34.752  1.00  0.00    -0.248 NA
ATOM     64  C   UNL A   1      43.364  31.973  36.860  1.00  0.00     0.031 C 
ATOM     65  C   UNL A   1      41.834  29.526  35.606  1.00  0.00     0.029 A 
ATOM     66  C   UNL A   1      42.265  30.206  34.457  1.00  0.00     0.049 A 
ATOM     67  H   UNL A   1      41.250  31.656  33.384  1.00  0.00     0.167 HD
ATOM     68  C   UNL A   1      44.213  31.346  34.816  1.00  0.00     0.074 A 
ATOM     69  C   UNL A   1      44.057  31.019  36.224  1.00  0.00     0.031 C 
ATOM     70  C   UNL A   1      43.490  30.686  33.875  1.00  0.00     0.034 A 
BRANCH  57  71
ATOM     71  C   UNL A   1      39.059  31.361  32.627  1.00  0.00     0.023 A 
ATOM     72  C   UNL A   1      39.915  32.252  31.911  1.00  0.00     0.012 A 
ATOM     73  C   UNL A   1      38.276  30.544  31.791  1.00  0.00     0.148 A 
ATOM     74  C   UNL A   1      39.869  32.484  30.524  1.00  0.00     0.002 A 
ATOM     75  C   UNL A   1      38.280  30.716  30.385  1.00  0.00     0.091 A 
ATOM     76  F   UNL A   1      37.489  29.629  32.368  1.00  0.00    -0.205 F 
ATOM     77  C   UNL A   1      39.031  31.715  29.755  1.00  0.00     0.022 A 
BRANCH  75  78
ATOM     78  S   UNL A   1      37.330  29.633  29.320  1.00  0.00     0.127 S 
ATOM     79  O   UNL A   1      37.963  28.337  29.565  1.00  0.00    -0.237 OA
ATOM     80  O   UNL A   1      35.962  29.738  29.831  1.00  0.00    -0.237 OA
ATOM     81  O   UNL A   1      37.509  30.185  27.982  1.00  0.00    -0.744 OA
ENDBRANCH  75  78
ENDBRANCH  57  71
BRANCH  58  82
ATOM     82  C   UNL A   1      44.998  34.670  36.795  1.00  0.00     0.023 A 
ATOM     83  C   UNL A   1      45.562  34.390  38.049  1.00  0.00     0.012 A 
ATOM     84  C   UNL A   1      46.101  35.074  35.867  1.00  0.00     0.148 A 
ATOM     85  C   UNL A   1      47.007  34.459  38.294  1.00  0.00     0.002 A 
ATOM     86  C   UNL A   1      47.498  34.973  36.042  1.00  0.00     0.091 A 
ATOM     87  F   UNL A   1      45.867  35.939  34.897  1.00  0.00    -0.205 F 
ATOM     88  C   UNL A   1      47.971  34.695  37.296  1.00  0.00     0.022 A 
BRANCH  86  89
ATOM     89  S   UNL A   1      48.684  35.319  34.671  1.00  0.00     0.127 S 
ATOM     90  O   UNL A   1      48.821  36.775  34.702  1.00  0.00    -0.237 OA
ATOM     91  O   UNL A   1      49.874  34.593  35.120  1.00  0.00    -0.237 OA
ATOM     92  O   UNL A   1      48.092  34.793  33.446  1.00  0.00    -0.744 OA
ENDBRANCH  86  89
ENDBRANCH  58  82
BRANCH  70  93
ATOM     93  C   UNL A   1      43.706  31.212  32.461  1.00  0.00     0.023 A 
ATOM     94  C   UNL A   1      43.641  32.608  32.367  1.00  0.00     0.012 A 
ATOM     95  C   UNL A   1      43.805  30.476  31.242  1.00  0.00     0.148 A 
ATOM     96  C   UNL A   1      43.678  33.255  31.132  1.00  0.00     0.002 A 
ATOM     97  C   UNL A   1      43.823  31.125  30.001  1.00  0.00     0.091 A 
ATOM     98  F   UNL A   1      43.862  29.143  31.296  1.00  0.00    -0.205 F 
ATOM     99  C   UNL A   1      43.765  32.520  29.953  1.00  0.00     0.022 A 
BRANCH  97 100
ATOM    100  S   UNL A   1      43.770  30.280  28.399  1.00  0.00     0.127 S 
ATOM    101  O   UNL A   1      43.853  31.393  27.452  1.00  0.00    -0.237 OA
ATOM    102  O   UNL A   1      44.968  29.434  28.431  1.00  0.00    -0.237 OA
ATOM    103  O   UNL A   1      42.512  29.553  28.343  1.00  0.00    -0.744 OA
ENDBRANCH  97 100
ENDBRANCH  70  93
ENDBRANCH  44  45
ENDBRANCH  37  39
ENDBRANCH  36  37
ENDBRANCH  35  36
ENDBRANCH  34  35
ENDBRANCH  33  34
ENDBRANCH   1  33
TORSDOF 22
ENDMDL
MODEL 3
REMARK VINA RESULT:     -10.9      3.993      6.803
REMARK SMILES Cc1cc(/C=C2/C(=O)NC(=S)N=C2OCCOCCOCCOC(=O)c2ccc(-c3c4nc(c(-c5cccc(S(=O)(=O)[O-])c5F)c5ccc([nH]5)c(-c5cccc(S(=O)(=O)[O-])c5F)c5nc(c(-c6cccc(S(=O)(=O)[O-])c6F)c6ccc3[nH]6)C=C5)C=C4)cc2)c(C)n1-c1cccc(C(=O)[O-])c1
REMARK SMILES IDX 19 1 18 2 17 3 16 4 15 5 14 6 13 7 5 8 6 9 7 10 8 11 9 12
REMARK SMILES IDX 12 13 10 14 11 16 4 17 1 18 2 19 3 20 91 21 89 22 90 23
REMARK SMILES IDX 92 24 93 25 100 26 94 27 96 28 95 29 97 30 98 31 99 32 20 33
REMARK SMILES IDX 21 34 22 35 23 36 24 37 25 38 26 39 27 40 88 41 28 42 87 43
REMARK SMILES IDX 29 44 30 45 31 46 81 47 32 48 86 49 80 50 82 51 33 52 85 53
REMARK SMILES IDX 79 54 78 55 34 57 66 58 46 59 65 60 47 61 50 62 64 63 83 64
REMARK SMILES IDX 48 65 49 66 63 68 84 69 51 70 35 71 36 72 44 73 37 74 39 75
REMARK SMILES IDX 45 76 38 77 40 78 41 79 42 80 43 81 67 82 68 83 76 84 69 85
REMARK SMILES IDX 71 86 77 87 70 88 72 89 73 90 74 91 75 92 52 93 53 94 61 95
REMARK SMILES IDX 54 96 56 97 62 98 55 99 57 100 58 101 59 102 60 103
REMARK H PARENT 9 15 82 56 50 67
REMARK Flexibility Score: inf
ROOT
ATOM      1  C   UNL A   1      33.954  29.964  27.083  1.00  0.00     0.188 C 
ENDROOT
BRANCH   1   2
ATOM      2  C   UNL A   1      33.288  29.105  25.998  1.00  0.00     0.188 C 
BRANCH   2   3
ATOM      3  O   UNL A   1      33.931  27.946  25.483  1.00  0.00    -0.376 OA
BRANCH   3   4
ATOM      4  C   UNL A   1      33.688  26.659  26.030  1.00  0.00     0.201 C 
BRANCH   4   5
ATOM      5  C   UNL A   1      34.421  25.501  25.359  1.00  0.00     0.260 C 
BRANCH   5   6
ATOM      6  O   UNL A   1      34.449  24.347  26.230  1.00  0.00    -0.475 OA
BRANCH   6   7
ATOM      7  C   UNL A   1      34.936  23.188  25.746  1.00  0.00     0.229 C 
ATOM      8  C   UNL A   1      32.591  22.301  25.103  1.00  0.00     0.029 C 
ATOM      9  C   UNL A   1      33.899  22.191  25.421  1.00  0.00     0.103 C 
ATOM     10  C   UNL A   1      34.421  20.790  25.444  1.00  0.00     0.262 C 
ATOM     11  O   UNL A   1      33.716  19.787  25.384  1.00  0.00    -0.269 OA
ATOM     12  N   UNL A   1      35.782  20.686  25.499  1.00  0.00    -0.297 N 
ATOM     13  N   UNL A   1      36.207  22.982  25.705  1.00  0.00    -0.184 NA
ATOM     14  C   UNL A   1      36.678  21.719  25.522  1.00  0.00     0.203 C 
ATOM     15  H   UNL A   1      36.156  19.775  25.525  1.00  0.00     0.172 HD
ATOM     16  S   UNL A   1      38.308  21.349  25.437  1.00  0.00    -0.038 S 
BRANCH   8  17
ATOM     17  C   UNL A   1      31.661  23.384  24.959  1.00  0.00    -0.003 A 
ATOM     18  C   UNL A   1      29.039  25.625  26.378  1.00  0.00     0.065 C 
ATOM     19  C   UNL A   1      30.104  24.900  25.629  1.00  0.00     0.020 A 
ATOM     20  C   UNL A   1      30.884  23.848  26.057  1.00  0.00     0.031 A 
ATOM     21  N   UNL A   1      30.476  25.180  24.321  1.00  0.00    -0.318 N 
ATOM     22  C   UNL A   1      31.208  24.076  23.844  1.00  0.00     0.027 A 
ATOM     23  C   UNL A   1      31.477  23.850  22.398  1.00  0.00     0.065 C 
BRANCH  21  24
ATOM     24  C   UNL A   1      30.309  26.435  23.653  1.00  0.00     0.046 A 
ATOM     25  C   UNL A   1      31.411  27.209  23.276  1.00  0.00     0.026 A 
ATOM     26  C   UNL A   1      29.016  26.971  23.528  1.00  0.00     0.036 A 
ATOM     27  C   UNL A   1      31.247  28.540  22.897  1.00  0.00     0.003 A 
ATOM     28  C   UNL A   1      28.850  28.305  23.124  1.00  0.00    -0.001 A 
ATOM     29  C   UNL A   1      29.972  29.096  22.846  1.00  0.00     0.010 A 
BRANCH  28  30
ATOM     30  C   UNL A   1      27.518  28.947  23.017  1.00  0.00     0.072 C 
ATOM     31  O   UNL A   1      26.481  28.510  23.478  1.00  0.00    -0.545 OA
ATOM     32  O   UNL A   1      27.558  30.131  22.381  1.00  0.00    -0.545 OA
ENDBRANCH  28  30
ENDBRANCH  21  24
ENDBRANCH   8  17
ENDBRANCH   6   7
ENDBRANCH   5   6
ENDBRANCH   4   5
ENDBRANCH   3   4
ENDBRANCH   2   3
ENDBRANCH   1   2
BRANCH   1  33
ATOM     33  O   UNL A   1      33.235  31.060  27.608  1.00  0.00    -0.376 OA
BRANCH  33  34
ATOM     34  C   UNL A   1      34.000  32.191  28.002  1.00  0.00     0.202 C 
BRANCH  34  35
ATOM     35  C   UNL A   1      33.354  33.619  27.978  1.00  0.00     0.261 C 
BRANCH  35  36
ATOM     36  O   UNL A   1      32.633  34.244  29.121  1.00  0.00    -0.460 OA
BRANCH  36  37
ATOM     37  C   UNL A   1      33.249  35.229  29.899  1.00  0.00     0.338 C 
ATOM     38  O   UNL A   1      32.895  36.401  29.843  1.00  0.00    -0.246 OA
BRANCH  37  39
ATOM     39  C   UNL A   1      34.425  34.772  30.847  1.00  0.00     0.060 A 
ATOM     40  C   UNL A   1      35.704  34.195  30.555  1.00  0.00     0.016 A 
ATOM     41  C   UNL A   1      34.275  34.875  32.186  1.00  0.00     0.016 A 
ATOM     42  C   UNL A   1      36.837  33.817  31.597  1.00  0.00     0.010 A 
ATOM     43  C   UNL A   1      35.387  34.513  33.086  1.00  0.00     0.010 A 
ATOM     44  C   UNL A   1      36.743  33.942  33.009  1.00  0.00    -0.014 A 
BRANCH  44  45
ATOM     45  C   UNL A   1      38.070  34.380  34.224  1.00  0.00     0.031 A 
ATOM     46  C   UNL A   1      37.470  33.666  35.418  1.00  0.00     0.074 A 
ATOM     47  C   UNL A   1      39.546  34.699  34.477  1.00  0.00     0.049 A 
ATOM     48  N   UNL A   1      36.882  32.533  35.103  1.00  0.00    -0.248 NA
ATOM     49  C   UNL A   1      38.079  33.534  36.728  1.00  0.00     0.031 C 
ATOM     50  C   UNL A   1      40.662  35.110  33.555  1.00  0.00     0.029 A 
ATOM     51  N   UNL A   1      40.483  34.587  35.709  1.00  0.00    -0.354 N 
ATOM     52  C   UNL A   1      37.976  31.734  35.283  1.00  0.00     0.074 A 
ATOM     53  C   UNL A   1      38.355  32.220  36.639  1.00  0.00     0.031 C 
ATOM     54  C   UNL A   1      41.930  35.139  34.110  1.00  0.00     0.029 A 
ATOM     55  C   UNL A   1      41.981  34.777  35.539  1.00  0.00     0.049 A 
ATOM     56  H   UNL A   1      40.108  34.394  36.599  1.00  0.00     0.167 HD
ATOM     57  C   UNL A   1      38.858  31.283  34.298  1.00  0.00     0.034 A 
ATOM     58  C   UNL A   1      43.120  34.510  36.424  1.00  0.00     0.034 A 
ATOM     59  C   UNL A   1      39.972  30.671  34.860  1.00  0.00     0.049 A 
ATOM     60  C   UNL A   1      43.325  33.078  36.032  1.00  0.00     0.074 A 
ATOM     61  C   UNL A   1      40.260  29.884  35.933  1.00  0.00     0.029 A 
ATOM     62  N   UNL A   1      41.102  30.978  34.200  1.00  0.00    -0.354 N 
ATOM     63  N   UNL A   1      44.013  32.728  34.974  1.00  0.00    -0.248 NA
ATOM     64  C   UNL A   1      43.117  32.040  37.058  1.00  0.00     0.031 C 
ATOM     65  C   UNL A   1      41.625  29.577  35.790  1.00  0.00     0.029 A 
ATOM     66  C   UNL A   1      42.119  30.225  34.648  1.00  0.00     0.049 A 
ATOM     67  H   UNL A   1      41.173  31.657  33.491  1.00  0.00     0.167 HD
ATOM     68  C   UNL A   1      44.059  31.355  35.074  1.00  0.00     0.074 A 
ATOM     69  C   UNL A   1      43.831  31.065  36.480  1.00  0.00     0.031 C 
ATOM     70  C   UNL A   1      43.376  30.679  34.115  1.00  0.00     0.034 A 
BRANCH  57  71
ATOM     71  C   UNL A   1      39.019  31.363  32.635  1.00  0.00     0.023 A 
ATOM     72  C   UNL A   1      39.886  32.258  31.939  1.00  0.00     0.012 A 
ATOM     73  C   UNL A   1      38.301  30.503  31.783  1.00  0.00     0.148 A 
ATOM     74  C   UNL A   1      39.906  32.452  30.545  1.00  0.00     0.002 A 
ATOM     75  C   UNL A   1      38.374  30.638  30.375  1.00  0.00     0.091 A 
ATOM     76  F   UNL A   1      37.510  29.581  32.345  1.00  0.00    -0.205 F 
ATOM     77  C   UNL A   1      39.129  31.641  29.756  1.00  0.00     0.022 A 
BRANCH  75  78
ATOM     78  S   UNL A   1      37.508  29.500  29.293  1.00  0.00     0.127 S 
ATOM     79  O   UNL A   1      38.180  28.234  29.587  1.00  0.00    -0.237 OA
ATOM     80  O   UNL A   1      36.118  29.561  29.748  1.00  0.00    -0.237 OA
ATOM     81  O   UNL A   1      37.719  30.037  27.953  1.00  0.00    -0.744 OA
ENDBRANCH  75  78
ENDBRANCH  57  71
BRANCH  58  82
ATOM     82  C   UNL A   1      44.780  34.720  37.008  1.00  0.00     0.023 A 
ATOM     83  C   UNL A   1      45.920  35.054  36.262  1.00  0.00     0.012 A 
ATOM     84  C   UNL A   1      45.162  34.687  38.455  1.00  0.00     0.148 A 
ATOM     85  C   UNL A   1      47.211  35.355  36.892  1.00  0.00     0.002 A 
ATOM     86  C   UNL A   1      46.343  35.144  39.077  1.00  0.00     0.091 A 
ATOM     87  F   UNL A   1      44.552  33.860  39.284  1.00  0.00    -0.205 F 
ATOM     88  C   UNL A   1      47.413  35.452  38.281  1.00  0.00     0.022 A 
BRANCH  86  89
ATOM     89  S   UNL A   1      46.517  35.220  40.914  1.00  0.00     0.127 S 
ATOM     90  O   UNL A   1      47.734  36.010  41.106  1.00  0.00    -0.237 OA
ATOM     91  O   UNL A   1      45.285  35.911  41.299  1.00  0.00    -0.237 OA
ATOM     92  O   UNL A   1      46.605  33.846  41.396  1.00  0.00    -0.744 OA
ENDBRANCH  86  89
ENDBRANCH  58  82
BRANCH  70  93
ATOM     93  C   UNL A   1      43.666  31.168  32.701  1.00  0.00     0.023 A 
ATOM     94  C   UNL A   1      43.415  32.534  32.518  1.00  0.00     0.012 A 
ATOM     95  C   UNL A   1      43.999  30.401  31.544  1.00  0.00     0.148 A 
ATOM     96  C   UNL A   1      43.493  33.124  31.257  1.00  0.00     0.002 A 
ATOM     97  C   UNL A   1      44.058  30.990  30.275  1.00  0.00     0.091 A 
ATOM     98  F   UNL A   1      44.238  29.095  31.683  1.00  0.00    -0.205 F 
ATOM     99  C   UNL A   1      43.809  32.358  30.139  1.00  0.00     0.022 A 
BRANCH  97 100
ATOM    100  S   UNL A   1      44.298  30.076  28.728  1.00  0.00     0.127 S 
ATOM    101  O   UNL A   1      45.756  29.977  28.643  1.00  0.00    -0.237 OA
ATOM    102  O   UNL A   1      43.629  28.798  28.992  1.00  0.00    -0.237 OA
ATOM    103  O   UNL A   1      43.699  30.870  27.668  1.00  0.00    -0.744 OA
ENDBRANCH  97 100
ENDBRANCH  70  93
ENDBRANCH  44  45
ENDBRANCH  37  39
ENDBRANCH  36  37
ENDBRANCH  35  36
ENDBRANCH  34  35
ENDBRANCH  33  34
ENDBRANCH   1  33
TORSDOF 22
ENDMDL
