MODEL 1
REMARK VINA RESULT:      -9.6      0.000      0.000
REMARK SMILES C[N@@H+]1CCC[C@@H](C(=O)N[C@H](C(=O)OCCOCCOCCOC(=O)c2ccc(-c3c4nc(c(-c5cccc(S(=O)(=O)[O-])c5F)c5ccc([nH]5)c(-c5cccc(S(=O)(=O)[O-])c5F)c5nc(c(-c6cccc(S(=O)(=O)[O-])c6F)c6ccc3[nH]6)C=C5)C=C4)cc2)c2ccccc2)C1
REMARK SMILES IDX 18 1 17 2 16 3 15 4 14 5 13 6 11 7 12 8 10 9 9 10 7 11 8 12
REMARK SMILES IDX 6 14 1 15 2 16 3 17 94 18 4 20 5 21 88 22 89 23 93 24 90 25
REMARK SMILES IDX 92 26 91 27 19 28 20 29 21 30 22 31 23 32 24 33 25 34 26 35
REMARK SMILES IDX 87 36 27 37 86 38 28 39 29 40 30 41 80 42 31 43 85 44 79 45
REMARK SMILES IDX 81 46 32 47 84 48 78 49 77 50 33 52 65 53 45 54 64 55 46 56
REMARK SMILES IDX 49 57 63 58 82 59 47 60 48 61 62 63 83 64 50 65 34 66 35 67
REMARK SMILES IDX 43 68 36 69 38 70 44 71 37 72 39 73 40 74 41 75 42 76 66 77
REMARK SMILES IDX 67 78 75 79 68 80 70 81 76 82 69 83 71 84 72 85 73 86 74 87
REMARK SMILES IDX 51 88 52 89 60 90 53 91 55 92 61 93 54 94 56 95 57 96 58 97
REMARK SMILES IDX 59 98
REMARK H PARENT 9 13 2 19 81 51 49 62
REMARK Flexibility Score: inf
ROOT
ATOM      1  C   UNL A   1      41.367  20.454  27.520  1.00  0.00     0.188 C 
ENDROOT
BRANCH   1   2
ATOM      2  C   UNL A   1      40.636  21.801  27.535  1.00  0.00     0.188 C 
BRANCH   2   3
ATOM      3  O   UNL A   1      40.227  22.351  26.304  1.00  0.00    -0.376 OA
BRANCH   3   4
ATOM      4  C   UNL A   1      39.426  23.516  26.243  1.00  0.00     0.202 C 
BRANCH   4   5
ATOM      5  C   UNL A   1      37.889  23.546  26.242  1.00  0.00     0.261 C 
BRANCH   5   6
ATOM      6  O   UNL A   1      37.205  22.494  25.547  1.00  0.00    -0.461 OA
BRANCH   6   7
ATOM      7  C   UNL A   1      36.518  22.886  24.445  1.00  0.00     0.333 C 
ATOM      8  O   UNL A   1      37.085  23.221  23.405  1.00  0.00    -0.249 OA
BRANCH   7   9
ATOM      9  C   UNL A   1      34.981  22.925  24.571  1.00  0.00     0.223 C 
BRANCH   9  10
ATOM     10  N   UNL A   1      34.548  24.088  23.778  1.00  0.00    -0.339 N 
ATOM     11  C   UNL A   1      33.982  25.271  24.095  1.00  0.00     0.229 C 
ATOM     12  O   UNL A   1      33.719  26.003  23.132  1.00  0.00    -0.275 OA
ATOM     13  H   UNL A   1      34.706  23.978  22.813  1.00  0.00     0.164 HD
BRANCH  11  14
ATOM     14  C   UNL A   1      33.632  25.747  25.507  1.00  0.00     0.133 C 
ATOM     15  C   UNL A   1      31.765  29.033  25.242  1.00  0.00     0.332 C 
ATOM     16  N   UNL A   1      31.998  27.604  25.346  1.00  0.00    -0.337 N 
ATOM     17  C   UNL A   1      31.004  26.898  26.152  1.00  0.00     0.262 C 
ATOM     18  C   UNL A   1      33.375  27.247  25.661  1.00  0.00     0.275 C 
ATOM     19  H   UNL A   1      31.855  27.255  24.398  1.00  0.00     0.347 HD
ATOM     20  C   UNL A   1      31.161  25.373  26.083  1.00  0.00     0.062 C 
ATOM     21  C   UNL A   1      32.597  24.888  26.231  1.00  0.00     0.025 C 
ENDBRANCH  11  14
ENDBRANCH   9  10
BRANCH   9  22
ATOM     22  C   UNL A   1      34.046  21.731  24.321  1.00  0.00    -0.014 A 
ATOM     23  C   UNL A   1      32.934  21.771  23.469  1.00  0.00     0.006 A 
ATOM     24  C   UNL A   1      34.378  20.465  24.865  1.00  0.00     0.006 A 
ATOM     25  C   UNL A   1      32.168  20.622  23.217  1.00  0.00     0.000 A 
ATOM     26  C   UNL A   1      33.634  19.315  24.594  1.00  0.00     0.000 A 
ATOM     27  C   UNL A   1      32.520  19.395  23.773  1.00  0.00     0.000 A 
ENDBRANCH   9  22
ENDBRANCH   7   9
ENDBRANCH   6   7
ENDBRANCH   5   6
ENDBRANCH   4   5
ENDBRANCH   3   4
ENDBRANCH   2   3
ENDBRANCH   1   2
BRANCH   1  28
ATOM     28  O   UNL A   1      41.655  19.802  26.307  1.00  0.00    -0.376 OA
BRANCH  28  29
ATOM     29  C   UNL A   1      42.346  18.567  26.333  1.00  0.00     0.202 C 
BRANCH  29  30
ATOM     30  C   UNL A   1      43.561  18.238  25.445  1.00  0.00     0.261 C 
BRANCH  30  31
ATOM     31  O   UNL A   1      43.857  19.130  24.366  1.00  0.00    -0.460 OA
BRANCH  31  32
ATOM     32  C   UNL A   1      45.052  19.772  24.447  1.00  0.00     0.338 C 
ATOM     33  O   UNL A   1      46.129  19.372  24.030  1.00  0.00    -0.246 OA
BRANCH  32  34
ATOM     34  C   UNL A   1      44.811  21.161  24.897  1.00  0.00     0.060 A 
ATOM     35  C   UNL A   1      44.660  22.172  23.932  1.00  0.00     0.016 A 
ATOM     36  C   UNL A   1      44.725  21.463  26.255  1.00  0.00     0.016 A 
ATOM     37  C   UNL A   1      44.460  23.495  24.324  1.00  0.00     0.010 A 
ATOM     38  C   UNL A   1      44.563  22.793  26.647  1.00  0.00     0.010 A 
ATOM     39  C   UNL A   1      44.474  23.818  25.684  1.00  0.00    -0.014 A 
BRANCH  39  40
ATOM     40  C   UNL A   1      44.680  25.224  26.108  1.00  0.00     0.031 A 
ATOM     41  C   UNL A   1      46.081  25.769  26.051  1.00  0.00     0.074 A 
ATOM     42  C   UNL A   1      43.674  25.993  26.558  1.00  0.00     0.049 A 
ATOM     43  N   UNL A   1      46.546  26.923  26.450  1.00  0.00    -0.248 NA
ATOM     44  C   UNL A   1      47.101  24.876  25.473  1.00  0.00     0.031 C 
ATOM     45  C   UNL A   1      42.269  25.600  26.626  1.00  0.00     0.029 A 
ATOM     46  N   UNL A   1      43.698  27.266  27.070  1.00  0.00    -0.354 N 
ATOM     47  C   UNL A   1      47.914  26.882  26.207  1.00  0.00     0.074 A 
ATOM     48  C   UNL A   1      48.207  25.583  25.643  1.00  0.00     0.031 C 
ATOM     49  C   UNL A   1      41.566  26.604  27.180  1.00  0.00     0.029 A 
ATOM     50  C   UNL A   1      42.475  27.695  27.529  1.00  0.00     0.049 A 
ATOM     51  H   UNL A   1      44.511  27.819  27.105  1.00  0.00     0.167 HD
ATOM     52  C   UNL A   1      48.844  27.840  26.423  1.00  0.00     0.034 A 
ATOM     53  C   UNL A   1      42.139  28.830  28.175  1.00  0.00     0.034 A 
ATOM     54  C   UNL A   1      48.551  29.131  26.982  1.00  0.00     0.049 A 
ATOM     55  C   UNL A   1      43.200  29.865  28.455  1.00  0.00     0.074 A 
ATOM     56  C   UNL A   1      49.416  30.185  27.214  1.00  0.00     0.029 A 
ATOM     57  N   UNL A   1      47.298  29.538  27.415  1.00  0.00    -0.354 N 
ATOM     58  N   UNL A   1      44.474  29.855  28.141  1.00  0.00    -0.248 NA
ATOM     59  C   UNL A   1      42.768  31.087  29.151  1.00  0.00     0.031 C 
ATOM     60  C   UNL A   1      48.692  31.215  27.825  1.00  0.00     0.029 A 
ATOM     61  C   UNL A   1      47.368  30.821  27.928  1.00  0.00     0.049 A 
ATOM     62  H   UNL A   1      46.480  28.993  27.366  1.00  0.00     0.167 HD
ATOM     63  C   UNL A   1      44.983  31.083  28.555  1.00  0.00     0.074 A 
ATOM     64  C   UNL A   1      43.877  31.814  29.138  1.00  0.00     0.031 C 
ATOM     65  C   UNL A   1      46.250  31.560  28.461  1.00  0.00     0.034 A 
BRANCH  52  66
ATOM     66  C   UNL A   1      50.268  27.511  26.052  1.00  0.00     0.023 A 
ATOM     67  C   UNL A   1      51.174  27.087  27.046  1.00  0.00     0.012 A 
ATOM     68  C   UNL A   1      50.710  27.628  24.720  1.00  0.00     0.148 A 
ATOM     69  C   UNL A   1      52.510  26.839  26.731  1.00  0.00     0.002 A 
ATOM     70  C   UNL A   1      52.030  27.328  24.405  1.00  0.00     0.091 A 
ATOM     71  F   UNL A   1      49.843  28.057  23.792  1.00  0.00    -0.205 F 
ATOM     72  C   UNL A   1      52.935  26.952  25.411  1.00  0.00     0.022 A 
BRANCH  70  73
ATOM     73  S   UNL A   1      52.650  27.363  22.720  1.00  0.00     0.127 S 
ATOM     74  O   UNL A   1      52.786  28.799  22.485  1.00  0.00    -0.237 OA
ATOM     75  O   UNL A   1      53.919  26.644  22.844  1.00  0.00    -0.237 OA
ATOM     76  O   UNL A   1      51.647  26.686  21.911  1.00  0.00    -0.744 OA
ENDBRANCH  70  73
ENDBRANCH  52  66
BRANCH  53  77
ATOM     77  C   UNL A   1      40.719  29.074  28.557  1.00  0.00     0.023 A 
ATOM     78  C   UNL A   1      39.792  29.439  27.562  1.00  0.00     0.012 A 
ATOM     79  C   UNL A   1      40.279  28.930  29.887  1.00  0.00     0.148 A 
ATOM     80  C   UNL A   1      38.457  29.682  27.888  1.00  0.00     0.002 A 
ATOM     81  C   UNL A   1      38.936  29.124  30.197  1.00  0.00     0.091 A 
ATOM     82  F   UNL A   1      41.180  28.593  30.821  1.00  0.00    -0.205 F 
ATOM     83  C   UNL A   1      38.028  29.515  29.201  1.00  0.00     0.022 A 
BRANCH  81  84
ATOM     84  S   UNL A   1      38.264  28.834  31.837  1.00  0.00     0.127 S 
ATOM     85  O   UNL A   1      39.033  29.776  32.647  1.00  0.00    -0.237 OA
ATOM     86  O   UNL A   1      36.858  29.189  31.650  1.00  0.00    -0.237 OA
ATOM     87  O   UNL A   1      38.503  27.426  32.123  1.00  0.00    -0.744 OA
ENDBRANCH  81  84
ENDBRANCH  53  77
BRANCH  65  88
ATOM     88  C   UNL A   1      46.513  32.967  28.941  1.00  0.00     0.023 A 
ATOM     89  C   UNL A   1      46.379  34.057  28.059  1.00  0.00     0.012 A 
ATOM     90  C   UNL A   1      46.816  33.210  30.297  1.00  0.00     0.148 A 
ATOM     91  C   UNL A   1      46.578  35.363  28.511  1.00  0.00     0.002 A 
ATOM     92  C   UNL A   1      46.960  34.516  30.750  1.00  0.00     0.091 A 
ATOM     93  F   UNL A   1      46.956  32.160  31.120  1.00  0.00    -0.205 F 
ATOM     94  C   UNL A   1      46.855  35.592  29.856  1.00  0.00     0.022 A 
BRANCH  92  95
ATOM     95  S   UNL A   1      47.215  34.913  32.484  1.00  0.00     0.127 S 
ATOM     96  O   UNL A   1      48.505  34.278  32.749  1.00  0.00    -0.237 OA
ATOM     97  O   UNL A   1      47.248  36.376  32.466  1.00  0.00    -0.237 OA
ATOM     98  O   UNL A   1      46.080  34.344  33.199  1.00  0.00    -0.744 OA
ENDBRANCH  92  95
ENDBRANCH  65  88
ENDBRANCH  39  40
ENDBRANCH  32  34
ENDBRANCH  31  32
ENDBRANCH  30  31
ENDBRANCH  29  30
ENDBRANCH  28  29
ENDBRANCH   1  28
TORSDOF 23
ENDMDL
MODEL 2
REMARK VINA RESULT:      -9.3      5.014      9.190
REMARK SMILES C[N@@H+]1CCC[C@@H](C(=O)N[C@H](C(=O)OCCOCCOCCOC(=O)c2ccc(-c3c4nc(c(-c5cccc(S(=O)(=O)[O-])c5F)c5ccc([nH]5)c(-c5cccc(S(=O)(=O)[O-])c5F)c5nc(c(-c6cccc(S(=O)(=O)[O-])c6F)c6ccc3[nH]6)C=C5)C=C4)cc2)c2ccccc2)C1
REMARK SMILES IDX 18 1 17 2 16 3 15 4 14 5 13 6 11 7 12 8 10 9 9 10 7 11 8 12
REMARK SMILES IDX 6 14 1 15 2 16 3 17 94 18 4 20 5 21 88 22 89 23 93 24 90 25
REMARK SMILES IDX 92 26 91 27 19 28 20 29 21 30 22 31 23 32 24 33 25 34 26 35
REMARK SMILES IDX 87 36 27 37 86 38 28 39 29 40 30 41 80 42 31 43 85 44 79 45
REMARK SMILES IDX 81 46 32 47 84 48 78 49 77 50 33 52 65 53 45 54 64 55 46 56
REMARK SMILES IDX 49 57 63 58 82 59 47 60 48 61 62 63 83 64 50 65 34 66 35 67
REMARK SMILES IDX 43 68 36 69 38 70 44 71 37 72 39 73 40 74 41 75 42 76 66 77
REMARK SMILES IDX 67 78 75 79 68 80 70 81 76 82 69 83 71 84 72 85 73 86 74 87
REMARK SMILES IDX 51 88 52 89 60 90 53 91 55 92 61 93 54 94 56 95 57 96 58 97
REMARK SMILES IDX 59 98
REMARK H PARENT 9 13 2 19 81 51 49 62
REMARK Flexibility Score: inf
ROOT
ATOM      1  C   UNL A   1      43.170  24.453  26.954  1.00  0.00     0.188 C 
ENDROOT
BRANCH   1   2
ATOM      2  C   UNL A   1      41.680  24.792  27.078  1.00  0.00     0.188 C 
BRANCH   2   3
ATOM      3  O   UNL A   1      41.324  26.106  27.441  1.00  0.00    -0.376 OA
BRANCH   3   4
ATOM      4  C   UNL A   1      41.541  26.597  28.751  1.00  0.00     0.202 C 
BRANCH   4   5
ATOM      5  C   UNL A   1      40.592  27.525  29.527  1.00  0.00     0.261 C 
BRANCH   5   6
ATOM      6  O   UNL A   1      40.447  28.872  29.055  1.00  0.00    -0.461 OA
BRANCH   6   7
ATOM      7  C   UNL A   1      40.312  29.810  30.026  1.00  0.00     0.333 C 
ATOM      8  O   UNL A   1      41.093  29.885  30.976  1.00  0.00    -0.249 OA
BRANCH   7   9
ATOM      9  C   UNL A   1      39.104  30.761  29.901  1.00  0.00     0.223 C 
BRANCH   9  10
ATOM     10  N   UNL A   1      37.920  29.940  30.206  1.00  0.00    -0.339 N 
ATOM     11  C   UNL A   1      36.774  29.678  29.545  1.00  0.00     0.229 C 
ATOM     12  O   UNL A   1      35.972  28.952  30.147  1.00  0.00    -0.275 OA
ATOM     13  H   UNL A   1      37.978  29.487  31.078  1.00  0.00     0.164 HD
BRANCH  11  14
ATOM     14  C   UNL A   1      36.396  30.214  28.162  1.00  0.00     0.133 C 
ATOM     15  C   UNL A   1      33.050  28.738  27.171  1.00  0.00     0.332 C 
ATOM     16  N   UNL A   1      34.019  29.674  27.714  1.00  0.00    -0.337 N 
ATOM     17  C   UNL A   1      33.658  31.077  27.525  1.00  0.00     0.262 C 
ATOM     18  C   UNL A   1      35.400  29.368  27.367  1.00  0.00     0.275 C 
ATOM     19  H   UNL A   1      33.971  29.529  28.722  1.00  0.00     0.347 HD
ATOM     20  C   UNL A   1      34.593  32.035  28.275  1.00  0.00     0.062 C 
ATOM     21  C   UNL A   1      36.073  31.707  28.122  1.00  0.00     0.025 C 
ENDBRANCH  11  14
ENDBRANCH   9  10
BRANCH   9  22
ATOM     22  C   UNL A   1      38.991  32.134  30.581  1.00  0.00    -0.014 A 
ATOM     23  C   UNL A   1      39.036  33.355  29.894  1.00  0.00     0.006 A 
ATOM     24  C   UNL A   1      38.691  32.201  31.964  1.00  0.00     0.006 A 
ATOM     25  C   UNL A   1      38.843  34.575  30.562  1.00  0.00     0.000 A 
ATOM     26  C   UNL A   1      38.472  33.411  32.627  1.00  0.00     0.000 A 
ATOM     27  C   UNL A   1      38.556  34.602  31.924  1.00  0.00     0.000 A 
ENDBRANCH   9  22
ENDBRANCH   7   9
ENDBRANCH   6   7
ENDBRANCH   5   6
ENDBRANCH   4   5
ENDBRANCH   3   4
ENDBRANCH   2   3
ENDBRANCH   1   2
BRANCH   1  28
ATOM     28  O   UNL A   1      43.687  23.896  25.770  1.00  0.00    -0.376 OA
BRANCH  28  29
ATOM     29  C   UNL A   1      44.908  23.182  25.819  1.00  0.00     0.202 C 
BRANCH  29  30
ATOM     30  C   UNL A   1      46.267  23.765  25.386  1.00  0.00     0.261 C 
BRANCH  30  31
ATOM     31  O   UNL A   1      46.264  24.786  24.383  1.00  0.00    -0.460 OA
BRANCH  31  32
ATOM     32  C   UNL A   1      47.108  25.827  24.604  1.00  0.00     0.338 C 
ATOM     33  O   UNL A   1      48.091  26.127  23.941  1.00  0.00    -0.246 OA
BRANCH  32  34
ATOM     34  C   UNL A   1      46.510  26.710  25.631  1.00  0.00     0.060 A 
ATOM     35  C   UNL A   1      47.315  27.160  26.692  1.00  0.00     0.016 A 
ATOM     36  C   UNL A   1      45.175  27.097  25.543  1.00  0.00     0.016 A 
ATOM     37  C   UNL A   1      46.775  27.970  27.690  1.00  0.00     0.010 A 
ATOM     38  C   UNL A   1      44.625  27.875  26.563  1.00  0.00     0.010 A 
ATOM     39  C   UNL A   1      45.411  28.277  27.661  1.00  0.00    -0.014 A 
BRANCH  39  40
ATOM     40  C   UNL A   1      44.738  28.766  28.889  1.00  0.00     0.031 A 
ATOM     41  C   UNL A   1      44.322  30.212  28.923  1.00  0.00     0.074 A 
ATOM     42  C   UNL A   1      44.523  27.976  29.954  1.00  0.00     0.049 A 
ATOM     43  N   UNL A   1      43.807  30.910  29.900  1.00  0.00    -0.248 NA
ATOM     44  C   UNL A   1      44.530  30.977  27.681  1.00  0.00     0.031 C 
ATOM     45  C   UNL A   1      44.841  26.553  30.034  1.00  0.00     0.029 A 
ATOM     46  N   UNL A   1      44.005  28.280  31.188  1.00  0.00    -0.354 N 
ATOM     47  C   UNL A   1      43.664  32.201  29.406  1.00  0.00     0.074 A 
ATOM     48  C   UNL A   1      44.163  32.194  28.048  1.00  0.00     0.031 C 
ATOM     49  C   UNL A   1      44.539  26.111  31.267  1.00  0.00     0.029 A 
ATOM     50  C   UNL A   1      44.033  27.226  32.069  1.00  0.00     0.049 A 
ATOM     51  H   UNL A   1      43.648  29.167  31.419  1.00  0.00     0.167 HD
ATOM     52  C   UNL A   1      43.155  33.295  30.018  1.00  0.00     0.034 A 
ATOM     53  C   UNL A   1      43.707  27.177  33.376  1.00  0.00     0.034 A 
ATOM     54  C   UNL A   1      42.658  33.300  31.366  1.00  0.00     0.049 A 
ATOM     55  C   UNL A   1      43.190  28.420  34.058  1.00  0.00     0.074 A 
ATOM     56  C   UNL A   1      42.093  34.347  32.072  1.00  0.00     0.029 A 
ATOM     57  N   UNL A   1      42.682  32.208  32.221  1.00  0.00    -0.354 N 
ATOM     58  N   UNL A   1      42.975  29.613  33.558  1.00  0.00    -0.248 NA
ATOM     59  C   UNL A   1      42.839  28.299  35.481  1.00  0.00     0.031 C 
ATOM     60  C   UNL A   1      41.814  33.898  33.367  1.00  0.00     0.029 A 
ATOM     61  C   UNL A   1      42.158  32.559  33.453  1.00  0.00     0.049 A 
ATOM     62  H   UNL A   1      43.024  31.315  31.986  1.00  0.00     0.167 HD
ATOM     63  C   UNL A   1      42.420  30.369  34.586  1.00  0.00     0.074 A 
ATOM     64  C   UNL A   1      42.327  29.496  35.738  1.00  0.00     0.031 C 
ATOM     65  C   UNL A   1      42.024  31.667  34.578  1.00  0.00     0.034 A 
BRANCH  52  66
ATOM     66  C   UNL A   1      43.122  34.575  29.222  1.00  0.00     0.023 A 
ATOM     67  C   UNL A   1      41.930  34.976  28.584  1.00  0.00     0.012 A 
ATOM     68  C   UNL A   1      44.274  35.375  29.099  1.00  0.00     0.148 A 
ATOM     69  C   UNL A   1      41.899  36.123  27.792  1.00  0.00     0.002 A 
ATOM     70  C   UNL A   1      44.221  36.546  28.351  1.00  0.00     0.091 A 
ATOM     71  F   UNL A   1      45.406  34.967  29.690  1.00  0.00    -0.205 F 
ATOM     72  C   UNL A   1      43.041  36.911  27.682  1.00  0.00     0.022 A 
BRANCH  70  73
ATOM     73  S   UNL A   1      45.616  37.669  28.220  1.00  0.00     0.127 S 
ATOM     74  O   UNL A   1      46.585  36.853  27.492  1.00  0.00    -0.237 OA
ATOM     75  O   UNL A   1      45.049  38.775  27.447  1.00  0.00    -0.237 OA
ATOM     76  O   UNL A   1      45.983  38.012  29.587  1.00  0.00    -0.744 OA
ENDBRANCH  70  73
ENDBRANCH  52  66
BRANCH  53  77
ATOM     77  C   UNL A   1      43.807  25.889  34.119  1.00  0.00     0.023 A 
ATOM     78  C   UNL A   1      42.643  25.126  34.333  1.00  0.00     0.012 A 
ATOM     79  C   UNL A   1      45.041  25.407  34.596  1.00  0.00     0.148 A 
ATOM     80  C   UNL A   1      42.701  23.919  35.031  1.00  0.00     0.002 A 
ATOM     81  C   UNL A   1      45.101  24.179  35.246  1.00  0.00     0.091 A 
ATOM     82  F   UNL A   1      46.136  26.154  34.392  1.00  0.00    -0.205 F 
ATOM     83  C   UNL A   1      43.929  23.441  35.478  1.00  0.00     0.022 A 
BRANCH  81  84
ATOM     84  S   UNL A   1      46.647  23.428  35.770  1.00  0.00     0.127 S 
ATOM     85  O   UNL A   1      47.387  23.359  34.512  1.00  0.00    -0.237 OA
ATOM     86  O   UNL A   1      47.148  24.415  36.726  1.00  0.00    -0.237 OA
ATOM     87  O   UNL A   1      46.289  22.143  36.354  1.00  0.00    -0.744 OA
ENDBRANCH  81  84
ENDBRANCH  53  77
BRANCH  65  88
ATOM     88  C   UNL A   1      41.391  32.222  35.831  1.00  0.00     0.023 A 
ATOM     89  C   UNL A   1      42.150  33.003  36.725  1.00  0.00     0.012 A 
ATOM     90  C   UNL A   1      40.016  32.032  36.078  1.00  0.00     0.148 A 
ATOM     91  C   UNL A   1      41.559  33.555  37.862  1.00  0.00     0.002 A 
ATOM     92  C   UNL A   1      39.423  32.629  37.184  1.00  0.00     0.091 A 
ATOM     93  F   UNL A   1      39.312  31.272  35.226  1.00  0.00    -0.205 F 
ATOM     94  C   UNL A   1      40.195  33.380  38.084  1.00  0.00     0.022 A 
BRANCH  92  95
ATOM     95  S   UNL A   1      37.655  32.544  37.494  1.00  0.00     0.127 S 
ATOM     96  O   UNL A   1      37.105  32.968  36.208  1.00  0.00    -0.237 OA
ATOM     97  O   UNL A   1      37.462  31.127  37.802  1.00  0.00    -0.237 OA
ATOM     98  O   UNL A   1      37.398  33.444  38.610  1.00  0.00    -0.744 OA
ENDBRANCH  92  95
ENDBRANCH  65  88
ENDBRANCH  39  40
ENDBRANCH  32  34
ENDBRANCH  31  32
ENDBRANCH  30  31
ENDBRANCH  29  30
ENDBRANCH  28  29
ENDBRANCH   1  28
TORSDOF 23
ENDMDL
MODEL 3
REMARK VINA RESULT:      -8.5      5.330     13.918
REMARK SMILES C[N@@H+]1CCC[C@@H](C(=O)N[C@H](C(=O)OCCOCCOCCOC(=O)c2ccc(-c3c4nc(c(-c5cccc(S(=O)(=O)[O-])c5F)c5ccc([nH]5)c(-c5cccc(S(=O)(=O)[O-])c5F)c5nc(c(-c6cccc(S(=O)(=O)[O-])c6F)c6ccc3[nH]6)C=C5)C=C4)cc2)c2ccccc2)C1
REMARK SMILES IDX 18 1 17 2 16 3 15 4 14 5 13 6 11 7 12 8 10 9 9 10 7 11 8 12
REMARK SMILES IDX 6 14 1 15 2 16 3 17 94 18 4 20 5 21 88 22 89 23 93 24 90 25
REMARK SMILES IDX 92 26 91 27 19 28 20 29 21 30 22 31 23 32 24 33 25 34 26 35
REMARK SMILES IDX 87 36 27 37 86 38 28 39 29 40 30 41 80 42 31 43 85 44 79 45
REMARK SMILES IDX 81 46 32 47 84 48 78 49 77 50 33 52 65 53 45 54 64 55 46 56
REMARK SMILES IDX 49 57 63 58 82 59 47 60 48 61 62 63 83 64 50 65 34 66 35 67
REMARK SMILES IDX 43 68 36 69 38 70 44 71 37 72 39 73 40 74 41 75 42 76 66 77
REMARK SMILES IDX 67 78 75 79 68 80 70 81 76 82 69 83 71 84 72 85 73 86 74 87
REMARK SMILES IDX 51 88 52 89 60 90 53 91 55 92 61 93 54 94 56 95 57 96 58 97
REMARK SMILES IDX 59 98
REMARK H PARENT 9 13 2 19 81 51 49 62
REMARK Flexibility Score: inf
ROOT
ATOM      1  C   UNL A   1      50.733  39.680  28.903  1.00  0.00     0.188 C 
ENDROOT
BRANCH   1   2
ATOM      2  C   UNL A   1      49.801  40.187  30.010  1.00  0.00     0.188 C 
BRANCH   2   3
ATOM      3  O   UNL A   1      48.505  40.605  29.650  1.00  0.00    -0.376 OA
BRANCH   3   4
ATOM      4  C   UNL A   1      48.157  41.976  29.598  1.00  0.00     0.202 C 
BRANCH   4   5
ATOM      5  C   UNL A   1      47.527  42.694  28.393  1.00  0.00     0.261 C 
BRANCH   5   6
ATOM      6  O   UNL A   1      46.105  42.596  28.232  1.00  0.00    -0.461 OA
BRANCH   6   7
ATOM      7  C   UNL A   1      45.606  43.230  27.141  1.00  0.00     0.333 C 
ATOM      8  O   UNL A   1      46.008  44.339  26.788  1.00  0.00    -0.249 OA
BRANCH   7   9
ATOM      9  C   UNL A   1      44.477  42.505  26.380  1.00  0.00     0.223 C 
BRANCH   9  10
ATOM     10  N   UNL A   1      45.059  42.117  25.084  1.00  0.00    -0.339 N 
ATOM     11  C   UNL A   1      44.827  42.495  23.810  1.00  0.00     0.229 C 
ATOM     12  O   UNL A   1      45.504  41.909  22.955  1.00  0.00    -0.275 OA
ATOM     13  H   UNL A   1      45.767  41.439  25.166  1.00  0.00     0.164 HD
BRANCH  11  14
ATOM     14  C   UNL A   1      43.806  43.542  23.359  1.00  0.00     0.133 C 
ATOM     15  C   UNL A   1      44.173  44.049  19.621  1.00  0.00     0.332 C 
ATOM     16  N   UNL A   1      43.680  43.526  20.883  1.00  0.00    -0.337 N 
ATOM     17  C   UNL A   1      42.249  43.229  20.884  1.00  0.00     0.262 C 
ATOM     18  C   UNL A   1      44.129  44.270  22.052  1.00  0.00     0.275 C 
ATOM     19  H   UNL A   1      44.131  42.615  20.972  1.00  0.00     0.347 HD
ATOM     20  C   UNL A   1      41.796  42.498  22.155  1.00  0.00     0.062 C 
ATOM     21  C   UNL A   1      42.349  43.092  23.444  1.00  0.00     0.025 C 
ENDBRANCH  11  14
ENDBRANCH   9  10
BRANCH   9  22
ATOM     22  C   UNL A   1      43.628  41.357  26.949  1.00  0.00    -0.014 A 
ATOM     23  C   UNL A   1      43.602  40.998  28.304  1.00  0.00     0.006 A 
ATOM     24  C   UNL A   1      42.708  40.690  26.103  1.00  0.00     0.006 A 
ATOM     25  C   UNL A   1      42.742  39.994  28.775  1.00  0.00     0.000 A 
ATOM     26  C   UNL A   1      41.831  39.710  26.574  1.00  0.00     0.000 A 
ATOM     27  C   UNL A   1      41.854  39.356  27.913  1.00  0.00     0.000 A 
ENDBRANCH   9  22
ENDBRANCH   7   9
ENDBRANCH   6   7
ENDBRANCH   5   6
ENDBRANCH   4   5
ENDBRANCH   3   4
ENDBRANCH   2   3
ENDBRANCH   1   2
BRANCH   1  28
ATOM     28  O   UNL A   1      50.281  39.569  27.574  1.00  0.00    -0.376 OA
BRANCH  28  29
ATOM     29  C   UNL A   1      49.820  38.316  27.105  1.00  0.00     0.202 C 
BRANCH  29  30
ATOM     30  C   UNL A   1      48.338  37.892  27.092  1.00  0.00     0.261 C 
BRANCH  30  31
ATOM     31  O   UNL A   1      48.021  36.572  27.546  1.00  0.00    -0.460 OA
BRANCH  31  32
ATOM     32  C   UNL A   1      47.571  36.484  28.825  1.00  0.00     0.338 C 
ATOM     33  O   UNL A   1      47.759  37.289  29.725  1.00  0.00    -0.246 OA
BRANCH  32  34
ATOM     34  C   UNL A   1      46.590  35.378  28.905  1.00  0.00     0.060 A 
ATOM     35  C   UNL A   1      46.758  34.390  29.891  1.00  0.00     0.016 A 
ATOM     36  C   UNL A   1      45.511  35.322  28.025  1.00  0.00     0.016 A 
ATOM     37  C   UNL A   1      45.868  33.320  29.974  1.00  0.00     0.010 A 
ATOM     38  C   UNL A   1      44.642  34.230  28.085  1.00  0.00     0.010 A 
ATOM     39  C   UNL A   1      44.843  33.206  29.030  1.00  0.00    -0.014 A 
BRANCH  39  40
ATOM     40  C   UNL A   1      44.158  31.904  28.837  1.00  0.00     0.031 A 
ATOM     41  C   UNL A   1      44.836  30.886  27.961  1.00  0.00     0.074 A 
ATOM     42  C   UNL A   1      42.964  31.633  29.390  1.00  0.00     0.049 A 
ATOM     43  N   UNL A   1      44.412  29.718  27.556  1.00  0.00    -0.248 NA
ATOM     44  C   UNL A   1      46.175  31.246  27.464  1.00  0.00     0.031 C 
ATOM     45  C   UNL A   1      42.222  32.514  30.287  1.00  0.00     0.029 A 
ATOM     46  N   UNL A   1      42.155  30.533  29.246  1.00  0.00    -0.354 N 
ATOM     47  C   UNL A   1      45.412  29.221  26.729  1.00  0.00     0.074 A 
ATOM     48  C   UNL A   1      46.456  30.221  26.675  1.00  0.00     0.031 C 
ATOM     49  C   UNL A   1      41.049  31.933  30.592  1.00  0.00     0.029 A 
ATOM     50  C   UNL A   1      40.947  30.654  29.889  1.00  0.00     0.049 A 
ATOM     51  H   UNL A   1      42.415  29.735  28.733  1.00  0.00     0.167 HD
ATOM     52  C   UNL A   1      45.467  28.036  26.079  1.00  0.00     0.034 A 
ATOM     53  C   UNL A   1      39.877  29.833  29.891  1.00  0.00     0.034 A 
ATOM     54  C   UNL A   1      44.431  27.042  26.134  1.00  0.00     0.049 A 
ATOM     55  C   UNL A   1      39.935  28.539  29.117  1.00  0.00     0.074 A 
ATOM     56  C   UNL A   1      44.400  25.795  25.537  1.00  0.00     0.029 A 
ATOM     57  N   UNL A   1      43.231  27.191  26.814  1.00  0.00    -0.354 N 
ATOM     58  N   UNL A   1      40.920  28.037  28.410  1.00  0.00    -0.248 NA
ATOM     59  C   UNL A   1      38.742  27.681  29.168  1.00  0.00     0.031 C 
ATOM     60  C   UNL A   1      43.164  25.206  25.822  1.00  0.00     0.029 A 
ATOM     61  C   UNL A   1      42.445  26.065  26.638  1.00  0.00     0.049 A 
ATOM     62  H   UNL A   1      42.975  27.981  27.342  1.00  0.00     0.167 HD
ATOM     63  C   UNL A   1      40.486  26.788  27.976  1.00  0.00     0.074 A 
ATOM     64  C   UNL A   1      39.149  26.607  28.503  1.00  0.00     0.031 C 
ATOM     65  C   UNL A   1      41.135  25.874  27.210  1.00  0.00     0.034 A 
BRANCH  52  66
ATOM     66  C   UNL A   1      46.696  27.765  25.248  1.00  0.00     0.023 A 
ATOM     67  C   UNL A   1      46.668  27.991  23.856  1.00  0.00     0.012 A 
ATOM     68  C   UNL A   1      47.874  27.278  25.845  1.00  0.00     0.148 A 
ATOM     69  C   UNL A   1      47.775  27.685  23.064  1.00  0.00     0.002 A 
ATOM     70  C   UNL A   1      48.991  27.026  25.056  1.00  0.00     0.091 A 
ATOM     71  F   UNL A   1      47.876  27.043  27.165  1.00  0.00    -0.205 F 
ATOM     72  C   UNL A   1      48.937  27.210  23.665  1.00  0.00     0.022 A 
BRANCH  70  73
ATOM     73  S   UNL A   1      50.559  26.492  25.750  1.00  0.00     0.127 S 
ATOM     74  O   UNL A   1      50.190  25.224  26.375  1.00  0.00    -0.237 OA
ATOM     75  O   UNL A   1      51.395  26.361  24.555  1.00  0.00    -0.237 OA
ATOM     76  O   UNL A   1      50.972  27.548  26.664  1.00  0.00    -0.744 OA
ENDBRANCH  70  73
ENDBRANCH  52  66
BRANCH  53  77
ATOM     77  C   UNL A   1      38.673  30.182  30.696  1.00  0.00     0.023 A 
ATOM     78  C   UNL A   1      38.566  29.705  32.017  1.00  0.00     0.012 A 
ATOM     79  C   UNL A   1      37.648  30.995  30.175  1.00  0.00     0.148 A 
ATOM     80  C   UNL A   1      37.449  30.008  32.796  1.00  0.00     0.002 A 
ATOM     81  C   UNL A   1      36.561  31.337  30.973  1.00  0.00     0.091 A 
ATOM     82  F   UNL A   1      37.763  31.430  28.912  1.00  0.00    -0.205 F 
ATOM     83  C   UNL A   1      36.453  30.831  32.279  1.00  0.00     0.022 A 
BRANCH  81  84
ATOM     84  S   UNL A   1      35.276  32.471  30.436  1.00  0.00     0.127 S 
ATOM     85  O   UNL A   1      36.050  33.667  30.109  1.00  0.00    -0.237 OA
ATOM     86  O   UNL A   1      34.718  31.765  29.283  1.00  0.00    -0.237 OA
ATOM     87  O   UNL A   1      34.367  32.608  31.565  1.00  0.00    -0.744 OA
ENDBRANCH  81  84
ENDBRANCH  53  77
BRANCH  65  88
ATOM     88  C   UNL A   1      40.443  24.561  26.937  1.00  0.00     0.023 A 
ATOM     89  C   UNL A   1      39.175  24.538  26.324  1.00  0.00     0.012 A 
ATOM     90  C   UNL A   1      41.095  23.342  27.218  1.00  0.00     0.148 A 
ATOM     91  C   UNL A   1      38.551  23.324  26.030  1.00  0.00     0.002 A 
ATOM     92  C   UNL A   1      40.491  22.139  26.873  1.00  0.00     0.091 A 
ATOM     93  F   UNL A   1      42.295  23.381  27.816  1.00  0.00    -0.205 F 
ATOM     94  C   UNL A   1      39.213  22.128  26.292  1.00  0.00     0.022 A 
BRANCH  92  95
ATOM     95  S   UNL A   1      41.312  20.554  27.077  1.00  0.00     0.127 S 
ATOM     96  O   UNL A   1      40.840  19.820  25.905  1.00  0.00    -0.237 OA
ATOM     97  O   UNL A   1      42.726  20.928  27.033  1.00  0.00    -0.237 OA
ATOM     98  O   UNL A   1      40.866  20.031  28.362  1.00  0.00    -0.744 OA
ENDBRANCH  92  95
ENDBRANCH  65  88
ENDBRANCH  39  40
ENDBRANCH  32  34
ENDBRANCH  31  32
ENDBRANCH  30  31
ENDBRANCH  29  30
ENDBRANCH  28  29
ENDBRANCH   1  28
TORSDOF 23
ENDMDL
