MODEL 1
REMARK VINA RESULT:      -9.5      0.000      0.000
REMARK SMILES CC1(C)C(C(=O)Nc2ccc(CC(=O)OCCOCCOCCOC(=O)c3ccc(-c4c5nc(c(-c6cccc(S(=O)(=O)[O-])c6F)c6ccc([nH]6)c(-c6cccc(S(=O)(=O)[O-])c6F)c6nc(c(-c7cccc(S(=O)(=O)[O-])c7F)c7ccc4[nH]7)C=C6)C=C5)cc3)cc2)C1(C)C
REMARK SMILES IDX 19 1 18 2 17 3 16 4 15 5 13 6 14 7 12 8 11 9 8 10 9 11 91 12
REMARK SMILES IDX 10 13 90 14 7 15 5 16 6 17 4 19 1 20 2 21 3 22 92 23 93 24
REMARK SMILES IDX 94 25 20 26 21 27 22 28 23 29 24 30 25 31 26 32 27 33 28 34
REMARK SMILES IDX 89 35 29 36 88 37 30 38 31 39 32 40 82 41 33 42 87 43 81 44
REMARK SMILES IDX 83 45 34 46 86 47 80 48 79 49 35 51 67 52 47 53 66 54 48 55
REMARK SMILES IDX 51 56 65 57 84 58 49 59 50 60 64 62 85 63 52 64 36 65 37 66
REMARK SMILES IDX 45 67 38 68 40 69 46 70 39 71 41 72 42 73 43 74 44 75 68 76
REMARK SMILES IDX 69 77 77 78 70 79 72 80 78 81 71 82 73 83 74 84 75 85 76 86
REMARK SMILES IDX 53 87 54 88 62 89 55 90 57 91 63 92 56 93 58 94 59 95 60 96
REMARK SMILES IDX 61 97
REMARK H PARENT 7 18 83 50 51 61
REMARK Flexibility Score: inf
ROOT
ATOM      1  C   UNL A   1      34.802  34.075  27.888  1.00  0.00     0.188 C 
ENDROOT
BRANCH   1   2
ATOM      2  O   UNL A   1      35.507  32.846  27.709  1.00  0.00    -0.376 OA
BRANCH   2   3
ATOM      3  C   UNL A   1      34.941  31.659  28.248  1.00  0.00     0.202 C 
BRANCH   3   4
ATOM      4  C   UNL A   1      34.696  30.548  27.230  1.00  0.00     0.261 C 
BRANCH   4   5
ATOM      5  O   UNL A   1      33.673  29.643  27.682  1.00  0.00    -0.463 OA
BRANCH   5   6
ATOM      6  C   UNL A   1      32.507  29.686  26.998  1.00  0.00     0.310 C 
ATOM      7  O   UNL A   1      32.056  30.693  26.459  1.00  0.00    -0.252 OA
BRANCH   6   8
ATOM      8  C   UNL A   1      31.779  28.371  26.922  1.00  0.00     0.158 C 
BRANCH   8   9
ATOM      9  C   UNL A   1      31.656  27.623  25.611  1.00  0.00    -0.037 A 
ATOM     10  C   UNL A   1      31.826  25.674  23.613  1.00  0.00     0.041 A 
ATOM     11  C   UNL A   1      30.695  25.724  24.421  1.00  0.00     0.026 A 
ATOM     12  C   UNL A   1      32.746  26.723  23.642  1.00  0.00     0.026 A 
ATOM     13  C   UNL A   1      30.638  26.668  25.450  1.00  0.00     0.006 A 
ATOM     14  C   UNL A   1      32.657  27.704  24.635  1.00  0.00     0.006 A 
BRANCH  10  15
ATOM     15  N   UNL A   1      32.066  24.483  22.903  1.00  0.00    -0.326 N 
ATOM     16  C   UNL A   1      33.246  23.779  22.973  1.00  0.00     0.228 C 
ATOM     17  O   UNL A   1      34.004  23.733  22.005  1.00  0.00    -0.274 OA
ATOM     18  H   UNL A   1      31.351  24.134  22.325  1.00  0.00     0.169 HD
BRANCH  16  19
ATOM     19  C   UNL A   1      33.470  22.789  24.086  1.00  0.00     0.091 C 
ATOM     20  C   UNL A   1      35.295  21.059  24.683  1.00  0.00     0.012 C 
ATOM     21  C   UNL A   1      34.841  22.508  24.716  1.00  0.00    -0.017 C 
ATOM     22  C   UNL A   1      36.003  23.441  24.483  1.00  0.00     0.012 C 
ATOM     23  C   UNL A   1      33.627  22.933  25.590  1.00  0.00    -0.017 C 
ATOM     24  C   UNL A   1      32.928  21.885  26.443  1.00  0.00     0.012 C 
ATOM     25  C   UNL A   1      33.569  24.266  26.292  1.00  0.00     0.012 C 
ENDBRANCH  16  19
ENDBRANCH  10  15
ENDBRANCH   8   9
ENDBRANCH   6   8
ENDBRANCH   5   6
ENDBRANCH   4   5
ENDBRANCH   3   4
ENDBRANCH   2   3
ENDBRANCH   1   2
BRANCH   1  26
ATOM     26  C   UNL A   1      33.551  34.078  28.775  1.00  0.00     0.188 C 
BRANCH  26  27
ATOM     27  O   UNL A   1      32.770  35.250  28.558  1.00  0.00    -0.376 OA
BRANCH  27  28
ATOM     28  C   UNL A   1      33.341  36.417  29.136  1.00  0.00     0.202 C 
BRANCH  28  29
ATOM     29  C   UNL A   1      32.527  36.815  30.367  1.00  0.00     0.261 C 
BRANCH  29  30
ATOM     30  O   UNL A   1      33.217  36.616  31.615  1.00  0.00    -0.460 OA
BRANCH  30  31
ATOM     31  C   UNL A   1      32.969  35.453  32.259  1.00  0.00     0.338 C 
ATOM     32  O   UNL A   1      31.878  35.021  32.585  1.00  0.00    -0.246 OA
BRANCH  31  33
ATOM     33  C   UNL A   1      34.231  34.690  32.384  1.00  0.00     0.060 A 
ATOM     34  C   UNL A   1      34.201  33.458  33.047  1.00  0.00     0.016 A 
ATOM     35  C   UNL A   1      35.441  35.201  31.913  1.00  0.00     0.016 A 
ATOM     36  C   UNL A   1      35.382  32.750  33.280  1.00  0.00     0.010 A 
ATOM     37  C   UNL A   1      36.626  34.499  32.157  1.00  0.00     0.010 A 
ATOM     38  C   UNL A   1      36.609  33.288  32.874  1.00  0.00    -0.014 A 
BRANCH  38  39
ATOM     39  C   UNL A   1      37.886  32.690  33.341  1.00  0.00     0.031 A 
ATOM     40  C   UNL A   1      38.509  31.591  32.522  1.00  0.00     0.074 A 
ATOM     41  C   UNL A   1      38.476  33.093  34.481  1.00  0.00     0.049 A 
ATOM     42  N   UNL A   1      39.555  30.852  32.782  1.00  0.00    -0.248 NA
ATOM     43  C   UNL A   1      37.860  31.282  31.237  1.00  0.00     0.031 C 
ATOM     44  C   UNL A   1      37.991  34.156  35.358  1.00  0.00     0.029 A 
ATOM     45  N   UNL A   1      39.603  32.624  35.112  1.00  0.00    -0.354 N 
ATOM     46  C   UNL A   1      39.664  29.962  31.720  1.00  0.00     0.074 A 
ATOM     47  C   UNL A   1      38.579  30.255  30.810  1.00  0.00     0.031 C 
ATOM     48  C   UNL A   1      38.798  34.237  36.431  1.00  0.00     0.029 A 
ATOM     49  C   UNL A   1      39.834  33.211  36.334  1.00  0.00     0.049 A 
ATOM     50  H   UNL A   1      40.190  31.932  34.727  1.00  0.00     0.167 HD
ATOM     51  C   UNL A   1      40.588  28.994  31.513  1.00  0.00     0.034 A 
ATOM     52  C   UNL A   1      40.755  32.931  37.279  1.00  0.00     0.034 A 
ATOM     53  C   UNL A   1      41.687  28.719  32.399  1.00  0.00     0.049 A 
ATOM     54  C   UNL A   1      41.759  31.831  37.035  1.00  0.00     0.074 A 
ATOM     55  C   UNL A   1      42.698  27.786  32.251  1.00  0.00     0.029 A 
ATOM     56  N   UNL A   1      41.915  29.370  33.601  1.00  0.00    -0.354 N 
ATOM     57  N   UNL A   1      41.910  31.066  35.982  1.00  0.00    -0.248 NA
ATOM     58  C   UNL A   1      42.739  31.576  38.104  1.00  0.00     0.031 C 
ATOM     59  C   UNL A   1      43.527  27.859  33.375  1.00  0.00     0.029 A 
ATOM     60  C   UNL A   1      43.046  28.855  34.210  1.00  0.00     0.049 A 
ATOM     61  H   UNL A   1      41.355  30.093  33.968  1.00  0.00     0.167 HD
ATOM     62  C   UNL A   1      43.019  30.267  36.243  1.00  0.00     0.074 A 
ATOM     63  C   UNL A   1      43.515  30.653  37.548  1.00  0.00     0.031 C 
ATOM     64  C   UNL A   1      43.568  29.290  35.480  1.00  0.00     0.034 A 
BRANCH  51  65
ATOM     65  C   UNL A   1      40.463  28.169  30.260  1.00  0.00     0.023 A 
ATOM     66  C   UNL A   1      39.426  27.220  30.149  1.00  0.00     0.012 A 
ATOM     67  C   UNL A   1      41.339  28.366  29.175  1.00  0.00     0.148 A 
ATOM     68  C   UNL A   1      39.282  26.459  28.991  1.00  0.00     0.002 A 
ATOM     69  C   UNL A   1      41.164  27.633  28.008  1.00  0.00     0.091 A 
ATOM     70  F   UNL A   1      42.333  29.255  29.311  1.00  0.00    -0.205 F 
ATOM     71  C   UNL A   1      40.144  26.672  27.918  1.00  0.00     0.022 A 
BRANCH  69  72
ATOM     72  S   UNL A   1      42.176  27.888  26.546  1.00  0.00     0.127 S 
ATOM     73  O   UNL A   1      42.432  26.512  26.120  1.00  0.00    -0.237 OA
ATOM     74  O   UNL A   1      41.273  28.639  25.672  1.00  0.00    -0.237 OA
ATOM     75  O   UNL A   1      43.345  28.632  26.993  1.00  0.00    -0.744 OA
ENDBRANCH  69  72
ENDBRANCH  51  65
BRANCH  52  76
ATOM     76  C   UNL A   1      40.790  33.718  38.545  1.00  0.00     0.023 A 
ATOM     77  C   UNL A   1      41.711  34.775  38.680  1.00  0.00     0.012 A 
ATOM     78  C   UNL A   1      39.917  33.428  39.613  1.00  0.00     0.148 A 
ATOM     79  C   UNL A   1      41.783  35.510  39.864  1.00  0.00     0.002 A 
ATOM     80  C   UNL A   1      39.957  34.200  40.768  1.00  0.00     0.091 A 
ATOM     81  F   UNL A   1      39.064  32.403  39.475  1.00  0.00    -0.205 F 
ATOM     82  C   UNL A   1      40.900  35.231  40.903  1.00  0.00     0.022 A 
BRANCH  80  83
ATOM     83  S   UNL A   1      38.778  33.989  42.108  1.00  0.00     0.127 S 
ATOM     84  O   UNL A   1      39.100  32.644  42.579  1.00  0.00    -0.237 OA
ATOM     85  O   UNL A   1      39.161  35.068  43.019  1.00  0.00    -0.237 OA
ATOM     86  O   UNL A   1      37.465  34.152  41.502  1.00  0.00    -0.744 OA
ENDBRANCH  80  83
ENDBRANCH  52  76
BRANCH  64  87
ATOM     87  C   UNL A   1      44.797  28.591  36.003  1.00  0.00     0.023 A 
ATOM     88  C   UNL A   1      46.075  29.112  35.720  1.00  0.00     0.012 A 
ATOM     89  C   UNL A   1      44.681  27.468  36.847  1.00  0.00     0.148 A 
ATOM     90  C   UNL A   1      47.218  28.511  36.244  1.00  0.00     0.002 A 
ATOM     91  C   UNL A   1      45.822  26.902  37.404  1.00  0.00     0.091 A 
ATOM     92  F   UNL A   1      43.458  26.975  37.091  1.00  0.00    -0.205 F 
ATOM     93  C   UNL A   1      47.092  27.415  37.095  1.00  0.00     0.022 A 
BRANCH  91  94
ATOM     94  S   UNL A   1      45.746  25.550  38.586  1.00  0.00     0.127 S 
ATOM     95  O   UNL A   1      45.200  24.469  37.768  1.00  0.00    -0.237 OA
ATOM     96  O   UNL A   1      47.152  25.382  38.959  1.00  0.00    -0.237 OA
ATOM     97  O   UNL A   1      44.887  26.013  39.668  1.00  0.00    -0.744 OA
ENDBRANCH  91  94
ENDBRANCH  64  87
ENDBRANCH  38  39
ENDBRANCH  31  33
ENDBRANCH  30  31
ENDBRANCH  29  30
ENDBRANCH  28  29
ENDBRANCH  27  28
ENDBRANCH  26  27
ENDBRANCH   1  26
TORSDOF 23
ENDMDL
MODEL 2
REMARK VINA RESULT:      -9.1      5.842     10.810
REMARK SMILES CC1(C)C(C(=O)Nc2ccc(CC(=O)OCCOCCOCCOC(=O)c3ccc(-c4c5nc(c(-c6cccc(S(=O)(=O)[O-])c6F)c6ccc([nH]6)c(-c6cccc(S(=O)(=O)[O-])c6F)c6nc(c(-c7cccc(S(=O)(=O)[O-])c7F)c7ccc4[nH]7)C=C6)C=C5)cc3)cc2)C1(C)C
REMARK SMILES IDX 19 1 18 2 17 3 16 4 15 5 13 6 14 7 12 8 11 9 8 10 9 11 91 12
REMARK SMILES IDX 10 13 90 14 7 15 5 16 6 17 4 19 1 20 2 21 3 22 92 23 93 24
REMARK SMILES IDX 94 25 20 26 21 27 22 28 23 29 24 30 25 31 26 32 27 33 28 34
REMARK SMILES IDX 89 35 29 36 88 37 30 38 31 39 32 40 82 41 33 42 87 43 81 44
REMARK SMILES IDX 83 45 34 46 86 47 80 48 79 49 35 51 67 52 47 53 66 54 48 55
REMARK SMILES IDX 51 56 65 57 84 58 49 59 50 60 64 62 85 63 52 64 36 65 37 66
REMARK SMILES IDX 45 67 38 68 40 69 46 70 39 71 41 72 42 73 43 74 44 75 68 76
REMARK SMILES IDX 69 77 77 78 70 79 72 80 78 81 71 82 73 83 74 84 75 85 76 86
REMARK SMILES IDX 53 87 54 88 62 89 55 90 57 91 63 92 56 93 58 94 59 95 60 96
REMARK SMILES IDX 61 97
REMARK H PARENT 7 18 83 50 51 61
REMARK Flexibility Score: inf
ROOT
ATOM      1  C   UNL A   1      37.377  21.298  25.311  1.00  0.00     0.188 C 
ENDROOT
BRANCH   1   2
ATOM      2  O   UNL A   1      36.952  21.964  24.122  1.00  0.00    -0.376 OA
BRANCH   2   3
ATOM      3  C   UNL A   1      35.566  22.234  23.958  1.00  0.00     0.202 C 
BRANCH   3   4
ATOM      4  C   UNL A   1      34.664  21.603  25.016  1.00  0.00     0.261 C 
BRANCH   4   5
ATOM      5  O   UNL A   1      33.443  22.349  25.173  1.00  0.00    -0.463 OA
BRANCH   5   6
ATOM      6  C   UNL A   1      32.324  21.745  24.714  1.00  0.00     0.310 C 
ATOM      7  O   UNL A   1      31.602  21.017  25.390  1.00  0.00    -0.252 OA
BRANCH   6   8
ATOM      8  C   UNL A   1      31.997  22.046  23.276  1.00  0.00     0.158 C 
BRANCH   8   9
ATOM      9  C   UNL A   1      31.744  23.466  22.815  1.00  0.00    -0.037 A 
ATOM     10  C   UNL A   1      31.728  26.255  22.617  1.00  0.00     0.041 A 
ATOM     11  C   UNL A   1      32.693  25.529  21.928  1.00  0.00     0.026 A 
ATOM     12  C   UNL A   1      30.647  25.593  23.199  1.00  0.00     0.026 A 
ATOM     13  C   UNL A   1      32.727  24.139  22.070  1.00  0.00     0.006 A 
ATOM     14  C   UNL A   1      30.649  24.197  23.291  1.00  0.00     0.006 A 
BRANCH  10  15
ATOM     15  N   UNL A   1      31.969  27.626  22.821  1.00  0.00    -0.326 N 
ATOM     16  C   UNL A   1      31.453  28.342  23.878  1.00  0.00     0.228 C 
ATOM     17  O   UNL A   1      30.587  29.195  23.690  1.00  0.00    -0.274 OA
ATOM     18  H   UNL A   1      32.538  28.100  22.173  1.00  0.00     0.169 HD
BRANCH  16  19
ATOM     19  C   UNL A   1      32.160  28.342  25.207  1.00  0.00     0.091 C 
ATOM     20  C   UNL A   1      31.436  28.366  27.687  1.00  0.00     0.012 C 
ATOM     21  C   UNL A   1      31.681  27.549  26.430  1.00  0.00    -0.017 C 
ATOM     22  C   UNL A   1      30.647  26.460  26.287  1.00  0.00     0.012 C 
ATOM     23  C   UNL A   1      33.122  27.373  25.874  1.00  0.00    -0.017 C 
ATOM     24  C   UNL A   1      34.286  27.994  26.630  1.00  0.00     0.012 C 
ATOM     25  C   UNL A   1      33.580  26.096  25.216  1.00  0.00     0.012 C 
ENDBRANCH  16  19
ENDBRANCH  10  15
ENDBRANCH   8   9
ENDBRANCH   6   8
ENDBRANCH   5   6
ENDBRANCH   4   5
ENDBRANCH   3   4
ENDBRANCH   2   3
ENDBRANCH   1   2
BRANCH   1  26
ATOM     26  C   UNL A   1      38.255  20.048  25.175  1.00  0.00     0.188 C 
BRANCH  26  27
ATOM     27  O   UNL A   1      39.540  20.257  25.757  1.00  0.00    -0.376 OA
BRANCH  27  28
ATOM     28  C   UNL A   1      39.721  21.579  26.251  1.00  0.00     0.202 C 
BRANCH  28  29
ATOM     29  C   UNL A   1      40.675  21.539  27.445  1.00  0.00     0.261 C 
BRANCH  29  30
ATOM     30  O   UNL A   1      42.066  21.643  27.087  1.00  0.00    -0.460 OA
BRANCH  30  31
ATOM     31  C   UNL A   1      42.387  22.616  26.205  1.00  0.00     0.338 C 
ATOM     32  O   UNL A   1      42.580  22.480  25.010  1.00  0.00    -0.246 OA
BRANCH  31  33
ATOM     33  C   UNL A   1      42.327  23.927  26.888  1.00  0.00     0.060 A 
ATOM     34  C   UNL A   1      42.016  25.060  26.127  1.00  0.00     0.016 A 
ATOM     35  C   UNL A   1      42.630  24.057  28.244  1.00  0.00     0.016 A 
ATOM     36  C   UNL A   1      42.048  26.332  26.706  1.00  0.00     0.010 A 
ATOM     37  C   UNL A   1      42.673  25.330  28.821  1.00  0.00     0.010 A 
ATOM     38  C   UNL A   1      42.419  26.478  28.048  1.00  0.00    -0.014 A 
BRANCH  38  39
ATOM     39  C   UNL A   1      42.715  27.823  28.604  1.00  0.00     0.031 A 
ATOM     40  C   UNL A   1      41.573  28.655  29.126  1.00  0.00     0.074 A 
ATOM     41  C   UNL A   1      43.968  28.314  28.630  1.00  0.00     0.049 A 
ATOM     42  N   UNL A   1      41.573  29.889  29.557  1.00  0.00    -0.248 NA
ATOM     43  C   UNL A   1      40.252  28.006  29.160  1.00  0.00     0.031 C 
ATOM     44  C   UNL A   1      45.165  27.610  28.176  1.00  0.00     0.029 A 
ATOM     45  N   UNL A   1      44.432  29.544  29.032  1.00  0.00    -0.354 N 
ATOM     46  C   UNL A   1      40.251  30.180  29.870  1.00  0.00     0.074 A 
ATOM     47  C   UNL A   1      39.476  28.993  29.582  1.00  0.00     0.031 C 
ATOM     48  C   UNL A   1      46.223  28.431  28.294  1.00  0.00     0.029 A 
ATOM     49  C   UNL A   1      45.775  29.728  28.799  1.00  0.00     0.049 A 
ATOM     50  H   UNL A   1      43.858  30.229  29.447  1.00  0.00     0.167 HD
ATOM     51  C   UNL A   1      39.726  31.327  30.363  1.00  0.00     0.034 A 
ATOM     52  C   UNL A   1      46.546  30.825  28.944  1.00  0.00     0.034 A 
ATOM     53  C   UNL A   1      40.496  32.499  30.681  1.00  0.00     0.049 A 
ATOM     54  C   UNL A   1      45.933  32.098  29.472  1.00  0.00     0.074 A 
ATOM     55  C   UNL A   1      40.058  33.694  31.224  1.00  0.00     0.029 A 
ATOM     56  N   UNL A   1      41.860  32.628  30.477  1.00  0.00    -0.354 N 
ATOM     57  N   UNL A   1      44.702  32.327  29.859  1.00  0.00    -0.248 NA
ATOM     58  C   UNL A   1      46.828  33.259  29.611  1.00  0.00     0.031 C 
ATOM     59  C   UNL A   1      41.156  34.554  31.330  1.00  0.00     0.029 A 
ATOM     60  C   UNL A   1      42.281  33.884  30.877  1.00  0.00     0.049 A 
ATOM     61  H   UNL A   1      42.445  31.928  30.104  1.00  0.00     0.167 HD
ATOM     62  C   UNL A   1      44.681  33.641  30.317  1.00  0.00     0.074 A 
ATOM     63  C   UNL A   1      46.028  34.153  30.179  1.00  0.00     0.031 C 
ATOM     64  C   UNL A   1      43.637  34.363  30.794  1.00  0.00     0.034 A 
BRANCH  51  65
ATOM     65  C   UNL A   1      38.241  31.363  30.611  1.00  0.00     0.023 A 
ATOM     66  C   UNL A   1      37.736  31.006  31.877  1.00  0.00     0.012 A 
ATOM     67  C   UNL A   1      37.353  31.798  29.609  1.00  0.00     0.148 A 
ATOM     68  C   UNL A   1      36.367  31.050  32.133  1.00  0.00     0.002 A 
ATOM     69  C   UNL A   1      35.993  31.879  29.883  1.00  0.00     0.091 A 
ATOM     70  F   UNL A   1      37.852  32.108  28.404  1.00  0.00    -0.205 F 
ATOM     71  C   UNL A   1      35.497  31.495  31.139  1.00  0.00     0.022 A 
BRANCH  69  72
ATOM     72  S   UNL A   1      34.803  32.509  28.694  1.00  0.00     0.127 S 
ATOM     73  O   UNL A   1      34.149  31.278  28.251  1.00  0.00    -0.237 OA
ATOM     74  O   UNL A   1      33.969  33.378  29.525  1.00  0.00    -0.237 OA
ATOM     75  O   UNL A   1      35.581  33.205  27.679  1.00  0.00    -0.744 OA
ENDBRANCH  69  72
ENDBRANCH  51  65
BRANCH  52  76
ATOM     76  C   UNL A   1      47.996  30.769  28.604  1.00  0.00     0.023 A 
ATOM     77  C   UNL A   1      48.419  31.130  27.309  1.00  0.00     0.012 A 
ATOM     78  C   UNL A   1      48.958  30.366  29.551  1.00  0.00     0.148 A 
ATOM     79  C   UNL A   1      49.768  31.063  26.955  1.00  0.00     0.002 A 
ATOM     80  C   UNL A   1      50.305  30.353  29.209  1.00  0.00     0.091 A 
ATOM     81  F   UNL A   1      48.533  30.003  30.770  1.00  0.00    -0.205 F 
ATOM     82  C   UNL A   1      50.710  30.685  27.907  1.00  0.00     0.022 A 
BRANCH  80  83
ATOM     83  S   UNL A   1      51.598  29.996  30.404  1.00  0.00     0.127 S 
ATOM     84  O   UNL A   1      52.763  29.825  29.540  1.00  0.00    -0.237 OA
ATOM     85  O   UNL A   1      51.605  31.215  31.213  1.00  0.00    -0.237 OA
ATOM     86  O   UNL A   1      51.156  28.806  31.115  1.00  0.00    -0.744 OA
ENDBRANCH  80  83
ENDBRANCH  52  76
BRANCH  64  87
ATOM     87  C   UNL A   1      43.905  35.775  31.251  1.00  0.00     0.023 A 
ATOM     88  C   UNL A   1      44.393  36.013  32.550  1.00  0.00     0.012 A 
ATOM     89  C   UNL A   1      43.755  36.858  30.361  1.00  0.00     0.148 A 
ATOM     90  C   UNL A   1      44.700  37.307  32.967  1.00  0.00     0.002 A 
ATOM     91  C   UNL A   1      44.108  38.140  30.767  1.00  0.00     0.091 A 
ATOM     92  F   UNL A   1      43.273  36.616  29.133  1.00  0.00    -0.205 F 
ATOM     93  C   UNL A   1      44.570  38.368  32.074  1.00  0.00     0.022 A 
BRANCH  91  94
ATOM     94  S   UNL A   1      44.064  39.549  29.653  1.00  0.00     0.127 S 
ATOM     95  O   UNL A   1      44.437  40.646  30.543  1.00  0.00    -0.237 OA
ATOM     96  O   UNL A   1      45.080  39.195  28.661  1.00  0.00    -0.237 OA
ATOM     97  O   UNL A   1      42.705  39.601  29.129  1.00  0.00    -0.744 OA
ENDBRANCH  91  94
ENDBRANCH  64  87
ENDBRANCH  38  39
ENDBRANCH  31  33
ENDBRANCH  30  31
ENDBRANCH  29  30
ENDBRANCH  28  29
ENDBRANCH  27  28
ENDBRANCH  26  27
ENDBRANCH   1  26
TORSDOF 23
ENDMDL
MODEL 3
REMARK VINA RESULT:      -9.1      7.138     13.297
REMARK SMILES CC1(C)C(C(=O)Nc2ccc(CC(=O)OCCOCCOCCOC(=O)c3ccc(-c4c5nc(c(-c6cccc(S(=O)(=O)[O-])c6F)c6ccc([nH]6)c(-c6cccc(S(=O)(=O)[O-])c6F)c6nc(c(-c7cccc(S(=O)(=O)[O-])c7F)c7ccc4[nH]7)C=C6)C=C5)cc3)cc2)C1(C)C
REMARK SMILES IDX 19 1 18 2 17 3 16 4 15 5 13 6 14 7 12 8 11 9 8 10 9 11 91 12
REMARK SMILES IDX 10 13 90 14 7 15 5 16 6 17 4 19 1 20 2 21 3 22 92 23 93 24
REMARK SMILES IDX 94 25 20 26 21 27 22 28 23 29 24 30 25 31 26 32 27 33 28 34
REMARK SMILES IDX 89 35 29 36 88 37 30 38 31 39 32 40 82 41 33 42 87 43 81 44
REMARK SMILES IDX 83 45 34 46 86 47 80 48 79 49 35 51 67 52 47 53 66 54 48 55
REMARK SMILES IDX 51 56 65 57 84 58 49 59 50 60 64 62 85 63 52 64 36 65 37 66
REMARK SMILES IDX 45 67 38 68 40 69 46 70 39 71 41 72 42 73 43 74 44 75 68 76
REMARK SMILES IDX 69 77 77 78 70 79 72 80 78 81 71 82 73 83 74 84 75 85 76 86
REMARK SMILES IDX 53 87 54 88 62 89 55 90 57 91 63 92 56 93 58 94 59 95 60 96
REMARK SMILES IDX 61 97
REMARK H PARENT 7 18 83 50 51 61
REMARK Flexibility Score: inf
ROOT
ATOM      1  C   UNL A   1      41.321  22.795  27.319  1.00  0.00     0.188 C 
ENDROOT
BRANCH   1   2
ATOM      2  O   UNL A   1      40.209  23.672  27.506  1.00  0.00    -0.376 OA
BRANCH   2   3
ATOM      3  C   UNL A   1      39.411  23.998  26.376  1.00  0.00     0.202 C 
BRANCH   3   4
ATOM      4  C   UNL A   1      38.143  23.162  26.226  1.00  0.00     0.261 C 
BRANCH   4   5
ATOM      5  O   UNL A   1      38.263  22.219  25.146  1.00  0.00    -0.463 OA
BRANCH   5   6
ATOM      6  C   UNL A   1      37.136  21.997  24.432  1.00  0.00     0.310 C 
ATOM      7  O   UNL A   1      36.986  22.318  23.257  1.00  0.00    -0.252 OA
BRANCH   6   8
ATOM      8  C   UNL A   1      36.045  21.292  25.192  1.00  0.00     0.158 C 
BRANCH   8   9
ATOM      9  C   UNL A   1      34.686  21.934  25.378  1.00  0.00    -0.037 A 
ATOM     10  C   UNL A   1      32.532  23.715  25.305  1.00  0.00     0.041 A 
ATOM     11  C   UNL A   1      32.639  22.736  24.324  1.00  0.00     0.026 A 
ATOM     12  C   UNL A   1      33.348  23.657  26.435  1.00  0.00     0.026 A 
ATOM     13  C   UNL A   1      33.744  21.881  24.337  1.00  0.00     0.006 A 
ATOM     14  C   UNL A   1      34.420  22.760  26.478  1.00  0.00     0.006 A 
BRANCH  10  15
ATOM     15  N   UNL A   1      31.695  24.815  25.038  1.00  0.00    -0.326 N 
ATOM     16  C   UNL A   1      31.584  25.907  25.867  1.00  0.00     0.228 C 
ATOM     17  O   UNL A   1      30.547  26.111  26.496  1.00  0.00    -0.274 OA
ATOM     18  H   UNL A   1      31.160  24.802  24.212  1.00  0.00     0.169 HD
BRANCH  16  19
ATOM     19  C   UNL A   1      32.574  27.038  25.764  1.00  0.00     0.091 C 
ATOM     20  C   UNL A   1      33.367  28.637  23.895  1.00  0.00     0.012 C 
ATOM     21  C   UNL A   1      32.327  28.318  24.956  1.00  0.00    -0.017 C 
ATOM     22  C   UNL A   1      30.942  28.672  24.475  1.00  0.00     0.012 C 
ATOM     23  C   UNL A   1      32.698  28.380  26.465  1.00  0.00    -0.017 C 
ATOM     24  C   UNL A   1      34.104  28.803  26.863  1.00  0.00     0.012 C 
ATOM     25  C   UNL A   1      31.722  28.844  27.516  1.00  0.00     0.012 C 
ENDBRANCH  16  19
ENDBRANCH  10  15
ENDBRANCH   8   9
ENDBRANCH   6   8
ENDBRANCH   5   6
ENDBRANCH   4   5
ENDBRANCH   3   4
ENDBRANCH   2   3
ENDBRANCH   1   2
BRANCH   1  26
ATOM     26  C   UNL A   1      41.135  21.303  27.621  1.00  0.00     0.188 C 
BRANCH  26  27
ATOM     27  O   UNL A   1      41.291  20.517  26.443  1.00  0.00    -0.376 OA
BRANCH  27  28
ATOM     28  C   UNL A   1      41.889  19.251  26.691  1.00  0.00     0.202 C 
BRANCH  28  29
ATOM     29  C   UNL A   1      43.105  19.086  25.780  1.00  0.00     0.261 C 
BRANCH  29  30
ATOM     30  O   UNL A   1      43.406  20.251  24.988  1.00  0.00    -0.460 OA
BRANCH  30  31
ATOM     31  C   UNL A   1      44.643  20.304  24.445  1.00  0.00     0.338 C 
ATOM     32  O   UNL A   1      45.130  19.504  23.667  1.00  0.00    -0.246 OA
BRANCH  31  33
ATOM     33  C   UNL A   1      45.284  21.582  24.827  1.00  0.00     0.060 A 
ATOM     34  C   UNL A   1      45.547  21.817  26.182  1.00  0.00     0.016 A 
ATOM     35  C   UNL A   1      45.571  22.565  23.879  1.00  0.00     0.016 A 
ATOM     36  C   UNL A   1      46.056  23.048  26.601  1.00  0.00     0.010 A 
ATOM     37  C   UNL A   1      46.070  23.802  24.300  1.00  0.00     0.010 A 
ATOM     38  C   UNL A   1      46.281  24.065  25.666  1.00  0.00    -0.014 A 
BRANCH  38  39
ATOM     39  C   UNL A   1      46.565  25.452  26.115  1.00  0.00     0.031 A 
ATOM     40  C   UNL A   1      45.409  26.330  26.519  1.00  0.00     0.074 A 
ATOM     41  C   UNL A   1      47.819  25.939  26.146  1.00  0.00     0.049 A 
ATOM     42  N   UNL A   1      45.402  27.596  26.842  1.00  0.00    -0.248 NA
ATOM     43  C   UNL A   1      44.084  25.691  26.559  1.00  0.00     0.031 C 
ATOM     44  C   UNL A   1      49.027  25.193  25.801  1.00  0.00     0.029 A 
ATOM     45  N   UNL A   1      48.276  27.197  26.458  1.00  0.00    -0.354 N 
ATOM     46  C   UNL A   1      44.071  27.919  27.078  1.00  0.00     0.074 A 
ATOM     47  C   UNL A   1      43.299  26.714  26.864  1.00  0.00     0.031 C 
ATOM     48  C   UNL A   1      50.086  26.018  25.887  1.00  0.00     0.029 A 
ATOM     49  C   UNL A   1      49.628  27.355  26.260  1.00  0.00     0.049 A 
ATOM     50  H   UNL A   1      47.692  27.917  26.790  1.00  0.00     0.167 HD
ATOM     51  C   UNL A   1      43.536  29.106  27.450  1.00  0.00     0.034 A 
ATOM     52  C   UNL A   1      50.401  28.457  26.340  1.00  0.00     0.034 A 
ATOM     53  C   UNL A   1      44.301  30.298  27.694  1.00  0.00     0.049 A 
ATOM     54  C   UNL A   1      49.778  29.774  26.732  1.00  0.00     0.074 A 
ATOM     55  C   UNL A   1      43.852  31.537  28.115  1.00  0.00     0.029 A 
ATOM     56  N   UNL A   1      45.673  30.404  27.532  1.00  0.00    -0.354 N 
ATOM     57  N   UNL A   1      48.534  30.040  27.050  1.00  0.00    -0.248 NA
ATOM     58  C   UNL A   1      50.674  30.940  26.804  1.00  0.00     0.031 C 
ATOM     59  C   UNL A   1      44.951  32.399  28.188  1.00  0.00     0.029 A 
ATOM     60  C   UNL A   1      46.088  31.688  27.837  1.00  0.00     0.049 A 
ATOM     61  H   UNL A   1      46.267  29.672  27.244  1.00  0.00     0.167 HD
ATOM     62  C   UNL A   1      48.505  31.389  27.393  1.00  0.00     0.074 A 
ATOM     63  C   UNL A   1      49.860  31.882  27.262  1.00  0.00     0.031 C 
ATOM     64  C   UNL A   1      47.449  32.154  27.766  1.00  0.00     0.034 A 
BRANCH  51  65
ATOM     65  C   UNL A   1      42.043  29.169  27.638  1.00  0.00     0.023 A 
ATOM     66  C   UNL A   1      41.196  29.126  26.513  1.00  0.00     0.012 A 
ATOM     67  C   UNL A   1      41.481  29.221  28.928  1.00  0.00     0.148 A 
ATOM     68  C   UNL A   1      39.811  29.165  26.667  1.00  0.00     0.002 A 
ATOM     69  C   UNL A   1      40.099  29.218  29.075  1.00  0.00     0.091 A 
ATOM     70  F   UNL A   1      42.305  29.287  29.983  1.00  0.00    -0.205 F 
ATOM     71  C   UNL A   1      39.263  29.202  27.947  1.00  0.00     0.022 A 
BRANCH  69  72
ATOM     72  S   UNL A   1      39.299  29.188  30.683  1.00  0.00     0.127 S 
ATOM     73  O   UNL A   1      37.890  29.067  30.310  1.00  0.00    -0.237 OA
ATOM     74  O   UNL A   1      39.874  27.988  31.292  1.00  0.00    -0.237 OA
ATOM     75  O   UNL A   1      39.668  30.436  31.337  1.00  0.00    -0.744 OA
ENDBRANCH  69  72
ENDBRANCH  51  65
BRANCH  52  76
ATOM     76  C   UNL A   1      51.863  28.368  26.061  1.00  0.00     0.023 A 
ATOM     77  C   UNL A   1      52.768  28.255  27.135  1.00  0.00     0.012 A 
ATOM     78  C   UNL A   1      52.361  28.390  24.743  1.00  0.00     0.148 A 
ATOM     79  C   UNL A   1      54.143  28.196  26.903  1.00  0.00     0.002 A 
ATOM     80  C   UNL A   1      53.727  28.276  24.518  1.00  0.00     0.091 A 
ATOM     81  F   UNL A   1      51.485  28.522  23.736  1.00  0.00    -0.205 F 
ATOM     82  C   UNL A   1      54.622  28.195  25.597  1.00  0.00     0.022 A 
BRANCH  80  83
ATOM     83  S   UNL A   1      54.423  28.145  22.866  1.00  0.00     0.127 S 
ATOM     84  O   UNL A   1      54.201  26.735  22.560  1.00  0.00    -0.237 OA
ATOM     85  O   UNL A   1      53.585  29.079  22.112  1.00  0.00    -0.237 OA
ATOM     86  O   UNL A   1      55.813  28.556  22.994  1.00  0.00    -0.744 OA
ENDBRANCH  80  83
ENDBRANCH  52  76
BRANCH  64  87
ATOM     87  C   UNL A   1      47.709  33.599  28.108  1.00  0.00     0.023 A 
ATOM     88  C   UNL A   1      48.056  33.957  29.426  1.00  0.00     0.012 A 
ATOM     89  C   UNL A   1      47.695  34.589  27.105  1.00  0.00     0.148 A 
ATOM     90  C   UNL A   1      48.356  35.281  29.745  1.00  0.00     0.002 A 
ATOM     91  C   UNL A   1      48.042  35.897  27.420  1.00  0.00     0.091 A 
ATOM     92  F   UNL A   1      47.346  34.233  25.860  1.00  0.00    -0.205 F 
ATOM     93  C   UNL A   1      48.361  36.247  28.742  1.00  0.00     0.022 A 
BRANCH  91  94
ATOM     94  S   UNL A   1      48.167  37.187  26.175  1.00  0.00     0.127 S 
ATOM     95  O   UNL A   1      48.748  38.287  26.941  1.00  0.00    -0.237 OA
ATOM     96  O   UNL A   1      49.070  36.584  25.192  1.00  0.00    -0.237 OA
ATOM     97  O   UNL A   1      46.811  37.407  25.690  1.00  0.00    -0.744 OA
ENDBRANCH  91  94
ENDBRANCH  64  87
ENDBRANCH  38  39
ENDBRANCH  31  33
ENDBRANCH  30  31
ENDBRANCH  29  30
ENDBRANCH  28  29
ENDBRANCH  27  28
ENDBRANCH  26  27
ENDBRANCH   1  26
TORSDOF 23
ENDMDL
