MODEL 1
REMARK VINA RESULT:     -10.0      0.000      0.000
REMARK SMILES Cc1cc(C)c2c(OCCCC(=O)OCCOCCOCCOC(=O)c3ccc(-c4c5nc(c(-c6cccc(S(=O)(=O)[O-])c6F)c6ccc([nH]6)c(-c6cccc(S(=O)(=O)[O-])c6F)c6nc(c(-c7cccc(S(=O)(=O)[O-])c7F)c7ccc4[nH]7)C=C6)C=C5)cc3)nsc2n1
REMARK SMILES IDX 18 1 17 2 16 3 15 4 14 5 12 6 13 7 11 8 10 9 9 10 8 11 7 12
REMARK SMILES IDX 1 13 2 14 3 15 92 16 4 17 91 18 5 19 6 20 90 21 89 22 19 23
REMARK SMILES IDX 20 24 21 25 22 26 23 27 24 28 25 29 26 30 27 31 88 32 28 33
REMARK SMILES IDX 87 34 29 35 30 36 31 37 81 38 32 39 86 40 80 41 82 42 33 43
REMARK SMILES IDX 85 44 79 45 78 46 34 48 66 49 46 50 65 51 47 52 50 53 64 54
REMARK SMILES IDX 83 55 48 56 49 57 63 59 84 60 51 61 35 62 36 63 44 64 37 65
REMARK SMILES IDX 39 66 45 67 38 68 40 69 41 70 42 71 43 72 67 73 68 74 76 75
REMARK SMILES IDX 69 76 71 77 77 78 70 79 72 80 73 81 74 82 75 83 52 84 53 85
REMARK SMILES IDX 61 86 54 87 56 88 62 89 55 90 57 91 58 92 59 93 60 94
REMARK H PARENT 82 47 50 58
REMARK Flexibility Score: inf
ROOT
ATOM      1  C   UNL A   1      32.934  36.351  30.276  1.00  0.00     0.188 C 
ENDROOT
BRANCH   1   2
ATOM      2  O   UNL A   1      32.787  34.966  30.038  1.00  0.00    -0.376 OA
BRANCH   2   3
ATOM      3  C   UNL A   1      32.952  34.530  28.702  1.00  0.00     0.202 C 
BRANCH   3   4
ATOM      4  C   UNL A   1      34.158  33.655  28.335  1.00  0.00     0.261 C 
BRANCH   4   5
ATOM      5  O   UNL A   1      33.890  32.252  28.024  1.00  0.00    -0.463 OA
BRANCH   5   6
ATOM      6  C   UNL A   1      34.956  31.447  27.793  1.00  0.00     0.305 C 
ATOM      7  O   UNL A   1      36.096  31.891  27.658  1.00  0.00    -0.252 OA
BRANCH   6   8
ATOM      8  C   UNL A   1      34.707  29.939  27.623  1.00  0.00     0.126 C 
BRANCH   8   9
ATOM      9  C   UNL A   1      33.396  29.170  27.388  1.00  0.00     0.053 C 
BRANCH   9  10
ATOM     10  C   UNL A   1      33.229  27.902  26.525  1.00  0.00     0.232 C 
BRANCH  10  11
ATOM     11  O   UNL A   1      34.077  27.588  25.427  1.00  0.00    -0.477 OA
BRANCH  11  12
ATOM     12  C   UNL A   1      33.838  26.478  24.702  1.00  0.00     0.235 A 
ATOM     13  C   UNL A   1      32.515  25.349  19.483  1.00  0.00     0.067 C 
ATOM     14  C   UNL A   1      32.472  25.499  20.978  1.00  0.00     0.039 A 
ATOM     15  C   UNL A   1      31.728  26.524  21.550  1.00  0.00     0.027 A 
ATOM     16  N   UNL A   1      33.239  24.665  21.698  1.00  0.00    -0.240 NA
ATOM     17  C   UNL A   1      31.982  26.964  22.866  1.00  0.00    -0.034 A 
ATOM     18  C   UNL A   1      33.450  25.082  22.958  1.00  0.00     0.147 A 
ATOM     19  C   UNL A   1      31.268  28.180  23.391  1.00  0.00     0.045 C 
ATOM     20  C   UNL A   1      32.998  26.260  23.555  1.00  0.00     0.078 A 
ATOM     21  S   UNL A   1      34.403  24.208  24.063  1.00  0.00    -0.012 S 
ATOM     22  N   UNL A   1      34.508  25.428  25.176  1.00  0.00    -0.153 NA
ENDBRANCH  11  12
ENDBRANCH  10  11
ENDBRANCH   9  10
ENDBRANCH   8   9
ENDBRANCH   6   8
ENDBRANCH   5   6
ENDBRANCH   4   5
ENDBRANCH   3   4
ENDBRANCH   2   3
ENDBRANCH   1   2
BRANCH   1  23
ATOM     23  C   UNL A   1      33.232  36.804  31.722  1.00  0.00     0.188 C 
BRANCH  23  24
ATOM     24  O   UNL A   1      33.409  35.831  32.737  1.00  0.00    -0.376 OA
BRANCH  24  25
ATOM     25  C   UNL A   1      34.655  35.533  33.352  1.00  0.00     0.202 C 
BRANCH  25  26
ATOM     26  C   UNL A   1      35.300  34.155  33.498  1.00  0.00     0.261 C 
BRANCH  26  27
ATOM     27  O   UNL A   1      35.979  33.680  32.367  1.00  0.00    -0.460 OA
BRANCH  27  28
ATOM     28  C   UNL A   1      35.358  32.651  31.753  1.00  0.00     0.338 C 
ATOM     29  O   UNL A   1      34.168  32.436  31.698  1.00  0.00    -0.246 OA
BRANCH  28  30
ATOM     30  C   UNL A   1      36.391  31.841  31.108  1.00  0.00     0.060 A 
ATOM     31  C   UNL A   1      36.213  30.461  31.136  1.00  0.00     0.016 A 
ATOM     32  C   UNL A   1      37.582  32.443  30.673  1.00  0.00     0.016 A 
ATOM     33  C   UNL A   1      37.335  29.685  31.021  1.00  0.00     0.010 A 
ATOM     34  C   UNL A   1      38.702  31.666  30.556  1.00  0.00     0.010 A 
ATOM     35  C   UNL A   1      38.577  30.319  30.858  1.00  0.00    -0.014 A 
BRANCH  35  36
ATOM     36  C   UNL A   1      39.754  29.487  30.916  1.00  0.00     0.031 A 
ATOM     37  C   UNL A   1      40.387  29.607  32.237  1.00  0.00     0.074 A 
ATOM     38  C   UNL A   1      40.170  28.749  29.866  1.00  0.00     0.049 A 
ATOM     39  N   UNL A   1      41.366  30.393  32.541  1.00  0.00    -0.248 NA
ATOM     40  C   UNL A   1      39.699  29.032  33.404  1.00  0.00     0.031 C 
ATOM     41  C   UNL A   1      39.400  28.423  28.658  1.00  0.00     0.029 A 
ATOM     42  N   UNL A   1      41.317  28.035  29.689  1.00  0.00    -0.354 N 
ATOM     43  C   UNL A   1      41.662  30.054  33.854  1.00  0.00     0.074 A 
ATOM     44  C   UNL A   1      40.458  29.495  34.403  1.00  0.00     0.031 C 
ATOM     45  C   UNL A   1      39.980  27.376  28.027  1.00  0.00     0.029 A 
ATOM     46  C   UNL A   1      41.237  27.068  28.686  1.00  0.00     0.049 A 
ATOM     47  H   UNL A   1      42.131  28.186  30.221  1.00  0.00     0.167 HD
ATOM     48  C   UNL A   1      42.962  29.802  34.166  1.00  0.00     0.034 A 
ATOM     49  C   UNL A   1      42.120  26.062  28.463  1.00  0.00     0.034 A 
ATOM     50  C   UNL A   1      43.841  30.349  33.161  1.00  0.00     0.049 A 
ATOM     51  C   UNL A   1      43.411  26.484  29.044  1.00  0.00     0.074 A 
ATOM     52  C   UNL A   1      44.281  31.589  32.758  1.00  0.00     0.029 A 
ATOM     53  N   UNL A   1      44.055  29.485  32.123  1.00  0.00    -0.354 N 
ATOM     54  N   UNL A   1      44.122  27.466  28.564  1.00  0.00    -0.248 NA
ATOM     55  C   UNL A   1      43.766  26.033  30.387  1.00  0.00     0.031 C 
ATOM     56  C   UNL A   1      44.747  31.438  31.420  1.00  0.00     0.029 A 
ATOM     57  C   UNL A   1      44.631  30.101  31.052  1.00  0.00     0.049 A 
ATOM     58  H   UNL A   1      43.820  28.528  32.145  1.00  0.00     0.167 HD
ATOM     59  C   UNL A   1      44.665  28.042  29.694  1.00  0.00     0.074 A 
ATOM     60  C   UNL A   1      44.578  27.032  30.741  1.00  0.00     0.031 C 
ATOM     61  C   UNL A   1      44.775  29.393  29.802  1.00  0.00     0.034 A 
BRANCH  48  62
ATOM     62  C   UNL A   1      43.422  28.620  34.999  1.00  0.00     0.023 A 
ATOM     63  C   UNL A   1      44.354  28.892  36.025  1.00  0.00     0.012 A 
ATOM     64  C   UNL A   1      43.231  27.258  34.667  1.00  0.00     0.148 A 
ATOM     65  C   UNL A   1      45.059  27.869  36.670  1.00  0.00     0.002 A 
ATOM     66  C   UNL A   1      43.864  26.240  35.369  1.00  0.00     0.091 A 
ATOM     67  F   UNL A   1      42.551  26.919  33.571  1.00  0.00    -0.205 F 
ATOM     68  C   UNL A   1      44.802  26.541  36.354  1.00  0.00     0.022 A 
BRANCH  66  69
ATOM     69  S   UNL A   1      43.523  24.508  35.028  1.00  0.00     0.127 S 
ATOM     70  O   UNL A   1      42.084  24.442  35.260  1.00  0.00    -0.237 OA
ATOM     71  O   UNL A   1      43.934  24.402  33.627  1.00  0.00    -0.237 OA
ATOM     72  O   UNL A   1      44.358  23.750  35.952  1.00  0.00    -0.744 OA
ENDBRANCH  66  69
ENDBRANCH  48  62
BRANCH  49  73
ATOM     73  C   UNL A   1      41.916  24.653  28.037  1.00  0.00     0.023 A 
ATOM     74  C   UNL A   1      40.620  24.094  28.118  1.00  0.00     0.012 A 
ATOM     75  C   UNL A   1      42.872  23.995  27.236  1.00  0.00     0.148 A 
ATOM     76  C   UNL A   1      40.264  22.972  27.360  1.00  0.00     0.002 A 
ATOM     77  C   UNL A   1      42.510  22.884  26.476  1.00  0.00     0.091 A 
ATOM     78  F   UNL A   1      44.104  24.512  27.147  1.00  0.00    -0.205 F 
ATOM     79  C   UNL A   1      41.203  22.382  26.521  1.00  0.00     0.022 A 
BRANCH  77  80
ATOM     80  S   UNL A   1      43.646  22.094  25.327  1.00  0.00     0.127 S 
ATOM     81  O   UNL A   1      44.917  22.188  26.048  1.00  0.00    -0.237 OA
ATOM     82  O   UNL A   1      43.094  20.746  25.236  1.00  0.00    -0.237 OA
ATOM     83  O   UNL A   1      43.591  22.885  24.104  1.00  0.00    -0.744 OA
ENDBRANCH  77  80
ENDBRANCH  49  73
BRANCH  61  84
ATOM     84  C   UNL A   1      44.961  30.199  28.559  1.00  0.00     0.023 A 
ATOM     85  C   UNL A   1      43.909  30.732  27.794  1.00  0.00     0.012 A 
ATOM     86  C   UNL A   1      46.287  30.547  28.254  1.00  0.00     0.148 A 
ATOM     87  C   UNL A   1      44.186  31.620  26.749  1.00  0.00     0.002 A 
ATOM     88  C   UNL A   1      46.553  31.470  27.260  1.00  0.00     0.091 A 
ATOM     89  F   UNL A   1      47.267  29.989  28.982  1.00  0.00    -0.205 F 
ATOM     90  C   UNL A   1      45.505  32.006  26.497  1.00  0.00     0.022 A 
BRANCH  88  91
ATOM     91  S   UNL A   1      48.210  32.104  27.008  1.00  0.00     0.127 S 
ATOM     92  O   UNL A   1      48.547  32.614  28.334  1.00  0.00    -0.237 OA
ATOM     93  O   UNL A   1      48.942  30.902  26.607  1.00  0.00    -0.237 OA
ATOM     94  O   UNL A   1      48.103  33.111  25.960  1.00  0.00    -0.744 OA
ENDBRANCH  88  91
ENDBRANCH  61  84
ENDBRANCH  35  36
ENDBRANCH  28  30
ENDBRANCH  27  28
ENDBRANCH  26  27
ENDBRANCH  25  26
ENDBRANCH  24  25
ENDBRANCH  23  24
ENDBRANCH   1  23
TORSDOF 24
ENDMDL
MODEL 2
REMARK VINA RESULT:      -9.8      1.756      2.302
REMARK SMILES Cc1cc(C)c2c(OCCCC(=O)OCCOCCOCCOC(=O)c3ccc(-c4c5nc(c(-c6cccc(S(=O)(=O)[O-])c6F)c6ccc([nH]6)c(-c6cccc(S(=O)(=O)[O-])c6F)c6nc(c(-c7cccc(S(=O)(=O)[O-])c7F)c7ccc4[nH]7)C=C6)C=C5)cc3)nsc2n1
REMARK SMILES IDX 18 1 17 2 16 3 15 4 14 5 12 6 13 7 11 8 10 9 9 10 8 11 7 12
REMARK SMILES IDX 1 13 2 14 3 15 92 16 4 17 91 18 5 19 6 20 90 21 89 22 19 23
REMARK SMILES IDX 20 24 21 25 22 26 23 27 24 28 25 29 26 30 27 31 88 32 28 33
REMARK SMILES IDX 87 34 29 35 30 36 31 37 81 38 32 39 86 40 80 41 82 42 33 43
REMARK SMILES IDX 85 44 79 45 78 46 34 48 66 49 46 50 65 51 47 52 50 53 64 54
REMARK SMILES IDX 83 55 48 56 49 57 63 59 84 60 51 61 35 62 36 63 44 64 37 65
REMARK SMILES IDX 39 66 45 67 38 68 40 69 41 70 42 71 43 72 67 73 68 74 76 75
REMARK SMILES IDX 69 76 71 77 77 78 70 79 72 80 73 81 74 82 75 83 52 84 53 85
REMARK SMILES IDX 61 86 54 87 56 88 62 89 55 90 57 91 58 92 59 93 60 94
REMARK H PARENT 82 47 50 58
REMARK Flexibility Score: inf
ROOT
ATOM      1  C   UNL A   1      33.081  36.300  30.876  1.00  0.00     0.188 C 
ENDROOT
BRANCH   1   2
ATOM      2  O   UNL A   1      33.862  35.383  30.139  1.00  0.00    -0.376 OA
BRANCH   2   3
ATOM      3  C   UNL A   1      33.206  34.678  29.103  1.00  0.00     0.202 C 
BRANCH   3   4
ATOM      4  C   UNL A   1      34.015  33.737  28.199  1.00  0.00     0.261 C 
BRANCH   4   5
ATOM      5  O   UNL A   1      33.631  32.326  28.198  1.00  0.00    -0.463 OA
BRANCH   5   6
ATOM      6  C   UNL A   1      34.539  31.430  27.739  1.00  0.00     0.305 C 
ATOM      7  O   UNL A   1      35.665  31.766  27.374  1.00  0.00    -0.252 OA
BRANCH   6   8
ATOM      8  C   UNL A   1      34.108  29.960  27.606  1.00  0.00     0.126 C 
BRANCH   8   9
ATOM      9  C   UNL A   1      33.652  29.167  26.370  1.00  0.00     0.053 C 
BRANCH   9  10
ATOM     10  C   UNL A   1      33.533  27.632  26.267  1.00  0.00     0.232 C 
BRANCH  10  11
ATOM     11  O   UNL A   1      32.395  26.973  25.724  1.00  0.00    -0.477 OA
BRANCH  11  12
ATOM     12  C   UNL A   1      32.332  25.628  25.757  1.00  0.00     0.235 A 
ATOM     13  C   UNL A   1      35.717  21.461  24.554  1.00  0.00     0.067 C 
ATOM     14  C   UNL A   1      34.573  22.436  24.539  1.00  0.00     0.039 A 
ATOM     15  C   UNL A   1      34.529  23.436  23.575  1.00  0.00     0.027 A 
ATOM     16  N   UNL A   1      33.674  22.338  25.531  1.00  0.00    -0.240 NA
ATOM     17  C   UNL A   1      33.745  24.594  23.760  1.00  0.00    -0.034 A 
ATOM     18  C   UNL A   1      32.916  23.438  25.679  1.00  0.00     0.147 A 
ATOM     19  C   UNL A   1      33.848  25.724  22.772  1.00  0.00     0.045 C 
ATOM     20  C   UNL A   1      32.990  24.630  24.956  1.00  0.00     0.078 A 
ATOM     21  S   UNL A   1      31.716  23.567  26.878  1.00  0.00    -0.012 S 
ATOM     22  N   UNL A   1      31.497  25.199  26.703  1.00  0.00    -0.153 NA
ENDBRANCH  11  12
ENDBRANCH  10  11
ENDBRANCH   9  10
ENDBRANCH   8   9
ENDBRANCH   6   8
ENDBRANCH   5   6
ENDBRANCH   4   5
ENDBRANCH   3   4
ENDBRANCH   2   3
ENDBRANCH   1   2
BRANCH   1  23
ATOM     23  C   UNL A   1      33.403  36.476  32.376  1.00  0.00     0.188 C 
BRANCH  23  24
ATOM     24  O   UNL A   1      33.734  35.342  33.158  1.00  0.00    -0.376 OA
BRANCH  24  25
ATOM     25  C   UNL A   1      35.048  35.029  33.601  1.00  0.00     0.202 C 
BRANCH  25  26
ATOM     26  C   UNL A   1      35.786  33.703  33.422  1.00  0.00     0.261 C 
BRANCH  26  27
ATOM     27  O   UNL A   1      36.293  33.458  32.138  1.00  0.00    -0.460 OA
BRANCH  27  28
ATOM     28  C   UNL A   1      35.625  32.499  31.464  1.00  0.00     0.338 C 
ATOM     29  O   UNL A   1      34.431  32.295  31.461  1.00  0.00    -0.246 OA
BRANCH  28  30
ATOM     30  C   UNL A   1      36.609  31.753  30.678  1.00  0.00     0.060 A 
ATOM     31  C   UNL A   1      36.483  30.367  30.670  1.00  0.00     0.016 A 
ATOM     32  C   UNL A   1      37.724  32.416  30.143  1.00  0.00     0.016 A 
ATOM     33  C   UNL A   1      37.612  29.639  30.404  1.00  0.00     0.010 A 
ATOM     34  C   UNL A   1      38.851  31.688  29.874  1.00  0.00     0.010 A 
ATOM     35  C   UNL A   1      38.806  30.327  30.133  1.00  0.00    -0.014 A 
BRANCH  35  36
ATOM     36  C   UNL A   1      40.010  29.540  30.030  1.00  0.00     0.031 A 
ATOM     37  C   UNL A   1      40.620  29.381  31.358  1.00  0.00     0.074 A 
ATOM     38  C   UNL A   1      40.467  29.068  28.852  1.00  0.00     0.049 A 
ATOM     39  N   UNL A   1      41.566  30.110  31.851  1.00  0.00    -0.248 NA
ATOM     40  C   UNL A   1      39.935  28.539  32.353  1.00  0.00     0.031 C 
ATOM     41  C   UNL A   1      39.727  28.996  27.585  1.00  0.00     0.029 A 
ATOM     42  N   UNL A   1      41.640  28.447  28.545  1.00  0.00    -0.354 N 
ATOM     43  C   UNL A   1      41.854  29.495  33.062  1.00  0.00     0.074 A 
ATOM     44  C   UNL A   1      40.663  28.791  33.446  1.00  0.00     0.031 C 
ATOM     45  C   UNL A   1      40.352  28.135  26.750  1.00  0.00     0.029 A 
ATOM     46  C   UNL A   1      41.608  27.726  27.351  1.00  0.00     0.049 A 
ATOM     47  H   UNL A   1      42.441  28.500  29.116  1.00  0.00     0.167 HD
ATOM     48  C   UNL A   1      43.158  29.220  33.338  1.00  0.00     0.034 A 
ATOM     49  C   UNL A   1      42.529  26.823  26.929  1.00  0.00     0.034 A 
ATOM     50  C   UNL A   1      44.032  30.004  32.500  1.00  0.00     0.049 A 
ATOM     51  C   UNL A   1      43.796  27.144  27.618  1.00  0.00     0.074 A 
ATOM     52  C   UNL A   1      44.434  31.316  32.393  1.00  0.00     0.029 A 
ATOM     53  N   UNL A   1      44.291  29.401  31.300  1.00  0.00    -0.354 N 
ATOM     54  N   UNL A   1      44.479  28.230  27.384  1.00  0.00    -0.248 NA
ATOM     55  C   UNL A   1      44.147  26.416  28.834  1.00  0.00     0.031 C 
ATOM     56  C   UNL A   1      44.924  31.482  31.065  1.00  0.00     0.029 A 
ATOM     57  C   UNL A   1      44.860  30.258  30.406  1.00  0.00     0.049 A 
ATOM     58  H   UNL A   1      44.089  28.456  31.104  1.00  0.00     0.167 HD
ATOM     59  C   UNL A   1      44.985  28.556  28.626  1.00  0.00     0.074 A 
ATOM     60  C   UNL A   1      44.919  27.335  29.419  1.00  0.00     0.031 C 
ATOM     61  C   UNL A   1      45.047  29.851  29.033  1.00  0.00     0.034 A 
BRANCH  48  62
ATOM     62  C   UNL A   1      43.647  27.896  33.898  1.00  0.00     0.023 A 
ATOM     63  C   UNL A   1      43.746  26.821  32.988  1.00  0.00     0.012 A 
ATOM     64  C   UNL A   1      43.736  27.570  35.272  1.00  0.00     0.148 A 
ATOM     65  C   UNL A   1      43.912  25.501  33.423  1.00  0.00     0.002 A 
ATOM     66  C   UNL A   1      43.991  26.273  35.698  1.00  0.00     0.091 A 
ATOM     67  F   UNL A   1      43.430  28.474  36.202  1.00  0.00    -0.205 F 
ATOM     68  C   UNL A   1      44.051  25.227  34.778  1.00  0.00     0.022 A 
BRANCH  66  69
ATOM     69  S   UNL A   1      44.228  25.882  37.437  1.00  0.00     0.127 S 
ATOM     70  O   UNL A   1      42.933  26.250  37.998  1.00  0.00    -0.237 OA
ATOM     71  O   UNL A   1      44.497  24.445  37.377  1.00  0.00    -0.237 OA
ATOM     72  O   UNL A   1      45.366  26.684  37.871  1.00  0.00    -0.744 OA
ENDBRANCH  66  69
ENDBRANCH  48  62
BRANCH  49  73
ATOM     73  C   UNL A   1      42.380  25.539  26.196  1.00  0.00     0.023 A 
ATOM     74  C   UNL A   1      43.378  25.160  25.269  1.00  0.00     0.012 A 
ATOM     75  C   UNL A   1      41.488  24.546  26.651  1.00  0.00     0.148 A 
ATOM     76  C   UNL A   1      43.538  23.826  24.878  1.00  0.00     0.002 A 
ATOM     77  C   UNL A   1      41.657  23.218  26.266  1.00  0.00     0.091 A 
ATOM     78  F   UNL A   1      40.538  24.887  27.530  1.00  0.00    -0.205 F 
ATOM     79  C   UNL A   1      42.692  22.851  25.395  1.00  0.00     0.022 A 
BRANCH  77  80
ATOM     80  S   UNL A   1      40.642  21.888  26.928  1.00  0.00     0.127 S 
ATOM     81  O   UNL A   1      40.983  21.930  28.350  1.00  0.00    -0.237 OA
ATOM     82  O   UNL A   1      39.294  22.350  26.609  1.00  0.00    -0.237 OA
ATOM     83  O   UNL A   1      41.075  20.677  26.242  1.00  0.00    -0.744 OA
ENDBRANCH  77  80
ENDBRANCH  49  73
BRANCH  61  84
ATOM     84  C   UNL A   1      45.223  30.920  28.006  1.00  0.00     0.023 A 
ATOM     85  C   UNL A   1      44.174  31.691  27.475  1.00  0.00     0.012 A 
ATOM     86  C   UNL A   1      46.551  31.242  27.686  1.00  0.00     0.148 A 
ATOM     87  C   UNL A   1      44.459  32.785  26.651  1.00  0.00     0.002 A 
ATOM     88  C   UNL A   1      46.832  32.359  26.920  1.00  0.00     0.091 A 
ATOM     89  F   UNL A   1      47.525  30.461  28.181  1.00  0.00    -0.205 F 
ATOM     90  C   UNL A   1      45.788  33.132  26.392  1.00  0.00     0.022 A 
BRANCH  88  91
ATOM     91  S   UNL A   1      48.518  32.923  26.694  1.00  0.00     0.127 S 
ATOM     92  O   UNL A   1      48.414  33.711  25.468  1.00  0.00    -0.237 OA
ATOM     93  O   UNL A   1      48.747  33.704  27.910  1.00  0.00    -0.237 OA
ATOM     94  O   UNL A   1      49.337  31.721  26.597  1.00  0.00    -0.744 OA
ENDBRANCH  88  91
ENDBRANCH  61  84
ENDBRANCH  35  36
ENDBRANCH  28  30
ENDBRANCH  27  28
ENDBRANCH  26  27
ENDBRANCH  25  26
ENDBRANCH  24  25
ENDBRANCH  23  24
ENDBRANCH   1  23
TORSDOF 24
ENDMDL
MODEL 3
REMARK VINA RESULT:      -9.6      1.853      2.346
REMARK SMILES Cc1cc(C)c2c(OCCCC(=O)OCCOCCOCCOC(=O)c3ccc(-c4c5nc(c(-c6cccc(S(=O)(=O)[O-])c6F)c6ccc([nH]6)c(-c6cccc(S(=O)(=O)[O-])c6F)c6nc(c(-c7cccc(S(=O)(=O)[O-])c7F)c7ccc4[nH]7)C=C6)C=C5)cc3)nsc2n1
REMARK SMILES IDX 18 1 17 2 16 3 15 4 14 5 12 6 13 7 11 8 10 9 9 10 8 11 7 12
REMARK SMILES IDX 1 13 2 14 3 15 92 16 4 17 91 18 5 19 6 20 90 21 89 22 19 23
REMARK SMILES IDX 20 24 21 25 22 26 23 27 24 28 25 29 26 30 27 31 88 32 28 33
REMARK SMILES IDX 87 34 29 35 30 36 31 37 81 38 32 39 86 40 80 41 82 42 33 43
REMARK SMILES IDX 85 44 79 45 78 46 34 48 66 49 46 50 65 51 47 52 50 53 64 54
REMARK SMILES IDX 83 55 48 56 49 57 63 59 84 60 51 61 35 62 36 63 44 64 37 65
REMARK SMILES IDX 39 66 45 67 38 68 40 69 41 70 42 71 43 72 67 73 68 74 76 75
REMARK SMILES IDX 69 76 71 77 77 78 70 79 72 80 73 81 74 82 75 83 52 84 53 85
REMARK SMILES IDX 61 86 54 87 56 88 62 89 55 90 57 91 58 92 59 93 60 94
REMARK H PARENT 82 47 50 58
REMARK Flexibility Score: inf
ROOT
ATOM      1  C   UNL A   1      33.199  35.832  30.492  1.00  0.00     0.188 C 
ENDROOT
BRANCH   1   2
ATOM      2  O   UNL A   1      33.928  34.815  29.838  1.00  0.00    -0.376 OA
BRANCH   2   3
ATOM      3  C   UNL A   1      33.365  34.293  28.649  1.00  0.00     0.202 C 
BRANCH   3   4
ATOM      4  C   UNL A   1      33.995  33.058  27.992  1.00  0.00     0.261 C 
BRANCH   4   5
ATOM      5  O   UNL A   1      33.081  32.042  27.473  1.00  0.00    -0.463 OA
BRANCH   5   6
ATOM      6  C   UNL A   1      33.465  30.746  27.569  1.00  0.00     0.305 C 
ATOM      7  O   UNL A   1      34.561  30.418  28.023  1.00  0.00    -0.252 OA
BRANCH   6   8
ATOM      8  C   UNL A   1      32.519  29.664  27.022  1.00  0.00     0.126 C 
BRANCH   8   9
ATOM      9  C   UNL A   1      32.478  28.151  27.296  1.00  0.00     0.053 C 
BRANCH   9  10
ATOM     10  C   UNL A   1      32.679  27.032  26.253  1.00  0.00     0.232 C 
BRANCH  10  11
ATOM     11  O   UNL A   1      31.695  26.678  25.289  1.00  0.00    -0.477 OA
BRANCH  11  12
ATOM     12  C   UNL A   1      31.639  27.350  24.123  1.00  0.00     0.235 A 
ATOM     13  C   UNL A   1      28.224  30.977  21.790  1.00  0.00     0.067 C 
ATOM     14  C   UNL A   1      29.011  29.735  22.098  1.00  0.00     0.039 A 
ATOM     15  C   UNL A   1      28.378  28.640  22.676  1.00  0.00     0.027 A 
ATOM     16  N   UNL A   1      30.333  29.777  21.869  1.00  0.00    -0.240 NA
ATOM     17  C   UNL A   1      29.113  27.648  23.356  1.00  0.00    -0.034 A 
ATOM     18  C   UNL A   1      31.018  28.809  22.502  1.00  0.00     0.147 A 
ATOM     19  C   UNL A   1      28.382  26.567  24.105  1.00  0.00     0.045 C 
ATOM     20  C   UNL A   1      30.517  27.829  23.360  1.00  0.00     0.078 A 
ATOM     21  S   UNL A   1      32.708  28.659  22.384  1.00  0.00    -0.012 S 
ATOM     22  N   UNL A   1      32.856  27.578  23.629  1.00  0.00    -0.153 NA
ENDBRANCH  11  12
ENDBRANCH  10  11
ENDBRANCH   9  10
ENDBRANCH   8   9
ENDBRANCH   6   8
ENDBRANCH   5   6
ENDBRANCH   4   5
ENDBRANCH   3   4
ENDBRANCH   2   3
ENDBRANCH   1   2
BRANCH   1  23
ATOM     23  C   UNL A   1      33.427  36.017  32.008  1.00  0.00     0.188 C 
BRANCH  23  24
ATOM     24  O   UNL A   1      33.743  34.894  32.811  1.00  0.00    -0.376 OA
BRANCH  24  25
ATOM     25  C   UNL A   1      34.934  34.764  33.575  1.00  0.00     0.202 C 
BRANCH  25  26
ATOM     26  C   UNL A   1      36.031  33.716  33.394  1.00  0.00     0.261 C 
BRANCH  26  27
ATOM     27  O   UNL A   1      36.383  33.428  32.067  1.00  0.00    -0.460 OA
BRANCH  27  28
ATOM     28  C   UNL A   1      35.799  32.314  31.580  1.00  0.00     0.338 C 
ATOM     29  O   UNL A   1      34.654  31.952  31.738  1.00  0.00    -0.246 OA
BRANCH  28  30
ATOM     30  C   UNL A   1      36.798  31.619  30.766  1.00  0.00     0.060 A 
ATOM     31  C   UNL A   1      36.710  30.231  30.720  1.00  0.00     0.016 A 
ATOM     32  C   UNL A   1      37.888  32.328  30.241  1.00  0.00     0.016 A 
ATOM     33  C   UNL A   1      37.858  29.543  30.425  1.00  0.00     0.010 A 
ATOM     34  C   UNL A   1      39.033  31.640  29.944  1.00  0.00     0.010 A 
ATOM     35  C   UNL A   1      39.029  30.272  30.165  1.00  0.00    -0.014 A 
BRANCH  35  36
ATOM     36  C   UNL A   1      40.255  29.523  30.031  1.00  0.00     0.031 A 
ATOM     37  C   UNL A   1      40.913  29.402  31.339  1.00  0.00     0.074 A 
ATOM     38  C   UNL A   1      40.687  29.050  28.844  1.00  0.00     0.049 A 
ATOM     39  N   UNL A   1      41.851  30.168  31.791  1.00  0.00    -0.248 NA
ATOM     40  C   UNL A   1      40.291  28.552  32.368  1.00  0.00     0.031 C 
ATOM     41  C   UNL A   1      39.907  28.938  27.604  1.00  0.00     0.029 A 
ATOM     42  N   UNL A   1      41.869  28.463  28.505  1.00  0.00    -0.354 N 
ATOM     43  C   UNL A   1      42.200  29.580  32.998  1.00  0.00     0.074 A 
ATOM     44  C   UNL A   1      41.046  28.842  33.432  1.00  0.00     0.031 C 
ATOM     45  C   UNL A   1      40.532  28.086  26.758  1.00  0.00     0.029 A 
ATOM     46  C   UNL A   1      41.821  27.727  27.322  1.00  0.00     0.049 A 
ATOM     47  H   UNL A   1      42.686  28.551  29.048  1.00  0.00     0.167 HD
ATOM     48  C   UNL A   1      43.520  29.350  33.234  1.00  0.00     0.034 A 
ATOM     49  C   UNL A   1      42.756  26.848  26.880  1.00  0.00     0.034 A 
ATOM     50  C   UNL A   1      44.339  30.151  32.357  1.00  0.00     0.049 A 
ATOM     51  C   UNL A   1      44.035  27.219  27.521  1.00  0.00     0.074 A 
ATOM     52  C   UNL A   1      44.695  31.474  32.220  1.00  0.00     0.029 A 
ATOM     53  N   UNL A   1      44.578  29.540  31.157  1.00  0.00    -0.354 N 
ATOM     54  N   UNL A   1      44.674  28.323  27.251  1.00  0.00    -0.248 NA
ATOM     55  C   UNL A   1      44.450  26.520  28.734  1.00  0.00     0.031 C 
ATOM     56  C   UNL A   1      45.134  31.637  30.874  1.00  0.00     0.029 A 
ATOM     57  C   UNL A   1      45.088  30.403  30.233  1.00  0.00     0.049 A 
ATOM     58  H   UNL A   1      44.401  28.587  30.979  1.00  0.00     0.167 HD
ATOM     59  C   UNL A   1      45.210  28.682  28.471  1.00  0.00     0.074 A 
ATOM     60  C   UNL A   1      45.210  27.471  29.281  1.00  0.00     0.031 C 
ATOM     61  C   UNL A   1      45.242  29.984  28.860  1.00  0.00     0.034 A 
BRANCH  48  62
ATOM     62  C   UNL A   1      44.071  28.051  33.793  1.00  0.00     0.023 A 
ATOM     63  C   UNL A   1      45.003  28.159  34.848  1.00  0.00     0.012 A 
ATOM     64  C   UNL A   1      43.961  26.781  33.177  1.00  0.00     0.148 A 
ATOM     65  C   UNL A   1      45.784  27.072  35.256  1.00  0.00     0.002 A 
ATOM     66  C   UNL A   1      44.671  25.682  33.642  1.00  0.00     0.091 A 
ATOM     67  F   UNL A   1      43.283  26.639  32.038  1.00  0.00    -0.205 F 
ATOM     68  C   UNL A   1      45.607  25.827  34.664  1.00  0.00     0.022 A 
BRANCH  66  69
ATOM     69  S   UNL A   1      44.435  24.043  32.940  1.00  0.00     0.127 S 
ATOM     70  O   UNL A   1      43.143  23.667  33.504  1.00  0.00    -0.237 OA
ATOM     71  O   UNL A   1      44.427  24.340  31.507  1.00  0.00    -0.237 OA
ATOM     72  O   UNL A   1      45.580  23.255  33.379  1.00  0.00    -0.744 OA
ENDBRANCH  66  69
ENDBRANCH  48  62
BRANCH  49  73
ATOM     73  C   UNL A   1      42.625  25.550  26.168  1.00  0.00     0.023 A 
ATOM     74  C   UNL A   1      43.622  25.175  25.238  1.00  0.00     0.012 A 
ATOM     75  C   UNL A   1      41.756  24.548  26.647  1.00  0.00     0.148 A 
ATOM     76  C   UNL A   1      43.804  23.839  24.866  1.00  0.00     0.002 A 
ATOM     77  C   UNL A   1      41.947  23.217  26.281  1.00  0.00     0.091 A 
ATOM     78  F   UNL A   1      40.808  24.885  27.530  1.00  0.00    -0.205 F 
ATOM     79  C   UNL A   1      42.981  22.856  25.407  1.00  0.00     0.022 A 
BRANCH  77  80
ATOM     80  S   UNL A   1      40.963  21.879  26.973  1.00  0.00     0.127 S 
ATOM     81  O   UNL A   1      41.477  20.719  26.243  1.00  0.00    -0.237 OA
ATOM     82  O   UNL A   1      41.337  21.928  28.384  1.00  0.00    -0.237 OA
ATOM     83  O   UNL A   1      39.575  22.209  26.674  1.00  0.00    -0.744 OA
ENDBRANCH  77  80
ENDBRANCH  49  73
BRANCH  61  84
ATOM     84  C   UNL A   1      45.348  31.044  27.814  1.00  0.00     0.023 A 
ATOM     85  C   UNL A   1      44.247  31.677  27.211  1.00  0.00     0.012 A 
ATOM     86  C   UNL A   1      46.647  31.511  27.552  1.00  0.00     0.148 A 
ATOM     87  C   UNL A   1      44.449  32.779  26.373  1.00  0.00     0.002 A 
ATOM     88  C   UNL A   1      46.838  32.636  26.771  1.00  0.00     0.091 A 
ATOM     89  F   UNL A   1      47.675  30.858  28.116  1.00  0.00    -0.205 F 
ATOM     90  C   UNL A   1      45.741  33.272  26.171  1.00  0.00     0.022 A 
BRANCH  88  91
ATOM     91  S   UNL A   1      48.457  33.386  26.614  1.00  0.00     0.127 S 
ATOM     92  O   UNL A   1      49.314  32.223  26.399  1.00  0.00    -0.237 OA
ATOM     93  O   UNL A   1      48.285  34.248  25.443  1.00  0.00    -0.237 OA
ATOM     94  O   UNL A   1      48.689  34.113  27.857  1.00  0.00    -0.744 OA
ENDBRANCH  88  91
ENDBRANCH  61  84
ENDBRANCH  35  36
ENDBRANCH  28  30
ENDBRANCH  27  28
ENDBRANCH  26  27
ENDBRANCH  25  26
ENDBRANCH  24  25
ENDBRANCH  23  24
ENDBRANCH   1  23
TORSDOF 24
ENDMDL
