MODEL 1
REMARK VINA RESULT:      -6.2      0.000      0.000
REMARK SMILES CCCCC[NH2+][C@](C)(C(=O)OCCOCCOCCOC(=O)c1ccc(-c2c3nc(c(-c4cccc(S(=O)(=O)[O-])c4F)c4ccc([nH]4)c(-c4cccc(S(=O)(=O)[O-])c4F)c4nc(c(-c5cccc(S(=O)(=O)[O-])c5F)c5ccc2[nH]5)C=C4)C=C3)cc1)C(F)(F)F
REMARK SMILES IDX 15 1 14 2 13 3 12 4 11 5 9 6 10 7 7 8 8 9 6 10 5 13 4 14
REMARK SMILES IDX 3 15 2 16 1 17 86 18 87 19 88 20 89 21 16 22 17 23 18 24
REMARK SMILES IDX 19 25 20 26 21 27 22 28 23 29 24 30 85 31 25 32 84 33 26 34
REMARK SMILES IDX 27 35 28 36 78 37 29 38 83 39 77 40 79 41 30 42 82 43 76 44
REMARK SMILES IDX 75 45 31 47 63 48 43 49 62 50 44 51 47 52 61 53 80 54 45 55
REMARK SMILES IDX 46 56 60 58 81 59 48 60 32 61 33 62 41 63 34 64 36 65 42 66
REMARK SMILES IDX 35 67 37 68 38 69 39 70 40 71 64 72 65 73 73 74 66 75 68 76
REMARK SMILES IDX 74 77 67 78 69 79 70 80 71 81 72 82 49 83 50 84 58 85 51 86
REMARK SMILES IDX 53 87 59 88 52 89 54 90 55 91 56 92 57 93
REMARK H PARENT 6 11 6 12 79 46 47 57
REMARK Flexibility Score: inf
ROOT
ATOM      1  C   UNL A   1      37.977  32.270  37.873  1.00  0.00     0.188 C 
ENDROOT
BRANCH   1   2
ATOM      2  O   UNL A   1      38.879  31.404  37.196  1.00  0.00    -0.376 OA
BRANCH   2   3
ATOM      3  C   UNL A   1      38.435  30.842  35.962  1.00  0.00     0.202 C 
BRANCH   3   4
ATOM      4  C   UNL A   1      37.827  31.815  34.944  1.00  0.00     0.261 C 
BRANCH   4   5
ATOM      5  O   UNL A   1      38.691  32.108  33.824  1.00  0.00    -0.458 OA
BRANCH   5   6
ATOM      6  C   UNL A   1      38.065  32.506  32.678  1.00  0.00     0.377 C 
ATOM      7  O   UNL A   1      36.970  33.063  32.656  1.00  0.00    -0.244 OA
BRANCH   6   8
ATOM      8  C   UNL A   1      38.792  32.080  31.391  1.00  0.00     0.287 C 
ATOM      9  C   UNL A   1      40.049  31.233  31.650  1.00  0.00     0.103 C 
BRANCH   8  10
ATOM     10  N   UNL A   1      37.741  31.315  30.628  1.00  0.00    -0.325 N 
ATOM     11  H   UNL A   1      37.106  30.896  31.307  1.00  0.00     0.347 HD
ATOM     12  H   UNL A   1      37.302  31.996  30.009  1.00  0.00     0.347 HD
BRANCH  10  13
ATOM     13  C   UNL A   1      38.226  30.255  29.761  1.00  0.00     0.261 C 
BRANCH  13  14
ATOM     14  C   UNL A   1      37.756  30.495  28.321  1.00  0.00     0.061 C 
BRANCH  14  15
ATOM     15  C   UNL A   1      36.778  29.449  27.770  1.00  0.00     0.006 C 
BRANCH  15  16
ATOM     16  C   UNL A   1      35.328  29.919  27.624  1.00  0.00    -0.003 C 
ATOM     17  C   UNL A   1      35.146  31.405  27.888  1.00  0.00     0.004 C 
ENDBRANCH  15  16
ENDBRANCH  14  15
ENDBRANCH  13  14
ENDBRANCH  10  13
ENDBRANCH   8  10
BRANCH   8  18
ATOM     18  C   UNL A   1      39.243  33.425  30.762  1.00  0.00     0.455 C 
ATOM     19  F   UNL A   1      40.223  33.252  29.843  1.00  0.00    -0.164 F 
ATOM     20  F   UNL A   1      38.209  34.017  30.108  1.00  0.00    -0.164 F 
ATOM     21  F   UNL A   1      39.673  34.318  31.678  1.00  0.00    -0.164 F 
ENDBRANCH   8  18
ENDBRANCH   6   8
ENDBRANCH   5   6
ENDBRANCH   4   5
ENDBRANCH   3   4
ENDBRANCH   2   3
ENDBRANCH   1   2
BRANCH   1  22
ATOM     22  C   UNL A   1      38.366  32.648  39.304  1.00  0.00     0.188 C 
BRANCH  22  23
ATOM     23  O   UNL A   1      38.150  34.013  39.641  1.00  0.00    -0.376 OA
BRANCH  23  24
ATOM     24  C   UNL A   1      38.681  34.454  40.893  1.00  0.00     0.202 C 
BRANCH  24  25
ATOM     25  C   UNL A   1      39.449  35.791  40.869  1.00  0.00     0.261 C 
BRANCH  25  26
ATOM     26  O   UNL A   1      40.705  35.754  40.159  1.00  0.00    -0.460 OA
BRANCH  26  27
ATOM     27  C   UNL A   1      40.811  36.498  39.033  1.00  0.00     0.338 C 
ATOM     28  O   UNL A   1      40.827  37.716  38.971  1.00  0.00    -0.246 OA
BRANCH  27  29
ATOM     29  C   UNL A   1      41.188  35.594  37.912  1.00  0.00     0.060 A 
ATOM     30  C   UNL A   1      42.528  35.192  37.812  1.00  0.00     0.016 A 
ATOM     31  C   UNL A   1      40.237  35.067  37.033  1.00  0.00     0.016 A 
ATOM     32  C   UNL A   1      42.921  34.281  36.827  1.00  0.00     0.010 A 
ATOM     33  C   UNL A   1      40.636  34.167  36.038  1.00  0.00     0.010 A 
ATOM     34  C   UNL A   1      41.982  33.782  35.914  1.00  0.00    -0.014 A 
BRANCH  34  35
ATOM     35  C   UNL A   1      42.415  32.976  34.744  1.00  0.00     0.031 A 
ATOM     36  C   UNL A   1      42.621  33.672  33.425  1.00  0.00     0.074 A 
ATOM     37  C   UNL A   1      42.592  31.645  34.826  1.00  0.00     0.049 A 
ATOM     38  N   UNL A   1      42.922  33.166  32.258  1.00  0.00    -0.248 NA
ATOM     39  C   UNL A   1      42.466  35.136  33.427  1.00  0.00     0.031 C 
ATOM     40  C   UNL A   1      42.444  30.841  36.037  1.00  0.00     0.029 A 
ATOM     41  N   UNL A   1      42.906  30.729  33.849  1.00  0.00    -0.354 N 
ATOM     42  C   UNL A   1      42.970  34.241  31.380  1.00  0.00     0.074 A 
ATOM     43  C   UNL A   1      42.661  35.428  32.150  1.00  0.00     0.031 C 
ATOM     44  C   UNL A   1      42.629  29.545  35.723  1.00  0.00     0.029 A 
ATOM     45  C   UNL A   1      42.881  29.425  34.287  1.00  0.00     0.049 A 
ATOM     46  H   UNL A   1      43.129  30.981  32.924  1.00  0.00     0.167 HD
ATOM     47  C   UNL A   1      43.257  34.248  30.058  1.00  0.00     0.034 A 
ATOM     48  C   UNL A   1      43.014  28.268  33.605  1.00  0.00     0.034 A 
ATOM     49  C   UNL A   1      43.573  33.078  29.285  1.00  0.00     0.049 A 
ATOM     50  C   UNL A   1      43.267  28.298  32.117  1.00  0.00     0.074 A 
ATOM     51  C   UNL A   1      43.923  33.002  27.948  1.00  0.00     0.029 A 
ATOM     52  N   UNL A   1      43.555  31.779  29.766  1.00  0.00    -0.354 N 
ATOM     53  N   UNL A   1      43.438  29.329  31.326  1.00  0.00    -0.248 NA
ATOM     54  C   UNL A   1      43.366  26.999  31.431  1.00  0.00     0.031 C 
ATOM     55  C   UNL A   1      44.087  31.654  27.612  1.00  0.00     0.029 A 
ATOM     56  C   UNL A   1      43.864  30.892  28.748  1.00  0.00     0.049 A 
ATOM     57  H   UNL A   1      43.353  31.525  30.696  1.00  0.00     0.167 HD
ATOM     58  C   UNL A   1      43.691  28.805  30.061  1.00  0.00     0.074 A 
ATOM     59  C   UNL A   1      43.677  27.364  30.194  1.00  0.00     0.031 C 
ATOM     60  C   UNL A   1      43.898  29.460  28.891  1.00  0.00     0.034 A 
BRANCH  47  61
ATOM     61  C   UNL A   1      43.264  35.579  29.358  1.00  0.00     0.023 A 
ATOM     62  C   UNL A   1      42.096  36.028  28.708  1.00  0.00     0.012 A 
ATOM     63  C   UNL A   1      44.403  36.406  29.391  1.00  0.00     0.148 A 
ATOM     64  C   UNL A   1      42.071  37.271  28.078  1.00  0.00     0.002 A 
ATOM     65  C   UNL A   1      44.357  37.660  28.796  1.00  0.00     0.091 A 
ATOM     66  F   UNL A   1      45.510  35.947  29.991  1.00  0.00    -0.205 F 
ATOM     67  C   UNL A   1      43.196  38.091  28.132  1.00  0.00     0.022 A 
BRANCH  65  68
ATOM     68  S   UNL A   1      45.729  38.816  28.871  1.00  0.00     0.127 S 
ATOM     69  O   UNL A   1      45.808  39.085  30.306  1.00  0.00    -0.237 OA
ATOM     70  O   UNL A   1      46.834  38.019  28.338  1.00  0.00    -0.237 OA
ATOM     71  O   UNL A   1      45.344  39.950  28.042  1.00  0.00    -0.744 OA
ENDBRANCH  65  68
ENDBRANCH  47  61
BRANCH  48  72
ATOM     72  C   UNL A   1      42.916  26.962  34.320  1.00  0.00     0.023 A 
ATOM     73  C   UNL A   1      41.656  26.496  34.744  1.00  0.00     0.012 A 
ATOM     74  C   UNL A   1      44.062  26.191  34.596  1.00  0.00     0.148 A 
ATOM     75  C   UNL A   1      41.543  25.300  35.452  1.00  0.00     0.002 A 
ATOM     76  C   UNL A   1      43.936  24.975  35.255  1.00  0.00     0.091 A 
ATOM     77  F   UNL A   1      45.254  26.666  34.209  1.00  0.00    -0.205 F 
ATOM     78  C   UNL A   1      42.679  24.534  35.700  1.00  0.00     0.022 A 
BRANCH  76  79
ATOM     79  S   UNL A   1      45.329  23.873  35.521  1.00  0.00     0.127 S 
ATOM     80  O   UNL A   1      46.047  24.552  36.597  1.00  0.00    -0.237 OA
ATOM     81  O   UNL A   1      44.662  22.631  35.914  1.00  0.00    -0.237 OA
ATOM     82  O   UNL A   1      46.025  23.805  34.243  1.00  0.00    -0.744 OA
ENDBRANCH  76  79
ENDBRANCH  48  72
BRANCH  60  83
ATOM     83  C   UNL A   1      44.143  28.636  27.651  1.00  0.00     0.023 A 
ATOM     84  C   UNL A   1      43.057  28.268  26.832  1.00  0.00     0.012 A 
ATOM     85  C   UNL A   1      45.452  28.299  27.248  1.00  0.00     0.148 A 
ATOM     86  C   UNL A   1      43.264  27.554  25.651  1.00  0.00     0.002 A 
ATOM     87  C   UNL A   1      45.656  27.627  26.047  1.00  0.00     0.091 A 
ATOM     88  F   UNL A   1      46.474  28.645  28.045  1.00  0.00    -0.205 F 
ATOM     89  C   UNL A   1      44.562  27.245  25.254  1.00  0.00     0.022 A 
BRANCH  87  90
ATOM     90  S   UNL A   1      47.295  27.266  25.405  1.00  0.00     0.127 S 
ATOM     91  O   UNL A   1      47.812  26.339  26.411  1.00  0.00    -0.237 OA
ATOM     92  O   UNL A   1      46.995  26.655  24.110  1.00  0.00    -0.237 OA
ATOM     93  O   UNL A   1      47.986  28.546  25.324  1.00  0.00    -0.744 OA
ENDBRANCH  87  90
ENDBRANCH  60  83
ENDBRANCH  34  35
ENDBRANCH  27  29
ENDBRANCH  26  27
ENDBRANCH  25  26
ENDBRANCH  24  25
ENDBRANCH  23  24
ENDBRANCH  22  23
ENDBRANCH   1  22
TORSDOF 26
ENDMDL
MODEL 2
REMARK VINA RESULT:      -6.2      4.825      8.123
REMARK SMILES CCCCC[NH2+][C@](C)(C(=O)OCCOCCOCCOC(=O)c1ccc(-c2c3nc(c(-c4cccc(S(=O)(=O)[O-])c4F)c4ccc([nH]4)c(-c4cccc(S(=O)(=O)[O-])c4F)c4nc(c(-c5cccc(S(=O)(=O)[O-])c5F)c5ccc2[nH]5)C=C4)C=C3)cc1)C(F)(F)F
REMARK SMILES IDX 15 1 14 2 13 3 12 4 11 5 9 6 10 7 7 8 8 9 6 10 5 13 4 14
REMARK SMILES IDX 3 15 2 16 1 17 86 18 87 19 88 20 89 21 16 22 17 23 18 24
REMARK SMILES IDX 19 25 20 26 21 27 22 28 23 29 24 30 85 31 25 32 84 33 26 34
REMARK SMILES IDX 27 35 28 36 78 37 29 38 83 39 77 40 79 41 30 42 82 43 76 44
REMARK SMILES IDX 75 45 31 47 63 48 43 49 62 50 44 51 47 52 61 53 80 54 45 55
REMARK SMILES IDX 46 56 60 58 81 59 48 60 32 61 33 62 41 63 34 64 36 65 42 66
REMARK SMILES IDX 35 67 37 68 38 69 39 70 40 71 64 72 65 73 73 74 66 75 68 76
REMARK SMILES IDX 74 77 67 78 69 79 70 80 71 81 72 82 49 83 50 84 58 85 51 86
REMARK SMILES IDX 53 87 59 88 52 89 54 90 55 91 56 92 57 93
REMARK H PARENT 6 11 6 12 79 46 47 57
REMARK Flexibility Score: inf
ROOT
ATOM      1  C   UNL A   1      34.635  33.008  28.719  1.00  0.00     0.188 C 
ENDROOT
BRANCH   1   2
ATOM      2  O   UNL A   1      33.755  32.374  27.800  1.00  0.00    -0.376 OA
BRANCH   2   3
ATOM      3  C   UNL A   1      34.045  31.021  27.454  1.00  0.00     0.202 C 
BRANCH   3   4
ATOM      4  C   UNL A   1      32.887  30.198  26.874  1.00  0.00     0.261 C 
BRANCH   4   5
ATOM      5  O   UNL A   1      33.236  29.449  25.689  1.00  0.00    -0.458 OA
BRANCH   5   6
ATOM      6  C   UNL A   1      32.783  28.162  25.644  1.00  0.00     0.377 C 
ATOM      7  O   UNL A   1      32.963  27.343  26.542  1.00  0.00    -0.244 OA
BRANCH   6   8
ATOM      8  C   UNL A   1      32.131  27.778  24.305  1.00  0.00     0.287 C 
ATOM      9  C   UNL A   1      31.359  26.449  24.359  1.00  0.00     0.103 C 
BRANCH   8  10
ATOM     10  N   UNL A   1      31.226  28.946  24.004  1.00  0.00    -0.325 N 
ATOM     11  H   UNL A   1      30.864  29.295  24.891  1.00  0.00     0.347 HD
ATOM     12  H   UNL A   1      31.803  29.615  23.495  1.00  0.00     0.347 HD
BRANCH  10  13
ATOM     13  C   UNL A   1      30.092  28.670  23.139  1.00  0.00     0.261 C 
BRANCH  13  14
ATOM     14  C   UNL A   1      29.479  29.983  22.638  1.00  0.00     0.061 C 
BRANCH  14  15
ATOM     15  C   UNL A   1      28.170  30.396  23.325  1.00  0.00     0.006 C 
BRANCH  15  16
ATOM     16  C   UNL A   1      27.950  31.905  23.464  1.00  0.00    -0.003 C 
ATOM     17  C   UNL A   1      28.635  32.718  22.377  1.00  0.00     0.004 C 
ENDBRANCH  15  16
ENDBRANCH  14  15
ENDBRANCH  13  14
ENDBRANCH  10  13
ENDBRANCH   8  10
BRANCH   8  18
ATOM     18  C   UNL A   1      33.337  27.590  23.348  1.00  0.00     0.455 C 
ATOM     19  F   UNL A   1      34.286  26.783  23.878  1.00  0.00    -0.164 F 
ATOM     20  F   UNL A   1      32.940  27.000  22.189  1.00  0.00    -0.164 F 
ATOM     21  F   UNL A   1      33.919  28.757  22.998  1.00  0.00    -0.164 F 
ENDBRANCH   8  18
ENDBRANCH   6   8
ENDBRANCH   5   6
ENDBRANCH   4   5
ENDBRANCH   3   4
ENDBRANCH   2   3
ENDBRANCH   1   2
BRANCH   1  22
ATOM     22  C   UNL A   1      34.614  32.458  30.147  1.00  0.00     0.188 C 
BRANCH  22  23
ATOM     23  O   UNL A   1      34.317  33.419  31.153  1.00  0.00    -0.376 OA
BRANCH  23  24
ATOM     24  C   UNL A   1      35.041  33.304  32.381  1.00  0.00     0.202 C 
BRANCH  24  25
ATOM     25  C   UNL A   1      36.495  32.803  32.263  1.00  0.00     0.261 C 
BRANCH  25  26
ATOM     26  O   UNL A   1      36.743  31.517  32.869  1.00  0.00    -0.460 OA
BRANCH  26  27
ATOM     27  C   UNL A   1      37.164  30.514  32.063  1.00  0.00     0.338 C 
ATOM     28  O   UNL A   1      36.487  29.586  31.652  1.00  0.00    -0.246 OA
BRANCH  27  29
ATOM     29  C   UNL A   1      38.505  30.876  31.531  1.00  0.00     0.060 A 
ATOM     30  C   UNL A   1      39.520  31.179  32.452  1.00  0.00     0.016 A 
ATOM     31  C   UNL A   1      38.800  30.824  30.166  1.00  0.00     0.016 A 
ATOM     32  C   UNL A   1      40.819  31.448  32.010  1.00  0.00     0.010 A 
ATOM     33  C   UNL A   1      40.098  31.108  29.724  1.00  0.00     0.010 A 
ATOM     34  C   UNL A   1      41.111  31.441  30.640  1.00  0.00    -0.014 A 
BRANCH  34  35
ATOM     35  C   UNL A   1      42.427  31.917  30.142  1.00  0.00     0.031 A 
ATOM     36  C   UNL A   1      42.566  33.360  29.737  1.00  0.00     0.074 A 
ATOM     37  C   UNL A   1      43.480  31.089  30.014  1.00  0.00     0.049 A 
ATOM     38  N   UNL A   1      43.589  33.979  29.208  1.00  0.00    -0.248 NA
ATOM     39  C   UNL A   1      41.391  34.218  29.961  1.00  0.00     0.031 C 
ATOM     40  C   UNL A   1      43.497  29.675  30.379  1.00  0.00     0.029 A 
ATOM     41  N   UNL A   1      44.736  31.321  29.503  1.00  0.00    -0.354 N 
ATOM     42  C   UNL A   1      43.177  35.291  29.012  1.00  0.00     0.074 A 
ATOM     43  C   UNL A   1      41.808  35.378  29.474  1.00  0.00     0.031 C 
ATOM     44  C   UNL A   1      44.693  29.154  30.046  1.00  0.00     0.029 A 
ATOM     45  C   UNL A   1      45.514  30.190  29.419  1.00  0.00     0.049 A 
ATOM     46  H   UNL A   1      45.049  32.212  29.226  1.00  0.00     0.167 HD
ATOM     47  C   UNL A   1      43.874  36.335  28.505  1.00  0.00     0.034 A 
ATOM     48  C   UNL A   1      46.734  30.004  28.871  1.00  0.00     0.034 A 
ATOM     49  C   UNL A   1      45.235  36.264  28.050  1.00  0.00     0.049 A 
ATOM     50  C   UNL A   1      47.465  31.170  28.251  1.00  0.00     0.074 A 
ATOM     51  C   UNL A   1      46.032  37.287  27.567  1.00  0.00     0.029 A 
ATOM     52  N   UNL A   1      45.996  35.107  27.996  1.00  0.00    -0.354 N 
ATOM     53  N   UNL A   1      47.113  32.432  28.192  1.00  0.00    -0.248 NA
ATOM     54  C   UNL A   1      48.775  30.887  27.641  1.00  0.00     0.031 C 
ATOM     55  C   UNL A   1      47.266  36.744  27.192  1.00  0.00     0.029 A 
ATOM     56  C   UNL A   1      47.244  35.386  27.465  1.00  0.00     0.049 A 
ATOM     57  H   UNL A   1      45.692  34.219  28.293  1.00  0.00     0.167 HD
ATOM     58  C   UNL A   1      48.166  33.094  27.564  1.00  0.00     0.074 A 
ATOM     59  C   UNL A   1      49.180  32.100  27.287  1.00  0.00     0.031 C 
ATOM     60  C   UNL A   1      48.273  34.405  27.233  1.00  0.00     0.034 A 
BRANCH  47  61
ATOM     61  C   UNL A   1      43.175  37.665  28.437  1.00  0.00     0.023 A 
ATOM     62  C   UNL A   1      42.375  37.972  27.317  1.00  0.00     0.012 A 
ATOM     63  C   UNL A   1      43.265  38.583  29.500  1.00  0.00     0.148 A 
ATOM     64  C   UNL A   1      41.695  39.187  27.245  1.00  0.00     0.002 A 
ATOM     65  C   UNL A   1      42.552  39.774  29.439  1.00  0.00     0.091 A 
ATOM     66  F   UNL A   1      44.053  38.282  30.542  1.00  0.00    -0.205 F 
ATOM     67  C   UNL A   1      41.774  40.082  28.310  1.00  0.00     0.022 A 
BRANCH  65  68
ATOM     68  S   UNL A   1      42.534  40.959  30.788  1.00  0.00     0.127 S 
ATOM     69  O   UNL A   1      41.176  41.495  30.691  1.00  0.00    -0.237 OA
ATOM     70  O   UNL A   1      42.771  40.106  31.953  1.00  0.00    -0.237 OA
ATOM     71  O   UNL A   1      43.602  41.907  30.504  1.00  0.00    -0.744 OA
ENDBRANCH  65  68
ENDBRANCH  47  61
BRANCH  48  72
ATOM     72  C   UNL A   1      47.360  28.649  28.882  1.00  0.00     0.023 A 
ATOM     73  C   UNL A   1      48.056  28.217  30.028  1.00  0.00     0.012 A 
ATOM     74  C   UNL A   1      47.285  27.799  27.762  1.00  0.00     0.148 A 
ATOM     75  C   UNL A   1      48.688  26.973  30.047  1.00  0.00     0.002 A 
ATOM     76  C   UNL A   1      47.872  26.541  27.808  1.00  0.00     0.091 A 
ATOM     77  F   UNL A   1      46.643  28.242  26.672  1.00  0.00    -0.205 F 
ATOM     78  C   UNL A   1      48.588  26.131  28.943  1.00  0.00     0.022 A 
BRANCH  76  79
ATOM     79  S   UNL A   1      47.702  25.349  26.475  1.00  0.00     0.127 S 
ATOM     80  O   UNL A   1      46.450  25.773  25.852  1.00  0.00    -0.237 OA
ATOM     81  O   UNL A   1      48.903  25.609  25.681  1.00  0.00    -0.237 OA
ATOM     82  O   UNL A   1      47.676  24.041  27.118  1.00  0.00    -0.744 OA
ENDBRANCH  76  79
ENDBRANCH  48  72
BRANCH  60  83
ATOM     83  C   UNL A   1      49.535  34.862  26.543  1.00  0.00     0.023 A 
ATOM     84  C   UNL A   1      49.569  34.946  25.137  1.00  0.00     0.012 A 
ATOM     85  C   UNL A   1      50.656  35.288  27.285  1.00  0.00     0.148 A 
ATOM     86  C   UNL A   1      50.706  35.418  24.479  1.00  0.00     0.002 A 
ATOM     87  C   UNL A   1      51.768  35.801  26.625  1.00  0.00     0.091 A 
ATOM     88  F   UNL A   1      50.613  35.189  28.622  1.00  0.00    -0.205 F 
ATOM     89  C   UNL A   1      51.798  35.856  25.222  1.00  0.00     0.022 A 
BRANCH  87  90
ATOM     90  S   UNL A   1      53.188  36.474  27.499  1.00  0.00     0.127 S 
ATOM     91  O   UNL A   1      54.089  36.802  26.396  1.00  0.00    -0.237 OA
ATOM     92  O   UNL A   1      52.612  37.634  28.180  1.00  0.00    -0.237 OA
ATOM     93  O   UNL A   1      53.649  35.418  28.390  1.00  0.00    -0.744 OA
ENDBRANCH  87  90
ENDBRANCH  60  83
ENDBRANCH  34  35
ENDBRANCH  27  29
ENDBRANCH  26  27
ENDBRANCH  25  26
ENDBRANCH  24  25
ENDBRANCH  23  24
ENDBRANCH  22  23
ENDBRANCH   1  22
TORSDOF 26
ENDMDL
MODEL 3
REMARK VINA RESULT:      -6.0      7.064     11.949
REMARK SMILES CCCCC[NH2+][C@](C)(C(=O)OCCOCCOCCOC(=O)c1ccc(-c2c3nc(c(-c4cccc(S(=O)(=O)[O-])c4F)c4ccc([nH]4)c(-c4cccc(S(=O)(=O)[O-])c4F)c4nc(c(-c5cccc(S(=O)(=O)[O-])c5F)c5ccc2[nH]5)C=C4)C=C3)cc1)C(F)(F)F
REMARK SMILES IDX 15 1 14 2 13 3 12 4 11 5 9 6 10 7 7 8 8 9 6 10 5 13 4 14
REMARK SMILES IDX 3 15 2 16 1 17 86 18 87 19 88 20 89 21 16 22 17 23 18 24
REMARK SMILES IDX 19 25 20 26 21 27 22 28 23 29 24 30 85 31 25 32 84 33 26 34
REMARK SMILES IDX 27 35 28 36 78 37 29 38 83 39 77 40 79 41 30 42 82 43 76 44
REMARK SMILES IDX 75 45 31 47 63 48 43 49 62 50 44 51 47 52 61 53 80 54 45 55
REMARK SMILES IDX 46 56 60 58 81 59 48 60 32 61 33 62 41 63 34 64 36 65 42 66
REMARK SMILES IDX 35 67 37 68 38 69 39 70 40 71 64 72 65 73 73 74 66 75 68 76
REMARK SMILES IDX 74 77 67 78 69 79 70 80 71 81 72 82 49 83 50 84 58 85 51 86
REMARK SMILES IDX 53 87 59 88 52 89 54 90 55 91 56 92 57 93
REMARK H PARENT 6 11 6 12 79 46 47 57
REMARK Flexibility Score: inf
ROOT
ATOM      1  C   UNL A   1      38.606  22.079  26.001  1.00  0.00     0.188 C 
ENDROOT
BRANCH   1   2
ATOM      2  O   UNL A   1      38.110  21.059  25.144  1.00  0.00    -0.376 OA
BRANCH   2   3
ATOM      3  C   UNL A   1      36.692  20.942  25.028  1.00  0.00     0.202 C 
BRANCH   3   4
ATOM      4  C   UNL A   1      35.969  22.071  24.284  1.00  0.00     0.261 C 
BRANCH   4   5
ATOM      5  O   UNL A   1      34.920  22.702  25.052  1.00  0.00    -0.458 OA
BRANCH   5   6
ATOM      6  C   UNL A   1      33.644  22.399  24.676  1.00  0.00     0.377 C 
ATOM      7  O   UNL A   1      33.248  21.256  24.464  1.00  0.00    -0.244 OA
BRANCH   6   8
ATOM      8  C   UNL A   1      32.763  23.632  24.412  1.00  0.00     0.287 C 
ATOM      9  C   UNL A   1      31.257  23.347  24.537  1.00  0.00     0.103 C 
BRANCH   8  10
ATOM     10  N   UNL A   1      33.236  24.632  25.437  1.00  0.00    -0.325 N 
ATOM     11  H   UNL A   1      33.830  24.137  26.102  1.00  0.00     0.347 HD
ATOM     12  H   UNL A   1      33.716  25.360  24.908  1.00  0.00     0.347 HD
BRANCH  10  13
ATOM     13  C   UNL A   1      32.199  25.315  26.190  1.00  0.00     0.261 C 
BRANCH  13  14
ATOM     14  C   UNL A   1      32.360  26.834  26.051  1.00  0.00     0.061 C 
BRANCH  14  15
ATOM     15  C   UNL A   1      33.000  27.305  24.738  1.00  0.00     0.006 C 
BRANCH  15  16
ATOM     16  C   UNL A   1      32.981  28.818  24.506  1.00  0.00    -0.003 C 
ATOM     17  C   UNL A   1      31.745  29.501  25.069  1.00  0.00     0.004 C 
ENDBRANCH  15  16
ENDBRANCH  14  15
ENDBRANCH  13  14
ENDBRANCH  10  13
ENDBRANCH   8  10
BRANCH   8  18
ATOM     18  C   UNL A   1      33.061  23.987  22.931  1.00  0.00     0.455 C 
ATOM     19  F   UNL A   1      34.258  24.602  22.787  1.00  0.00    -0.164 F 
ATOM     20  F   UNL A   1      33.118  22.860  22.172  1.00  0.00    -0.164 F 
ATOM     21  F   UNL A   1      32.112  24.769  22.376  1.00  0.00    -0.164 F 
ENDBRANCH   8  18
ENDBRANCH   6   8
ENDBRANCH   5   6
ENDBRANCH   4   5
ENDBRANCH   3   4
ENDBRANCH   2   3
ENDBRANCH   1   2
BRANCH   1  22
ATOM     22  C   UNL A   1      39.907  21.754  26.738  1.00  0.00     0.188 C 
BRANCH  22  23
ATOM     23  O   UNL A   1      40.728  20.783  26.100  1.00  0.00    -0.376 OA
BRANCH  23  24
ATOM     24  C   UNL A   1      42.135  20.880  26.338  1.00  0.00     0.202 C 
BRANCH  24  25
ATOM     25  C   UNL A   1      42.842  22.104  25.721  1.00  0.00     0.261 C 
BRANCH  25  26
ATOM     26  O   UNL A   1      43.608  22.894  26.655  1.00  0.00    -0.460 OA
BRANCH  26  27
ATOM     27  C   UNL A   1      43.056  24.047  27.102  1.00  0.00     0.338 C 
ATOM     28  O   UNL A   1      42.021  24.153  27.739  1.00  0.00    -0.246 OA
BRANCH  27  29
ATOM     29  C   UNL A   1      44.055  25.136  26.936  1.00  0.00     0.060 A 
ATOM     30  C   UNL A   1      44.719  25.602  28.081  1.00  0.00     0.016 A 
ATOM     31  C   UNL A   1      44.414  25.628  25.677  1.00  0.00     0.016 A 
ATOM     32  C   UNL A   1      45.724  26.568  27.972  1.00  0.00     0.010 A 
ATOM     33  C   UNL A   1      45.411  26.605  25.572  1.00  0.00     0.010 A 
ATOM     34  C   UNL A   1      46.059  27.097  26.718  1.00  0.00    -0.014 A 
BRANCH  34  35
ATOM     35  C   UNL A   1      46.976  28.260  26.606  1.00  0.00     0.031 A 
ATOM     36  C   UNL A   1      46.390  29.646  26.638  1.00  0.00     0.074 A 
ATOM     37  C   UNL A   1      48.303  28.105  26.442  1.00  0.00     0.049 A 
ATOM     38  N   UNL A   1      46.983  30.802  26.483  1.00  0.00    -0.248 NA
ATOM     39  C   UNL A   1      44.941  29.739  26.879  1.00  0.00     0.031 C 
ATOM     40  C   UNL A   1      49.010  26.827  26.407  1.00  0.00     0.029 A 
ATOM     41  N   UNL A   1      49.288  29.043  26.240  1.00  0.00    -0.354 N 
ATOM     42  C   UNL A   1      45.980  31.757  26.582  1.00  0.00     0.074 A 
ATOM     43  C   UNL A   1      44.739  31.046  26.806  1.00  0.00     0.031 C 
ATOM     44  C   UNL A   1      50.312  27.059  26.158  1.00  0.00     0.029 A 
ATOM     45  C   UNL A   1      50.526  28.496  25.988  1.00  0.00     0.049 A 
ATOM     46  H   UNL A   1      49.125  30.012  26.274  1.00  0.00     0.167 HD
ATOM     47  C   UNL A   1      46.079  33.105  26.508  1.00  0.00     0.034 A 
ATOM     48  C   UNL A   1      51.687  29.083  25.631  1.00  0.00     0.034 A 
ATOM     49  C   UNL A   1      47.305  33.823  26.294  1.00  0.00     0.049 A 
ATOM     50  C   UNL A   1      51.757  30.585  25.489  1.00  0.00     0.074 A 
ATOM     51  C   UNL A   1      47.501  35.193  26.253  1.00  0.00     0.029 A 
ATOM     52  N   UNL A   1      48.539  33.238  26.062  1.00  0.00    -0.354 N 
ATOM     53  N   UNL A   1      50.829  31.483  25.714  1.00  0.00    -0.248 NA
ATOM     54  C   UNL A   1      53.046  31.154  25.062  1.00  0.00     0.031 C 
ATOM     55  C   UNL A   1      48.848  35.436  25.965  1.00  0.00     0.029 A 
ATOM     56  C   UNL A   1      49.496  34.217  25.852  1.00  0.00     0.049 A 
ATOM     57  H   UNL A   1      48.709  32.268  26.048  1.00  0.00     0.167 HD
ATOM     58  C   UNL A   1      51.428  32.719  25.483  1.00  0.00     0.074 A 
ATOM     59  C   UNL A   1      52.805  32.457  25.126  1.00  0.00     0.031 C 
ATOM     60  C   UNL A   1      50.879  33.958  25.544  1.00  0.00     0.034 A 
BRANCH  47  61
ATOM     61  C   UNL A   1      44.815  33.902  26.683  1.00  0.00     0.023 A 
ATOM     62  C   UNL A   1      44.183  34.457  25.552  1.00  0.00     0.012 A 
ATOM     63  C   UNL A   1      44.228  34.054  27.953  1.00  0.00     0.148 A 
ATOM     64  C   UNL A   1      42.996  35.175  25.687  1.00  0.00     0.002 A 
ATOM     65  C   UNL A   1      43.023  34.736  28.074  1.00  0.00     0.091 A 
ATOM     66  F   UNL A   1      44.861  33.540  29.017  1.00  0.00    -0.205 F 
ATOM     67  C   UNL A   1      42.410  35.304  26.945  1.00  0.00     0.022 A 
BRANCH  65  68
ATOM     68  S   UNL A   1      42.156  34.896  29.639  1.00  0.00     0.127 S 
ATOM     69  O   UNL A   1      40.888  35.487  29.213  1.00  0.00    -0.237 OA
ATOM     70  O   UNL A   1      42.062  33.505  30.083  1.00  0.00    -0.237 OA
ATOM     71  O   UNL A   1      42.993  35.744  30.476  1.00  0.00    -0.744 OA
ENDBRANCH  65  68
ENDBRANCH  47  61
BRANCH  48  72
ATOM     72  C   UNL A   1      52.901  28.252  25.382  1.00  0.00     0.023 A 
ATOM     73  C   UNL A   1      53.188  27.819  24.073  1.00  0.00     0.012 A 
ATOM     74  C   UNL A   1      53.758  27.876  26.434  1.00  0.00     0.148 A 
ATOM     75  C   UNL A   1      54.292  27.004  23.821  1.00  0.00     0.002 A 
ATOM     76  C   UNL A   1      54.886  27.108  26.168  1.00  0.00     0.091 A 
ATOM     77  F   UNL A   1      53.451  28.275  27.677  1.00  0.00    -0.205 F 
ATOM     78  C   UNL A   1      55.147  26.657  24.865  1.00  0.00     0.022 A 
BRANCH  76  79
ATOM     79  S   UNL A   1      56.098  26.705  27.430  1.00  0.00     0.127 S 
ATOM     80  O   UNL A   1      57.274  26.388  26.624  1.00  0.00    -0.237 OA
ATOM     81  O   UNL A   1      56.185  27.961  28.178  1.00  0.00    -0.237 OA
ATOM     82  O   UNL A   1      55.529  25.594  28.182  1.00  0.00    -0.744 OA
ENDBRANCH  76  79
ENDBRANCH  48  72
BRANCH  60  83
ATOM     83  C   UNL A   1      51.762  35.142  25.235  1.00  0.00     0.023 A 
ATOM     84  C   UNL A   1      52.067  35.452  23.894  1.00  0.00     0.012 A 
ATOM     85  C   UNL A   1      52.220  35.996  26.260  1.00  0.00     0.148 A 
ATOM     86  C   UNL A   1      52.837  36.573  23.580  1.00  0.00     0.002 A 
ATOM     87  C   UNL A   1      52.947  37.137  25.936  1.00  0.00     0.091 A 
ATOM     88  F   UNL A   1      51.932  35.680  27.531  1.00  0.00    -0.205 F 
ATOM     89  C   UNL A   1      53.265  37.420  24.598  1.00  0.00     0.022 A 
BRANCH  87  90
ATOM     90  S   UNL A   1      53.464  38.337  27.170  1.00  0.00     0.127 S 
ATOM     91  O   UNL A   1      54.608  37.663  27.781  1.00  0.00    -0.237 OA
ATOM     92  O   UNL A   1      53.809  39.499  26.349  1.00  0.00    -0.237 OA
ATOM     93  O   UNL A   1      52.316  38.535  28.044  1.00  0.00    -0.744 OA
ENDBRANCH  87  90
ENDBRANCH  60  83
ENDBRANCH  34  35
ENDBRANCH  27  29
ENDBRANCH  26  27
ENDBRANCH  25  26
ENDBRANCH  24  25
ENDBRANCH  23  24
ENDBRANCH  22  23
ENDBRANCH   1  22
TORSDOF 26
ENDMDL
