MODEL 1
REMARK VINA RESULT:     -10.5      0.000      0.000
REMARK SMILES O=C(Cc1ccccc1Nc1c(Cl)cccc1Cl)OCCOCCOCCOC(=O)c1ccc(-c2c3nc(c(-c4cccc(S(=O)(=O)[O-])c4F)c4ccc([nH]4)c(-c4cccc(S(=O)(=O)[O-])c4F)c4nc(c(-c5cccc(S(=O)(=O)[O-])c5F)c5ccc2[nH]5)C=C4)C=C3)cc1
REMARK SMILES IDX 23 1 22 2 21 3 20 4 19 5 2 6 1 7 3 8 4 9 5 10 9 11 6 12 8 13
REMARK SMILES IDX 7 14 10 15 11 17 12 18 17 19 13 20 14 21 16 22 18 23 15 24
REMARK SMILES IDX 24 25 25 26 26 27 27 28 28 29 29 30 30 31 31 32 32 33 93 34
REMARK SMILES IDX 33 35 92 36 34 37 35 38 36 39 86 40 37 41 91 42 85 43 87 44
REMARK SMILES IDX 38 45 90 46 84 47 83 48 39 50 71 51 51 52 70 53 52 54 55 55
REMARK SMILES IDX 69 56 88 57 53 58 54 59 68 61 89 62 56 63 40 64 41 65 49 66
REMARK SMILES IDX 42 67 44 68 50 69 43 70 45 71 46 72 47 73 48 74 72 75 73 76
REMARK SMILES IDX 81 77 74 78 76 79 82 80 75 81 77 82 78 83 79 84 80 85 57 86
REMARK SMILES IDX 58 87 66 88 59 89 61 90 67 91 60 92 62 93 63 94 64 95 65 96
REMARK H PARENT 10 16 87 49 55 60
REMARK Flexibility Score: inf
ROOT
ATOM      1  C   UNL A   1      31.723  26.028  26.528  1.00  0.00     0.188 C 
ENDROOT
BRANCH   1   2
ATOM      2  O   UNL A   1      32.061  24.680  26.268  1.00  0.00    -0.376 OA
BRANCH   2   3
ATOM      3  C   UNL A   1      31.277  23.735  26.971  1.00  0.00     0.202 C 
BRANCH   3   4
ATOM      4  C   UNL A   1      30.572  22.752  26.055  1.00  0.00     0.261 C 
BRANCH   4   5
ATOM      5  O   UNL A   1      31.385  21.932  25.158  1.00  0.00    -0.463 OA
BRANCH   5   6
ATOM      6  C   UNL A   1      32.320  20.975  25.336  1.00  0.00     0.310 C 
ATOM      7  O   UNL A   1      32.109  19.851  24.880  1.00  0.00    -0.252 OA
BRANCH   6   8
ATOM      8  C   UNL A   1      33.578  21.250  26.099  1.00  0.00     0.160 C 
BRANCH   8   9
ATOM      9  C   UNL A   1      34.836  21.596  25.345  1.00  0.00    -0.013 A 
ATOM     10  C   UNL A   1      35.902  20.680  25.498  1.00  0.00     0.006 A 
ATOM     11  C   UNL A   1      34.971  22.703  24.474  1.00  0.00     0.042 A 
ATOM     12  C   UNL A   1      37.102  20.861  24.828  1.00  0.00     0.000 A 
ATOM     13  C   UNL A   1      36.183  22.844  23.786  1.00  0.00     0.026 A 
ATOM     14  C   UNL A   1      37.241  21.942  23.969  1.00  0.00     0.002 A 
BRANCH  11  15
ATOM     15  N   UNL A   1      33.929  23.651  24.332  1.00  0.00    -0.353 N 
ATOM     16  H   UNL A   1      33.378  23.759  25.142  1.00  0.00     0.167 HD
BRANCH  15  17
ATOM     17  C   UNL A   1      33.524  24.472  23.255  1.00  0.00     0.076 A 
ATOM     18  C   UNL A   1      33.706  25.875  23.333  1.00  0.00     0.066 A 
ATOM     19  C   UNL A   1      32.935  23.965  22.087  1.00  0.00     0.066 A 
ATOM     20  Cl  UNL A   1      34.373  26.642  24.731  1.00  0.00    -0.082 Cl
ATOM     21  C   UNL A   1      33.337  26.726  22.291  1.00  0.00     0.023 A 
ATOM     22  C   UNL A   1      32.550  24.823  21.049  1.00  0.00     0.023 A 
ATOM     23  Cl  UNL A   1      32.530  22.291  21.913  1.00  0.00    -0.082 Cl
ATOM     24  C   UNL A   1      32.758  26.199  21.146  1.00  0.00     0.003 A 
ENDBRANCH  15  17
ENDBRANCH  11  15
ENDBRANCH   8   9
ENDBRANCH   6   8
ENDBRANCH   5   6
ENDBRANCH   4   5
ENDBRANCH   3   4
ENDBRANCH   2   3
ENDBRANCH   1   2
BRANCH   1  25
ATOM     25  C   UNL A   1      30.470  26.560  25.799  1.00  0.00     0.188 C 
BRANCH  25  26
ATOM     26  O   UNL A   1      30.588  27.584  24.821  1.00  0.00    -0.376 OA
BRANCH  26  27
ATOM     27  C   UNL A   1      31.671  28.498  24.893  1.00  0.00     0.202 C 
BRANCH  27  28
ATOM     28  C   UNL A   1      31.548  29.746  25.786  1.00  0.00     0.261 C 
BRANCH  28  29
ATOM     29  O   UNL A   1      32.461  29.801  26.898  1.00  0.00    -0.460 OA
BRANCH  29  30
ATOM     30  C   UNL A   1      33.038  31.010  27.143  1.00  0.00     0.338 C 
ATOM     31  O   UNL A   1      32.484  32.087  27.177  1.00  0.00    -0.246 OA
BRANCH  30  32
ATOM     32  C   UNL A   1      34.441  30.809  27.598  1.00  0.00     0.060 A 
ATOM     33  C   UNL A   1      34.914  29.491  27.735  1.00  0.00     0.016 A 
ATOM     34  C   UNL A   1      35.292  31.886  27.850  1.00  0.00     0.016 A 
ATOM     35  C   UNL A   1      36.220  29.247  28.168  1.00  0.00     0.010 A 
ATOM     36  C   UNL A   1      36.587  31.640  28.322  1.00  0.00     0.010 A 
ATOM     37  C   UNL A   1      37.041  30.322  28.527  1.00  0.00    -0.014 A 
BRANCH  37  38
ATOM     38  C   UNL A   1      38.228  30.088  29.390  1.00  0.00     0.031 A 
ATOM     39  C   UNL A   1      39.269  29.127  28.878  1.00  0.00     0.074 A 
ATOM     40  C   UNL A   1      38.386  30.670  30.592  1.00  0.00     0.049 A 
ATOM     41  N   UNL A   1      40.338  28.662  29.469  1.00  0.00    -0.248 NA
ATOM     42  C   UNL A   1      39.066  28.614  27.512  1.00  0.00     0.031 C 
ATOM     43  C   UNL A   1      37.476  31.640  31.194  1.00  0.00     0.029 A 
ATOM     44  N   UNL A   1      39.367  30.494  31.537  1.00  0.00    -0.354 N 
ATOM     45  C   UNL A   1      40.907  27.770  28.567  1.00  0.00     0.074 A 
ATOM     46  C   UNL A   1      40.065  27.756  27.391  1.00  0.00     0.031 C 
ATOM     47  C   UNL A   1      37.918  31.942  32.428  1.00  0.00     0.029 A 
ATOM     48  C   UNL A   1      39.125  31.164  32.714  1.00  0.00     0.049 A 
ATOM     49  H   UNL A   1      40.169  29.942  31.388  1.00  0.00     0.167 HD
ATOM     50  C   UNL A   1      42.033  27.031  28.697  1.00  0.00     0.034 A 
ATOM     51  C   UNL A   1      39.781  31.125  33.893  1.00  0.00     0.034 A 
ATOM     52  C   UNL A   1      42.877  27.050  29.857  1.00  0.00     0.049 A 
ATOM     53  C   UNL A   1      41.014  30.265  34.032  1.00  0.00     0.074 A 
ATOM     54  C   UNL A   1      44.061  26.367  30.069  1.00  0.00     0.029 A 
ATOM     55  N   UNL A   1      42.619  27.773  31.011  1.00  0.00    -0.354 N 
ATOM     56  N   UNL A   1      41.596  29.501  33.138  1.00  0.00    -0.248 NA
ATOM     57  C   UNL A   1      41.698  30.283  35.335  1.00  0.00     0.031 C 
ATOM     58  C   UNL A   1      44.498  26.647  31.367  1.00  0.00     0.029 A 
ATOM     59  C   UNL A   1      43.613  27.542  31.945  1.00  0.00     0.049 A 
ATOM     60  H   UNL A   1      41.843  28.363  31.145  1.00  0.00     0.167 HD
ATOM     61  C   UNL A   1      42.735  28.987  33.753  1.00  0.00     0.074 A 
ATOM     62  C   UNL A   1      42.766  29.533  35.094  1.00  0.00     0.031 C 
ATOM     63  C   UNL A   1      43.666  28.136  33.256  1.00  0.00     0.034 A 
BRANCH  50  64
ATOM     64  C   UNL A   1      42.410  26.137  27.545  1.00  0.00     0.023 A 
ATOM     65  C   UNL A   1      43.253  26.621  26.524  1.00  0.00     0.012 A 
ATOM     66  C   UNL A   1      41.952  24.807  27.492  1.00  0.00     0.148 A 
ATOM     67  C   UNL A   1      43.598  25.808  25.445  1.00  0.00     0.002 A 
ATOM     68  C   UNL A   1      42.342  23.987  26.441  1.00  0.00     0.091 A 
ATOM     69  F   UNL A   1      41.130  24.374  28.458  1.00  0.00    -0.205 F 
ATOM     70  C   UNL A   1      43.152  24.490  25.410  1.00  0.00     0.022 A 
BRANCH  68  71
ATOM     71  S   UNL A   1      41.888  22.252  26.349  1.00  0.00     0.127 S 
ATOM     72  O   UNL A   1      40.435  22.335  26.205  1.00  0.00    -0.237 OA
ATOM     73  O   UNL A   1      42.596  21.814  25.146  1.00  0.00    -0.237 OA
ATOM     74  O   UNL A   1      42.360  21.647  27.585  1.00  0.00    -0.744 OA
ENDBRANCH  68  71
ENDBRANCH  50  64
BRANCH  51  75
ATOM     75  C   UNL A   1      39.296  31.941  35.046  1.00  0.00     0.023 A 
ATOM     76  C   UNL A   1      38.362  31.390  35.946  1.00  0.00     0.012 A 
ATOM     77  C   UNL A   1      39.757  33.254  35.254  1.00  0.00     0.148 A 
ATOM     78  C   UNL A   1      37.874  32.144  37.014  1.00  0.00     0.002 A 
ATOM     79  C   UNL A   1      39.310  33.980  36.353  1.00  0.00     0.091 A 
ATOM     80  F   UNL A   1      40.631  33.768  34.377  1.00  0.00    -0.205 F 
ATOM     81  C   UNL A   1      38.355  33.434  37.225  1.00  0.00     0.022 A 
BRANCH  79  82
ATOM     82  S   UNL A   1      39.966  35.598  36.775  1.00  0.00     0.127 S 
ATOM     83  O   UNL A   1      41.405  35.351  36.767  1.00  0.00    -0.237 OA
ATOM     84  O   UNL A   1      39.474  36.418  35.668  1.00  0.00    -0.237 OA
ATOM     85  O   UNL A   1      39.392  35.932  38.073  1.00  0.00    -0.744 OA
ENDBRANCH  79  82
ENDBRANCH  51  75
BRANCH  63  86
ATOM     86  C   UNL A   1      44.843  27.778  34.129  1.00  0.00     0.023 A 
ATOM     87  C   UNL A   1      46.004  28.574  34.119  1.00  0.00     0.012 A 
ATOM     88  C   UNL A   1      44.753  26.700  35.034  1.00  0.00     0.148 A 
ATOM     89  C   UNL A   1      47.070  28.284  34.973  1.00  0.00     0.002 A 
ATOM     90  C   UNL A   1      45.796  26.450  35.917  1.00  0.00     0.091 A 
ATOM     91  F   UNL A   1      43.645  25.945  35.020  1.00  0.00    -0.205 F 
ATOM     92  C   UNL A   1      46.960  27.233  35.879  1.00  0.00     0.022 A 
BRANCH  90  93
ATOM     93  S   UNL A   1      45.702  25.182  37.187  1.00  0.00     0.127 S 
ATOM     94  O   UNL A   1      44.639  25.698  38.046  1.00  0.00    -0.237 OA
ATOM     95  O   UNL A   1      45.337  23.995  36.413  1.00  0.00    -0.237 OA
ATOM     96  O   UNL A   1      47.023  25.124  37.798  1.00  0.00    -0.744 OA
ENDBRANCH  90  93
ENDBRANCH  63  86
ENDBRANCH  37  38
ENDBRANCH  30  32
ENDBRANCH  29  30
ENDBRANCH  28  29
ENDBRANCH  27  28
ENDBRANCH  26  27
ENDBRANCH  25  26
ENDBRANCH   1  25
TORSDOF 23
ENDMDL
MODEL 2
REMARK VINA RESULT:     -10.2      4.734      7.750
REMARK SMILES O=C(Cc1ccccc1Nc1c(Cl)cccc1Cl)OCCOCCOCCOC(=O)c1ccc(-c2c3nc(c(-c4cccc(S(=O)(=O)[O-])c4F)c4ccc([nH]4)c(-c4cccc(S(=O)(=O)[O-])c4F)c4nc(c(-c5cccc(S(=O)(=O)[O-])c5F)c5ccc2[nH]5)C=C4)C=C3)cc1
REMARK SMILES IDX 23 1 22 2 21 3 20 4 19 5 2 6 1 7 3 8 4 9 5 10 9 11 6 12 8 13
REMARK SMILES IDX 7 14 10 15 11 17 12 18 17 19 13 20 14 21 16 22 18 23 15 24
REMARK SMILES IDX 24 25 25 26 26 27 27 28 28 29 29 30 30 31 31 32 32 33 93 34
REMARK SMILES IDX 33 35 92 36 34 37 35 38 36 39 86 40 37 41 91 42 85 43 87 44
REMARK SMILES IDX 38 45 90 46 84 47 83 48 39 50 71 51 51 52 70 53 52 54 55 55
REMARK SMILES IDX 69 56 88 57 53 58 54 59 68 61 89 62 56 63 40 64 41 65 49 66
REMARK SMILES IDX 42 67 44 68 50 69 43 70 45 71 46 72 47 73 48 74 72 75 73 76
REMARK SMILES IDX 81 77 74 78 76 79 82 80 75 81 77 82 78 83 79 84 80 85 57 86
REMARK SMILES IDX 58 87 66 88 59 89 61 90 67 91 60 92 62 93 63 94 64 95 65 96
REMARK H PARENT 10 16 87 49 55 60
REMARK Flexibility Score: inf
ROOT
ATOM      1  C   UNL A   1      33.488  20.136  25.354  1.00  0.00     0.188 C 
ENDROOT
BRANCH   1   2
ATOM      2  O   UNL A   1      32.246  20.812  25.372  1.00  0.00    -0.376 OA
BRANCH   2   3
ATOM      3  C   UNL A   1      32.299  22.145  24.899  1.00  0.00     0.202 C 
BRANCH   3   4
ATOM      4  C   UNL A   1      31.281  23.051  25.567  1.00  0.00     0.261 C 
BRANCH   4   5
ATOM      5  O   UNL A   1      31.706  24.387  25.981  1.00  0.00    -0.463 OA
BRANCH   5   6
ATOM      6  C   UNL A   1      31.214  25.633  25.811  1.00  0.00     0.310 C 
ATOM      7  O   UNL A   1      30.112  25.902  26.291  1.00  0.00    -0.252 OA
BRANCH   6   8
ATOM      8  C   UNL A   1      31.964  26.666  25.031  1.00  0.00     0.160 C 
BRANCH   8   9
ATOM      9  C   UNL A   1      32.325  27.971  25.692  1.00  0.00    -0.013 A 
ATOM     10  C   UNL A   1      32.996  27.854  26.930  1.00  0.00     0.006 A 
ATOM     11  C   UNL A   1      32.099  29.247  25.124  1.00  0.00     0.042 A 
ATOM     12  C   UNL A   1      33.418  28.978  27.624  1.00  0.00     0.000 A 
ATOM     13  C   UNL A   1      32.564  30.364  25.833  1.00  0.00     0.026 A 
ATOM     14  C   UNL A   1      33.203  30.233  27.073  1.00  0.00     0.002 A 
BRANCH  11  15
ATOM     15  N   UNL A   1      31.400  29.389  23.902  1.00  0.00    -0.353 N 
ATOM     16  H   UNL A   1      31.985  29.401  23.109  1.00  0.00     0.167 HD
BRANCH  15  17
ATOM     17  C   UNL A   1      30.025  29.519  23.597  1.00  0.00     0.076 A 
ATOM     18  C   UNL A   1      29.355  30.735  23.877  1.00  0.00     0.066 A 
ATOM     19  C   UNL A   1      29.269  28.485  23.024  1.00  0.00     0.066 A 
ATOM     20  Cl  UNL A   1      30.148  32.075  24.626  1.00  0.00    -0.082 Cl
ATOM     21  C   UNL A   1      28.004  30.917  23.581  1.00  0.00     0.023 A 
ATOM     22  C   UNL A   1      27.909  28.665  22.743  1.00  0.00     0.023 A 
ATOM     23  Cl  UNL A   1      29.925  26.906  22.756  1.00  0.00    -0.082 Cl
ATOM     24  C   UNL A   1      27.279  29.880  23.011  1.00  0.00     0.003 A 
ENDBRANCH  15  17
ENDBRANCH  11  15
ENDBRANCH   8   9
ENDBRANCH   6   8
ENDBRANCH   5   6
ENDBRANCH   4   5
ENDBRANCH   3   4
ENDBRANCH   2   3
ENDBRANCH   1   2
BRANCH   1  25
ATOM     25  C   UNL A   1      34.741  21.026  25.499  1.00  0.00     0.188 C 
BRANCH  25  26
ATOM     26  O   UNL A   1      35.850  20.853  24.628  1.00  0.00    -0.376 OA
BRANCH  26  27
ATOM     27  C   UNL A   1      36.604  19.652  24.687  1.00  0.00     0.202 C 
BRANCH  27  28
ATOM     28  C   UNL A   1      38.084  19.709  25.104  1.00  0.00     0.261 C 
BRANCH  28  29
ATOM     29  O   UNL A   1      38.526  20.969  25.642  1.00  0.00    -0.460 OA
BRANCH  29  30
ATOM     30  C   UNL A   1      39.763  20.979  26.213  1.00  0.00     0.338 C 
ATOM     31  O   UNL A   1      40.611  20.119  26.124  1.00  0.00    -0.246 OA
BRANCH  30  32
ATOM     32  C   UNL A   1      40.032  22.323  26.793  1.00  0.00     0.060 A 
ATOM     33  C   UNL A   1      39.183  23.386  26.433  1.00  0.00     0.016 A 
ATOM     34  C   UNL A   1      41.069  22.535  27.702  1.00  0.00     0.016 A 
ATOM     35  C   UNL A   1      39.397  24.670  26.942  1.00  0.00     0.010 A 
ATOM     36  C   UNL A   1      41.308  23.829  28.180  1.00  0.00     0.010 A 
ATOM     37  C   UNL A   1      40.503  24.909  27.767  1.00  0.00    -0.014 A 
BRANCH  37  38
ATOM     38  C   UNL A   1      41.000  26.298  27.948  1.00  0.00     0.031 A 
ATOM     39  C   UNL A   1      42.375  26.609  27.417  1.00  0.00     0.074 A 
ATOM     40  C   UNL A   1      40.292  27.253  28.576  1.00  0.00     0.049 A 
ATOM     41  N   UNL A   1      43.089  27.697  27.536  1.00  0.00    -0.248 NA
ATOM     42  C   UNL A   1      43.037  25.535  26.656  1.00  0.00     0.031 C 
ATOM     43  C   UNL A   1      38.941  27.100  29.109  1.00  0.00     0.029 A 
ATOM     44  N   UNL A   1      40.639  28.543  28.899  1.00  0.00    -0.354 N 
ATOM     45  C   UNL A   1      44.298  27.423  26.906  1.00  0.00     0.074 A 
ATOM     46  C   UNL A   1      44.223  26.066  26.410  1.00  0.00     0.031 C 
ATOM     47  C   UNL A   1      38.589  28.239  29.733  1.00  0.00     0.029 A 
ATOM     48  C   UNL A   1      39.701  29.190  29.670  1.00  0.00     0.049 A 
ATOM     49  H   UNL A   1      41.479  28.966  28.607  1.00  0.00     0.167 HD
ATOM     50  C   UNL A   1      45.375  28.225  26.745  1.00  0.00     0.034 A 
ATOM     51  C   UNL A   1      39.750  30.392  30.281  1.00  0.00     0.034 A 
ATOM     52  C   UNL A   1      45.450  29.576  27.227  1.00  0.00     0.049 A 
ATOM     53  C   UNL A   1      40.976  31.259  30.122  1.00  0.00     0.074 A 
ATOM     54  C   UNL A   1      46.483  30.483  27.079  1.00  0.00     0.029 A 
ATOM     55  N   UNL A   1      44.462  30.207  27.966  1.00  0.00    -0.354 N 
ATOM     56  N   UNL A   1      42.073  31.026  29.442  1.00  0.00    -0.248 NA
ATOM     57  C   UNL A   1      40.959  32.570  30.792  1.00  0.00     0.031 C 
ATOM     58  C   UNL A   1      46.135  31.652  27.764  1.00  0.00     0.029 A 
ATOM     59  C   UNL A   1      44.866  31.488  28.295  1.00  0.00     0.049 A 
ATOM     60  H   UNL A   1      43.601  29.803  28.218  1.00  0.00     0.167 HD
ATOM     61  C   UNL A   1      42.854  32.173  29.564  1.00  0.00     0.074 A 
ATOM     62  C   UNL A   1      42.100  33.104  30.377  1.00  0.00     0.031 C 
ATOM     63  C   UNL A   1      44.084  32.429  29.056  1.00  0.00     0.034 A 
BRANCH  50  64
ATOM     64  C   UNL A   1      46.562  27.654  26.016  1.00  0.00     0.023 A 
ATOM     65  C   UNL A   1      46.691  27.838  24.625  1.00  0.00     0.012 A 
ATOM     66  C   UNL A   1      47.565  26.957  26.717  1.00  0.00     0.148 A 
ATOM     67  C   UNL A   1      47.778  27.302  23.936  1.00  0.00     0.002 A 
ATOM     68  C   UNL A   1      48.670  26.469  26.032  1.00  0.00     0.091 A 
ATOM     69  F   UNL A   1      47.410  26.768  28.035  1.00  0.00    -0.205 F 
ATOM     70  C   UNL A   1      48.771  26.628  24.641  1.00  0.00     0.022 A 
BRANCH  68  71
ATOM     71  S   UNL A   1      50.042  25.661  26.863  1.00  0.00     0.127 S 
ATOM     72  O   UNL A   1      50.971  25.445  25.754  1.00  0.00    -0.237 OA
ATOM     73  O   UNL A   1      50.464  26.682  27.822  1.00  0.00    -0.237 OA
ATOM     74  O   UNL A   1      49.494  24.453  27.462  1.00  0.00    -0.744 OA
ENDBRANCH  68  71
ENDBRANCH  50  64
BRANCH  51  75
ATOM     75  C   UNL A   1      38.591  30.866  31.094  1.00  0.00     0.023 A 
ATOM     76  C   UNL A   1      38.582  30.652  32.487  1.00  0.00     0.012 A 
ATOM     77  C   UNL A   1      37.502  31.527  30.495  1.00  0.00     0.148 A 
ATOM     78  C   UNL A   1      37.497  31.061  33.262  1.00  0.00     0.002 A 
ATOM     79  C   UNL A   1      36.450  31.982  31.281  1.00  0.00     0.091 A 
ATOM     80  F   UNL A   1      37.519  31.705  29.167  1.00  0.00    -0.205 F 
ATOM     81  C   UNL A   1      36.436  31.735  32.663  1.00  0.00     0.022 A 
BRANCH  79  82
ATOM     82  S   UNL A   1      35.102  32.969  30.618  1.00  0.00     0.127 S 
ATOM     83  O   UNL A   1      34.579  32.097  29.571  1.00  0.00    -0.237 OA
ATOM     84  O   UNL A   1      34.237  33.117  31.789  1.00  0.00    -0.237 OA
ATOM     85  O   UNL A   1      35.711  34.211  30.159  1.00  0.00    -0.744 OA
ENDBRANCH  79  82
ENDBRANCH  51  75
BRANCH  63  86
ATOM     86  C   UNL A   1      44.686  33.791  29.298  1.00  0.00     0.023 A 
ATOM     87  C   UNL A   1      45.470  34.029  30.443  1.00  0.00     0.012 A 
ATOM     88  C   UNL A   1      44.550  34.809  28.331  1.00  0.00     0.148 A 
ATOM     89  C   UNL A   1      46.082  35.268  30.638  1.00  0.00     0.002 A 
ATOM     90  C   UNL A   1      45.205  36.022  28.507  1.00  0.00     0.091 A 
ATOM     91  F   UNL A   1      43.788  34.569  27.254  1.00  0.00    -0.205 F 
ATOM     92  C   UNL A   1      45.961  36.257  29.666  1.00  0.00     0.022 A 
BRANCH  90  93
ATOM     93  S   UNL A   1      45.189  37.316  27.261  1.00  0.00     0.127 S 
ATOM     94  O   UNL A   1      45.781  38.437  27.988  1.00  0.00    -0.237 OA
ATOM     95  O   UNL A   1      46.043  36.750  26.215  1.00  0.00    -0.237 OA
ATOM     96  O   UNL A   1      43.795  37.489  26.876  1.00  0.00    -0.744 OA
ENDBRANCH  90  93
ENDBRANCH  63  86
ENDBRANCH  37  38
ENDBRANCH  30  32
ENDBRANCH  29  30
ENDBRANCH  28  29
ENDBRANCH  27  28
ENDBRANCH  26  27
ENDBRANCH  25  26
ENDBRANCH   1  25
TORSDOF 23
ENDMDL
MODEL 3
REMARK VINA RESULT:     -10.2      4.452      9.503
REMARK SMILES O=C(Cc1ccccc1Nc1c(Cl)cccc1Cl)OCCOCCOCCOC(=O)c1ccc(-c2c3nc(c(-c4cccc(S(=O)(=O)[O-])c4F)c4ccc([nH]4)c(-c4cccc(S(=O)(=O)[O-])c4F)c4nc(c(-c5cccc(S(=O)(=O)[O-])c5F)c5ccc2[nH]5)C=C4)C=C3)cc1
REMARK SMILES IDX 23 1 22 2 21 3 20 4 19 5 2 6 1 7 3 8 4 9 5 10 9 11 6 12 8 13
REMARK SMILES IDX 7 14 10 15 11 17 12 18 17 19 13 20 14 21 16 22 18 23 15 24
REMARK SMILES IDX 24 25 25 26 26 27 27 28 28 29 29 30 30 31 31 32 32 33 93 34
REMARK SMILES IDX 33 35 92 36 34 37 35 38 36 39 86 40 37 41 91 42 85 43 87 44
REMARK SMILES IDX 38 45 90 46 84 47 83 48 39 50 71 51 51 52 70 53 52 54 55 55
REMARK SMILES IDX 69 56 88 57 53 58 54 59 68 61 89 62 56 63 40 64 41 65 49 66
REMARK SMILES IDX 42 67 44 68 50 69 43 70 45 71 46 72 47 73 48 74 72 75 73 76
REMARK SMILES IDX 81 77 74 78 76 79 82 80 75 81 77 82 78 83 79 84 80 85 57 86
REMARK SMILES IDX 58 87 66 88 59 89 61 90 67 91 60 92 62 93 63 94 64 95 65 96
REMARK H PARENT 10 16 87 49 55 60
REMARK Flexibility Score: inf
ROOT
ATOM      1  C   UNL A   1      32.867  19.996  25.208  1.00  0.00     0.188 C 
ENDROOT
BRANCH   1   2
ATOM      2  O   UNL A   1      31.707  20.798  25.102  1.00  0.00    -0.376 OA
BRANCH   2   3
ATOM      3  C   UNL A   1      31.848  21.919  24.250  1.00  0.00     0.202 C 
BRANCH   3   4
ATOM      4  C   UNL A   1      31.019  23.110  24.697  1.00  0.00     0.261 C 
BRANCH   4   5
ATOM      5  O   UNL A   1      31.462  23.864  25.870  1.00  0.00    -0.463 OA
BRANCH   5   6
ATOM      6  C   UNL A   1      31.322  25.142  26.282  1.00  0.00     0.310 C 
ATOM      7  O   UNL A   1      30.195  25.639  26.288  1.00  0.00    -0.252 OA
BRANCH   6   8
ATOM      8  C   UNL A   1      32.505  25.960  26.695  1.00  0.00     0.160 C 
BRANCH   8   9
ATOM      9  C   UNL A   1      32.484  27.451  26.473  1.00  0.00    -0.013 A 
ATOM     10  C   UNL A   1      31.757  28.192  27.431  1.00  0.00     0.006 A 
ATOM     11  C   UNL A   1      33.185  28.117  25.441  1.00  0.00     0.042 A 
ATOM     12  C   UNL A   1      31.691  29.576  27.364  1.00  0.00     0.000 A 
ATOM     13  C   UNL A   1      33.127  29.517  25.416  1.00  0.00     0.026 A 
ATOM     14  C   UNL A   1      32.379  30.238  26.357  1.00  0.00     0.002 A 
BRANCH  11  15
ATOM     15  N   UNL A   1      33.892  27.392  24.451  1.00  0.00    -0.353 N 
ATOM     16  H   UNL A   1      34.864  27.548  24.464  1.00  0.00     0.167 HD
BRANCH  15  17
ATOM     17  C   UNL A   1      33.473  26.488  23.448  1.00  0.00     0.076 A 
ATOM     18  C   UNL A   1      32.530  26.905  22.476  1.00  0.00     0.066 A 
ATOM     19  C   UNL A   1      33.946  25.170  23.361  1.00  0.00     0.066 A 
ATOM     20  Cl  UNL A   1      31.826  28.483  22.490  1.00  0.00    -0.082 Cl
ATOM     21  C   UNL A   1      32.097  26.055  21.457  1.00  0.00     0.023 A 
ATOM     22  C   UNL A   1      33.497  24.315  22.348  1.00  0.00     0.023 A 
ATOM     23  Cl  UNL A   1      34.994  24.489  24.558  1.00  0.00    -0.082 Cl
ATOM     24  C   UNL A   1      32.583  24.757  21.392  1.00  0.00     0.003 A 
ENDBRANCH  15  17
ENDBRANCH  11  15
ENDBRANCH   8   9
ENDBRANCH   6   8
ENDBRANCH   5   6
ENDBRANCH   4   5
ENDBRANCH   3   4
ENDBRANCH   2   3
ENDBRANCH   1   2
BRANCH   1  25
ATOM     25  C   UNL A   1      34.025  20.595  26.036  1.00  0.00     0.188 C 
BRANCH  25  26
ATOM     26  O   UNL A   1      35.262  20.915  25.416  1.00  0.00    -0.376 OA
BRANCH  26  27
ATOM     27  C   UNL A   1      36.121  19.870  24.988  1.00  0.00     0.202 C 
BRANCH  27  28
ATOM     28  C   UNL A   1      37.601  20.179  24.701  1.00  0.00     0.261 C 
BRANCH  28  29
ATOM     29  O   UNL A   1      38.163  21.266  25.459  1.00  0.00    -0.460 OA
BRANCH  29  30
ATOM     30  C   UNL A   1      39.338  21.009  26.099  1.00  0.00     0.338 C 
ATOM     31  O   UNL A   1      39.996  19.995  26.030  1.00  0.00    -0.246 OA
BRANCH  30  32
ATOM     32  C   UNL A   1      39.838  22.256  26.740  1.00  0.00     0.060 A 
ATOM     33  C   UNL A   1      39.274  23.482  26.341  1.00  0.00     0.016 A 
ATOM     34  C   UNL A   1      40.812  22.228  27.738  1.00  0.00     0.016 A 
ATOM     35  C   UNL A   1      39.715  24.683  26.904  1.00  0.00     0.010 A 
ATOM     36  C   UNL A   1      41.282  23.433  28.272  1.00  0.00     0.010 A 
ATOM     37  C   UNL A   1      40.769  24.668  27.825  1.00  0.00    -0.014 A 
BRANCH  37  38
ATOM     38  C   UNL A   1      41.536  25.912  28.088  1.00  0.00     0.031 A 
ATOM     39  C   UNL A   1      40.817  27.024  28.808  1.00  0.00     0.074 A 
ATOM     40  C   UNL A   1      42.810  26.084  27.694  1.00  0.00     0.049 A 
ATOM     41  N   UNL A   1      41.209  28.243  29.065  1.00  0.00    -0.248 NA
ATOM     42  C   UNL A   1      39.460  26.714  29.291  1.00  0.00     0.031 C 
ATOM     43  C   UNL A   1      43.635  25.085  27.019  1.00  0.00     0.029 A 
ATOM     44  N   UNL A   1      43.621  27.190  27.779  1.00  0.00    -0.354 N 
ATOM     45  C   UNL A   1      40.135  28.857  29.699  1.00  0.00     0.074 A 
ATOM     46  C   UNL A   1      39.074  27.879  29.784  1.00  0.00     0.031 C 
ATOM     47  C   UNL A   1      44.822  25.638  26.712  1.00  0.00     0.029 A 
ATOM     48  C   UNL A   1      44.830  27.038  27.140  1.00  0.00     0.049 A 
ATOM     49  H   UNL A   1      43.363  28.014  28.253  1.00  0.00     0.167 HD
ATOM     50  C   UNL A   1      40.037  30.119  30.175  1.00  0.00     0.034 A 
ATOM     51  C   UNL A   1      45.810  27.934  26.900  1.00  0.00     0.034 A 
ATOM     52  C   UNL A   1      41.092  31.090  30.102  1.00  0.00     0.049 A 
ATOM     53  C   UNL A   1      45.667  29.349  27.406  1.00  0.00     0.074 A 
ATOM     54  C   UNL A   1      41.103  32.384  30.592  1.00  0.00     0.029 A 
ATOM     55  N   UNL A   1      42.315  30.883  29.485  1.00  0.00    -0.354 N 
ATOM     56  N   UNL A   1      44.686  29.890  28.090  1.00  0.00    -0.248 NA
ATOM     57  C   UNL A   1      46.781  30.273  27.133  1.00  0.00     0.031 C 
ATOM     58  C   UNL A   1      42.320  32.972  30.236  1.00  0.00     0.029 A 
ATOM     59  C   UNL A   1      43.085  32.030  29.567  1.00  0.00     0.049 A 
ATOM     60  H   UNL A   1      42.594  30.045  29.052  1.00  0.00     0.167 HD
ATOM     61  C   UNL A   1      45.082  31.196  28.366  1.00  0.00     0.074 A 
ATOM     62  C   UNL A   1      46.397  31.363  27.784  1.00  0.00     0.031 C 
ATOM     63  C   UNL A   1      44.416  32.168  29.035  1.00  0.00     0.034 A 
BRANCH  50  64
ATOM     64  C   UNL A   1      38.735  30.517  30.818  1.00  0.00     0.023 A 
ATOM     65  C   UNL A   1      38.532  30.297  32.195  1.00  0.00     0.012 A 
ATOM     66  C   UNL A   1      37.722  31.136  30.060  1.00  0.00     0.148 A 
ATOM     67  C   UNL A   1      37.325  30.648  32.799  1.00  0.00     0.002 A 
ATOM     68  C   UNL A   1      36.543  31.529  30.679  1.00  0.00     0.091 A 
ATOM     69  F   UNL A   1      37.924  31.312  28.746  1.00  0.00    -0.205 F 
ATOM     70  C   UNL A   1      36.337  31.273  32.044  1.00  0.00     0.022 A 
BRANCH  68  71
ATOM     71  S   UNL A   1      35.245  32.416  29.811  1.00  0.00     0.127 S 
ATOM     72  O   UNL A   1      34.298  32.685  30.892  1.00  0.00    -0.237 OA
ATOM     73  O   UNL A   1      35.957  33.595  29.316  1.00  0.00    -0.237 OA
ATOM     74  O   UNL A   1      34.768  31.515  28.773  1.00  0.00    -0.744 OA
ENDBRANCH  68  71
ENDBRANCH  50  64
BRANCH  51  75
ATOM     75  C   UNL A   1      47.034  27.520  26.151  1.00  0.00     0.023 A 
ATOM     76  C   UNL A   1      48.077  26.860  26.830  1.00  0.00     0.012 A 
ATOM     77  C   UNL A   1      47.167  27.776  24.774  1.00  0.00     0.148 A 
ATOM     78  C   UNL A   1      49.242  26.490  26.156  1.00  0.00     0.002 A 
ATOM     79  C   UNL A   1      48.305  27.354  24.096  1.00  0.00     0.091 A 
ATOM     80  F   UNL A   1      46.172  28.422  24.149  1.00  0.00    -0.205 F 
ATOM     81  C   UNL A   1      49.352  26.726  24.788  1.00  0.00     0.022 A 
BRANCH  79  82
ATOM     82  S   UNL A   1      48.481  27.502  22.314  1.00  0.00     0.127 S 
ATOM     83  O   UNL A   1      47.220  28.134  21.939  1.00  0.00    -0.237 OA
ATOM     84  O   UNL A   1      49.661  28.360  22.202  1.00  0.00    -0.237 OA
ATOM     85  O   UNL A   1      48.676  26.144  21.822  1.00  0.00    -0.744 OA
ENDBRANCH  79  82
ENDBRANCH  51  75
BRANCH  63  86
ATOM     86  C   UNL A   1      45.107  33.493  29.242  1.00  0.00     0.023 A 
ATOM     87  C   UNL A   1      44.932  34.540  28.316  1.00  0.00     0.012 A 
ATOM     88  C   UNL A   1      45.858  33.727  30.413  1.00  0.00     0.148 A 
ATOM     89  C   UNL A   1      45.517  35.788  28.537  1.00  0.00     0.002 A 
ATOM     90  C   UNL A   1      46.393  34.987  30.652  1.00  0.00     0.091 A 
ATOM     91  F   UNL A   1      46.026  32.715  31.276  1.00  0.00    -0.205 F 
ATOM     92  C   UNL A   1      46.235  36.014  29.708  1.00  0.00     0.022 A 
BRANCH  90  93
ATOM     93  S   UNL A   1      47.245  35.400  32.179  1.00  0.00     0.127 S 
ATOM     94  O   UNL A   1      48.443  34.569  32.086  1.00  0.00    -0.237 OA
ATOM     95  O   UNL A   1      47.485  36.835  32.020  1.00  0.00    -0.237 OA
ATOM     96  O   UNL A   1      46.330  35.055  33.257  1.00  0.00    -0.744 OA
ENDBRANCH  90  93
ENDBRANCH  63  86
ENDBRANCH  37  38
ENDBRANCH  30  32
ENDBRANCH  29  30
ENDBRANCH  28  29
ENDBRANCH  27  28
ENDBRANCH  26  27
ENDBRANCH  25  26
ENDBRANCH   1  25
TORSDOF 23
ENDMDL
