MODEL 1
REMARK VINA RESULT:     -10.3      0.000      0.000
REMARK SMILES CSc1ccc(/C=C2\C(C)=C(CC(=O)OCCOCCOCCOC(=O)c3ccc(-c4c5nc(c(-c6cccc(S(=O)(=O)[O-])c6F)c6ccc([nH]6)c(-c6cccc(S(=O)(=O)[O-])c6F)c6nc(c(-c7cccc(S(=O)(=O)[O-])c7F)c7ccc4[nH]7)C=C6)C=C5)cc3)c3cc(F)ccc32)cc1
REMARK SMILES IDX 19 1 18 2 17 3 16 4 15 5 13 6 14 7 12 8 11 9 7 10 8 11 9 12
REMARK SMILES IDX 96 13 10 14 90 15 95 16 91 17 94 18 92 19 93 20 6 21 3 22
REMARK SMILES IDX 4 23 98 24 5 25 97 26 2 27 1 28 20 29 21 30 22 31 23 32
REMARK SMILES IDX 24 33 25 34 26 35 27 36 28 37 89 38 29 39 88 40 30 41 31 42
REMARK SMILES IDX 32 43 82 44 33 45 87 46 81 47 83 48 34 49 86 50 80 51 79 52
REMARK SMILES IDX 35 54 67 55 47 56 66 57 48 58 51 59 65 60 84 61 49 62 50 63
REMARK SMILES IDX 64 65 85 66 52 67 36 68 37 69 45 70 38 71 40 72 46 73 39 74
REMARK SMILES IDX 41 75 42 76 43 77 44 78 68 79 69 80 77 81 70 82 72 83 78 84
REMARK SMILES IDX 71 85 73 86 74 87 75 88 76 89 53 90 54 91 62 92 55 93 57 94
REMARK SMILES IDX 63 95 56 96 58 97 59 98 60 99 61 100
REMARK H PARENT 83 53 51 64
REMARK Flexibility Score: inf
ROOT
ATOM      1  C   UNL A   1      35.741  20.428  24.998  1.00  0.00     0.188 C 
ENDROOT
BRANCH   1   2
ATOM      2  O   UNL A   1      35.356  21.751  25.273  1.00  0.00    -0.376 OA
BRANCH   2   3
ATOM      3  C   UNL A   1      34.301  22.281  24.482  1.00  0.00     0.202 C 
BRANCH   3   4
ATOM      4  C   UNL A   1      34.616  23.024  23.147  1.00  0.00     0.261 C 
BRANCH   4   5
ATOM      5  O   UNL A   1      33.535  23.778  22.506  1.00  0.00    -0.463 OA
BRANCH   5   6
ATOM      6  C   UNL A   1      33.583  25.132  22.470  1.00  0.00     0.310 C 
ATOM      7  O   UNL A   1      33.521  25.775  21.423  1.00  0.00    -0.252 OA
BRANCH   6   8
ATOM      8  C   UNL A   1      33.650  25.856  23.856  1.00  0.00     0.159 C 
BRANCH   8   9
ATOM      9  C   UNL A   1      32.410  26.184  24.780  1.00  0.00    -0.025 C 
ATOM     10  C   UNL A   1      33.482  29.201  25.126  1.00  0.00     0.017 C 
ATOM     11  C   UNL A   1      32.391  28.436  24.809  1.00  0.00    -0.014 C 
ATOM     12  C   UNL A   1      32.285  27.214  25.670  1.00  0.00    -0.039 C 
ATOM     13  C   UNL A   1      31.372  28.026  23.698  1.00  0.00    -0.010 A 
ATOM     14  C   UNL A   1      31.022  27.495  26.557  1.00  0.00     0.045 C 
ATOM     15  C   UNL A   1      31.248  26.631  23.952  1.00  0.00    -0.011 A 
ATOM     16  C   UNL A   1      30.161  28.694  23.392  1.00  0.00     0.012 A 
ATOM     17  C   UNL A   1      29.993  26.014  24.145  1.00  0.00     0.048 A 
ATOM     18  C   UNL A   1      28.905  28.012  23.440  1.00  0.00     0.040 A 
ATOM     19  C   UNL A   1      28.831  26.698  23.870  1.00  0.00     0.123 A 
ATOM     20  F   UNL A   1      27.651  26.138  24.171  1.00  0.00    -0.207 F 
BRANCH  10  21
ATOM     21  C   UNL A   1      33.695  29.705  26.572  1.00  0.00    -0.025 A 
ATOM     22  C   UNL A   1      34.854  31.815  28.024  1.00  0.00     0.007 A 
ATOM     23  C   UNL A   1      33.532  31.871  27.642  1.00  0.00     0.015 A 
ATOM     24  C   UNL A   1      35.446  30.551  28.028  1.00  0.00     0.015 A 
ATOM     25  C   UNL A   1      32.927  30.721  27.130  1.00  0.00     0.009 A 
ATOM     26  C   UNL A   1      34.897  29.507  27.245  1.00  0.00     0.009 A 
BRANCH  22  27
ATOM     27  S   UNL A   1      35.712  33.283  28.543  1.00  0.00    -0.130 SA
ATOM     28  C   UNL A   1      34.409  34.547  28.277  1.00  0.00     0.091 C 
ENDBRANCH  22  27
ENDBRANCH  10  21
ENDBRANCH   8   9
ENDBRANCH   6   8
ENDBRANCH   5   6
ENDBRANCH   4   5
ENDBRANCH   3   4
ENDBRANCH   2   3
ENDBRANCH   1   2
BRANCH   1  29
ATOM     29  C   UNL A   1      37.197  20.182  24.636  1.00  0.00     0.188 C 
BRANCH  29  30
ATOM     30  O   UNL A   1      38.247  20.676  25.431  1.00  0.00    -0.376 OA
BRANCH  30  31
ATOM     31  C   UNL A   1      39.391  19.901  25.739  1.00  0.00     0.202 C 
BRANCH  31  32
ATOM     32  C   UNL A   1      40.388  20.323  26.836  1.00  0.00     0.261 C 
BRANCH  32  33
ATOM     33  O   UNL A   1      41.628  19.584  26.891  1.00  0.00    -0.460 OA
BRANCH  33  34
ATOM     34  C   UNL A   1      42.546  19.860  25.919  1.00  0.00     0.338 C 
ATOM     35  O   UNL A   1      42.825  19.128  25.001  1.00  0.00    -0.246 OA
BRANCH  34  36
ATOM     36  C   UNL A   1      43.144  21.231  26.081  1.00  0.00     0.060 A 
ATOM     37  C   UNL A   1      43.642  21.737  27.300  1.00  0.00     0.016 A 
ATOM     38  C   UNL A   1      43.027  22.106  25.016  1.00  0.00     0.016 A 
ATOM     39  C   UNL A   1      43.967  23.078  27.483  1.00  0.00     0.010 A 
ATOM     40  C   UNL A   1      43.397  23.447  25.177  1.00  0.00     0.010 A 
ATOM     41  C   UNL A   1      43.850  23.950  26.412  1.00  0.00    -0.014 A 
BRANCH  41  42
ATOM     42  C   UNL A   1      44.172  25.387  26.570  1.00  0.00     0.031 A 
ATOM     43  C   UNL A   1      45.568  25.866  26.300  1.00  0.00     0.074 A 
ATOM     44  C   UNL A   1      43.237  26.246  27.022  1.00  0.00     0.049 A 
ATOM     45  N   UNL A   1      46.104  27.024  26.575  1.00  0.00    -0.248 NA
ATOM     46  C   UNL A   1      46.486  24.912  25.652  1.00  0.00     0.031 C 
ATOM     47  C   UNL A   1      41.834  25.916  27.284  1.00  0.00     0.029 A 
ATOM     48  N   UNL A   1      43.341  27.566  27.392  1.00  0.00    -0.354 N 
ATOM     49  C   UNL A   1      47.436  26.921  26.199  1.00  0.00     0.074 A 
ATOM     50  C   UNL A   1      47.627  25.587  25.671  1.00  0.00     0.031 C 
ATOM     51  C   UNL A   1      41.218  26.991  27.800  1.00  0.00     0.029 A 
ATOM     52  C   UNL A   1      42.194  28.061  27.972  1.00  0.00     0.049 A 
ATOM     53  H   UNL A   1      44.155  28.103  27.256  1.00  0.00     0.167 HD
ATOM     54  C   UNL A   1      48.412  27.853  26.298  1.00  0.00     0.034 A 
ATOM     55  C   UNL A   1      41.967  29.218  28.624  1.00  0.00     0.034 A 
ATOM     56  C   UNL A   1      48.215  29.175  26.829  1.00  0.00     0.049 A 
ATOM     57  C   UNL A   1      43.091  30.208  28.776  1.00  0.00     0.074 A 
ATOM     58  C   UNL A   1      49.137  30.203  26.921  1.00  0.00     0.029 A 
ATOM     59  N   UNL A   1      47.038  29.642  27.390  1.00  0.00    -0.354 N 
ATOM     60  N   UNL A   1      44.327  30.125  28.351  1.00  0.00    -0.248 NA
ATOM     61  C   UNL A   1      42.783  31.464  29.478  1.00  0.00     0.031 C 
ATOM     62  C   UNL A   1      48.542  31.259  27.613  1.00  0.00     0.029 A 
ATOM     63  C   UNL A   1      47.220  30.931  27.859  1.00  0.00     0.049 A 
ATOM     64  H   UNL A   1      46.197  29.133  27.446  1.00  0.00     0.167 HD
ATOM     65  C   UNL A   1      44.926  31.333  28.685  1.00  0.00     0.074 A 
ATOM     66  C   UNL A   1      43.914  32.138  29.334  1.00  0.00     0.031 C 
ATOM     67  C   UNL A   1      46.201  31.740  28.472  1.00  0.00     0.034 A 
BRANCH  54  68
ATOM     68  C   UNL A   1      49.798  27.478  25.852  1.00  0.00     0.023 A 
ATOM     69  C   UNL A   1      50.709  26.901  26.759  1.00  0.00     0.012 A 
ATOM     70  C   UNL A   1      50.163  27.622  24.498  1.00  0.00     0.148 A 
ATOM     71  C   UNL A   1      51.973  26.500  26.330  1.00  0.00     0.002 A 
ATOM     72  C   UNL A   1      51.402  27.173  24.068  1.00  0.00     0.091 A 
ATOM     73  F   UNL A   1      49.284  28.184  23.657  1.00  0.00    -0.205 F 
ATOM     74  C   UNL A   1      52.314  26.622  24.984  1.00  0.00     0.022 A 
BRANCH  72  75
ATOM     75  S   UNL A   1      51.903  27.219  22.346  1.00  0.00     0.127 S 
ATOM     76  O   UNL A   1      50.639  26.938  21.666  1.00  0.00    -0.237 OA
ATOM     77  O   UNL A   1      52.380  28.594  22.204  1.00  0.00    -0.237 OA
ATOM     78  O   UNL A   1      52.926  26.194  22.191  1.00  0.00    -0.744 OA
ENDBRANCH  72  75
ENDBRANCH  54  68
BRANCH  55  79
ATOM     79  C   UNL A   1      40.630  29.507  29.218  1.00  0.00     0.023 A 
ATOM     80  C   UNL A   1      39.754  30.404  28.574  1.00  0.00     0.012 A 
ATOM     81  C   UNL A   1      40.246  28.938  30.447  1.00  0.00     0.148 A 
ATOM     82  C   UNL A   1      38.551  30.774  29.173  1.00  0.00     0.002 A 
ATOM     83  C   UNL A   1      39.018  29.261  31.007  1.00  0.00     0.091 A 
ATOM     84  F   UNL A   1      41.094  28.089  31.046  1.00  0.00    -0.205 F 
ATOM     85  C   UNL A   1      38.179  30.199  30.386  1.00  0.00     0.022 A 
BRANCH  83  86
ATOM     86  S   UNL A   1      38.414  28.496  32.514  1.00  0.00     0.127 S 
ATOM     87  O   UNL A   1      38.531  27.075  32.193  1.00  0.00    -0.237 OA
ATOM     88  O   UNL A   1      39.374  28.987  33.502  1.00  0.00    -0.237 OA
ATOM     89  O   UNL A   1      37.055  28.987  32.692  1.00  0.00    -0.744 OA
ENDBRANCH  83  86
ENDBRANCH  55  79
BRANCH  67  90
ATOM     90  C   UNL A   1      46.564  33.151  28.858  1.00  0.00     0.023 A 
ATOM     91  C   UNL A   1      47.120  33.439  30.119  1.00  0.00     0.012 A 
ATOM     92  C   UNL A   1      46.397  34.193  27.922  1.00  0.00     0.148 A 
ATOM     93  C   UNL A   1      47.456  34.750  30.461  1.00  0.00     0.002 A 
ATOM     94  C   UNL A   1      46.791  35.483  28.245  1.00  0.00     0.091 A 
ATOM     95  F   UNL A   1      45.860  33.900  26.729  1.00  0.00    -0.205 F 
ATOM     96  C   UNL A   1      47.304  35.767  29.521  1.00  0.00     0.022 A 
BRANCH  94  97
ATOM     97  S   UNL A   1      46.712  36.838  27.070  1.00  0.00     0.127 S 
ATOM     98  O   UNL A   1      45.333  37.297  27.240  1.00  0.00    -0.237 OA
ATOM     99  O   UNL A   1      47.728  37.753  27.588  1.00  0.00    -0.237 OA
ATOM    100  O   UNL A   1      47.014  36.264  25.766  1.00  0.00    -0.744 OA
ENDBRANCH  94  97
ENDBRANCH  67  90
ENDBRANCH  41  42
ENDBRANCH  34  36
ENDBRANCH  33  34
ENDBRANCH  32  33
ENDBRANCH  31  32
ENDBRANCH  30  31
ENDBRANCH  29  30
ENDBRANCH   1  29
TORSDOF 23
ENDMDL
MODEL 2
REMARK VINA RESULT:     -10.0      4.881      6.934
REMARK SMILES CSc1ccc(/C=C2\C(C)=C(CC(=O)OCCOCCOCCOC(=O)c3ccc(-c4c5nc(c(-c6cccc(S(=O)(=O)[O-])c6F)c6ccc([nH]6)c(-c6cccc(S(=O)(=O)[O-])c6F)c6nc(c(-c7cccc(S(=O)(=O)[O-])c7F)c7ccc4[nH]7)C=C6)C=C5)cc3)c3cc(F)ccc32)cc1
REMARK SMILES IDX 19 1 18 2 17 3 16 4 15 5 13 6 14 7 12 8 11 9 7 10 8 11 9 12
REMARK SMILES IDX 96 13 10 14 90 15 95 16 91 17 94 18 92 19 93 20 6 21 3 22
REMARK SMILES IDX 4 23 98 24 5 25 97 26 2 27 1 28 20 29 21 30 22 31 23 32
REMARK SMILES IDX 24 33 25 34 26 35 27 36 28 37 89 38 29 39 88 40 30 41 31 42
REMARK SMILES IDX 32 43 82 44 33 45 87 46 81 47 83 48 34 49 86 50 80 51 79 52
REMARK SMILES IDX 35 54 67 55 47 56 66 57 48 58 51 59 65 60 84 61 49 62 50 63
REMARK SMILES IDX 64 65 85 66 52 67 36 68 37 69 45 70 38 71 40 72 46 73 39 74
REMARK SMILES IDX 41 75 42 76 43 77 44 78 68 79 69 80 77 81 70 82 72 83 78 84
REMARK SMILES IDX 71 85 73 86 74 87 75 88 76 89 53 90 54 91 62 92 55 93 57 94
REMARK SMILES IDX 63 95 56 96 58 97 59 98 60 99 61 100
REMARK H PARENT 83 53 51 64
REMARK Flexibility Score: inf
ROOT
ATOM      1  C   UNL A   1      42.824  19.251  26.093  1.00  0.00     0.188 C 
ENDROOT
BRANCH   1   2
ATOM      2  O   UNL A   1      42.131  20.441  25.812  1.00  0.00    -0.376 OA
BRANCH   2   3
ATOM      3  C   UNL A   1      40.811  20.542  26.328  1.00  0.00     0.202 C 
BRANCH   3   4
ATOM      4  C   UNL A   1      39.984  21.849  26.124  1.00  0.00     0.261 C 
BRANCH   4   5
ATOM      5  O   UNL A   1      38.558  21.821  26.456  1.00  0.00    -0.463 OA
BRANCH   5   6
ATOM      6  C   UNL A   1      37.633  21.790  25.467  1.00  0.00     0.310 C 
ATOM      7  O   UNL A   1      37.689  21.002  24.524  1.00  0.00    -0.252 OA
BRANCH   6   8
ATOM      8  C   UNL A   1      36.425  22.775  25.623  1.00  0.00     0.159 C 
BRANCH   8   9
ATOM      9  C   UNL A   1      34.947  22.362  26.001  1.00  0.00    -0.025 C 
ATOM     10  C   UNL A   1      33.849  25.035  24.581  1.00  0.00     0.017 C 
ATOM     11  C   UNL A   1      33.702  23.677  24.662  1.00  0.00    -0.014 C 
ATOM     12  C   UNL A   1      33.848  23.172  26.065  1.00  0.00    -0.039 C 
ATOM     13  C   UNL A   1      33.822  22.312  23.910  1.00  0.00    -0.010 A 
ATOM     14  C   UNL A   1      32.399  22.700  26.441  1.00  0.00     0.045 C 
ATOM     15  C   UNL A   1      34.363  21.488  24.938  1.00  0.00    -0.011 A 
ATOM     16  C   UNL A   1      32.815  21.706  23.119  1.00  0.00     0.012 A 
ATOM     17  C   UNL A   1      33.764  20.266  25.310  1.00  0.00     0.048 A 
ATOM     18  C   UNL A   1      32.326  20.396  23.416  1.00  0.00     0.040 A 
ATOM     19  C   UNL A   1      32.764  19.716  24.539  1.00  0.00     0.123 A 
ATOM     20  F   UNL A   1      32.129  18.618  24.971  1.00  0.00    -0.207 F 
BRANCH  10  21
ATOM     21  C   UNL A   1      32.970  25.973  25.442  1.00  0.00    -0.025 A 
ATOM     22  C   UNL A   1      31.694  28.476  25.375  1.00  0.00     0.007 A 
ATOM     23  C   UNL A   1      31.021  27.337  24.993  1.00  0.00     0.015 A 
ATOM     24  C   UNL A   1      32.836  28.291  26.156  1.00  0.00     0.015 A 
ATOM     25  C   UNL A   1      31.598  26.093  25.254  1.00  0.00     0.009 A 
ATOM     26  C   UNL A   1      33.514  27.048  26.139  1.00  0.00     0.009 A 
BRANCH  22  27
ATOM     27  S   UNL A   1      31.075  30.085  24.937  1.00  0.00    -0.130 SA
ATOM     28  C   UNL A   1      29.971  29.653  23.538  1.00  0.00     0.091 C 
ENDBRANCH  22  27
ENDBRANCH  10  21
ENDBRANCH   8   9
ENDBRANCH   6   8
ENDBRANCH   5   6
ENDBRANCH   4   5
ENDBRANCH   3   4
ENDBRANCH   2   3
ENDBRANCH   1   2
BRANCH   1  29
ATOM     29  C   UNL A   1      43.910  18.826  25.118  1.00  0.00     0.188 C 
BRANCH  29  30
ATOM     30  O   UNL A   1      45.263  18.769  25.501  1.00  0.00    -0.376 OA
BRANCH  30  31
ATOM     31  C   UNL A   1      46.118  19.894  25.428  1.00  0.00     0.202 C 
BRANCH  31  32
ATOM     32  C   UNL A   1      45.714  21.174  24.669  1.00  0.00     0.261 C 
BRANCH  32  33
ATOM     33  O   UNL A   1      45.062  22.200  25.450  1.00  0.00    -0.460 OA
BRANCH  33  34
ATOM     34  C   UNL A   1      44.064  22.895  24.831  1.00  0.00     0.338 C 
ATOM     35  O   UNL A   1      43.563  22.597  23.774  1.00  0.00    -0.246 OA
BRANCH  34  36
ATOM     36  C   UNL A   1      43.598  24.066  25.654  1.00  0.00     0.060 A 
ATOM     37  C   UNL A   1      43.954  25.405  25.393  1.00  0.00     0.016 A 
ATOM     38  C   UNL A   1      42.937  23.789  26.837  1.00  0.00     0.016 A 
ATOM     39  C   UNL A   1      43.713  26.438  26.294  1.00  0.00     0.010 A 
ATOM     40  C   UNL A   1      42.648  24.830  27.729  1.00  0.00     0.010 A 
ATOM     41  C   UNL A   1      43.049  26.157  27.477  1.00  0.00    -0.014 A 
BRANCH  41  42
ATOM     42  C   UNL A   1      42.787  27.225  28.470  1.00  0.00     0.031 A 
ATOM     43  C   UNL A   1      43.736  27.417  29.616  1.00  0.00     0.074 A 
ATOM     44  C   UNL A   1      41.666  27.969  28.387  1.00  0.00     0.049 A 
ATOM     45  N   UNL A   1      43.584  28.139  30.693  1.00  0.00    -0.248 NA
ATOM     46  C   UNL A   1      45.015  26.688  29.552  1.00  0.00     0.031 C 
ATOM     47  C   UNL A   1      40.684  27.909  27.302  1.00  0.00     0.029 A 
ATOM     48  N   UNL A   1      41.139  28.890  29.260  1.00  0.00    -0.354 N 
ATOM     49  C   UNL A   1      44.712  27.903  31.467  1.00  0.00     0.074 A 
ATOM     50  C   UNL A   1      45.544  26.973  30.734  1.00  0.00     0.031 C 
ATOM     51  C   UNL A   1      39.661  28.728  27.589  1.00  0.00     0.029 A 
ATOM     52  C   UNL A   1      39.879  29.318  28.905  1.00  0.00     0.049 A 
ATOM     53  H   UNL A   1      41.615  29.211  30.060  1.00  0.00     0.167 HD
ATOM     54  C   UNL A   1      45.017  28.410  32.684  1.00  0.00     0.034 A 
ATOM     55  C   UNL A   1      38.974  30.049  29.585  1.00  0.00     0.034 A 
ATOM     56  C   UNL A   1      44.183  29.330  33.408  1.00  0.00     0.049 A 
ATOM     57  C   UNL A   1      39.317  30.543  30.965  1.00  0.00     0.074 A 
ATOM     58  C   UNL A   1      44.437  29.935  34.626  1.00  0.00     0.029 A 
ATOM     59  N   UNL A   1      42.925  29.751  33.007  1.00  0.00    -0.354 N 
ATOM     60  N   UNL A   1      40.418  30.371  31.654  1.00  0.00    -0.248 NA
ATOM     61  C   UNL A   1      38.302  31.355  31.654  1.00  0.00     0.031 C 
ATOM     62  C   UNL A   1      43.300  30.652  35.002  1.00  0.00     0.029 A 
ATOM     63  C   UNL A   1      42.379  30.580  33.971  1.00  0.00     0.049 A 
ATOM     64  H   UNL A   1      42.486  29.498  32.164  1.00  0.00     0.167 HD
ATOM     65  C   UNL A   1      40.249  31.093  32.828  1.00  0.00     0.074 A 
ATOM     66  C   UNL A   1      38.946  31.719  32.753  1.00  0.00     0.031 C 
ATOM     67  C   UNL A   1      41.098  31.227  33.876  1.00  0.00     0.034 A 
BRANCH  54  68
ATOM     68  C   UNL A   1      46.296  27.963  33.337  1.00  0.00     0.023 A 
ATOM     69  C   UNL A   1      46.315  26.823  34.165  1.00  0.00     0.012 A 
ATOM     70  C   UNL A   1      47.502  28.634  33.052  1.00  0.00     0.148 A 
ATOM     71  C   UNL A   1      47.512  26.376  34.722  1.00  0.00     0.002 A 
ATOM     72  C   UNL A   1      48.696  28.152  33.567  1.00  0.00     0.091 A 
ATOM     73  F   UNL A   1      47.457  29.722  32.270  1.00  0.00    -0.205 F 
ATOM     74  C   UNL A   1      48.702  27.031  34.413  1.00  0.00     0.022 A 
BRANCH  72  75
ATOM     75  S   UNL A   1      50.286  28.881  33.166  1.00  0.00     0.127 S 
ATOM     76  O   UNL A   1      50.199  30.169  33.855  1.00  0.00    -0.237 OA
ATOM     77  O   UNL A   1      51.218  27.929  33.769  1.00  0.00    -0.237 OA
ATOM     78  O   UNL A   1      50.343  28.962  31.714  1.00  0.00    -0.744 OA
ENDBRANCH  72  75
ENDBRANCH  54  68
BRANCH  55  79
ATOM     79  C   UNL A   1      37.635  30.342  28.997  1.00  0.00     0.023 A 
ATOM     80  C   UNL A   1      36.898  29.310  28.381  1.00  0.00     0.012 A 
ATOM     81  C   UNL A   1      37.114  31.650  28.998  1.00  0.00     0.148 A 
ATOM     82  C   UNL A   1      35.699  29.588  27.726  1.00  0.00     0.002 A 
ATOM     83  C   UNL A   1      35.889  31.908  28.400  1.00  0.00     0.091 A 
ATOM     84  F   UNL A   1      37.831  32.618  29.586  1.00  0.00    -0.205 F 
ATOM     85  C   UNL A   1      35.191  30.885  27.741  1.00  0.00     0.022 A 
BRANCH  83  86
ATOM     86  S   UNL A   1      35.111  33.524  28.455  1.00  0.00     0.127 S 
ATOM     87  O   UNL A   1      35.372  34.025  27.107  1.00  0.00    -0.237 OA
ATOM     88  O   UNL A   1      33.716  33.174  28.723  1.00  0.00    -0.237 OA
ATOM     89  O   UNL A   1      35.773  34.248  29.531  1.00  0.00    -0.744 OA
ENDBRANCH  83  86
ENDBRANCH  55  79
BRANCH  67  90
ATOM     90  C   UNL A   1      40.696  32.155  34.994  1.00  0.00     0.023 A 
ATOM     91  C   UNL A   1      40.005  31.675  36.123  1.00  0.00     0.012 A 
ATOM     92  C   UNL A   1      41.065  33.515  34.936  1.00  0.00     0.148 A 
ATOM     93  C   UNL A   1      39.645  32.546  37.154  1.00  0.00     0.002 A 
ATOM     94  C   UNL A   1      40.758  34.361  35.991  1.00  0.00     0.091 A 
ATOM     95  F   UNL A   1      41.716  33.954  33.849  1.00  0.00    -0.205 F 
ATOM     96  C   UNL A   1      40.032  33.883  37.093  1.00  0.00     0.022 A 
BRANCH  94  97
ATOM     97  S   UNL A   1      41.290  36.075  36.038  1.00  0.00     0.127 S 
ATOM     98  O   UNL A   1      40.014  36.777  36.175  1.00  0.00    -0.237 OA
ATOM     99  O   UNL A   1      42.133  36.101  37.233  1.00  0.00    -0.237 OA
ATOM    100  O   UNL A   1      41.996  36.317  34.788  1.00  0.00    -0.744 OA
ENDBRANCH  94  97
ENDBRANCH  67  90
ENDBRANCH  41  42
ENDBRANCH  34  36
ENDBRANCH  33  34
ENDBRANCH  32  33
ENDBRANCH  31  32
ENDBRANCH  30  31
ENDBRANCH  29  30
ENDBRANCH   1  29
TORSDOF 23
ENDMDL
MODEL 3
REMARK VINA RESULT:      -9.9      6.388     12.755
REMARK SMILES CSc1ccc(/C=C2\C(C)=C(CC(=O)OCCOCCOCCOC(=O)c3ccc(-c4c5nc(c(-c6cccc(S(=O)(=O)[O-])c6F)c6ccc([nH]6)c(-c6cccc(S(=O)(=O)[O-])c6F)c6nc(c(-c7cccc(S(=O)(=O)[O-])c7F)c7ccc4[nH]7)C=C6)C=C5)cc3)c3cc(F)ccc32)cc1
REMARK SMILES IDX 19 1 18 2 17 3 16 4 15 5 13 6 14 7 12 8 11 9 7 10 8 11 9 12
REMARK SMILES IDX 96 13 10 14 90 15 95 16 91 17 94 18 92 19 93 20 6 21 3 22
REMARK SMILES IDX 4 23 98 24 5 25 97 26 2 27 1 28 20 29 21 30 22 31 23 32
REMARK SMILES IDX 24 33 25 34 26 35 27 36 28 37 89 38 29 39 88 40 30 41 31 42
REMARK SMILES IDX 32 43 82 44 33 45 87 46 81 47 83 48 34 49 86 50 80 51 79 52
REMARK SMILES IDX 35 54 67 55 47 56 66 57 48 58 51 59 65 60 84 61 49 62 50 63
REMARK SMILES IDX 64 65 85 66 52 67 36 68 37 69 45 70 38 71 40 72 46 73 39 74
REMARK SMILES IDX 41 75 42 76 43 77 44 78 68 79 69 80 77 81 70 82 72 83 78 84
REMARK SMILES IDX 71 85 73 86 74 87 75 88 76 89 53 90 54 91 62 92 55 93 57 94
REMARK SMILES IDX 63 95 56 96 58 97 59 98 60 99 61 100
REMARK H PARENT 83 53 51 64
REMARK Flexibility Score: inf
ROOT
ATOM      1  C   UNL A   1      35.599  30.806  28.371  1.00  0.00     0.188 C 
ENDROOT
BRANCH   1   2
ATOM      2  O   UNL A   1      35.638  29.957  27.252  1.00  0.00    -0.376 OA
BRANCH   2   3
ATOM      3  C   UNL A   1      34.634  28.954  27.182  1.00  0.00     0.202 C 
BRANCH   3   4
ATOM      4  C   UNL A   1      33.834  28.734  25.861  1.00  0.00     0.261 C 
BRANCH   4   5
ATOM      5  O   UNL A   1      33.641  27.359  25.392  1.00  0.00    -0.463 OA
BRANCH   5   6
ATOM      6  C   UNL A   1      32.714  26.567  25.981  1.00  0.00     0.310 C 
ATOM      7  O   UNL A   1      31.701  27.011  26.521  1.00  0.00    -0.252 OA
BRANCH   6   8
ATOM      8  C   UNL A   1      32.960  25.024  25.876  1.00  0.00     0.159 C 
BRANCH   8   9
ATOM      9  C   UNL A   1      33.523  24.270  24.607  1.00  0.00    -0.025 C 
ATOM     10  C   UNL A   1      35.789  22.900  26.440  1.00  0.00     0.017 C 
ATOM     11  C   UNL A   1      34.811  22.659  25.513  1.00  0.00    -0.014 C 
ATOM     12  C   UNL A   1      34.763  23.715  24.450  1.00  0.00    -0.039 C 
ATOM     13  C   UNL A   1      33.434  21.978  25.226  1.00  0.00    -0.010 A 
ATOM     14  C   UNL A   1      35.264  22.969  23.164  1.00  0.00     0.045 C 
ATOM     15  C   UNL A   1      32.811  22.969  24.415  1.00  0.00    -0.011 A 
ATOM     16  C   UNL A   1      33.239  20.642  24.801  1.00  0.00     0.012 A 
ATOM     17  C   UNL A   1      32.268  22.666  23.148  1.00  0.00     0.048 A 
ATOM     18  C   UNL A   1      32.546  20.342  23.586  1.00  0.00     0.040 A 
ATOM     19  C   UNL A   1      32.120  21.358  22.748  1.00  0.00     0.123 A 
ATOM     20  F   UNL A   1      31.714  21.094  21.498  1.00  0.00    -0.207 F 
BRANCH  10  21
ATOM     21  C   UNL A   1      37.258  23.098  26.000  1.00  0.00    -0.025 A 
ATOM     22  C   UNL A   1      39.896  22.669  26.867  1.00  0.00     0.007 A 
ATOM     23  C   UNL A   1      39.248  21.723  26.105  1.00  0.00     0.015 A 
ATOM     24  C   UNL A   1      39.370  23.961  26.836  1.00  0.00     0.015 A 
ATOM     25  C   UNL A   1      38.035  22.059  25.501  1.00  0.00     0.009 A 
ATOM     26  C   UNL A   1      38.020  24.168  26.460  1.00  0.00     0.009 A 
BRANCH  22  27
ATOM     27  S   UNL A   1      41.366  22.248  27.777  1.00  0.00    -0.130 SA
ATOM     28  C   UNL A   1      42.640  22.457  26.475  1.00  0.00     0.091 C 
ENDBRANCH  22  27
ENDBRANCH  10  21
ENDBRANCH   8   9
ENDBRANCH   6   8
ENDBRANCH   5   6
ENDBRANCH   4   5
ENDBRANCH   3   4
ENDBRANCH   2   3
ENDBRANCH   1   2
BRANCH   1  29
ATOM     29  C   UNL A   1      35.221  32.259  28.135  1.00  0.00     0.188 C 
BRANCH  29  30
ATOM     30  O   UNL A   1      34.063  32.821  28.702  1.00  0.00    -0.376 OA
BRANCH  30  31
ATOM     31  C   UNL A   1      33.335  33.856  28.067  1.00  0.00     0.202 C 
BRANCH  31  32
ATOM     32  C   UNL A   1      32.902  35.128  28.823  1.00  0.00     0.261 C 
BRANCH  32  33
ATOM     33  O   UNL A   1      33.730  35.519  29.941  1.00  0.00    -0.460 OA
BRANCH  33  34
ATOM     34  C   UNL A   1      33.279  35.175  31.183  1.00  0.00     0.338 C 
ATOM     35  O   UNL A   1      32.131  35.247  31.549  1.00  0.00    -0.246 OA
BRANCH  34  36
ATOM     36  C   UNL A   1      34.380  34.627  32.050  1.00  0.00     0.060 A 
ATOM     37  C   UNL A   1      35.484  35.383  32.496  1.00  0.00     0.016 A 
ATOM     38  C   UNL A   1      34.401  33.261  32.264  1.00  0.00     0.016 A 
ATOM     39  C   UNL A   1      36.603  34.805  33.090  1.00  0.00     0.010 A 
ATOM     40  C   UNL A   1      35.502  32.676  32.903  1.00  0.00     0.010 A 
ATOM     41  C   UNL A   1      36.618  33.436  33.304  1.00  0.00    -0.014 A 
BRANCH  41  42
ATOM     42  C   UNL A   1      37.795  32.779  33.919  1.00  0.00     0.031 A 
ATOM     43  C   UNL A   1      38.080  32.988  35.377  1.00  0.00     0.074 A 
ATOM     44  C   UNL A   1      38.645  32.060  33.159  1.00  0.00     0.049 A 
ATOM     45  N   UNL A   1      39.154  32.684  36.053  1.00  0.00    -0.248 NA
ATOM     46  C   UNL A   1      37.026  33.641  36.175  1.00  0.00     0.031 C 
ATOM     47  C   UNL A   1      38.462  31.749  31.740  1.00  0.00     0.029 A 
ATOM     48  N   UNL A   1      39.864  31.502  33.466  1.00  0.00    -0.354 N 
ATOM     49  C   UNL A   1      38.939  33.166  37.338  1.00  0.00     0.074 A 
ATOM     50  C   UNL A   1      37.629  33.779  37.348  1.00  0.00     0.031 C 
ATOM     51  C   UNL A   1      39.540  31.087  31.292  1.00  0.00     0.029 A 
ATOM     52  C   UNL A   1      40.518  30.988  32.369  1.00  0.00     0.049 A 
ATOM     53  H   UNL A   1      40.231  31.474  34.379  1.00  0.00     0.167 HD
ATOM     54  C   UNL A   1      39.768  33.109  38.406  1.00  0.00     0.034 A 
ATOM     55  C   UNL A   1      41.782  30.543  32.228  1.00  0.00     0.034 A 
ATOM     56  C   UNL A   1      41.071  32.502  38.385  1.00  0.00     0.049 A 
ATOM     57  C   UNL A   1      42.702  30.555  33.419  1.00  0.00     0.074 A 
ATOM     58  C   UNL A   1      41.960  32.355  39.436  1.00  0.00     0.029 A 
ATOM     59  N   UNL A   1      41.690  31.978  37.262  1.00  0.00    -0.354 N 
ATOM     60  N   UNL A   1      42.459  30.946  34.646  1.00  0.00    -0.248 NA
ATOM     61  C   UNL A   1      44.065  30.039  33.215  1.00  0.00     0.031 C 
ATOM     62  C   UNL A   1      43.146  31.820  38.931  1.00  0.00     0.029 A 
ATOM     63  C   UNL A   1      42.960  31.538  37.588  1.00  0.00     0.049 A 
ATOM     64  H   UNL A   1      41.286  31.927  36.366  1.00  0.00     0.167 HD
ATOM     65  C   UNL A   1      43.616  30.676  35.367  1.00  0.00     0.074 A 
ATOM     66  C   UNL A   1      44.555  30.073  34.445  1.00  0.00     0.031 C 
ATOM     67  C   UNL A   1      43.877  30.907  36.676  1.00  0.00     0.034 A 
BRANCH  54  68
ATOM     68  C   UNL A   1      39.313  33.745  39.690  1.00  0.00     0.023 A 
ATOM     69  C   UNL A   1      39.700  35.061  40.013  1.00  0.00     0.012 A 
ATOM     70  C   UNL A   1      38.421  33.056  40.537  1.00  0.00     0.148 A 
ATOM     71  C   UNL A   1      39.230  35.669  41.175  1.00  0.00     0.002 A 
ATOM     72  C   UNL A   1      37.916  33.688  41.664  1.00  0.00     0.091 A 
ATOM     73  F   UNL A   1      38.075  31.802  40.215  1.00  0.00    -0.205 F 
ATOM     74  C   UNL A   1      38.328  34.990  41.991  1.00  0.00     0.022 A 
BRANCH  72  75
ATOM     75  S   UNL A   1      36.695  32.924  42.735  1.00  0.00     0.127 S 
ATOM     76  O   UNL A   1      35.571  32.746  41.816  1.00  0.00    -0.237 OA
ATOM     77  O   UNL A   1      37.366  31.685  43.125  1.00  0.00    -0.237 OA
ATOM     78  O   UNL A   1      36.460  33.865  43.821  1.00  0.00    -0.744 OA
ENDBRANCH  72  75
ENDBRANCH  54  68
BRANCH  55  79
ATOM     79  C   UNL A   1      42.281  30.075  30.903  1.00  0.00     0.023 A 
ATOM     80  C   UNL A   1      43.032  30.946  30.088  1.00  0.00     0.012 A 
ATOM     81  C   UNL A   1      41.967  28.788  30.424  1.00  0.00     0.148 A 
ATOM     82  C   UNL A   1      43.407  30.565  28.799  1.00  0.00     0.002 A 
ATOM     83  C   UNL A   1      42.400  28.393  29.166  1.00  0.00     0.091 A 
ATOM     84  F   UNL A   1      41.250  27.976  31.213  1.00  0.00    -0.205 F 
ATOM     85  C   UNL A   1      43.097  29.288  28.341  1.00  0.00     0.022 A 
BRANCH  83  86
ATOM     86  S   UNL A   1      42.131  26.735  28.532  1.00  0.00     0.127 S 
ATOM     87  O   UNL A   1      42.265  26.943  27.092  1.00  0.00    -0.237 OA
ATOM     88  O   UNL A   1      43.231  25.998  29.154  1.00  0.00    -0.237 OA
ATOM     89  O   UNL A   1      40.804  26.345  28.987  1.00  0.00    -0.744 OA
ENDBRANCH  83  86
ENDBRANCH  55  79
BRANCH  67  90
ATOM     90  C   UNL A   1      45.194  30.427  37.228  1.00  0.00     0.023 A 
ATOM     91  C   UNL A   1      46.306  31.288  37.309  1.00  0.00     0.012 A 
ATOM     92  C   UNL A   1      45.304  29.110  37.721  1.00  0.00     0.148 A 
ATOM     93  C   UNL A   1      47.519  30.830  37.827  1.00  0.00     0.002 A 
ATOM     94  C   UNL A   1      46.493  28.680  38.292  1.00  0.00     0.091 A 
ATOM     95  F   UNL A   1      44.237  28.303  37.629  1.00  0.00    -0.205 F 
ATOM     96  C   UNL A   1      47.608  29.533  38.328  1.00  0.00     0.022 A 
BRANCH  94  97
ATOM     97  S   UNL A   1      46.673  27.059  39.039  1.00  0.00     0.127 S 
ATOM     98  O   UNL A   1      46.739  26.195  37.860  1.00  0.00    -0.237 OA
ATOM     99  O   UNL A   1      47.934  27.196  39.767  1.00  0.00    -0.237 OA
ATOM    100  O   UNL A   1      45.501  26.865  39.880  1.00  0.00    -0.744 OA
ENDBRANCH  94  97
ENDBRANCH  67  90
ENDBRANCH  41  42
ENDBRANCH  34  36
ENDBRANCH  33  34
ENDBRANCH  32  33
ENDBRANCH  31  32
ENDBRANCH  30  31
ENDBRANCH  29  30
ENDBRANCH   1  29
TORSDOF 23
ENDMDL
