MODEL 1
REMARK VINA RESULT:     -11.3      0.000      0.000
REMARK SMILES C#Cc1cc(Cl)c2c(c1)C=C(C(=O)OCCOCCOCCOC(=O)c1ccc(-c3c4nc(c(-c5cccc(S(=O)(=O)[O-])c5F)c5ccc([nH]5)c(-c5cccc(S(=O)(=O)[O-])c5F)c5nc(c(-c6cccc(S(=O)(=O)[O-])c6F)c6ccc3[nH]6)C=C5)C=C4)cc1)[C@@H](C(F)(F)F)O2
REMARK SMILES IDX 19 1 18 2 17 3 16 4 15 5 14 6 12 7 13 8 11 9 3 10 4 11 9 12
REMARK SMILES IDX 5 13 8 14 6 15 7 16 10 17 94 18 89 19 2 20 1 21 90 22 91 23
REMARK SMILES IDX 92 24 93 25 20 26 21 27 22 28 23 29 24 30 25 31 26 32 27 33
REMARK SMILES IDX 88 34 28 35 87 36 29 37 30 38 31 39 81 40 32 41 86 42 80 43
REMARK SMILES IDX 82 44 33 45 85 46 79 47 78 48 34 50 66 51 46 52 65 53 47 54
REMARK SMILES IDX 50 55 64 56 83 57 48 58 49 59 63 61 84 62 51 63 35 64 36 65
REMARK SMILES IDX 44 66 37 67 39 68 45 69 38 70 40 71 41 72 42 73 43 74 67 75
REMARK SMILES IDX 68 76 76 77 69 78 71 79 77 80 70 81 72 82 73 83 74 84 75 85
REMARK SMILES IDX 52 86 53 87 61 88 54 89 56 90 62 91 55 92 57 93 58 94 59 95
REMARK SMILES IDX 60 96
REMARK H PARENT 82 49 50 60
REMARK Flexibility Score: inf
ROOT
ATOM      1  C   UNL A   1      41.334  21.924  25.842  1.00  0.00     0.188 C 
ENDROOT
BRANCH   1   2
ATOM      2  C   UNL A   1      39.917  21.344  26.030  1.00  0.00     0.188 C 
BRANCH   2   3
ATOM      3  O   UNL A   1      38.928  22.263  26.431  1.00  0.00    -0.376 OA
BRANCH   3   4
ATOM      4  C   UNL A   1      37.662  22.284  25.796  1.00  0.00     0.202 C 
BRANCH   4   5
ATOM      5  C   UNL A   1      36.567  23.356  25.986  1.00  0.00     0.261 C 
BRANCH   5   6
ATOM      6  O   UNL A   1      35.372  22.986  26.679  1.00  0.00    -0.460 OA
BRANCH   6   7
ATOM      7  C   UNL A   1      34.211  23.428  26.137  1.00  0.00     0.338 C 
ATOM      8  O   UNL A   1      33.758  24.556  26.203  1.00  0.00    -0.246 OA
BRANCH   7   9
ATOM      9  C   UNL A   1      33.617  22.350  25.315  1.00  0.00     0.087 C 
ATOM     10  C   UNL A   1      32.696  17.666  24.684  1.00  0.00     0.027 A 
ATOM     11  C   UNL A   1      32.358  17.909  23.353  1.00  0.00     0.041 A 
ATOM     12  C   UNL A   1      33.022  18.732  25.529  1.00  0.00     0.029 A 
ATOM     13  C   UNL A   1      32.323  19.220  22.876  1.00  0.00     0.084 A 
ATOM     14  C   UNL A   1      33.036  20.044  25.036  1.00  0.00     0.020 A 
ATOM     15  Cl  UNL A   1      31.912  19.472  21.215  1.00  0.00    -0.080 Cl
ATOM     16  C   UNL A   1      32.656  20.295  23.713  1.00  0.00     0.146 A 
ATOM     17  C   UNL A   1      33.529  21.133  25.867  1.00  0.00     0.027 C 
ATOM     18  O   UNL A   1      32.595  21.555  23.185  1.00  0.00    -0.474 OA
ATOM     19  C   UNL A   1      33.137  22.676  23.928  1.00  0.00     0.316 C 
BRANCH  10  20
ATOM     20  C   UNL A   1      32.754  16.323  25.168  1.00  0.00    -0.070 C 
ATOM     21  C   UNL A   1      32.803  15.198  25.594  1.00  0.00     0.010 C 
ENDBRANCH  10  20
BRANCH  19  22
ATOM     22  C   UNL A   1      34.231  23.337  23.080  1.00  0.00     0.430 C 
ATOM     23  F   UNL A   1      35.432  22.738  23.270  1.00  0.00    -0.167 F 
ATOM     24  F   UNL A   1      33.965  23.251  21.756  1.00  0.00    -0.167 F 
ATOM     25  F   UNL A   1      34.380  24.648  23.380  1.00  0.00    -0.167 F 
ENDBRANCH  19  22
ENDBRANCH   7   9
ENDBRANCH   6   7
ENDBRANCH   5   6
ENDBRANCH   4   5
ENDBRANCH   3   4
ENDBRANCH   2   3
ENDBRANCH   1   2
BRANCH   1  26
ATOM     26  O   UNL A   1      42.445  21.084  26.073  1.00  0.00    -0.376 OA
BRANCH  26  27
ATOM     27  C   UNL A   1      43.753  21.602  25.875  1.00  0.00     0.202 C 
BRANCH  27  28
ATOM     28  C   UNL A   1      44.200  22.481  24.680  1.00  0.00     0.261 C 
BRANCH  28  29
ATOM     29  O   UNL A   1      43.657  23.803  24.555  1.00  0.00    -0.460 OA
BRANCH  29  30
ATOM     30  C   UNL A   1      44.429  24.817  25.027  1.00  0.00     0.338 C 
ATOM     31  O   UNL A   1      45.496  25.195  24.578  1.00  0.00    -0.246 OA
BRANCH  30  32
ATOM     32  C   UNL A   1      43.665  25.558  26.056  1.00  0.00     0.060 A 
ATOM     33  C   UNL A   1      43.922  26.925  26.247  1.00  0.00     0.016 A 
ATOM     34  C   UNL A   1      42.711  24.907  26.836  1.00  0.00     0.016 A 
ATOM     35  C   UNL A   1      43.225  27.646  27.216  1.00  0.00     0.010 A 
ATOM     36  C   UNL A   1      42.042  25.621  27.836  1.00  0.00     0.010 A 
ATOM     37  C   UNL A   1      42.313  26.987  28.047  1.00  0.00    -0.014 A 
BRANCH  37  38
ATOM     38  C   UNL A   1      41.789  27.675  29.253  1.00  0.00     0.031 A 
ATOM     39  C   UNL A   1      40.462  28.377  29.151  1.00  0.00     0.074 A 
ATOM     40  C   UNL A   1      42.462  27.668  30.418  1.00  0.00     0.049 A 
ATOM     41  N   UNL A   1      39.831  29.087  30.049  1.00  0.00    -0.248 NA
ATOM     42  C   UNL A   1      39.750  28.263  27.866  1.00  0.00     0.031 C 
ATOM     43  C   UNL A   1      43.740  26.998  30.652  1.00  0.00     0.029 A 
ATOM     44  N   UNL A   1      42.171  28.266  31.620  1.00  0.00    -0.354 N 
ATOM     45  C   UNL A   1      38.665  29.527  29.431  1.00  0.00     0.074 A 
ATOM     46  C   UNL A   1      38.680  29.015  28.079  1.00  0.00     0.031 C 
ATOM     47  C   UNL A   1      44.136  27.243  31.914  1.00  0.00     0.029 A 
ATOM     48  C   UNL A   1      43.159  28.114  32.566  1.00  0.00     0.049 A 
ATOM     49  H   UNL A   1      41.335  28.757  31.789  1.00  0.00     0.167 HD
ATOM     50  C   UNL A   1      37.664  30.273  29.951  1.00  0.00     0.034 A 
ATOM     51  C   UNL A   1      43.272  28.640  33.805  1.00  0.00     0.034 A 
ATOM     52  C   UNL A   1      37.643  30.764  31.301  1.00  0.00     0.049 A 
ATOM     53  C   UNL A   1      42.167  29.519  34.338  1.00  0.00     0.074 A 
ATOM     54  C   UNL A   1      36.654  31.504  31.924  1.00  0.00     0.029 A 
ATOM     55  N   UNL A   1      38.652  30.580  32.231  1.00  0.00    -0.354 N 
ATOM     56  N   UNL A   1      41.028  29.846  33.776  1.00  0.00    -0.248 NA
ATOM     57  C   UNL A   1      42.347  30.078  35.687  1.00  0.00     0.031 C 
ATOM     58  C   UNL A   1      37.085  31.805  33.217  1.00  0.00     0.029 A 
ATOM     59  C   UNL A   1      38.319  31.206  33.419  1.00  0.00     0.049 A 
ATOM     60  H   UNL A   1      39.484  30.077  32.070  1.00  0.00     0.167 HD
ATOM     61  C   UNL A   1      40.344  30.617  34.713  1.00  0.00     0.074 A 
ATOM     62  C   UNL A   1      41.185  30.685  35.889  1.00  0.00     0.031 C 
ATOM     63  C   UNL A   1      39.136  31.223  34.605  1.00  0.00     0.034 A 
BRANCH  50  64
ATOM     64  C   UNL A   1      36.481  30.589  29.074  1.00  0.00     0.023 A 
ATOM     65  C   UNL A   1      35.769  29.540  28.460  1.00  0.00     0.012 A 
ATOM     66  C   UNL A   1      36.001  31.910  28.964  1.00  0.00     0.148 A 
ATOM     67  C   UNL A   1      34.603  29.801  27.741  1.00  0.00     0.002 A 
ATOM     68  C   UNL A   1      34.812  32.156  28.290  1.00  0.00     0.091 A 
ATOM     69  F   UNL A   1      36.706  32.895  29.540  1.00  0.00    -0.205 F 
ATOM     70  C   UNL A   1      34.116  31.104  27.670  1.00  0.00     0.022 A 
BRANCH  68  71
ATOM     71  S   UNL A   1      34.050  33.780  28.222  1.00  0.00     0.127 S 
ATOM     72  O   UNL A   1      35.013  34.524  27.411  1.00  0.00    -0.237 OA
ATOM     73  O   UNL A   1      32.781  33.493  27.552  1.00  0.00    -0.237 OA
ATOM     74  O   UNL A   1      33.929  34.229  29.601  1.00  0.00    -0.744 OA
ENDBRANCH  68  71
ENDBRANCH  50  64
BRANCH  51  75
ATOM     75  C   UNL A   1      44.467  28.331  34.647  1.00  0.00     0.023 A 
ATOM     76  C   UNL A   1      45.602  29.161  34.575  1.00  0.00     0.012 A 
ATOM     77  C   UNL A   1      44.483  27.224  35.520  1.00  0.00     0.148 A 
ATOM     78  C   UNL A   1      46.741  28.878  35.331  1.00  0.00     0.002 A 
ATOM     79  C   UNL A   1      45.597  26.984  36.316  1.00  0.00     0.091 A 
ATOM     80  F   UNL A   1      43.402  26.433  35.561  1.00  0.00    -0.205 F 
ATOM     81  C   UNL A   1      46.735  27.798  36.209  1.00  0.00     0.022 A 
BRANCH  79  82
ATOM     82  S   UNL A   1      45.633  25.697  37.568  1.00  0.00     0.127 S 
ATOM     83  O   UNL A   1      44.943  24.602  36.891  1.00  0.00    -0.237 OA
ATOM     84  O   UNL A   1      47.072  25.502  37.751  1.00  0.00    -0.237 OA
ATOM     85  O   UNL A   1      44.947  26.253  38.726  1.00  0.00    -0.744 OA
ENDBRANCH  79  82
ENDBRANCH  51  75
BRANCH  63  86
ATOM     86  C   UNL A   1      38.610  31.995  35.790  1.00  0.00     0.023 A 
ATOM     87  C   UNL A   1      38.563  33.402  35.749  1.00  0.00     0.012 A 
ATOM     88  C   UNL A   1      38.047  31.318  36.893  1.00  0.00     0.148 A 
ATOM     89  C   UNL A   1      37.990  34.124  36.796  1.00  0.00     0.002 A 
ATOM     90  C   UNL A   1      37.425  32.041  37.904  1.00  0.00     0.091 A 
ATOM     91  F   UNL A   1      38.109  29.979  36.920  1.00  0.00    -0.205 F 
ATOM     92  C   UNL A   1      37.408  33.444  37.864  1.00  0.00     0.022 A 
BRANCH  90  93
ATOM     93  S   UNL A   1      36.551  31.255  39.263  1.00  0.00     0.127 S 
ATOM     94  O   UNL A   1      35.443  32.183  39.482  1.00  0.00    -0.237 OA
ATOM     95  O   UNL A   1      36.166  29.971  38.679  1.00  0.00    -0.237 OA
ATOM     96  O   UNL A   1      37.506  31.163  40.360  1.00  0.00    -0.744 OA
ENDBRANCH  90  93
ENDBRANCH  63  86
ENDBRANCH  37  38
ENDBRANCH  30  32
ENDBRANCH  29  30
ENDBRANCH  28  29
ENDBRANCH  27  28
ENDBRANCH  26  27
ENDBRANCH   1  26
TORSDOF 22
ENDMDL
MODEL 2
REMARK VINA RESULT:     -10.5      5.074     10.741
REMARK SMILES C#Cc1cc(Cl)c2c(c1)C=C(C(=O)OCCOCCOCCOC(=O)c1ccc(-c3c4nc(c(-c5cccc(S(=O)(=O)[O-])c5F)c5ccc([nH]5)c(-c5cccc(S(=O)(=O)[O-])c5F)c5nc(c(-c6cccc(S(=O)(=O)[O-])c6F)c6ccc3[nH]6)C=C5)C=C4)cc1)[C@@H](C(F)(F)F)O2
REMARK SMILES IDX 19 1 18 2 17 3 16 4 15 5 14 6 12 7 13 8 11 9 3 10 4 11 9 12
REMARK SMILES IDX 5 13 8 14 6 15 7 16 10 17 94 18 89 19 2 20 1 21 90 22 91 23
REMARK SMILES IDX 92 24 93 25 20 26 21 27 22 28 23 29 24 30 25 31 26 32 27 33
REMARK SMILES IDX 88 34 28 35 87 36 29 37 30 38 31 39 81 40 32 41 86 42 80 43
REMARK SMILES IDX 82 44 33 45 85 46 79 47 78 48 34 50 66 51 46 52 65 53 47 54
REMARK SMILES IDX 50 55 64 56 83 57 48 58 49 59 63 61 84 62 51 63 35 64 36 65
REMARK SMILES IDX 44 66 37 67 39 68 45 69 38 70 40 71 41 72 42 73 43 74 67 75
REMARK SMILES IDX 68 76 76 77 69 78 71 79 77 80 70 81 72 82 73 83 74 84 75 85
REMARK SMILES IDX 52 86 53 87 61 88 54 89 56 90 62 91 55 92 57 93 58 94 59 95
REMARK SMILES IDX 60 96
REMARK H PARENT 82 49 50 60
REMARK Flexibility Score: inf
ROOT
ATOM      1  C   UNL A   1      33.759  34.478  29.074  1.00  0.00     0.188 C 
ENDROOT
BRANCH   1   2
ATOM      2  C   UNL A   1      34.275  33.505  27.994  1.00  0.00     0.188 C 
BRANCH   2   3
ATOM      3  O   UNL A   1      34.177  32.136  28.307  1.00  0.00    -0.376 OA
BRANCH   3   4
ATOM      4  C   UNL A   1      33.270  31.299  27.611  1.00  0.00     0.202 C 
BRANCH   4   5
ATOM      5  C   UNL A   1      33.467  29.796  27.312  1.00  0.00     0.261 C 
BRANCH   5   6
ATOM      6  O   UNL A   1      32.797  29.241  26.177  1.00  0.00    -0.460 OA
BRANCH   6   7
ATOM      7  C   UNL A   1      33.593  28.690  25.228  1.00  0.00     0.338 C 
ATOM      8  O   UNL A   1      34.578  29.195  24.719  1.00  0.00    -0.246 OA
BRANCH   7   9
ATOM      9  C   UNL A   1      33.166  27.295  24.985  1.00  0.00     0.087 C 
ATOM     10  C   UNL A   1      34.284  22.618  24.727  1.00  0.00     0.027 A 
ATOM     11  C   UNL A   1      33.070  22.360  24.092  1.00  0.00     0.041 A 
ATOM     12  C   UNL A   1      34.576  23.909  25.179  1.00  0.00     0.029 A 
ATOM     13  C   UNL A   1      32.140  23.388  23.931  1.00  0.00     0.084 A 
ATOM     14  C   UNL A   1      33.664  24.953  24.972  1.00  0.00     0.020 A 
ATOM     15  Cl  UNL A   1      30.654  23.026  23.125  1.00  0.00    -0.080 Cl
ATOM     16  C   UNL A   1      32.428  24.688  24.374  1.00  0.00     0.146 A 
ATOM     17  C   UNL A   1      34.034  26.323  25.296  1.00  0.00     0.027 C 
ATOM     18  O   UNL A   1      31.471  25.648  24.191  1.00  0.00    -0.474 OA
ATOM     19  C   UNL A   1      31.795  27.043  24.423  1.00  0.00     0.316 C 
BRANCH  10  20
ATOM     20  C   UNL A   1      35.246  21.571  24.873  1.00  0.00    -0.070 C 
ATOM     21  C   UNL A   1      36.068  20.702  25.003  1.00  0.00     0.010 C 
ENDBRANCH  10  20
BRANCH  19  22
ATOM     22  C   UNL A   1      31.553  27.819  23.123  1.00  0.00     0.430 C 
ATOM     23  F   UNL A   1      31.009  27.027  22.168  1.00  0.00    -0.167 F 
ATOM     24  F   UNL A   1      30.694  28.850  23.302  1.00  0.00    -0.167 F 
ATOM     25  F   UNL A   1      32.700  28.331  22.619  1.00  0.00    -0.167 F 
ENDBRANCH  19  22
ENDBRANCH   7   9
ENDBRANCH   6   7
ENDBRANCH   5   6
ENDBRANCH   4   5
ENDBRANCH   3   4
ENDBRANCH   2   3
ENDBRANCH   1   2
BRANCH   1  26
ATOM     26  O   UNL A   1      33.848  34.093  30.428  1.00  0.00    -0.376 OA
BRANCH  26  27
ATOM     27  C   UNL A   1      34.354  35.022  31.377  1.00  0.00     0.202 C 
BRANCH  27  28
ATOM     28  C   UNL A   1      35.740  34.940  32.064  1.00  0.00     0.261 C 
BRANCH  28  29
ATOM     29  O   UNL A   1      35.967  33.914  33.040  1.00  0.00    -0.460 OA
BRANCH  29  30
ATOM     30  C   UNL A   1      35.454  32.689  32.755  1.00  0.00     0.338 C 
ATOM     31  O   UNL A   1      34.297  32.330  32.888  1.00  0.00    -0.246 OA
BRANCH  30  32
ATOM     32  C   UNL A   1      36.479  31.899  32.037  1.00  0.00     0.060 A 
ATOM     33  C   UNL A   1      37.464  31.223  32.775  1.00  0.00     0.016 A 
ATOM     34  C   UNL A   1      36.477  31.834  30.645  1.00  0.00     0.016 A 
ATOM     35  C   UNL A   1      38.448  30.479  32.125  1.00  0.00     0.010 A 
ATOM     36  C   UNL A   1      37.488  31.121  29.991  1.00  0.00     0.010 A 
ATOM     37  C   UNL A   1      38.492  30.461  30.727  1.00  0.00    -0.014 A 
BRANCH  37  38
ATOM     38  C   UNL A   1      39.689  29.919  30.036  1.00  0.00     0.031 A 
ATOM     39  C   UNL A   1      40.922  30.779  29.968  1.00  0.00     0.074 A 
ATOM     40  C   UNL A   1      39.693  28.688  29.494  1.00  0.00     0.049 A 
ATOM     41  N   UNL A   1      42.063  30.544  29.376  1.00  0.00    -0.248 NA
ATOM     42  C   UNL A   1      40.862  32.077  30.663  1.00  0.00     0.031 C 
ATOM     43  C   UNL A   1      38.573  27.748  29.521  1.00  0.00     0.029 A 
ATOM     44  N   UNL A   1      40.671  28.026  28.791  1.00  0.00    -0.354 N 
ATOM     45  C   UNL A   1      42.844  31.671  29.600  1.00  0.00     0.074 A 
ATOM     46  C   UNL A   1      42.046  32.597  30.372  1.00  0.00     0.031 C 
ATOM     47  C   UNL A   1      38.919  26.639  28.843  1.00  0.00     0.029 A 
ATOM     48  C   UNL A   1      40.269  26.803  28.304  1.00  0.00     0.049 A 
ATOM     49  H   UNL A   1      41.573  28.392  28.649  1.00  0.00     0.167 HD
ATOM     50  C   UNL A   1      44.119  31.906  29.213  1.00  0.00     0.034 A 
ATOM     51  C   UNL A   1      40.907  25.930  27.496  1.00  0.00     0.034 A 
ATOM     52  C   UNL A   1      44.916  30.977  28.462  1.00  0.00     0.049 A 
ATOM     53  C   UNL A   1      42.309  26.245  27.030  1.00  0.00     0.074 A 
ATOM     54  C   UNL A   1      46.230  31.117  28.051  1.00  0.00     0.029 A 
ATOM     55  N   UNL A   1      44.481  29.746  27.999  1.00  0.00    -0.354 N 
ATOM     56  N   UNL A   1      43.068  27.272  27.329  1.00  0.00    -0.248 NA
ATOM     57  C   UNL A   1      42.953  25.268  26.138  1.00  0.00     0.031 C 
ATOM     58  C   UNL A   1      46.574  29.991  27.302  1.00  0.00     0.029 A 
ATOM     59  C   UNL A   1      45.494  29.123  27.291  1.00  0.00     0.049 A 
ATOM     60  H   UNL A   1      43.583  29.371  28.151  1.00  0.00     0.167 HD
ATOM     61  C   UNL A   1      44.287  27.047  26.694  1.00  0.00     0.074 A 
ATOM     62  C   UNL A   1      44.174  25.774  26.015  1.00  0.00     0.031 C 
ATOM     63  C   UNL A   1      45.393  27.830  26.665  1.00  0.00     0.034 A 
BRANCH  50  64
ATOM     64  C   UNL A   1      44.759  33.209  29.616  1.00  0.00     0.023 A 
ATOM     65  C   UNL A   1      45.526  33.272  30.796  1.00  0.00     0.012 A 
ATOM     66  C   UNL A   1      44.705  34.329  28.763  1.00  0.00     0.148 A 
ATOM     67  C   UNL A   1      46.221  34.434  31.127  1.00  0.00     0.002 A 
ATOM     68  C   UNL A   1      45.442  35.465  29.073  1.00  0.00     0.091 A 
ATOM     69  F   UNL A   1      43.953  34.253  27.655  1.00  0.00    -0.205 F 
ATOM     70  C   UNL A   1      46.193  35.523  30.259  1.00  0.00     0.022 A 
BRANCH  68  71
ATOM     71  S   UNL A   1      45.551  36.883  27.977  1.00  0.00     0.127 S 
ATOM     72  O   UNL A   1      46.477  37.749  28.705  1.00  0.00    -0.237 OA
ATOM     73  O   UNL A   1      46.104  36.286  26.761  1.00  0.00    -0.237 OA
ATOM     74  O   UNL A   1      44.197  37.401  27.847  1.00  0.00    -0.744 OA
ENDBRANCH  68  71
ENDBRANCH  50  64
BRANCH  51  75
ATOM     75  C   UNL A   1      40.243  24.655  27.090  1.00  0.00     0.023 A 
ATOM     76  C   UNL A   1      38.973  24.695  26.483  1.00  0.00     0.012 A 
ATOM     77  C   UNL A   1      40.864  23.407  27.298  1.00  0.00     0.148 A 
ATOM     78  C   UNL A   1      38.319  23.516  26.121  1.00  0.00     0.002 A 
ATOM     79  C   UNL A   1      40.234  22.241  26.877  1.00  0.00     0.091 A 
ATOM     80  F   UNL A   1      42.063  23.385  27.894  1.00  0.00    -0.205 F 
ATOM     81  C   UNL A   1      38.953  22.291  26.306  1.00  0.00     0.022 A 
BRANCH  79  82
ATOM     82  S   UNL A   1      41.026  20.630  26.955  1.00  0.00     0.127 S 
ATOM     83  O   UNL A   1      40.128  19.816  26.140  1.00  0.00    -0.237 OA
ATOM     84  O   UNL A   1      42.328  20.910  26.350  1.00  0.00    -0.237 OA
ATOM     85  O   UNL A   1      41.080  20.284  28.369  1.00  0.00    -0.744 OA
ENDBRANCH  79  82
ENDBRANCH  51  75
BRANCH  63  86
ATOM     86  C   UNL A   1      46.602  27.339  25.906  1.00  0.00     0.023 A 
ATOM     87  C   UNL A   1      46.738  27.629  24.535  1.00  0.00     0.012 A 
ATOM     88  C   UNL A   1      47.661  26.698  26.584  1.00  0.00     0.148 A 
ATOM     89  C   UNL A   1      47.894  27.267  23.843  1.00  0.00     0.002 A 
ATOM     90  C   UNL A   1      48.833  26.393  25.902  1.00  0.00     0.091 A 
ATOM     91  F   UNL A   1      47.510  26.420  27.887  1.00  0.00    -0.205 F 
ATOM     92  C   UNL A   1      48.946  26.664  24.529  1.00  0.00     0.022 A 
BRANCH  90  93
ATOM     93  S   UNL A   1      50.283  25.717  26.720  1.00  0.00     0.127 S 
ATOM     94  O   UNL A   1      49.766  24.459  27.254  1.00  0.00    -0.237 OA
ATOM     95  O   UNL A   1      51.222  25.569  25.608  1.00  0.00    -0.237 OA
ATOM     96  O   UNL A   1      50.677  26.699  27.723  1.00  0.00    -0.744 OA
ENDBRANCH  90  93
ENDBRANCH  63  86
ENDBRANCH  37  38
ENDBRANCH  30  32
ENDBRANCH  29  30
ENDBRANCH  28  29
ENDBRANCH  27  28
ENDBRANCH  26  27
ENDBRANCH   1  26
TORSDOF 22
ENDMDL
MODEL 3
REMARK VINA RESULT:     -10.5      5.161     11.068
REMARK SMILES C#Cc1cc(Cl)c2c(c1)C=C(C(=O)OCCOCCOCCOC(=O)c1ccc(-c3c4nc(c(-c5cccc(S(=O)(=O)[O-])c5F)c5ccc([nH]5)c(-c5cccc(S(=O)(=O)[O-])c5F)c5nc(c(-c6cccc(S(=O)(=O)[O-])c6F)c6ccc3[nH]6)C=C5)C=C4)cc1)[C@@H](C(F)(F)F)O2
REMARK SMILES IDX 19 1 18 2 17 3 16 4 15 5 14 6 12 7 13 8 11 9 3 10 4 11 9 12
REMARK SMILES IDX 5 13 8 14 6 15 7 16 10 17 94 18 89 19 2 20 1 21 90 22 91 23
REMARK SMILES IDX 92 24 93 25 20 26 21 27 22 28 23 29 24 30 25 31 26 32 27 33
REMARK SMILES IDX 88 34 28 35 87 36 29 37 30 38 31 39 81 40 32 41 86 42 80 43
REMARK SMILES IDX 82 44 33 45 85 46 79 47 78 48 34 50 66 51 46 52 65 53 47 54
REMARK SMILES IDX 50 55 64 56 83 57 48 58 49 59 63 61 84 62 51 63 35 64 36 65
REMARK SMILES IDX 44 66 37 67 39 68 45 69 38 70 40 71 41 72 42 73 43 74 67 75
REMARK SMILES IDX 68 76 76 77 69 78 71 79 77 80 70 81 72 82 73 83 74 84 75 85
REMARK SMILES IDX 52 86 53 87 61 88 54 89 56 90 62 91 55 92 57 93 58 94 59 95
REMARK SMILES IDX 60 96
REMARK H PARENT 82 49 50 60
REMARK Flexibility Score: inf
ROOT
ATOM      1  C   UNL A   1      35.717  31.874  29.917  1.00  0.00     0.188 C 
ENDROOT
BRANCH   1   2
ATOM      2  C   UNL A   1      35.880  30.439  30.458  1.00  0.00     0.188 C 
BRANCH   2   3
ATOM      3  O   UNL A   1      36.154  29.449  29.495  1.00  0.00    -0.376 OA
BRANCH   3   4
ATOM      4  C   UNL A   1      36.434  29.805  28.153  1.00  0.00     0.202 C 
BRANCH   4   5
ATOM      5  C   UNL A   1      35.485  29.624  26.948  1.00  0.00     0.261 C 
BRANCH   5   6
ATOM      6  O   UNL A   1      34.367  28.746  27.095  1.00  0.00    -0.460 OA
BRANCH   6   7
ATOM      7  C   UNL A   1      33.774  28.341  25.945  1.00  0.00     0.338 C 
ATOM      8  O   UNL A   1      33.616  29.000  24.933  1.00  0.00    -0.246 OA
BRANCH   7   9
ATOM      9  C   UNL A   1      33.456  26.899  26.043  1.00  0.00     0.087 C 
ATOM     10  C   UNL A   1      34.828  22.317  25.481  1.00  0.00     0.027 A 
ATOM     11  C   UNL A   1      33.503  21.903  25.609  1.00  0.00     0.041 A 
ATOM     12  C   UNL A   1      35.155  23.669  25.636  1.00  0.00     0.029 A 
ATOM     13  C   UNL A   1      32.511  22.835  25.914  1.00  0.00     0.084 A 
ATOM     14  C   UNL A   1      34.152  24.613  25.893  1.00  0.00     0.020 A 
ATOM     15  Cl  UNL A   1      30.880  22.277  26.048  1.00  0.00    -0.080 Cl
ATOM     16  C   UNL A   1      32.828  24.193  26.063  1.00  0.00     0.146 A 
ATOM     17  C   UNL A   1      34.468  26.034  25.895  1.00  0.00     0.027 C 
ATOM     18  O   UNL A   1      31.811  25.054  26.369  1.00  0.00    -0.474 OA
ATOM     19  C   UNL A   1      32.036  26.486  26.316  1.00  0.00     0.316 C 
BRANCH  10  20
ATOM     20  C   UNL A   1      35.841  21.367  25.147  1.00  0.00    -0.070 C 
ATOM     21  C   UNL A   1      36.687  20.554  24.878  1.00  0.00     0.010 C 
ENDBRANCH  10  20
BRANCH  19  22
ATOM     22  C   UNL A   1      31.055  27.095  25.306  1.00  0.00     0.430 C 
ATOM     23  F   UNL A   1      29.862  26.454  25.329  1.00  0.00    -0.167 F 
ATOM     24  F   UNL A   1      30.798  28.397  25.574  1.00  0.00    -0.167 F 
ATOM     25  F   UNL A   1      31.527  27.028  24.040  1.00  0.00    -0.167 F 
ENDBRANCH  19  22
ENDBRANCH   7   9
ENDBRANCH   6   7
ENDBRANCH   5   6
ENDBRANCH   4   5
ENDBRANCH   3   4
ENDBRANCH   2   3
ENDBRANCH   1   2
BRANCH   1  26
ATOM     26  O   UNL A   1      34.619  32.642  30.361  1.00  0.00    -0.376 OA
BRANCH  26  27
ATOM     27  C   UNL A   1      34.330  32.690  31.752  1.00  0.00     0.202 C 
BRANCH  27  28
ATOM     28  C   UNL A   1      35.191  33.401  32.825  1.00  0.00     0.261 C 
BRANCH  28  29
ATOM     29  O   UNL A   1      36.026  32.606  33.678  1.00  0.00    -0.460 OA
BRANCH  29  30
ATOM     30  C   UNL A   1      37.313  33.020  33.816  1.00  0.00     0.338 C 
ATOM     31  O   UNL A   1      37.761  33.740  34.690  1.00  0.00    -0.246 OA
BRANCH  30  32
ATOM     32  C   UNL A   1      38.158  32.276  32.855  1.00  0.00     0.060 A 
ATOM     33  C   UNL A   1      38.724  31.051  33.247  1.00  0.00     0.016 A 
ATOM     34  C   UNL A   1      38.402  32.787  31.582  1.00  0.00     0.016 A 
ATOM     35  C   UNL A   1      39.533  30.334  32.367  1.00  0.00     0.010 A 
ATOM     36  C   UNL A   1      39.247  32.086  30.714  1.00  0.00     0.010 A 
ATOM     37  C   UNL A   1      39.836  30.870  31.111  1.00  0.00    -0.014 A 
BRANCH  37  38
ATOM     38  C   UNL A   1      40.913  30.259  30.292  1.00  0.00     0.031 A 
ATOM     39  C   UNL A   1      42.198  31.024  30.122  1.00  0.00     0.074 A 
ATOM     40  C   UNL A   1      40.767  29.049  29.723  1.00  0.00     0.049 A 
ATOM     41  N   UNL A   1      43.253  30.722  29.414  1.00  0.00    -0.248 NA
ATOM     42  C   UNL A   1      42.308  32.301  30.850  1.00  0.00     0.031 C 
ATOM     43  C   UNL A   1      39.585  28.197  29.840  1.00  0.00     0.029 A 
ATOM     44  N   UNL A   1      41.617  28.337  28.911  1.00  0.00    -0.354 N 
ATOM     45  C   UNL A   1      44.139  31.779  29.586  1.00  0.00     0.074 A 
ATOM     46  C   UNL A   1      43.495  32.738  30.455  1.00  0.00     0.031 C 
ATOM     47  C   UNL A   1      39.774  27.087  29.104  1.00  0.00     0.029 A 
ATOM     48  C   UNL A   1      41.074  27.164  28.438  1.00  0.00     0.049 A 
ATOM     49  H   UNL A   1      42.527  28.637  28.689  1.00  0.00     0.167 HD
ATOM     50  C   UNL A   1      45.385  31.928  29.080  1.00  0.00     0.034 A 
ATOM     51  C   UNL A   1      41.560  26.271  27.549  1.00  0.00     0.034 A 
ATOM     52  C   UNL A   1      46.030  30.965  28.231  1.00  0.00     0.049 A 
ATOM     53  C   UNL A   1      42.930  26.493  26.954  1.00  0.00     0.074 A 
ATOM     54  C   UNL A   1      47.304  31.017  27.695  1.00  0.00     0.029 A 
ATOM     55  N   UNL A   1      45.455  29.786  27.785  1.00  0.00    -0.354 N 
ATOM     56  N   UNL A   1      43.793  27.449  27.201  1.00  0.00    -0.248 NA
ATOM     57  C   UNL A   1      43.406  25.498  25.980  1.00  0.00     0.031 C 
ATOM     58  C   UNL A   1      47.484  29.892  26.889  1.00  0.00     0.029 A 
ATOM     59  C   UNL A   1      46.342  29.110  26.965  1.00  0.00     0.049 A 
ATOM     60  H   UNL A   1      44.550  29.476  28.017  1.00  0.00     0.167 HD
ATOM     61  C   UNL A   1      44.923  27.152  26.443  1.00  0.00     0.074 A 
ATOM     62  C   UNL A   1      44.644  25.912  25.748  1.00  0.00     0.031 C 
ATOM     63  C   UNL A   1      46.079  27.849  26.322  1.00  0.00     0.034 A 
BRANCH  50  64
ATOM     64  C   UNL A   1      46.162  33.165  29.448  1.00  0.00     0.023 A 
ATOM     65  C   UNL A   1      47.003  33.149  30.578  1.00  0.00     0.012 A 
ATOM     66  C   UNL A   1      46.155  34.294  28.605  1.00  0.00     0.148 A 
ATOM     67  C   UNL A   1      47.818  34.241  30.870  1.00  0.00     0.002 A 
ATOM     68  C   UNL A   1      47.008  35.358  28.873  1.00  0.00     0.091 A 
ATOM     69  F   UNL A   1      45.332  34.296  27.546  1.00  0.00    -0.205 F 
ATOM     70  C   UNL A   1      47.833  35.336  30.010  1.00  0.00     0.022 A 
BRANCH  68  71
ATOM     71  S   UNL A   1      47.174  36.771  27.779  1.00  0.00     0.127 S 
ATOM     72  O   UNL A   1      47.630  36.136  26.543  1.00  0.00    -0.237 OA
ATOM     73  O   UNL A   1      45.805  37.283  27.732  1.00  0.00    -0.237 OA
ATOM     74  O   UNL A   1      48.142  37.659  28.407  1.00  0.00    -0.744 OA
ENDBRANCH  68  71
ENDBRANCH  50  64
BRANCH  51  75
ATOM     75  C   UNL A   1      40.761  25.064  27.182  1.00  0.00     0.023 A 
ATOM     76  C   UNL A   1      39.498  25.222  26.580  1.00  0.00     0.012 A 
ATOM     77  C   UNL A   1      41.247  23.762  27.421  1.00  0.00     0.148 A 
ATOM     78  C   UNL A   1      38.719  24.110  26.253  1.00  0.00     0.002 A 
ATOM     79  C   UNL A   1      40.494  22.659  27.035  1.00  0.00     0.091 A 
ATOM     80  F   UNL A   1      42.442  23.629  28.012  1.00  0.00    -0.205 F 
ATOM     81  C   UNL A   1      39.221  22.830  26.469  1.00  0.00     0.022 A 
BRANCH  79  82
ATOM     82  S   UNL A   1      41.111  20.976  27.154  1.00  0.00     0.127 S 
ATOM     83  O   UNL A   1      40.798  20.640  28.540  1.00  0.00    -0.237 OA
ATOM     84  O   UNL A   1      40.294  20.290  26.152  1.00  0.00    -0.237 OA
ATOM     85  O   UNL A   1      42.528  21.051  26.829  1.00  0.00    -0.744 OA
ENDBRANCH  79  82
ENDBRANCH  51  75
BRANCH  63  86
ATOM     86  C   UNL A   1      47.166  27.291  25.435  1.00  0.00     0.023 A 
ATOM     87  C   UNL A   1      47.932  26.191  25.868  1.00  0.00     0.012 A 
ATOM     88  C   UNL A   1      47.341  27.779  24.123  1.00  0.00     0.148 A 
ATOM     89  C   UNL A   1      48.872  25.603  25.022  1.00  0.00     0.002 A 
ATOM     90  C   UNL A   1      48.237  27.152  23.266  1.00  0.00     0.091 A 
ATOM     91  F   UNL A   1      46.610  28.833  23.731  1.00  0.00    -0.205 F 
ATOM     92  C   UNL A   1      49.013  26.073  23.718  1.00  0.00     0.022 A 
BRANCH  90  93
ATOM     93  S   UNL A   1      48.410  27.611  21.537  1.00  0.00     0.127 S 
ATOM     94  O   UNL A   1      49.465  28.621  21.601  1.00  0.00    -0.237 OA
ATOM     95  O   UNL A   1      48.812  26.346  20.922  1.00  0.00    -0.237 OA
ATOM     96  O   UNL A   1      47.105  28.105  21.116  1.00  0.00    -0.744 OA
ENDBRANCH  90  93
ENDBRANCH  63  86
ENDBRANCH  37  38
ENDBRANCH  30  32
ENDBRANCH  29  30
ENDBRANCH  28  29
ENDBRANCH  27  28
ENDBRANCH  26  27
ENDBRANCH   1  26
TORSDOF 22
ENDMDL
