MODEL 1
REMARK VINA RESULT:      -8.8      0.000      0.000
REMARK SMILES O=C(OCCOCCOCCOC(=O)c1cncc(OCCCc2ccccc2)n1)c1ccc(-c2c3nc(c(-c4cccc(S(=O)(=O)[O-])c4F)c4ccc([nH]4)c(-c4cccc(S(=O)(=O)[O-])c4F)c4nc(c(-c5cccc(S(=O)(=O)[O-])c5F)c5ccc2[nH]5)C=C4)C=C3)cc1
REMARK SMILES IDX 8 1 7 2 6 3 5 4 4 5 3 6 2 7 1 8 31 9 32 10 93 11 33 12 92 13
REMARK SMILES IDX 34 14 35 15 36 16 86 17 37 18 91 19 85 20 87 21 38 22 90 23
REMARK SMILES IDX 84 24 83 25 39 27 71 28 51 29 70 30 52 31 55 32 69 33 88 34
REMARK SMILES IDX 53 35 54 36 68 38 89 39 56 40 40 41 41 42 49 43 42 44 44 45
REMARK SMILES IDX 50 46 43 47 45 48 46 49 47 50 48 51 72 52 73 53 81 54 74 55
REMARK SMILES IDX 76 56 82 57 75 58 77 59 78 60 79 61 80 62 57 63 58 64 66 65
REMARK SMILES IDX 59 66 61 67 67 68 60 69 62 70 63 71 64 72 65 73 9 74 10 75
REMARK SMILES IDX 11 76 12 77 13 78 14 79 15 80 16 81 30 82 17 83 19 84 18 85
REMARK SMILES IDX 20 86 21 87 22 88 23 89 24 90 25 91 29 92 26 93 28 94 27 95
REMARK H PARENT 87 26 55 37
REMARK Flexibility Score: inf
ROOT
ATOM      1  C   UNL A   1      38.828  24.515  26.762  1.00  0.00     0.188 C 
ENDROOT
BRANCH   1   2
ATOM      2  C   UNL A   1      39.952  25.149  27.591  1.00  0.00     0.188 C 
BRANCH   2   3
ATOM      3  O   UNL A   1      39.404  26.051  28.551  1.00  0.00    -0.376 OA
BRANCH   3   4
ATOM      4  C   UNL A   1      39.713  27.423  28.338  1.00  0.00     0.202 C 
BRANCH   4   5
ATOM      5  C   UNL A   1      40.288  27.753  26.957  1.00  0.00     0.261 C 
BRANCH   5   6
ATOM      6  O   UNL A   1      40.815  29.086  26.869  1.00  0.00    -0.460 OA
BRANCH   6   7
ATOM      7  C   UNL A   1      41.920  29.347  26.128  1.00  0.00     0.338 C 
ATOM      8  O   UNL A   1      41.909  29.502  24.918  1.00  0.00    -0.246 OA
BRANCH   7   9
ATOM      9  C   UNL A   1      43.141  28.970  26.868  1.00  0.00     0.060 A 
ATOM     10  C   UNL A   1      44.065  28.095  26.297  1.00  0.00     0.016 A 
ATOM     11  C   UNL A   1      43.363  29.496  28.147  1.00  0.00     0.016 A 
ATOM     12  C   UNL A   1      45.248  27.797  26.968  1.00  0.00     0.010 A 
ATOM     13  C   UNL A   1      44.549  29.199  28.824  1.00  0.00     0.010 A 
ATOM     14  C   UNL A   1      45.483  28.324  28.245  1.00  0.00    -0.014 A 
BRANCH  14  15
ATOM     15  C   UNL A   1      46.498  27.665  29.094  1.00  0.00     0.031 A 
ATOM     16  C   UNL A   1      45.998  27.038  30.364  1.00  0.00     0.074 A 
ATOM     17  C   UNL A   1      47.794  27.560  28.750  1.00  0.00     0.049 A 
ATOM     18  N   UNL A   1      46.636  26.287  31.218  1.00  0.00    -0.248 NA
ATOM     19  C   UNL A   1      44.578  27.259  30.697  1.00  0.00     0.031 C 
ATOM     20  C   UNL A   1      48.396  28.082  27.526  1.00  0.00     0.029 A 
ATOM     21  N   UNL A   1      48.844  26.977  29.420  1.00  0.00    -0.354 N 
ATOM     22  C   UNL A   1      45.697  25.942  32.177  1.00  0.00     0.074 A 
ATOM     23  C   UNL A   1      44.452  26.578  31.822  1.00  0.00     0.031 C 
ATOM     24  C   UNL A   1      49.715  27.824  27.559  1.00  0.00     0.029 A 
ATOM     25  C   UNL A   1      50.060  27.160  28.805  1.00  0.00     0.049 A 
ATOM     26  H   UNL A   1      48.736  26.476  30.260  1.00  0.00     0.167 HD
ATOM     27  C   UNL A   1      45.850  25.143  33.253  1.00  0.00     0.034 A 
ATOM     28  C   UNL A   1      51.309  26.846  29.203  1.00  0.00     0.034 A 
ATOM     29  C   UNL A   1      47.091  24.536  33.626  1.00  0.00     0.049 A 
ATOM     30  C   UNL A   1      51.474  26.058  30.475  1.00  0.00     0.074 A 
ATOM     31  C   UNL A   1      47.343  23.674  34.674  1.00  0.00     0.029 A 
ATOM     32  N   UNL A   1      48.300  24.772  32.990  1.00  0.00    -0.354 N 
ATOM     33  N   UNL A   1      50.546  25.578  31.269  1.00  0.00    -0.248 NA
ATOM     34  C   UNL A   1      52.846  25.720  30.884  1.00  0.00     0.031 C 
ATOM     35  C   UNL A   1      48.719  23.428  34.705  1.00  0.00     0.029 A 
ATOM     36  C   UNL A   1      49.314  24.111  33.654  1.00  0.00     0.049 A 
ATOM     37  H   UNL A   1      48.417  25.328  32.186  1.00  0.00     0.167 HD
ATOM     38  C   UNL A   1      51.217  24.854  32.246  1.00  0.00     0.074 A 
ATOM     39  C   UNL A   1      52.629  24.942  31.937  1.00  0.00     0.031 C 
ATOM     40  C   UNL A   1      50.708  24.180  33.305  1.00  0.00     0.034 A 
BRANCH  27  41
ATOM     41  C   UNL A   1      44.637  24.904  34.099  1.00  0.00     0.023 A 
ATOM     42  C   UNL A   1      43.989  23.654  34.057  1.00  0.00     0.012 A 
ATOM     43  C   UNL A   1      44.142  25.923  34.932  1.00  0.00     0.148 A 
ATOM     44  C   UNL A   1      42.846  23.428  34.819  1.00  0.00     0.002 A 
ATOM     45  C   UNL A   1      43.026  25.678  35.716  1.00  0.00     0.091 A 
ATOM     46  F   UNL A   1      44.761  27.112  34.921  1.00  0.00    -0.205 F 
ATOM     47  C   UNL A   1      42.369  24.436  35.654  1.00  0.00     0.022 A 
BRANCH  45  48
ATOM     48  S   UNL A   1      42.362  26.891  36.859  1.00  0.00     0.127 S 
ATOM     49  O   UNL A   1      41.632  26.043  37.800  1.00  0.00    -0.237 OA
ATOM     50  O   UNL A   1      43.580  27.494  37.398  1.00  0.00    -0.237 OA
ATOM     51  O   UNL A   1      41.532  27.785  36.064  1.00  0.00    -0.744 OA
ENDBRANCH  45  48
ENDBRANCH  27  41
BRANCH  28  52
ATOM     52  C   UNL A   1      52.506  27.262  28.412  1.00  0.00     0.023 A 
ATOM     53  C   UNL A   1      53.104  28.516  28.644  1.00  0.00     0.012 A 
ATOM     54  C   UNL A   1      53.017  26.442  27.383  1.00  0.00     0.148 A 
ATOM     55  C   UNL A   1      54.160  28.963  27.846  1.00  0.00     0.002 A 
ATOM     56  C   UNL A   1      54.086  26.883  26.606  1.00  0.00     0.091 A 
ATOM     57  F   UNL A   1      52.434  25.254  27.170  1.00  0.00    -0.205 F 
ATOM     58  C   UNL A   1      54.651  28.147  26.829  1.00  0.00     0.022 A 
BRANCH  56  59
ATOM     59  S   UNL A   1      54.804  25.896  25.285  1.00  0.00     0.127 S 
ATOM     60  O   UNL A   1      55.714  26.850  24.657  1.00  0.00    -0.237 OA
ATOM     61  O   UNL A   1      55.458  24.820  26.028  1.00  0.00    -0.237 OA
ATOM     62  O   UNL A   1      53.685  25.464  24.457  1.00  0.00    -0.744 OA
ENDBRANCH  56  59
ENDBRANCH  28  52
BRANCH  40  63
ATOM     63  C   UNL A   1      51.673  23.468  34.210  1.00  0.00     0.023 A 
ATOM     64  C   UNL A   1      52.051  24.062  35.429  1.00  0.00     0.012 A 
ATOM     65  C   UNL A   1      52.102  22.161  33.906  1.00  0.00     0.148 A 
ATOM     66  C   UNL A   1      52.860  23.369  36.328  1.00  0.00     0.002 A 
ATOM     67  C   UNL A   1      52.864  21.458  34.830  1.00  0.00     0.091 A 
ATOM     68  F   UNL A   1      51.740  21.627  32.731  1.00  0.00    -0.205 F 
ATOM     69  C   UNL A   1      53.252  22.064  36.035  1.00  0.00     0.022 A 
BRANCH  67  70
ATOM     70  S   UNL A   1      53.317  19.738  34.589  1.00  0.00     0.127 S 
ATOM     71  O   UNL A   1      54.346  19.556  35.612  1.00  0.00    -0.237 OA
ATOM     72  O   UNL A   1      52.058  19.045  34.859  1.00  0.00    -0.237 OA
ATOM     73  O   UNL A   1      53.784  19.631  33.213  1.00  0.00    -0.744 OA
ENDBRANCH  67  70
ENDBRANCH  40  63
ENDBRANCH  14  15
ENDBRANCH   7   9
ENDBRANCH   6   7
ENDBRANCH   5   6
ENDBRANCH   4   5
ENDBRANCH   3   4
ENDBRANCH   2   3
ENDBRANCH   1   2
BRANCH   1  74
ATOM     74  O   UNL A   1      39.086  23.150  26.405  1.00  0.00    -0.376 OA
BRANCH  74  75
ATOM     75  C   UNL A   1      40.168  22.518  27.082  1.00  0.00     0.202 C 
BRANCH  75  76
ATOM     76  C   UNL A   1      40.517  21.100  26.624  1.00  0.00     0.261 C 
BRANCH  76  77
ATOM     77  O   UNL A   1      41.764  20.970  25.924  1.00  0.00    -0.458 OA
BRANCH  77  78
ATOM     78  C   UNL A   1      42.155  19.688  25.681  1.00  0.00     0.358 C 
ATOM     79  O   UNL A   1      41.435  18.703  25.653  1.00  0.00    -0.244 OA
BRANCH  78  80
ATOM     80  C   UNL A   1      43.627  19.628  25.586  1.00  0.00     0.170 A 
ATOM     81  C   UNL A   1      44.206  18.441  25.179  1.00  0.00     0.147 A 
ATOM     82  N   UNL A   1      44.334  20.776  25.745  1.00  0.00    -0.203 NA
ATOM     83  N   UNL A   1      45.531  18.340  24.934  1.00  0.00    -0.257 NA
ATOM     84  C   UNL A   1      45.664  20.668  25.508  1.00  0.00     0.233 A 
ATOM     85  C   UNL A   1      46.251  19.481  25.098  1.00  0.00     0.179 A 
BRANCH  84  86
ATOM     86  O   UNL A   1      46.388  21.830  25.488  1.00  0.00    -0.477 OA
BRANCH  86  87
ATOM     87  C   UNL A   1      46.222  22.569  24.277  1.00  0.00     0.232 C 
BRANCH  87  88
ATOM     88  C   UNL A   1      46.653  24.026  24.483  1.00  0.00     0.046 C 
BRANCH  88  89
ATOM     89  C   UNL A   1      45.585  24.962  25.061  1.00  0.00     0.039 C 
BRANCH  89  90
ATOM     90  C   UNL A   1      45.095  24.524  26.416  1.00  0.00    -0.048 A 
ATOM     91  C   UNL A   1      43.756  24.185  26.609  1.00  0.00     0.004 A 
ATOM     92  C   UNL A   1      45.981  24.427  27.496  1.00  0.00     0.004 A 
ATOM     93  C   UNL A   1      43.323  23.701  27.829  1.00  0.00     0.000 A 
ATOM     94  C   UNL A   1      45.547  23.941  28.725  1.00  0.00     0.000 A 
ATOM     95  C   UNL A   1      44.226  23.547  28.876  1.00  0.00     0.000 A 
ENDBRANCH  89  90
ENDBRANCH  88  89
ENDBRANCH  87  88
ENDBRANCH  86  87
ENDBRANCH  84  86
ENDBRANCH  78  80
ENDBRANCH  77  78
ENDBRANCH  76  77
ENDBRANCH  75  76
ENDBRANCH  74  75
ENDBRANCH   1  74
TORSDOF 25
ENDMDL
MODEL 2
REMARK VINA RESULT:      -8.5      6.881     13.206
REMARK SMILES O=C(OCCOCCOCCOC(=O)c1cncc(OCCCc2ccccc2)n1)c1ccc(-c2c3nc(c(-c4cccc(S(=O)(=O)[O-])c4F)c4ccc([nH]4)c(-c4cccc(S(=O)(=O)[O-])c4F)c4nc(c(-c5cccc(S(=O)(=O)[O-])c5F)c5ccc2[nH]5)C=C4)C=C3)cc1
REMARK SMILES IDX 8 1 7 2 6 3 5 4 4 5 3 6 2 7 1 8 31 9 32 10 93 11 33 12 92 13
REMARK SMILES IDX 34 14 35 15 36 16 86 17 37 18 91 19 85 20 87 21 38 22 90 23
REMARK SMILES IDX 84 24 83 25 39 27 71 28 51 29 70 30 52 31 55 32 69 33 88 34
REMARK SMILES IDX 53 35 54 36 68 38 89 39 56 40 40 41 41 42 49 43 42 44 44 45
REMARK SMILES IDX 50 46 43 47 45 48 46 49 47 50 48 51 72 52 73 53 81 54 74 55
REMARK SMILES IDX 76 56 82 57 75 58 77 59 78 60 79 61 80 62 57 63 58 64 66 65
REMARK SMILES IDX 59 66 61 67 67 68 60 69 62 70 63 71 64 72 65 73 9 74 10 75
REMARK SMILES IDX 11 76 12 77 13 78 14 79 15 80 16 81 30 82 17 83 19 84 18 85
REMARK SMILES IDX 20 86 21 87 22 88 23 89 24 90 25 91 29 92 26 93 28 94 27 95
REMARK H PARENT 87 26 55 37
REMARK Flexibility Score: inf
ROOT
ATOM      1  C   UNL A   1      36.930  23.456  25.128  1.00  0.00     0.188 C 
ENDROOT
BRANCH   1   2
ATOM      2  C   UNL A   1      37.933  22.631  25.945  1.00  0.00     0.188 C 
BRANCH   2   3
ATOM      3  O   UNL A   1      38.341  21.481  25.205  1.00  0.00    -0.376 OA
BRANCH   3   4
ATOM      4  C   UNL A   1      39.459  20.783  25.739  1.00  0.00     0.202 C 
BRANCH   4   5
ATOM      5  C   UNL A   1      40.099  21.427  26.972  1.00  0.00     0.261 C 
BRANCH   5   6
ATOM      6  O   UNL A   1      41.499  21.697  26.805  1.00  0.00    -0.460 OA
BRANCH   6   7
ATOM      7  C   UNL A   1      41.923  22.656  25.946  1.00  0.00     0.338 C 
ATOM      8  O   UNL A   1      42.655  22.444  24.994  1.00  0.00    -0.246 OA
BRANCH   7   9
ATOM      9  C   UNL A   1      41.779  23.996  26.552  1.00  0.00     0.060 A 
ATOM     10  C   UNL A   1      41.603  25.116  25.742  1.00  0.00     0.016 A 
ATOM     11  C   UNL A   1      41.822  24.130  27.945  1.00  0.00     0.016 A 
ATOM     12  C   UNL A   1      41.397  26.367  26.318  1.00  0.00     0.010 A 
ATOM     13  C   UNL A   1      41.617  25.384  28.529  1.00  0.00     0.010 A 
ATOM     14  C   UNL A   1      41.432  26.512  27.712  1.00  0.00    -0.014 A 
BRANCH  14  15
ATOM     15  C   UNL A   1      41.650  27.866  28.266  1.00  0.00     0.031 A 
ATOM     16  C   UNL A   1      43.079  28.307  28.399  1.00  0.00     0.074 A 
ATOM     17  C   UNL A   1      40.647  28.704  28.585  1.00  0.00     0.049 A 
ATOM     18  N   UNL A   1      43.551  29.479  28.723  1.00  0.00    -0.248 NA
ATOM     19  C   UNL A   1      44.114  27.302  28.091  1.00  0.00     0.031 C 
ATOM     20  C   UNL A   1      39.221  28.414  28.458  1.00  0.00     0.029 A 
ATOM     21  N   UNL A   1      40.688  29.979  29.096  1.00  0.00    -0.354 N 
ATOM     22  C   UNL A   1      44.929  29.353  28.649  1.00  0.00     0.074 A 
ATOM     23  C   UNL A   1      45.226  27.992  28.274  1.00  0.00     0.031 C 
ATOM     24  C   UNL A   1      38.531  29.474  28.918  1.00  0.00     0.029 A 
ATOM     25  C   UNL A   1      39.449  30.492  29.400  1.00  0.00     0.049 A 
ATOM     26  H   UNL A   1      41.526  30.480  29.231  1.00  0.00     0.167 HD
ATOM     27  C   UNL A   1      45.871  30.296  28.853  1.00  0.00     0.034 A 
ATOM     28  C   UNL A   1      39.093  31.639  30.012  1.00  0.00     0.034 A 
ATOM     29  C   UNL A   1      45.582  31.638  29.256  1.00  0.00     0.049 A 
ATOM     30  C   UNL A   1      40.172  32.633  30.349  1.00  0.00     0.074 A 
ATOM     31  C   UNL A   1      46.461  32.684  29.448  1.00  0.00     0.029 A 
ATOM     32  N   UNL A   1      44.317  32.102  29.580  1.00  0.00    -0.354 N 
ATOM     33  N   UNL A   1      41.457  32.566  30.092  1.00  0.00    -0.248 NA
ATOM     34  C   UNL A   1      39.756  33.880  31.008  1.00  0.00     0.031 C 
ATOM     35  C   UNL A   1      45.733  33.771  29.940  1.00  0.00     0.029 A 
ATOM     36  C   UNL A   1      44.397  33.409  30.019  1.00  0.00     0.049 A 
ATOM     37  H   UNL A   1      43.486  31.579  29.506  1.00  0.00     0.167 HD
ATOM     38  C   UNL A   1      41.995  33.772  30.522  1.00  0.00     0.074 A 
ATOM     39  C   UNL A   1      40.895  34.559  31.042  1.00  0.00     0.031 C 
ATOM     40  C   UNL A   1      43.284  34.188  30.494  1.00  0.00     0.034 A 
BRANCH  27  41
ATOM     41  C   UNL A   1      47.298  29.885  28.654  1.00  0.00     0.023 A 
ATOM     42  C   UNL A   1      47.903  30.046  27.391  1.00  0.00     0.012 A 
ATOM     43  C   UNL A   1      48.033  29.337  29.719  1.00  0.00     0.148 A 
ATOM     44  C   UNL A   1      49.220  29.644  27.186  1.00  0.00     0.002 A 
ATOM     45  C   UNL A   1      49.356  28.974  29.517  1.00  0.00     0.091 A 
ATOM     46  F   UNL A   1      47.417  29.164  30.897  1.00  0.00    -0.205 F 
ATOM     47  C   UNL A   1      49.949  29.117  28.250  1.00  0.00     0.022 A 
BRANCH  45  48
ATOM     48  S   UNL A   1      50.393  28.331  30.831  1.00  0.00     0.127 S 
ATOM     49  O   UNL A   1      49.682  27.108  31.199  1.00  0.00    -0.237 OA
ATOM     50  O   UNL A   1      51.661  28.115  30.135  1.00  0.00    -0.237 OA
ATOM     51  O   UNL A   1      50.425  29.359  31.862  1.00  0.00    -0.744 OA
ENDBRANCH  45  48
ENDBRANCH  27  41
BRANCH  28  52
ATOM     52  C   UNL A   1      37.667  31.927  30.353  1.00  0.00     0.023 A 
ATOM     53  C   UNL A   1      37.162  31.587  31.623  1.00  0.00     0.012 A 
ATOM     54  C   UNL A   1      36.790  32.484  29.397  1.00  0.00     0.148 A 
ATOM     55  C   UNL A   1      35.808  31.757  31.923  1.00  0.00     0.002 A 
ATOM     56  C   UNL A   1      35.446  32.674  29.711  1.00  0.00     0.091 A 
ATOM     57  F   UNL A   1      37.284  32.798  28.191  1.00  0.00    -0.205 F 
ATOM     58  C   UNL A   1      34.952  32.301  30.969  1.00  0.00     0.022 A 
BRANCH  56  59
ATOM     59  S   UNL A   1      34.267  33.388  28.555  1.00  0.00     0.127 S 
ATOM     60  O   UNL A   1      35.140  34.151  27.666  1.00  0.00    -0.237 OA
ATOM     61  O   UNL A   1      33.668  32.197  27.954  1.00  0.00    -0.237 OA
ATOM     62  O   UNL A   1      33.350  34.184  29.361  1.00  0.00    -0.744 OA
ENDBRANCH  56  59
ENDBRANCH  28  52
BRANCH  40  63
ATOM     63  C   UNL A   1      43.589  35.559  31.024  1.00  0.00     0.023 A 
ATOM     64  C   UNL A   1      43.689  36.644  30.132  1.00  0.00     0.012 A 
ATOM     65  C   UNL A   1      43.652  35.788  32.412  1.00  0.00     0.148 A 
ATOM     66  C   UNL A   1      43.866  37.939  30.616  1.00  0.00     0.002 A 
ATOM     67  C   UNL A   1      43.775  37.086  32.888  1.00  0.00     0.091 A 
ATOM     68  F   UNL A   1      43.571  34.735  33.238  1.00  0.00    -0.205 F 
ATOM     69  C   UNL A   1      43.892  38.161  31.991  1.00  0.00     0.022 A 
BRANCH  67  70
ATOM     70  S   UNL A   1      43.705  37.478  34.638  1.00  0.00     0.127 S 
ATOM     71  O   UNL A   1      44.066  38.896  34.640  1.00  0.00    -0.237 OA
ATOM     72  O   UNL A   1      42.305  37.204  34.960  1.00  0.00    -0.237 OA
ATOM     73  O   UNL A   1      44.661  36.593  35.290  1.00  0.00    -0.744 OA
ENDBRANCH  67  70
ENDBRANCH  40  63
ENDBRANCH  14  15
ENDBRANCH   7   9
ENDBRANCH   6   7
ENDBRANCH   5   6
ENDBRANCH   4   5
ENDBRANCH   3   4
ENDBRANCH   2   3
ENDBRANCH   1   2
BRANCH   1  74
ATOM     74  O   UNL A   1      35.658  22.812  24.973  1.00  0.00    -0.376 OA
BRANCH  74  75
ATOM     75  C   UNL A   1      35.093  22.248  26.152  1.00  0.00     0.202 C 
BRANCH  75  76
ATOM     76  C   UNL A   1      34.125  21.081  25.947  1.00  0.00     0.261 C 
BRANCH  76  77
ATOM     77  O   UNL A   1      32.732  21.409  26.068  1.00  0.00    -0.458 OA
BRANCH  77  78
ATOM     78  C   UNL A   1      32.475  22.696  26.436  1.00  0.00     0.358 C 
ATOM     79  O   UNL A   1      32.400  23.122  27.577  1.00  0.00    -0.244 OA
BRANCH  78  80
ATOM     80  C   UNL A   1      32.159  23.501  25.239  1.00  0.00     0.170 A 
ATOM     81  C   UNL A   1      31.107  23.095  24.440  1.00  0.00     0.147 A 
ATOM     82  N   UNL A   1      32.805  24.683  25.064  1.00  0.00    -0.203 NA
ATOM     83  N   UNL A   1      30.665  23.846  23.407  1.00  0.00    -0.257 NA
ATOM     84  C   UNL A   1      32.365  25.427  24.021  1.00  0.00     0.233 A 
ATOM     85  C   UNL A   1      31.309  25.027  23.216  1.00  0.00     0.179 A 
BRANCH  84  86
ATOM     86  O   UNL A   1      32.867  26.696  23.908  1.00  0.00    -0.477 OA
BRANCH  86  87
ATOM     87  C   UNL A   1      32.786  27.437  25.127  1.00  0.00     0.232 C 
BRANCH  87  88
ATOM     88  C   UNL A   1      31.509  28.285  25.148  1.00  0.00     0.046 C 
BRANCH  88  89
ATOM     89  C   UNL A   1      31.404  29.358  24.058  1.00  0.00     0.039 C 
BRANCH  89  90
ATOM     90  C   UNL A   1      29.980  29.688  23.697  1.00  0.00    -0.048 A 
ATOM     91  C   UNL A   1      29.473  30.970  23.912  1.00  0.00     0.004 A 
ATOM     92  C   UNL A   1      29.150  28.719  23.117  1.00  0.00     0.004 A 
ATOM     93  C   UNL A   1      28.194  31.296  23.502  1.00  0.00     0.000 A 
ATOM     94  C   UNL A   1      27.862  29.048  22.705  1.00  0.00     0.000 A 
ATOM     95  C   UNL A   1      27.403  30.345  22.867  1.00  0.00     0.000 A 
ENDBRANCH  89  90
ENDBRANCH  88  89
ENDBRANCH  87  88
ENDBRANCH  86  87
ENDBRANCH  84  86
ENDBRANCH  78  80
ENDBRANCH  77  78
ENDBRANCH  76  77
ENDBRANCH  75  76
ENDBRANCH  74  75
ENDBRANCH   1  74
TORSDOF 25
ENDMDL
MODEL 3
REMARK VINA RESULT:      -8.4      7.083     13.538
REMARK SMILES O=C(OCCOCCOCCOC(=O)c1cncc(OCCCc2ccccc2)n1)c1ccc(-c2c3nc(c(-c4cccc(S(=O)(=O)[O-])c4F)c4ccc([nH]4)c(-c4cccc(S(=O)(=O)[O-])c4F)c4nc(c(-c5cccc(S(=O)(=O)[O-])c5F)c5ccc2[nH]5)C=C4)C=C3)cc1
REMARK SMILES IDX 8 1 7 2 6 3 5 4 4 5 3 6 2 7 1 8 31 9 32 10 93 11 33 12 92 13
REMARK SMILES IDX 34 14 35 15 36 16 86 17 37 18 91 19 85 20 87 21 38 22 90 23
REMARK SMILES IDX 84 24 83 25 39 27 71 28 51 29 70 30 52 31 55 32 69 33 88 34
REMARK SMILES IDX 53 35 54 36 68 38 89 39 56 40 40 41 41 42 49 43 42 44 44 45
REMARK SMILES IDX 50 46 43 47 45 48 46 49 47 50 48 51 72 52 73 53 81 54 74 55
REMARK SMILES IDX 76 56 82 57 75 58 77 59 78 60 79 61 80 62 57 63 58 64 66 65
REMARK SMILES IDX 59 66 61 67 67 68 60 69 62 70 63 71 64 72 65 73 9 74 10 75
REMARK SMILES IDX 11 76 12 77 13 78 14 79 15 80 16 81 30 82 17 83 19 84 18 85
REMARK SMILES IDX 20 86 21 87 22 88 23 89 24 90 25 91 29 92 26 93 28 94 27 95
REMARK H PARENT 87 26 55 37
REMARK Flexibility Score: inf
ROOT
ATOM      1  C   UNL A   1      37.687  23.715  25.749  1.00  0.00     0.188 C 
ENDROOT
BRANCH   1   2
ATOM      2  C   UNL A   1      38.374  22.551  26.475  1.00  0.00     0.188 C 
BRANCH   2   3
ATOM      3  O   UNL A   1      38.758  21.546  25.538  1.00  0.00    -0.376 OA
BRANCH   3   4
ATOM      4  C   UNL A   1      39.767  20.651  25.989  1.00  0.00     0.202 C 
BRANCH   4   5
ATOM      5  C   UNL A   1      40.513  21.096  27.250  1.00  0.00     0.261 C 
BRANCH   5   6
ATOM      6  O   UNL A   1      41.830  21.599  26.979  1.00  0.00    -0.460 OA
BRANCH   6   7
ATOM      7  C   UNL A   1      42.023  22.579  26.062  1.00  0.00     0.338 C 
ATOM      8  O   UNL A   1      42.597  22.416  24.999  1.00  0.00    -0.246 OA
BRANCH   7   9
ATOM      9  C   UNL A   1      41.876  23.910  26.688  1.00  0.00     0.060 A 
ATOM     10  C   UNL A   1      41.683  25.040  25.895  1.00  0.00     0.016 A 
ATOM     11  C   UNL A   1      41.935  24.026  28.083  1.00  0.00     0.016 A 
ATOM     12  C   UNL A   1      41.475  26.281  26.491  1.00  0.00     0.010 A 
ATOM     13  C   UNL A   1      41.728  25.270  28.685  1.00  0.00     0.010 A 
ATOM     14  C   UNL A   1      41.525  26.407  27.886  1.00  0.00    -0.014 A 
BRANCH  14  15
ATOM     15  C   UNL A   1      41.740  27.755  28.456  1.00  0.00     0.031 A 
ATOM     16  C   UNL A   1      43.169  28.174  28.652  1.00  0.00     0.074 A 
ATOM     17  C   UNL A   1      40.738  28.607  28.736  1.00  0.00     0.049 A 
ATOM     18  N   UNL A   1      43.645  29.336  29.003  1.00  0.00    -0.248 NA
ATOM     19  C   UNL A   1      44.201  27.154  28.384  1.00  0.00     0.031 C 
ATOM     20  C   UNL A   1      39.315  28.341  28.546  1.00  0.00     0.029 A 
ATOM     21  N   UNL A   1      40.777  29.880  29.255  1.00  0.00    -0.354 N 
ATOM     22  C   UNL A   1      45.023  29.189  28.986  1.00  0.00     0.074 A 
ATOM     23  C   UNL A   1      45.314  27.825  28.618  1.00  0.00     0.031 C 
ATOM     24  C   UNL A   1      38.622  29.409  28.982  1.00  0.00     0.029 A 
ATOM     25  C   UNL A   1      39.534  30.411  29.508  1.00  0.00     0.049 A 
ATOM     26  H   UNL A   1      41.615  30.366  29.428  1.00  0.00     0.167 HD
ATOM     27  C   UNL A   1      45.970  30.116  29.235  1.00  0.00     0.034 A 
ATOM     28  C   UNL A   1      39.170  31.560  30.110  1.00  0.00     0.034 A 
ATOM     29  C   UNL A   1      45.684  31.461  29.633  1.00  0.00     0.049 A 
ATOM     30  C   UNL A   1      40.248  32.536  30.498  1.00  0.00     0.074 A 
ATOM     31  C   UNL A   1      46.571  32.492  29.867  1.00  0.00     0.029 A 
ATOM     32  N   UNL A   1      44.414  31.943  29.904  1.00  0.00    -0.354 N 
ATOM     33  N   UNL A   1      41.542  32.450  30.296  1.00  0.00    -0.248 NA
ATOM     34  C   UNL A   1      39.824  33.786  31.145  1.00  0.00     0.031 C 
ATOM     35  C   UNL A   1      45.839  33.589  30.333  1.00  0.00     0.029 A 
ATOM     36  C   UNL A   1      44.496  33.247  30.353  1.00  0.00     0.049 A 
ATOM     37  H   UNL A   1      43.579  31.434  29.793  1.00  0.00     0.167 HD
ATOM     38  C   UNL A   1      42.079  33.645  30.755  1.00  0.00     0.074 A 
ATOM     39  C   UNL A   1      40.971  34.447  31.231  1.00  0.00     0.031 C 
ATOM     40  C   UNL A   1      43.375  34.041  30.784  1.00  0.00     0.034 A 
BRANCH  27  41
ATOM     41  C   UNL A   1      47.397  29.684  29.095  1.00  0.00     0.023 A 
ATOM     42  C   UNL A   1      48.159  29.404  30.247  1.00  0.00     0.012 A 
ATOM     43  C   UNL A   1      47.979  29.561  27.822  1.00  0.00     0.148 A 
ATOM     44  C   UNL A   1      49.495  29.026  30.131  1.00  0.00     0.002 A 
ATOM     45  C   UNL A   1      49.298  29.148  27.713  1.00  0.00     0.091 A 
ATOM     46  F   UNL A   1      47.237  29.870  26.749  1.00  0.00    -0.205 F 
ATOM     47  C   UNL A   1      50.062  28.890  28.866  1.00  0.00     0.022 A 
BRANCH  45  48
ATOM     48  S   UNL A   1      50.106  28.897  26.132  1.00  0.00     0.127 S 
ATOM     49  O   UNL A   1      51.082  27.859  26.460  1.00  0.00    -0.237 OA
ATOM     50  O   UNL A   1      48.994  28.448  25.295  1.00  0.00    -0.237 OA
ATOM     51  O   UNL A   1      50.677  30.183  25.759  1.00  0.00    -0.744 OA
ENDBRANCH  45  48
ENDBRANCH  27  41
BRANCH  28  52
ATOM     52  C   UNL A   1      37.735  31.870  30.391  1.00  0.00     0.023 A 
ATOM     53  C   UNL A   1      37.122  31.374  31.558  1.00  0.00     0.012 A 
ATOM     54  C   UNL A   1      36.957  32.604  29.471  1.00  0.00     0.148 A 
ATOM     55  C   UNL A   1      35.757  31.569  31.786  1.00  0.00     0.002 A 
ATOM     56  C   UNL A   1      35.602  32.816  29.716  1.00  0.00     0.091 A 
ATOM     57  F   UNL A   1      37.553  33.065  28.362  1.00  0.00    -0.205 F 
ATOM     58  C   UNL A   1      34.998  32.290  30.867  1.00  0.00     0.022 A 
BRANCH  56  59
ATOM     59  S   UNL A   1      34.544  33.751  28.601  1.00  0.00     0.127 S 
ATOM     60  O   UNL A   1      33.283  33.783  29.338  1.00  0.00    -0.237 OA
ATOM     61  O   UNL A   1      35.242  35.033  28.520  1.00  0.00    -0.237 OA
ATOM     62  O   UNL A   1      34.518  33.000  27.352  1.00  0.00    -0.744 OA
ENDBRANCH  56  59
ENDBRANCH  28  52
BRANCH  40  63
ATOM     63  C   UNL A   1      43.678  35.405  31.333  1.00  0.00     0.023 A 
ATOM     64  C   UNL A   1      44.089  35.540  32.673  1.00  0.00     0.012 A 
ATOM     65  C   UNL A   1      43.674  36.531  30.487  1.00  0.00     0.148 A 
ATOM     66  C   UNL A   1      44.476  36.784  33.169  1.00  0.00     0.002 A 
ATOM     67  C   UNL A   1      44.111  37.755  30.973  1.00  0.00     0.091 A 
ATOM     68  F   UNL A   1      43.263  36.376  29.220  1.00  0.00    -0.205 F 
ATOM     69  C   UNL A   1      44.503  37.886  32.315  1.00  0.00     0.022 A 
BRANCH  67  70
ATOM     70  S   UNL A   1      44.286  39.199  29.921  1.00  0.00     0.127 S 
ATOM     71  O   UNL A   1      43.055  39.144  29.134  1.00  0.00    -0.237 OA
ATOM     72  O   UNL A   1      44.340  40.288  30.896  1.00  0.00    -0.237 OA
ATOM     73  O   UNL A   1      45.516  39.002  29.165  1.00  0.00    -0.744 OA
ENDBRANCH  67  70
ENDBRANCH  40  63
ENDBRANCH  14  15
ENDBRANCH   7   9
ENDBRANCH   6   7
ENDBRANCH   5   6
ENDBRANCH   4   5
ENDBRANCH   3   4
ENDBRANCH   2   3
ENDBRANCH   1   2
BRANCH   1  74
ATOM     74  O   UNL A   1      36.358  23.406  25.309  1.00  0.00    -0.376 OA
BRANCH  74  75
ATOM     75  C   UNL A   1      35.483  22.861  26.291  1.00  0.00     0.202 C 
BRANCH  75  76
ATOM     76  C   UNL A   1      34.905  21.476  25.990  1.00  0.00     0.261 C 
BRANCH  76  77
ATOM     77  O   UNL A   1      33.506  21.320  26.271  1.00  0.00    -0.458 OA
BRANCH  77  78
ATOM     78  C   UNL A   1      32.903  22.416  26.812  1.00  0.00     0.358 C 
ATOM     79  O   UNL A   1      32.741  22.642  28.000  1.00  0.00    -0.244 OA
BRANCH  78  80
ATOM     80  C   UNL A   1      32.337  23.253  25.736  1.00  0.00     0.170 A 
ATOM     81  C   UNL A   1      31.630  22.627  24.726  1.00  0.00     0.147 A 
ATOM     82  N   UNL A   1      32.395  24.604  25.866  1.00  0.00    -0.203 NA
ATOM     83  N   UNL A   1      30.966  23.326  23.780  1.00  0.00    -0.257 NA
ATOM     84  C   UNL A   1      31.736  25.300  24.909  1.00  0.00     0.233 A 
ATOM     85  C   UNL A   1      31.024  24.679  23.895  1.00  0.00     0.179 A 
BRANCH  84  86
ATOM     86  O   UNL A   1      31.623  26.653  25.094  1.00  0.00    -0.477 OA
BRANCH  86  87
ATOM     87  C   UNL A   1      30.346  27.163  24.705  1.00  0.00     0.232 C 
BRANCH  87  88
ATOM     88  C   UNL A   1      30.518  28.323  23.717  1.00  0.00     0.046 C 
BRANCH  88  89
ATOM     89  C   UNL A   1      29.364  28.535  22.731  1.00  0.00     0.039 C 
BRANCH  89  90
ATOM     90  C   UNL A   1      29.030  29.989  22.525  1.00  0.00    -0.048 A 
ATOM     91  C   UNL A   1      28.576  30.443  21.287  1.00  0.00     0.004 A 
ATOM     92  C   UNL A   1      29.145  30.902  23.582  1.00  0.00     0.004 A 
ATOM     93  C   UNL A   1      28.188  31.759  21.122  1.00  0.00     0.000 A 
ATOM     94  C   UNL A   1      28.756  32.227  23.416  1.00  0.00     0.000 A 
ATOM     95  C   UNL A   1      28.245  32.641  22.195  1.00  0.00     0.000 A 
ENDBRANCH  89  90
ENDBRANCH  88  89
ENDBRANCH  87  88
ENDBRANCH  86  87
ENDBRANCH  84  86
ENDBRANCH  78  80
ENDBRANCH  77  78
ENDBRANCH  76  77
ENDBRANCH  75  76
ENDBRANCH  74  75
ENDBRANCH   1  74
TORSDOF 25
ENDMDL
