MODEL 1
REMARK VINA RESULT:     -10.2      0.000      0.000
REMARK SMILES CC1=[NH+]/C(=C/c2ccco2)C(=O)N1c1ccc(C(=O)OCCOCCOCCOC(=O)c2ccc(-c3c4nc(c(-c5cccc(S(=O)(=O)[O-])c5F)c5ccc([nH]5)c(-c5cccc(S(=O)(=O)[O-])c5F)c5nc(c(-c6cccc(S(=O)(=O)[O-])c6F)c6ccc3[nH]6)C=C5)C=C4)cc2)cc1
REMARK SMILES IDX 25 1 24 2 23 3 22 4 21 5 20 6 18 7 19 8 17 9 14 10 15 11
REMARK SMILES IDX 96 12 16 13 95 14 13 15 1 16 2 17 3 18 4 19 11 21 5 22 12 23
REMARK SMILES IDX 6 24 7 25 10 26 8 27 9 28 26 29 27 30 28 31 29 32 30 33
REMARK SMILES IDX 31 34 32 35 33 36 94 37 34 38 93 39 35 40 36 41 37 42 87 43
REMARK SMILES IDX 38 44 92 45 86 46 88 47 39 48 91 49 85 50 84 51 40 53 72 54
REMARK SMILES IDX 52 55 71 56 53 57 56 58 70 59 89 60 54 61 55 62 69 64 90 65
REMARK SMILES IDX 57 66 41 67 42 68 50 69 43 70 45 71 51 72 44 73 46 74 47 75
REMARK SMILES IDX 48 76 49 77 73 78 74 79 82 80 75 81 77 82 83 83 76 84 78 85
REMARK SMILES IDX 79 86 80 87 81 88 58 89 59 90 67 91 60 92 62 93 68 94 61 95
REMARK SMILES IDX 63 96 64 97 65 98 66 99
REMARK H PARENT 3 20 88 52 56 63
REMARK Flexibility Score: inf
ROOT
ATOM      1  C   UNL A   1      32.971  27.781  25.399  1.00  0.00     0.188 C 
ENDROOT
BRANCH   1   2
ATOM      2  C   UNL A   1      32.820  26.408  24.716  1.00  0.00     0.188 C 
BRANCH   2   3
ATOM      3  O   UNL A   1      33.662  26.165  23.613  1.00  0.00    -0.376 OA
BRANCH   3   4
ATOM      4  C   UNL A   1      33.397  25.104  22.713  1.00  0.00     0.202 C 
BRANCH   4   5
ATOM      5  C   UNL A   1      32.778  23.736  23.065  1.00  0.00     0.261 C 
BRANCH   5   6
ATOM      6  O   UNL A   1      33.537  22.560  22.779  1.00  0.00    -0.460 OA
BRANCH   6   7
ATOM      7  C   UNL A   1      33.729  21.727  23.831  1.00  0.00     0.338 C 
ATOM      8  O   UNL A   1      33.059  20.756  24.135  1.00  0.00    -0.246 OA
BRANCH   7   9
ATOM      9  C   UNL A   1      34.996  22.072  24.507  1.00  0.00     0.060 A 
ATOM     10  C   UNL A   1      37.481  22.575  25.677  1.00  0.00     0.136 A 
ATOM     11  C   UNL A   1      37.280  22.855  24.322  1.00  0.00     0.053 A 
ATOM     12  C   UNL A   1      36.402  22.142  26.463  1.00  0.00     0.053 A 
ATOM     13  C   UNL A   1      36.049  22.568  23.730  1.00  0.00     0.020 A 
ATOM     14  C   UNL A   1      35.152  21.908  25.885  1.00  0.00     0.020 A 
BRANCH  10  15
ATOM     15  N   UNL A   1      38.776  22.644  26.219  1.00  0.00    -0.158 N 
ATOM     16  C   UNL A   1      38.505  24.879  27.316  1.00  0.00     0.146 C 
ATOM     17  C   UNL A   1      39.293  23.653  26.962  1.00  0.00     0.259 C 
ATOM     18  N   UNL A   1      40.497  23.466  27.414  1.00  0.00    -0.237 N 
ATOM     19  C   UNL A   1      40.844  22.209  26.958  1.00  0.00     0.219 C 
ATOM     20  H   UNL A   1      41.039  24.083  27.957  1.00  0.00     0.312 HD
ATOM     21  C   UNL A   1      39.688  21.621  26.201  1.00  0.00     0.385 C 
ATOM     22  C   UNL A   1      42.037  21.652  27.199  1.00  0.00     0.107 C 
ATOM     23  O   UNL A   1      39.599  20.520  25.686  1.00  0.00    -0.236 OA
BRANCH  22  24
ATOM     24  C   UNL A   1      42.442  20.406  26.666  1.00  0.00     0.131 A 
ATOM     25  C   UNL A   1      43.182  20.133  25.521  1.00  0.00     0.050 A 
ATOM     26  O   UNL A   1      42.171  19.206  27.280  1.00  0.00    -0.465 OA
ATOM     27  C   UNL A   1      43.297  18.730  25.403  1.00  0.00     0.042 A 
ATOM     28  C   UNL A   1      42.654  18.210  26.497  1.00  0.00     0.195 A 
ENDBRANCH  22  24
ENDBRANCH  10  15
ENDBRANCH   7   9
ENDBRANCH   6   7
ENDBRANCH   5   6
ENDBRANCH   4   5
ENDBRANCH   3   4
ENDBRANCH   2   3
ENDBRANCH   1   2
BRANCH   1  29
ATOM     29  O   UNL A   1      31.825  28.428  25.914  1.00  0.00    -0.376 OA
BRANCH  29  30
ATOM     30  C   UNL A   1      31.634  29.816  25.692  1.00  0.00     0.202 C 
BRANCH  30  31
ATOM     31  C   UNL A   1      32.333  30.952  26.470  1.00  0.00     0.261 C 
BRANCH  31  32
ATOM     32  O   UNL A   1      33.485  30.625  27.252  1.00  0.00    -0.460 OA
BRANCH  32  33
ATOM     33  C   UNL A   1      34.257  31.678  27.623  1.00  0.00     0.338 C 
ATOM     34  O   UNL A   1      33.941  32.855  27.630  1.00  0.00    -0.246 OA
BRANCH  33  35
ATOM     35  C   UNL A   1      35.513  31.169  28.204  1.00  0.00     0.060 A 
ATOM     36  C   UNL A   1      35.535  29.868  28.726  1.00  0.00     0.016 A 
ATOM     37  C   UNL A   1      36.645  31.982  28.276  1.00  0.00     0.016 A 
ATOM     38  C   UNL A   1      36.686  29.384  29.346  1.00  0.00     0.010 A 
ATOM     39  C   UNL A   1      37.789  31.502  28.919  1.00  0.00     0.010 A 
ATOM     40  C   UNL A   1      37.804  30.214  29.485  1.00  0.00    -0.014 A 
BRANCH  40  41
ATOM     41  C   UNL A   1      38.920  29.800  30.370  1.00  0.00     0.031 A 
ATOM     42  C   UNL A   1      39.017  30.407  31.742  1.00  0.00     0.074 A 
ATOM     43  C   UNL A   1      39.833  28.900  29.963  1.00  0.00     0.049 A 
ATOM     44  N   UNL A   1      39.926  30.234  32.665  1.00  0.00    -0.248 NA
ATOM     45  C   UNL A   1      37.943  31.343  32.123  1.00  0.00     0.031 C 
ATOM     46  C   UNL A   1      39.843  28.232  28.663  1.00  0.00     0.029 A 
ATOM     47  N   UNL A   1      40.950  28.417  30.600  1.00  0.00    -0.354 N 
ATOM     48  C   UNL A   1      39.557  31.059  33.720  1.00  0.00     0.074 A 
ATOM     49  C   UNL A   1      38.347  31.744  33.320  1.00  0.00     0.031 C 
ATOM     50  C   UNL A   1      40.931  27.446  28.587  1.00  0.00     0.029 A 
ATOM     51  C   UNL A   1      41.708  27.579  29.818  1.00  0.00     0.049 A 
ATOM     52  H   UNL A   1      41.183  28.647  31.528  1.00  0.00     0.167 HD
ATOM     53  C   UNL A   1      40.164  31.227  34.919  1.00  0.00     0.034 A 
ATOM     54  C   UNL A   1      42.907  27.010  30.058  1.00  0.00     0.034 A 
ATOM     55  C   UNL A   1      41.361  30.537  35.319  1.00  0.00     0.049 A 
ATOM     56  C   UNL A   1      43.580  27.237  31.389  1.00  0.00     0.074 A 
ATOM     57  C   UNL A   1      42.028  30.604  36.530  1.00  0.00     0.029 A 
ATOM     58  N   UNL A   1      42.083  29.669  34.515  1.00  0.00    -0.354 N 
ATOM     59  N   UNL A   1      43.165  27.938  32.418  1.00  0.00    -0.248 NA
ATOM     60  C   UNL A   1      44.871  26.566  31.603  1.00  0.00     0.031 C 
ATOM     61  C   UNL A   1      43.176  29.811  36.442  1.00  0.00     0.029 A 
ATOM     62  C   UNL A   1      43.196  29.208  35.195  1.00  0.00     0.049 A 
ATOM     63  H   UNL A   1      41.839  29.419  33.594  1.00  0.00     0.167 HD
ATOM     64  C   UNL A   1      44.120  27.756  33.413  1.00  0.00     0.074 A 
ATOM     65  C   UNL A   1      45.125  26.867  32.869  1.00  0.00     0.031 C 
ATOM     66  C   UNL A   1      44.165  28.283  34.663  1.00  0.00     0.034 A 
BRANCH  53  67
ATOM     67  C   UNL A   1      39.539  32.193  35.891  1.00  0.00     0.023 A 
ATOM     68  C   UNL A   1      38.534  31.752  36.775  1.00  0.00     0.012 A 
ATOM     69  C   UNL A   1      39.986  33.527  35.964  1.00  0.00     0.148 A 
ATOM     70  C   UNL A   1      37.957  32.632  37.691  1.00  0.00     0.002 A 
ATOM     71  C   UNL A   1      39.442  34.385  36.912  1.00  0.00     0.091 A 
ATOM     72  F   UNL A   1      40.928  33.934  35.101  1.00  0.00    -0.205 F 
ATOM     73  C   UNL A   1      38.418  33.944  37.766  1.00  0.00     0.022 A 
BRANCH  71  74
ATOM     74  S   UNL A   1      40.026  36.067  37.145  1.00  0.00     0.127 S 
ATOM     75  O   UNL A   1      41.453  35.852  37.387  1.00  0.00    -0.237 OA
ATOM     76  O   UNL A   1      39.713  36.683  35.856  1.00  0.00    -0.237 OA
ATOM     77  O   UNL A   1      39.279  36.602  38.274  1.00  0.00    -0.744 OA
ENDBRANCH  71  74
ENDBRANCH  53  67
BRANCH  54  78
ATOM     78  C   UNL A   1      43.547  26.148  29.023  1.00  0.00     0.023 A 
ATOM     79  C   UNL A   1      43.433  24.748  29.112  1.00  0.00     0.012 A 
ATOM     80  C   UNL A   1      44.272  26.712  27.955  1.00  0.00     0.148 A 
ATOM     81  C   UNL A   1      44.060  23.922  28.179  1.00  0.00     0.002 A 
ATOM     82  C   UNL A   1      44.845  25.886  26.995  1.00  0.00     0.091 A 
ATOM     83  F   UNL A   1      44.381  28.046  27.896  1.00  0.00    -0.205 F 
ATOM     84  C   UNL A   1      44.757  24.491  27.116  1.00  0.00     0.022 A 
BRANCH  82  85
ATOM     85  S   UNL A   1      45.658  26.529  25.529  1.00  0.00     0.127 S 
ATOM     86  O   UNL A   1      45.625  25.372  24.638  1.00  0.00    -0.237 OA
ATOM     87  O   UNL A   1      44.767  27.625  25.149  1.00  0.00    -0.237 OA
ATOM     88  O   UNL A   1      46.982  26.950  25.964  1.00  0.00    -0.744 OA
ENDBRANCH  82  85
ENDBRANCH  54  78
BRANCH  66  89
ATOM     89  C   UNL A   1      45.305  27.871  35.561  1.00  0.00     0.023 A 
ATOM     90  C   UNL A   1      46.503  28.613  35.576  1.00  0.00     0.012 A 
ATOM     91  C   UNL A   1      45.158  26.780  36.442  1.00  0.00     0.148 A 
ATOM     92  C   UNL A   1      47.551  28.249  36.423  1.00  0.00     0.002 A 
ATOM     93  C   UNL A   1      46.185  26.458  37.321  1.00  0.00     0.091 A 
ATOM     94  F   UNL A   1      44.017  26.076  36.404  1.00  0.00    -0.205 F 
ATOM     95  C   UNL A   1      47.387  27.181  37.302  1.00  0.00     0.022 A 
BRANCH  93  96
ATOM     96  S   UNL A   1      46.026  25.165  38.558  1.00  0.00     0.127 S 
ATOM     97  O   UNL A   1      47.406  25.020  39.017  1.00  0.00    -0.237 OA
ATOM     98  O   UNL A   1      45.121  25.776  39.531  1.00  0.00    -0.237 OA
ATOM     99  O   UNL A   1      45.475  24.008  37.864  1.00  0.00    -0.744 OA
ENDBRANCH  93  96
ENDBRANCH  66  89
ENDBRANCH  40  41
ENDBRANCH  33  35
ENDBRANCH  32  33
ENDBRANCH  31  32
ENDBRANCH  30  31
ENDBRANCH  29  30
ENDBRANCH   1  29
TORSDOF 22
ENDMDL
MODEL 2
REMARK VINA RESULT:     -10.1      2.827      4.390
REMARK SMILES CC1=[NH+]/C(=C/c2ccco2)C(=O)N1c1ccc(C(=O)OCCOCCOCCOC(=O)c2ccc(-c3c4nc(c(-c5cccc(S(=O)(=O)[O-])c5F)c5ccc([nH]5)c(-c5cccc(S(=O)(=O)[O-])c5F)c5nc(c(-c6cccc(S(=O)(=O)[O-])c6F)c6ccc3[nH]6)C=C5)C=C4)cc2)cc1
REMARK SMILES IDX 25 1 24 2 23 3 22 4 21 5 20 6 18 7 19 8 17 9 14 10 15 11
REMARK SMILES IDX 96 12 16 13 95 14 13 15 1 16 2 17 3 18 4 19 11 21 5 22 12 23
REMARK SMILES IDX 6 24 7 25 10 26 8 27 9 28 26 29 27 30 28 31 29 32 30 33
REMARK SMILES IDX 31 34 32 35 33 36 94 37 34 38 93 39 35 40 36 41 37 42 87 43
REMARK SMILES IDX 38 44 92 45 86 46 88 47 39 48 91 49 85 50 84 51 40 53 72 54
REMARK SMILES IDX 52 55 71 56 53 57 56 58 70 59 89 60 54 61 55 62 69 64 90 65
REMARK SMILES IDX 57 66 41 67 42 68 50 69 43 70 45 71 51 72 44 73 46 74 47 75
REMARK SMILES IDX 48 76 49 77 73 78 74 79 82 80 75 81 77 82 83 83 76 84 78 85
REMARK SMILES IDX 79 86 80 87 81 88 58 89 59 90 67 91 60 92 62 93 68 94 61 95
REMARK SMILES IDX 63 96 64 97 65 98 66 99
REMARK H PARENT 3 20 88 52 56 63
REMARK Flexibility Score: inf
ROOT
ATOM      1  C   UNL A   1      33.536  29.167  25.607  1.00  0.00     0.188 C 
ENDROOT
BRANCH   1   2
ATOM      2  C   UNL A   1      33.369  28.082  24.525  1.00  0.00     0.188 C 
BRANCH   2   3
ATOM      3  O   UNL A   1      32.833  28.508  23.294  1.00  0.00    -0.376 OA
BRANCH   3   4
ATOM      4  C   UNL A   1      31.651  29.287  23.244  1.00  0.00     0.202 C 
BRANCH   4   5
ATOM      5  C   UNL A   1      30.218  28.799  23.535  1.00  0.00     0.261 C 
BRANCH   5   6
ATOM      6  O   UNL A   1      29.773  27.598  22.903  1.00  0.00    -0.460 OA
BRANCH   6   7
ATOM      7  C   UNL A   1      29.411  26.601  23.746  1.00  0.00     0.338 C 
ATOM      8  O   UNL A   1      28.286  26.331  24.130  1.00  0.00    -0.246 OA
BRANCH   7   9
ATOM      9  C   UNL A   1      30.584  25.752  24.039  1.00  0.00     0.060 A 
ATOM     10  C   UNL A   1      32.710  23.998  24.486  1.00  0.00     0.136 A 
ATOM     11  C   UNL A   1      32.463  24.479  23.196  1.00  0.00     0.053 A 
ATOM     12  C   UNL A   1      31.952  24.483  25.563  1.00  0.00     0.053 A 
ATOM     13  C   UNL A   1      31.377  25.325  22.968  1.00  0.00     0.020 A 
ATOM     14  C   UNL A   1      30.900  25.376  25.346  1.00  0.00     0.020 A 
BRANCH  10  15
ATOM     15  N   UNL A   1      33.651  22.972  24.680  1.00  0.00    -0.158 N 
ATOM     16  C   UNL A   1      35.536  24.451  25.407  1.00  0.00     0.146 C 
ATOM     17  C   UNL A   1      34.935  23.115  25.091  1.00  0.00     0.259 C 
ATOM     18  N   UNL A   1      35.601  22.012  25.265  1.00  0.00    -0.237 N 
ATOM     19  C   UNL A   1      34.696  21.012  24.964  1.00  0.00     0.219 C 
ATOM     20  H   UNL A   1      36.539  21.913  25.547  1.00  0.00     0.312 HD
ATOM     21  C   UNL A   1      33.372  21.632  24.619  1.00  0.00     0.385 C 
ATOM     22  C   UNL A   1      35.010  19.712  25.002  1.00  0.00     0.107 C 
ATOM     23  O   UNL A   1      32.324  21.076  24.339  1.00  0.00    -0.236 OA
BRANCH  22  24
ATOM     24  C   UNL A   1      34.124  18.680  24.611  1.00  0.00     0.131 A 
ATOM     25  C   UNL A   1      34.375  17.542  23.852  1.00  0.00     0.050 A 
ATOM     26  O   UNL A   1      32.805  18.642  24.993  1.00  0.00    -0.465 OA
ATOM     27  C   UNL A   1      33.158  16.838  23.713  1.00  0.00     0.042 A 
ATOM     28  C   UNL A   1      32.228  17.557  24.419  1.00  0.00     0.195 A 
ENDBRANCH  22  24
ENDBRANCH  10  15
ENDBRANCH   7   9
ENDBRANCH   6   7
ENDBRANCH   5   6
ENDBRANCH   4   5
ENDBRANCH   3   4
ENDBRANCH   2   3
ENDBRANCH   1   2
BRANCH   1  29
ATOM     29  O   UNL A   1      32.604  29.239  26.666  1.00  0.00    -0.376 OA
BRANCH  29  30
ATOM     30  C   UNL A   1      31.746  30.363  26.782  1.00  0.00     0.202 C 
BRANCH  30  31
ATOM     31  C   UNL A   1      32.205  31.836  26.850  1.00  0.00     0.261 C 
BRANCH  31  32
ATOM     32  O   UNL A   1      32.858  32.286  28.040  1.00  0.00    -0.460 OA
BRANCH  32  33
ATOM     33  C   UNL A   1      33.934  33.089  27.847  1.00  0.00     0.338 C 
ATOM     34  O   UNL A   1      33.926  34.274  27.564  1.00  0.00    -0.246 OA
BRANCH  33  35
ATOM     35  C   UNL A   1      35.156  32.349  28.215  1.00  0.00     0.060 A 
ATOM     36  C   UNL A   1      35.045  30.992  28.552  1.00  0.00     0.016 A 
ATOM     37  C   UNL A   1      36.390  32.996  28.273  1.00  0.00     0.016 A 
ATOM     38  C   UNL A   1      36.168  30.283  28.974  1.00  0.00     0.010 A 
ATOM     39  C   UNL A   1      37.511  32.289  28.718  1.00  0.00     0.010 A 
ATOM     40  C   UNL A   1      37.398  30.939  29.101  1.00  0.00    -0.014 A 
BRANCH  40  41
ATOM     41  C   UNL A   1      38.522  30.265  29.796  1.00  0.00     0.031 A 
ATOM     42  C   UNL A   1      38.868  30.695  31.195  1.00  0.00     0.074 A 
ATOM     43  C   UNL A   1      39.224  29.287  29.196  1.00  0.00     0.049 A 
ATOM     44  N   UNL A   1      39.832  30.284  31.975  1.00  0.00    -0.248 NA
ATOM     45  C   UNL A   1      38.012  31.736  31.792  1.00  0.00     0.031 C 
ATOM     46  C   UNL A   1      38.979  28.772  27.850  1.00  0.00     0.029 A 
ATOM     47  N   UNL A   1      40.308  28.570  29.641  1.00  0.00    -0.354 N 
ATOM     48  C   UNL A   1      39.723  31.035  33.139  1.00  0.00     0.074 A 
ATOM     49  C   UNL A   1      38.606  31.936  32.959  1.00  0.00     0.031 C 
ATOM     50  C   UNL A   1      39.908  27.842  27.565  1.00  0.00     0.029 A 
ATOM     51  C   UNL A   1      40.827  27.719  28.695  1.00  0.00     0.049 A 
ATOM     52  H   UNL A   1      40.677  28.659  30.549  1.00  0.00     0.167 HD
ATOM     53  C   UNL A   1      40.478  30.974  34.262  1.00  0.00     0.034 A 
ATOM     54  C   UNL A   1      41.935  26.950  28.729  1.00  0.00     0.034 A 
ATOM     55  C   UNL A   1      41.581  30.070  34.443  1.00  0.00     0.049 A 
ATOM     56  C   UNL A   1      42.779  26.923  29.979  1.00  0.00     0.074 A 
ATOM     57  C   UNL A   1      42.380  29.901  35.561  1.00  0.00     0.029 A 
ATOM     58  N   UNL A   1      42.057  29.196  33.478  1.00  0.00    -0.354 N 
ATOM     59  N   UNL A   1      42.601  27.561  31.112  1.00  0.00    -0.248 NA
ATOM     60  C   UNL A   1      43.957  26.044  29.966  1.00  0.00     0.031 C 
ATOM     61  C   UNL A   1      43.364  28.956  35.256  1.00  0.00     0.029 A 
ATOM     62  C   UNL A   1      43.147  28.498  33.967  1.00  0.00     0.049 A 
ATOM     63  H   UNL A   1      41.675  29.088  32.577  1.00  0.00     0.167 HD
ATOM     64  C   UNL A   1      43.617  27.128  31.958  1.00  0.00     0.074 A 
ATOM     65  C   UNL A   1      44.396  26.160  31.212  1.00  0.00     0.031 C 
ATOM     66  C   UNL A   1      43.886  27.500  33.235  1.00  0.00     0.034 A 
BRANCH  53  67
ATOM     67  C   UNL A   1      40.132  31.912  35.389  1.00  0.00     0.023 A 
ATOM     68  C   UNL A   1      40.814  33.138  35.520  1.00  0.00     0.012 A 
ATOM     69  C   UNL A   1      39.092  31.600  36.288  1.00  0.00     0.148 A 
ATOM     70  C   UNL A   1      40.494  34.023  36.550  1.00  0.00     0.002 A 
ATOM     71  C   UNL A   1      38.745  32.508  37.281  1.00  0.00     0.091 A 
ATOM     72  F   UNL A   1      38.469  30.420  36.160  1.00  0.00    -0.205 F 
ATOM     73  C   UNL A   1      39.453  33.713  37.422  1.00  0.00     0.022 A 
BRANCH  71  74
ATOM     74  S   UNL A   1      37.367  32.240  38.399  1.00  0.00     0.127 S 
ATOM     75  O   UNL A   1      36.291  32.961  37.719  1.00  0.00    -0.237 OA
ATOM     76  O   UNL A   1      37.233  30.784  38.379  1.00  0.00    -0.237 OA
ATOM     77  O   UNL A   1      37.772  32.797  39.682  1.00  0.00    -0.744 OA
ENDBRANCH  71  74
ENDBRANCH  53  67
BRANCH  54  78
ATOM     78  C   UNL A   1      42.306  26.120  27.547  1.00  0.00     0.023 A 
ATOM     79  C   UNL A   1      42.998  26.708  26.471  1.00  0.00     0.012 A 
ATOM     80  C   UNL A   1      41.970  24.754  27.483  1.00  0.00     0.148 A 
ATOM     81  C   UNL A   1      43.316  25.961  25.336  1.00  0.00     0.002 A 
ATOM     82  C   UNL A   1      42.341  24.001  26.376  1.00  0.00     0.091 A 
ATOM     83  F   UNL A   1      41.299  24.216  28.511  1.00  0.00    -0.205 F 
ATOM     84  C   UNL A   1      42.997  24.606  25.293  1.00  0.00     0.022 A 
BRANCH  82  85
ATOM     85  S   UNL A   1      42.080  22.227  26.282  1.00  0.00     0.127 S 
ATOM     86  O   UNL A   1      40.623  22.143  26.205  1.00  0.00    -0.237 OA
ATOM     87  O   UNL A   1      42.783  21.886  25.046  1.00  0.00    -0.237 OA
ATOM     88  O   UNL A   1      42.679  21.674  27.489  1.00  0.00    -0.744 OA
ENDBRANCH  82  85
ENDBRANCH  54  78
BRANCH  66  89
ATOM     89  C   UNL A   1      45.034  26.822  33.940  1.00  0.00     0.023 A 
ATOM     90  C   UNL A   1      44.820  25.638  34.673  1.00  0.00     0.012 A 
ATOM     91  C   UNL A   1      46.344  27.330  33.817  1.00  0.00     0.148 A 
ATOM     92  C   UNL A   1      45.884  24.994  35.307  1.00  0.00     0.002 A 
ATOM     93  C   UNL A   1      47.406  26.653  34.405  1.00  0.00     0.091 A 
ATOM     94  F   UNL A   1      46.528  28.466  33.128  1.00  0.00    -0.205 F 
ATOM     95  C   UNL A   1      47.176  25.494  35.163  1.00  0.00     0.022 A 
BRANCH  93  96
ATOM     96  S   UNL A   1      49.114  27.165  34.189  1.00  0.00     0.127 S 
ATOM     97  O   UNL A   1      49.078  27.771  32.860  1.00  0.00    -0.237 OA
ATOM     98  O   UNL A   1      49.293  28.115  35.287  1.00  0.00    -0.237 OA
ATOM     99  O   UNL A   1      49.916  25.954  34.301  1.00  0.00    -0.744 OA
ENDBRANCH  93  96
ENDBRANCH  66  89
ENDBRANCH  40  41
ENDBRANCH  33  35
ENDBRANCH  32  33
ENDBRANCH  31  32
ENDBRANCH  30  31
ENDBRANCH  29  30
ENDBRANCH   1  29
TORSDOF 22
ENDMDL
MODEL 3
REMARK VINA RESULT:      -9.8      3.248      5.443
REMARK SMILES CC1=[NH+]/C(=C/c2ccco2)C(=O)N1c1ccc(C(=O)OCCOCCOCCOC(=O)c2ccc(-c3c4nc(c(-c5cccc(S(=O)(=O)[O-])c5F)c5ccc([nH]5)c(-c5cccc(S(=O)(=O)[O-])c5F)c5nc(c(-c6cccc(S(=O)(=O)[O-])c6F)c6ccc3[nH]6)C=C5)C=C4)cc2)cc1
REMARK SMILES IDX 25 1 24 2 23 3 22 4 21 5 20 6 18 7 19 8 17 9 14 10 15 11
REMARK SMILES IDX 96 12 16 13 95 14 13 15 1 16 2 17 3 18 4 19 11 21 5 22 12 23
REMARK SMILES IDX 6 24 7 25 10 26 8 27 9 28 26 29 27 30 28 31 29 32 30 33
REMARK SMILES IDX 31 34 32 35 33 36 94 37 34 38 93 39 35 40 36 41 37 42 87 43
REMARK SMILES IDX 38 44 92 45 86 46 88 47 39 48 91 49 85 50 84 51 40 53 72 54
REMARK SMILES IDX 52 55 71 56 53 57 56 58 70 59 89 60 54 61 55 62 69 64 90 65
REMARK SMILES IDX 57 66 41 67 42 68 50 69 43 70 45 71 51 72 44 73 46 74 47 75
REMARK SMILES IDX 48 76 49 77 73 78 74 79 82 80 75 81 77 82 83 83 76 84 78 85
REMARK SMILES IDX 79 86 80 87 81 88 58 89 59 90 67 91 60 92 62 93 68 94 61 95
REMARK SMILES IDX 63 96 64 97 65 98 66 99
REMARK H PARENT 3 20 88 52 56 63
REMARK Flexibility Score: inf
ROOT
ATOM      1  C   UNL A   1      31.459  30.682  26.160  1.00  0.00     0.188 C 
ENDROOT
BRANCH   1   2
ATOM      2  C   UNL A   1      30.832  30.464  24.769  1.00  0.00     0.188 C 
BRANCH   2   3
ATOM      3  O   UNL A   1      29.807  31.357  24.401  1.00  0.00    -0.376 OA
BRANCH   3   4
ATOM      4  C   UNL A   1      28.831  30.993  23.441  1.00  0.00     0.202 C 
BRANCH   4   5
ATOM      5  C   UNL A   1      29.099  30.426  22.032  1.00  0.00     0.261 C 
BRANCH   5   6
ATOM      6  O   UNL A   1      29.412  29.038  21.912  1.00  0.00    -0.460 OA
BRANCH   6   7
ATOM      7  C   UNL A   1      28.844  28.235  22.844  1.00  0.00     0.338 C 
ATOM      8  O   UNL A   1      27.681  28.231  23.205  1.00  0.00    -0.246 OA
BRANCH   7   9
ATOM      9  C   UNL A   1      29.824  27.220  23.283  1.00  0.00     0.060 A 
ATOM     10  C   UNL A   1      31.705  25.415  24.281  1.00  0.00     0.136 A 
ATOM     11  C   UNL A   1      30.470  25.559  24.921  1.00  0.00     0.053 A 
ATOM     12  C   UNL A   1      31.948  26.101  23.081  1.00  0.00     0.053 A 
ATOM     13  C   UNL A   1      29.546  26.489  24.444  1.00  0.00     0.020 A 
ATOM     14  C   UNL A   1      31.001  26.990  22.569  1.00  0.00     0.020 A 
BRANCH  10  15
ATOM     15  N   UNL A   1      32.722  24.656  24.888  1.00  0.00    -0.158 N 
ATOM     16  C   UNL A   1      33.925  26.584  25.939  1.00  0.00     0.146 C 
ATOM     17  C   UNL A   1      33.745  25.126  25.642  1.00  0.00     0.259 C 
ATOM     18  N   UNL A   1      34.529  24.226  26.158  1.00  0.00    -0.237 N 
ATOM     19  C   UNL A   1      33.995  23.023  25.738  1.00  0.00     0.219 C 
ATOM     20  H   UNL A   1      35.324  24.370  26.720  1.00  0.00     0.312 HD
ATOM     21  C   UNL A   1      32.757  23.287  24.930  1.00  0.00     0.385 C 
ATOM     22  C   UNL A   1      34.539  21.839  26.047  1.00  0.00     0.107 C 
ATOM     23  O   UNL A   1      31.994  22.482  24.426  1.00  0.00    -0.236 OA
BRANCH  22  24
ATOM     24  C   UNL A   1      34.058  20.604  25.552  1.00  0.00     0.131 A 
ATOM     25  C   UNL A   1      34.618  19.754  24.604  1.00  0.00     0.050 A 
ATOM     26  O   UNL A   1      32.904  20.013  26.008  1.00  0.00    -0.465 OA
ATOM     27  C   UNL A   1      33.742  18.660  24.432  1.00  0.00     0.042 A 
ATOM     28  C   UNL A   1      32.706  18.871  25.304  1.00  0.00     0.195 A 
ENDBRANCH  22  24
ENDBRANCH  10  15
ENDBRANCH   7   9
ENDBRANCH   6   7
ENDBRANCH   5   6
ENDBRANCH   4   5
ENDBRANCH   3   4
ENDBRANCH   2   3
ENDBRANCH   1   2
BRANCH   1  29
ATOM     29  O   UNL A   1      32.501  29.831  26.592  1.00  0.00    -0.376 OA
BRANCH  29  30
ATOM     30  C   UNL A   1      33.716  30.383  27.072  1.00  0.00     0.202 C 
BRANCH  30  31
ATOM     31  C   UNL A   1      33.895  31.821  27.609  1.00  0.00     0.261 C 
BRANCH  31  32
ATOM     32  O   UNL A   1      34.104  31.996  29.012  1.00  0.00    -0.460 OA
BRANCH  32  33
ATOM     33  C   UNL A   1      35.172  32.761  29.352  1.00  0.00     0.338 C 
ATOM     34  O   UNL A   1      35.162  33.936  29.676  1.00  0.00    -0.246 OA
BRANCH  33  35
ATOM     35  C   UNL A   1      36.366  31.899  29.451  1.00  0.00     0.060 A 
ATOM     36  C   UNL A   1      36.271  30.698  30.167  1.00  0.00     0.016 A 
ATOM     37  C   UNL A   1      37.578  32.294  28.883  1.00  0.00     0.016 A 
ATOM     38  C   UNL A   1      37.398  29.897  30.340  1.00  0.00     0.010 A 
ATOM     39  C   UNL A   1      38.712  31.501  29.078  1.00  0.00     0.010 A 
ATOM     40  C   UNL A   1      38.634  30.316  29.834  1.00  0.00    -0.014 A 
BRANCH  40  41
ATOM     41  C   UNL A   1      39.872  29.609  30.241  1.00  0.00     0.031 A 
ATOM     42  C   UNL A   1      40.669  30.153  31.396  1.00  0.00     0.074 A 
ATOM     43  C   UNL A   1      40.285  28.501  29.598  1.00  0.00     0.049 A 
ATOM     44  N   UNL A   1      41.800  29.732  31.895  1.00  0.00    -0.248 NA
ATOM     45  C   UNL A   1      40.114  31.338  32.074  1.00  0.00     0.031 C 
ATOM     46  C   UNL A   1      39.596  27.869  28.475  1.00  0.00     0.029 A 
ATOM     47  N   UNL A   1      41.404  27.729  29.787  1.00  0.00    -0.354 N 
ATOM     48  C   UNL A   1      42.113  30.615  32.922  1.00  0.00     0.074 A 
ATOM     49  C   UNL A   1      41.057  31.603  32.967  1.00  0.00     0.031 C 
ATOM     50  C   UNL A   1      40.325  26.821  28.053  1.00  0.00     0.029 A 
ATOM     51  C   UNL A   1      41.543  26.727  28.857  1.00  0.00     0.049 A 
ATOM     52  H   UNL A   1      42.045  27.879  30.519  1.00  0.00     0.167 HD
ATOM     53  C   UNL A   1      43.176  30.600  33.760  1.00  0.00     0.034 A 
ATOM     54  C   UNL A   1      42.552  25.854  28.659  1.00  0.00     0.034 A 
ATOM     55  C   UNL A   1      44.219  29.611  33.721  1.00  0.00     0.049 A 
ATOM     56  C   UNL A   1      43.743  25.879  29.585  1.00  0.00     0.074 A 
ATOM     57  C   UNL A   1      45.316  29.484  34.556  1.00  0.00     0.029 A 
ATOM     58  N   UNL A   1      44.309  28.590  32.787  1.00  0.00    -0.354 N 
ATOM     59  N   UNL A   1      43.973  26.654  30.618  1.00  0.00    -0.248 NA
ATOM     60  C   UNL A   1      44.797  24.884  29.337  1.00  0.00     0.031 C 
ATOM     61  C   UNL A   1      46.090  28.413  34.100  1.00  0.00     0.029 A 
ATOM     62  C   UNL A   1      45.449  27.839  33.014  1.00  0.00     0.049 A 
ATOM     63  H   UNL A   1      43.657  28.424  32.069  1.00  0.00     0.167 HD
ATOM     64  C   UNL A   1      45.172  26.213  31.167  1.00  0.00     0.074 A 
ATOM     65  C   UNL A   1      45.612  25.091  30.362  1.00  0.00     0.031 C 
ATOM     66  C   UNL A   1      45.853  26.694  32.238  1.00  0.00     0.034 A 
BRANCH  53  67
ATOM     67  C   UNL A   1      43.265  31.689  34.797  1.00  0.00     0.023 A 
ATOM     68  C   UNL A   1      43.998  32.862  34.528  1.00  0.00     0.012 A 
ATOM     69  C   UNL A   1      42.575  31.571  36.021  1.00  0.00     0.148 A 
ATOM     70  C   UNL A   1      44.076  33.884  35.473  1.00  0.00     0.002 A 
ATOM     71  C   UNL A   1      42.616  32.615  36.937  1.00  0.00     0.091 A 
ATOM     72  F   UNL A   1      41.900  30.439  36.268  1.00  0.00    -0.205 F 
ATOM     73  C   UNL A   1      43.376  33.765  36.672  1.00  0.00     0.022 A 
BRANCH  71  74
ATOM     74  S   UNL A   1      41.683  32.594  38.471  1.00  0.00     0.127 S 
ATOM     75  O   UNL A   1      42.381  31.554  39.227  1.00  0.00    -0.237 OA
ATOM     76  O   UNL A   1      41.888  33.953  38.973  1.00  0.00    -0.237 OA
ATOM     77  O   UNL A   1      40.310  32.280  38.105  1.00  0.00    -0.744 OA
ENDBRANCH  71  74
ENDBRANCH  53  67
BRANCH  54  78
ATOM     78  C   UNL A   1      42.477  24.864  27.546  1.00  0.00     0.023 A 
ATOM     79  C   UNL A   1      43.206  25.088  26.362  1.00  0.00     0.012 A 
ATOM     80  C   UNL A   1      41.683  23.706  27.656  1.00  0.00     0.148 A 
ATOM     81  C   UNL A   1      43.116  24.196  25.293  1.00  0.00     0.002 A 
ATOM     82  C   UNL A   1      41.643  22.793  26.610  1.00  0.00     0.091 A 
ATOM     83  F   UNL A   1      40.985  23.519  28.785  1.00  0.00    -0.205 F 
ATOM     84  C   UNL A   1      42.343  23.045  25.420  1.00  0.00     0.022 A 
BRANCH  82  85
ATOM     85  S   UNL A   1      40.772  21.227  26.728  1.00  0.00     0.127 S 
ATOM     86  O   UNL A   1      39.422  21.603  26.316  1.00  0.00    -0.237 OA
ATOM     87  O   UNL A   1      41.503  20.405  25.763  1.00  0.00    -0.237 OA
ATOM     88  O   UNL A   1      40.912  20.799  28.112  1.00  0.00    -0.744 OA
ENDBRANCH  82  85
ENDBRANCH  54  78
BRANCH  66  89
ATOM     89  C   UNL A   1      47.118  25.982  32.648  1.00  0.00     0.023 A 
ATOM     90  C   UNL A   1      47.095  25.036  33.692  1.00  0.00     0.012 A 
ATOM     91  C   UNL A   1      48.320  26.208  31.947  1.00  0.00     0.148 A 
ATOM     92  C   UNL A   1      48.258  24.357  34.058  1.00  0.00     0.002 A 
ATOM     93  C   UNL A   1      49.461  25.487  32.281  1.00  0.00     0.091 A 
ATOM     94  F   UNL A   1      48.328  27.121  30.966  1.00  0.00    -0.205 F 
ATOM     95  C   UNL A   1      49.436  24.573  33.346  1.00  0.00     0.022 A 
BRANCH  93  96
ATOM     96  S   UNL A   1      50.994  25.624  31.356  1.00  0.00     0.127 S 
ATOM     97  O   UNL A   1      50.590  25.144  30.036  1.00  0.00    -0.237 OA
ATOM     98  O   UNL A   1      51.270  27.059  31.424  1.00  0.00    -0.237 OA
ATOM     99  O   UNL A   1      51.963  24.789  32.053  1.00  0.00    -0.744 OA
ENDBRANCH  93  96
ENDBRANCH  66  89
ENDBRANCH  40  41
ENDBRANCH  33  35
ENDBRANCH  32  33
ENDBRANCH  31  32
ENDBRANCH  30  31
ENDBRANCH  29  30
ENDBRANCH   1  29
TORSDOF 22
ENDMDL
