MODEL 1
REMARK VINA RESULT:      -8.0      0.000      0.000
REMARK SMILES O=C(OCCOCCOCCOC(=O)[C@H]1CCN(c2ccc(F)cc2)[C@@H]1c1ccc(C(F)(F)F)cc1)c1ccc(-c2c3nc(c(-c4cccc(S(=O)(=O)[O-])c4F)c4ccc([nH]4)c(-c4cccc(S(=O)(=O)[O-])c4F)c4nc(c(-c5cccc(S(=O)(=O)[O-])c5F)c5ccc2[nH]5)C=C4)C=C3)cc1
REMARK SMILES IDX 7 1 6 2 5 3 4 4 3 5 2 6 1 7 37 8 38 9 99 10 39 11 98 12
REMARK SMILES IDX 40 13 41 14 42 15 92 16 43 17 97 18 91 19 93 20 44 21 96 22
REMARK SMILES IDX 90 23 89 24 45 26 77 27 57 28 76 29 58 30 61 31 75 32 94 33
REMARK SMILES IDX 59 34 60 35 74 37 95 38 62 39 46 40 47 41 55 42 48 43 50 44
REMARK SMILES IDX 56 45 49 46 51 47 52 48 53 49 54 50 78 51 79 52 87 53 80 54
REMARK SMILES IDX 82 55 88 56 81 57 83 58 84 59 85 60 86 61 63 62 64 63 72 64
REMARK SMILES IDX 65 65 67 66 73 67 66 68 68 69 69 70 70 71 71 72 8 73 9 74
REMARK SMILES IDX 10 75 11 76 12 77 13 78 14 79 15 80 16 81 26 82 17 83 18 84
REMARK SMILES IDX 27 85 28 86 36 87 29 88 35 89 30 90 31 91 32 92 33 93 34 94
REMARK SMILES IDX 19 95 20 96 25 97 21 98 24 99 22 100 23 101
REMARK H PARENT 93 25 61 36
REMARK Flexibility Score: inf
ROOT
ATOM      1  C   UNL A   1      41.620  23.991  27.927  1.00  0.00     0.188 C 
ENDROOT
BRANCH   1   2
ATOM      2  O   UNL A   1      42.048  22.937  27.060  1.00  0.00    -0.376 OA
BRANCH   2   3
ATOM      3  C   UNL A   1      42.598  23.406  25.826  1.00  0.00     0.202 C 
BRANCH   3   4
ATOM      4  C   UNL A   1      44.000  22.861  25.534  1.00  0.00     0.261 C 
BRANCH   4   5
ATOM      5  O   UNL A   1      45.021  23.683  26.119  1.00  0.00    -0.460 OA
BRANCH   5   6
ATOM      6  C   UNL A   1      45.292  24.975  25.796  1.00  0.00     0.338 C 
ATOM      7  O   UNL A   1      45.604  25.251  24.640  1.00  0.00    -0.246 OA
BRANCH   6   8
ATOM      8  C   UNL A   1      45.112  26.094  26.766  1.00  0.00     0.060 A 
ATOM      9  C   UNL A   1      46.121  26.670  27.542  1.00  0.00     0.016 A 
ATOM     10  C   UNL A   1      43.829  26.640  26.846  1.00  0.00     0.016 A 
ATOM     11  C   UNL A   1      45.835  27.669  28.478  1.00  0.00     0.010 A 
ATOM     12  C   UNL A   1      43.569  27.711  27.704  1.00  0.00     0.010 A 
ATOM     13  C   UNL A   1      44.553  28.207  28.570  1.00  0.00    -0.014 A 
BRANCH  13  14
ATOM     14  C   UNL A   1      44.185  29.206  29.612  1.00  0.00     0.031 A 
ATOM     15  C   UNL A   1      43.816  28.702  30.989  1.00  0.00     0.074 A 
ATOM     16  C   UNL A   1      44.152  30.530  29.348  1.00  0.00     0.049 A 
ATOM     17  N   UNL A   1      43.344  29.360  32.015  1.00  0.00    -0.248 NA
ATOM     18  C   UNL A   1      43.998  27.260  31.246  1.00  0.00     0.031 C 
ATOM     19  C   UNL A   1      44.542  31.165  28.086  1.00  0.00     0.029 A 
ATOM     20  N   UNL A   1      43.754  31.591  30.126  1.00  0.00    -0.354 N 
ATOM     21  C   UNL A   1      43.145  28.412  33.013  1.00  0.00     0.074 A 
ATOM     22  C   UNL A   1      43.475  27.124  32.454  1.00  0.00     0.031 C 
ATOM     23  C   UNL A   1      44.334  32.490  28.172  1.00  0.00     0.029 A 
ATOM     24  C   UNL A   1      43.734  32.796  29.455  1.00  0.00     0.049 A 
ATOM     25  H   UNL A   1      43.505  31.499  31.074  1.00  0.00     0.167 HD
ATOM     26  C   UNL A   1      42.793  28.602  34.306  1.00  0.00     0.034 A 
ATOM     27  C   UNL A   1      43.261  34.000  29.826  1.00  0.00     0.034 A 
ATOM     28  C   UNL A   1      42.572  29.896  34.880  1.00  0.00     0.049 A 
ATOM     29  C   UNL A   1      42.806  34.173  31.244  1.00  0.00     0.074 A 
ATOM     30  C   UNL A   1      42.341  30.225  36.202  1.00  0.00     0.029 A 
ATOM     31  N   UNL A   1      42.565  31.079  34.159  1.00  0.00    -0.354 N 
ATOM     32  N   UNL A   1      42.721  33.274  32.191  1.00  0.00    -0.248 NA
ATOM     33  C   UNL A   1      42.484  35.543  31.667  1.00  0.00     0.031 C 
ATOM     34  C   UNL A   1      42.189  31.613  36.280  1.00  0.00     0.029 A 
ATOM     35  C   UNL A   1      42.336  32.143  35.009  1.00  0.00     0.049 A 
ATOM     36  H   UNL A   1      42.703  31.151  33.187  1.00  0.00     0.167 HD
ATOM     37  C   UNL A   1      42.409  33.980  33.342  1.00  0.00     0.074 A 
ATOM     38  C   UNL A   1      42.288  35.374  32.966  1.00  0.00     0.031 C 
ATOM     39  C   UNL A   1      42.263  33.521  34.605  1.00  0.00     0.034 A 
BRANCH  26  40
ATOM     40  C   UNL A   1      42.727  27.391  35.198  1.00  0.00     0.023 A 
ATOM     41  C   UNL A   1      41.565  26.589  35.194  1.00  0.00     0.012 A 
ATOM     42  C   UNL A   1      43.814  27.024  36.013  1.00  0.00     0.148 A 
ATOM     43  C   UNL A   1      41.468  25.470  36.018  1.00  0.00     0.002 A 
ATOM     44  C   UNL A   1      43.727  25.881  36.801  1.00  0.00     0.091 A 
ATOM     45  F   UNL A   1      44.902  27.806  36.020  1.00  0.00    -0.205 F 
ATOM     46  C   UNL A   1      42.551  25.111  36.815  1.00  0.00     0.022 A 
BRANCH  44  47
ATOM     47  S   UNL A   1      45.094  25.292  37.806  1.00  0.00     0.127 S 
ATOM     48  O   UNL A   1      46.237  25.923  37.150  1.00  0.00    -0.237 OA
ATOM     49  O   UNL A   1      44.768  25.838  39.124  1.00  0.00    -0.237 OA
ATOM     50  O   UNL A   1      45.048  23.837  37.727  1.00  0.00    -0.744 OA
ENDBRANCH  44  47
ENDBRANCH  26  40
BRANCH  27  51
ATOM     51  C   UNL A   1      43.242  35.180  28.915  1.00  0.00     0.023 A 
ATOM     52  C   UNL A   1      42.071  35.488  28.202  1.00  0.00     0.012 A 
ATOM     53  C   UNL A   1      44.418  35.907  28.652  1.00  0.00     0.148 A 
ATOM     54  C   UNL A   1      42.082  36.479  27.217  1.00  0.00     0.002 A 
ATOM     55  C   UNL A   1      44.418  36.906  27.680  1.00  0.00     0.091 A 
ATOM     56  F   UNL A   1      45.532  35.593  29.330  1.00  0.00    -0.205 F 
ATOM     57  C   UNL A   1      43.256  37.184  26.950  1.00  0.00     0.022 A 
BRANCH  55  58
ATOM     58  S   UNL A   1      45.890  37.900  27.395  1.00  0.00     0.127 S 
ATOM     59  O   UNL A   1      45.430  38.843  26.379  1.00  0.00    -0.237 OA
ATOM     60  O   UNL A   1      46.155  38.501  28.702  1.00  0.00    -0.237 OA
ATOM     61  O   UNL A   1      46.886  36.922  26.972  1.00  0.00    -0.744 OA
ENDBRANCH  55  58
ENDBRANCH  27  51
BRANCH  39  62
ATOM     62  C   UNL A   1      42.022  34.536  35.678  1.00  0.00     0.023 A 
ATOM     63  C   UNL A   1      40.709  34.936  35.982  1.00  0.00     0.012 A 
ATOM     64  C   UNL A   1      43.101  35.020  36.438  1.00  0.00     0.148 A 
ATOM     65  C   UNL A   1      40.473  35.817  37.032  1.00  0.00     0.002 A 
ATOM     66  C   UNL A   1      42.855  35.859  37.513  1.00  0.00     0.091 A 
ATOM     67  F   UNL A   1      44.343  34.642  36.100  1.00  0.00    -0.205 F 
ATOM     68  C   UNL A   1      41.542  36.266  37.807  1.00  0.00     0.022 A 
BRANCH  66  69
ATOM     69  S   UNL A   1      44.157  36.400  38.624  1.00  0.00     0.127 S 
ATOM     70  O   UNL A   1      44.567  35.140  39.240  1.00  0.00    -0.237 OA
ATOM     71  O   UNL A   1      45.132  36.975  37.697  1.00  0.00    -0.237 OA
ATOM     72  O   UNL A   1      43.543  37.362  39.529  1.00  0.00    -0.744 OA
ENDBRANCH  66  69
ENDBRANCH  39  62
ENDBRANCH  13  14
ENDBRANCH   6   8
ENDBRANCH   5   6
ENDBRANCH   4   5
ENDBRANCH   3   4
ENDBRANCH   2   3
ENDBRANCH   1   2
BRANCH   1  73
ATOM     73  C   UNL A   1      40.206  24.469  27.595  1.00  0.00     0.188 C 
BRANCH  73  74
ATOM     74  O   UNL A   1      40.090  25.541  26.662  1.00  0.00    -0.376 OA
BRANCH  74  75
ATOM     75  C   UNL A   1      40.076  26.870  27.174  1.00  0.00     0.202 C 
BRANCH  75  76
ATOM     76  C   UNL A   1      39.318  27.163  28.481  1.00  0.00     0.261 C 
BRANCH  76  77
ATOM     77  O   UNL A   1      38.525  28.364  28.545  1.00  0.00    -0.463 OA
BRANCH  77  78
ATOM     78  C   UNL A   1      38.989  29.269  29.443  1.00  0.00     0.311 C 
ATOM     79  O   UNL A   1      40.011  29.934  29.278  1.00  0.00    -0.252 OA
BRANCH  78  80
ATOM     80  C   UNL A   1      38.196  29.396  30.714  1.00  0.00     0.128 C 
ATOM     81  C   UNL A   1      38.739  28.576  31.860  1.00  0.00     0.039 C 
ATOM     82  C   UNL A   1      37.926  30.793  31.339  1.00  0.00     0.127 C 
ATOM     83  C   UNL A   1      37.722  28.945  32.928  1.00  0.00     0.118 C 
ATOM     84  N   UNL A   1      37.530  30.398  32.753  1.00  0.00    -0.364 N 
BRANCH  82  85
ATOM     85  C   UNL A   1      36.862  31.544  30.513  1.00  0.00    -0.025 A 
ATOM     86  C   UNL A   1      35.586  31.819  31.007  1.00  0.00     0.006 A 
ATOM     87  C   UNL A   1      37.145  32.102  29.246  1.00  0.00     0.006 A 
ATOM     88  C   UNL A   1      34.625  32.526  30.263  1.00  0.00     0.013 A 
ATOM     89  C   UNL A   1      36.223  32.868  28.528  1.00  0.00     0.013 A 
ATOM     90  C   UNL A   1      34.946  33.085  29.027  1.00  0.00     0.056 A 
BRANCH  90  91
ATOM     91  C   UNL A   1      33.997  33.980  28.278  1.00  0.00     0.416 C 
ATOM     92  F   UNL A   1      33.211  34.738  29.068  1.00  0.00    -0.166 F 
ATOM     93  F   UNL A   1      34.665  34.833  27.448  1.00  0.00    -0.166 F 
ATOM     94  F   UNL A   1      33.151  33.284  27.461  1.00  0.00    -0.166 F 
ENDBRANCH  90  91
ENDBRANCH  82  85
BRANCH  84  95
ATOM     95  C   UNL A   1      37.774  31.161  33.895  1.00  0.00     0.037 A 
ATOM     96  C   UNL A   1      38.535  30.677  34.978  1.00  0.00     0.029 A 
ATOM     97  C   UNL A   1      37.137  32.393  34.098  1.00  0.00     0.029 A 
ATOM     98  C   UNL A   1      38.642  31.379  36.189  1.00  0.00     0.041 A 
ATOM     99  C   UNL A   1      37.306  33.146  35.270  1.00  0.00     0.041 A 
ATOM    100  C   UNL A   1      38.049  32.623  36.313  1.00  0.00     0.123 A 
ATOM    101  F   UNL A   1      38.186  33.311  37.453  1.00  0.00    -0.207 F 
ENDBRANCH  84  95
ENDBRANCH  78  80
ENDBRANCH  77  78
ENDBRANCH  76  77
ENDBRANCH  75  76
ENDBRANCH  74  75
ENDBRANCH  73  74
ENDBRANCH   1  73
TORSDOF 23
ENDMDL
MODEL 2
REMARK VINA RESULT:      -7.6      5.160     10.658
REMARK SMILES O=C(OCCOCCOCCOC(=O)[C@H]1CCN(c2ccc(F)cc2)[C@@H]1c1ccc(C(F)(F)F)cc1)c1ccc(-c2c3nc(c(-c4cccc(S(=O)(=O)[O-])c4F)c4ccc([nH]4)c(-c4cccc(S(=O)(=O)[O-])c4F)c4nc(c(-c5cccc(S(=O)(=O)[O-])c5F)c5ccc2[nH]5)C=C4)C=C3)cc1
REMARK SMILES IDX 7 1 6 2 5 3 4 4 3 5 2 6 1 7 37 8 38 9 99 10 39 11 98 12
REMARK SMILES IDX 40 13 41 14 42 15 92 16 43 17 97 18 91 19 93 20 44 21 96 22
REMARK SMILES IDX 90 23 89 24 45 26 77 27 57 28 76 29 58 30 61 31 75 32 94 33
REMARK SMILES IDX 59 34 60 35 74 37 95 38 62 39 46 40 47 41 55 42 48 43 50 44
REMARK SMILES IDX 56 45 49 46 51 47 52 48 53 49 54 50 78 51 79 52 87 53 80 54
REMARK SMILES IDX 82 55 88 56 81 57 83 58 84 59 85 60 86 61 63 62 64 63 72 64
REMARK SMILES IDX 65 65 67 66 73 67 66 68 68 69 69 70 70 71 71 72 8 73 9 74
REMARK SMILES IDX 10 75 11 76 12 77 13 78 14 79 15 80 16 81 26 82 17 83 18 84
REMARK SMILES IDX 27 85 28 86 36 87 29 88 35 89 30 90 31 91 32 92 33 93 34 94
REMARK SMILES IDX 19 95 20 96 25 97 21 98 24 99 22 100 23 101
REMARK H PARENT 93 25 61 36
REMARK Flexibility Score: inf
ROOT
ATOM      1  C   UNL A   1      38.447  30.489  30.098  1.00  0.00     0.188 C 
ENDROOT
BRANCH   1   2
ATOM      2  O   UNL A   1      37.318  31.344  29.895  1.00  0.00    -0.376 OA
BRANCH   2   3
ATOM      3  C   UNL A   1      36.519  31.516  31.069  1.00  0.00     0.202 C 
BRANCH   3   4
ATOM      4  C   UNL A   1      36.853  32.788  31.855  1.00  0.00     0.261 C 
BRANCH   4   5
ATOM      5  O   UNL A   1      37.883  32.556  32.828  1.00  0.00    -0.460 OA
BRANCH   5   6
ATOM      6  C   UNL A   1      39.133  33.087  32.813  1.00  0.00     0.338 C 
ATOM      7  O   UNL A   1      39.265  34.307  32.730  1.00  0.00    -0.246 OA
BRANCH   6   8
ATOM      8  C   UNL A   1      40.355  32.256  33.011  1.00  0.00     0.060 A 
ATOM      9  C   UNL A   1      41.667  32.734  33.061  1.00  0.00     0.016 A 
ATOM     10  C   UNL A   1      40.145  30.892  33.226  1.00  0.00     0.016 A 
ATOM     11  C   UNL A   1      42.754  31.862  33.179  1.00  0.00     0.010 A 
ATOM     12  C   UNL A   1      41.226  30.037  33.451  1.00  0.00     0.010 A 
ATOM     13  C   UNL A   1      42.548  30.498  33.380  1.00  0.00    -0.014 A 
BRANCH  13  14
ATOM     14  C   UNL A   1      43.673  29.524  33.419  1.00  0.00     0.031 A 
ATOM     15  C   UNL A   1      44.157  29.041  34.768  1.00  0.00     0.074 A 
ATOM     16  C   UNL A   1      44.276  29.087  32.291  1.00  0.00     0.049 A 
ATOM     17  N   UNL A   1      45.191  28.298  35.062  1.00  0.00    -0.248 NA
ATOM     18  C   UNL A   1      43.373  29.455  35.948  1.00  0.00     0.031 C 
ATOM     19  C   UNL A   1      43.878  29.417  30.921  1.00  0.00     0.029 A 
ATOM     20  N   UNL A   1      45.373  28.277  32.116  1.00  0.00    -0.354 N 
ATOM     21  C   UNL A   1      45.196  28.188  36.449  1.00  0.00     0.074 A 
ATOM     22  C   UNL A   1      44.110  28.997  36.947  1.00  0.00     0.031 C 
ATOM     23  C   UNL A   1      44.733  28.841  30.058  1.00  0.00     0.029 A 
ATOM     24  C   UNL A   1      45.776  28.165  30.802  1.00  0.00     0.049 A 
ATOM     25  H   UNL A   1      45.829  27.820  32.859  1.00  0.00     0.167 HD
ATOM     26  C   UNL A   1      45.985  27.422  37.237  1.00  0.00     0.034 A 
ATOM     27  C   UNL A   1      46.876  27.605  30.265  1.00  0.00     0.034 A 
ATOM     28  C   UNL A   1      46.991  26.540  36.723  1.00  0.00     0.049 A 
ATOM     29  C   UNL A   1      47.779  26.819  31.167  1.00  0.00     0.074 A 
ATOM     30  C   UNL A   1      47.761  25.619  37.408  1.00  0.00     0.029 A 
ATOM     31  N   UNL A   1      47.357  26.465  35.389  1.00  0.00    -0.354 N 
ATOM     32  N   UNL A   1      47.701  26.657  32.463  1.00  0.00    -0.248 NA
ATOM     33  C   UNL A   1      48.856  26.059  30.518  1.00  0.00     0.031 C 
ATOM     34  C   UNL A   1      48.600  24.987  36.484  1.00  0.00     0.029 A 
ATOM     35  C   UNL A   1      48.341  25.510  35.228  1.00  0.00     0.049 A 
ATOM     36  H   UNL A   1      46.973  27.009  34.665  1.00  0.00     0.167 HD
ATOM     37  C   UNL A   1      48.670  25.717  32.777  1.00  0.00     0.074 A 
ATOM     38  C   UNL A   1      49.343  25.372  31.541  1.00  0.00     0.031 C 
ATOM     39  C   UNL A   1      48.959  25.165  33.977  1.00  0.00     0.034 A 
BRANCH  26  40
ATOM     40  C   UNL A   1      45.719  27.435  38.718  1.00  0.00     0.023 A 
ATOM     41  C   UNL A   1      44.864  26.461  39.278  1.00  0.00     0.012 A 
ATOM     42  C   UNL A   1      46.331  28.380  39.562  1.00  0.00     0.148 A 
ATOM     43  C   UNL A   1      44.587  26.455  40.643  1.00  0.00     0.002 A 
ATOM     44  C   UNL A   1      46.085  28.341  40.930  1.00  0.00     0.091 A 
ATOM     45  F   UNL A   1      47.126  29.310  39.013  1.00  0.00    -0.205 F 
ATOM     46  C   UNL A   1      45.203  27.389  41.470  1.00  0.00     0.022 A 
BRANCH  44  47
ATOM     47  S   UNL A   1      46.887  29.452  42.091  1.00  0.00     0.127 S 
ATOM     48  O   UNL A   1      46.377  28.962  43.370  1.00  0.00    -0.237 OA
ATOM     49  O   UNL A   1      48.305  29.178  41.854  1.00  0.00    -0.237 OA
ATOM     50  O   UNL A   1      46.462  30.795  41.717  1.00  0.00    -0.744 OA
ENDBRANCH  44  47
ENDBRANCH  26  40
BRANCH  27  51
ATOM     51  C   UNL A   1      47.190  27.666  28.809  1.00  0.00     0.023 A 
ATOM     52  C   UNL A   1      47.715  28.849  28.262  1.00  0.00     0.012 A 
ATOM     53  C   UNL A   1      46.839  26.609  27.949  1.00  0.00     0.148 A 
ATOM     54  C   UNL A   1      47.854  28.988  26.878  1.00  0.00     0.002 A 
ATOM     55  C   UNL A   1      46.996  26.748  26.572  1.00  0.00     0.091 A 
ATOM     56  F   UNL A   1      46.325  25.491  28.484  1.00  0.00    -0.205 F 
ATOM     57  C   UNL A   1      47.488  27.942  26.032  1.00  0.00     0.022 A 
BRANCH  55  58
ATOM     58  S   UNL A   1      46.632  25.373  25.470  1.00  0.00     0.127 S 
ATOM     59  O   UNL A   1      47.343  24.271  26.112  1.00  0.00    -0.237 OA
ATOM     60  O   UNL A   1      45.174  25.265  25.527  1.00  0.00    -0.237 OA
ATOM     61  O   UNL A   1      47.150  25.821  24.182  1.00  0.00    -0.744 OA
ENDBRANCH  55  58
ENDBRANCH  27  51
BRANCH  39  62
ATOM     62  C   UNL A   1      50.001  24.091  34.000  1.00  0.00     0.023 A 
ATOM     63  C   UNL A   1      49.622  22.745  33.850  1.00  0.00     0.012 A 
ATOM     64  C   UNL A   1      51.362  24.437  34.082  1.00  0.00     0.148 A 
ATOM     65  C   UNL A   1      50.593  21.750  33.790  1.00  0.00     0.002 A 
ATOM     66  C   UNL A   1      52.324  23.446  33.972  1.00  0.00     0.091 A 
ATOM     67  F   UNL A   1      51.684  25.727  34.257  1.00  0.00    -0.205 F 
ATOM     68  C   UNL A   1      51.942  22.101  33.834  1.00  0.00     0.022 A 
BRANCH  66  69
ATOM     69  S   UNL A   1      54.079  23.818  33.916  1.00  0.00     0.127 S 
ATOM     70  O   UNL A   1      54.309  24.375  35.247  1.00  0.00    -0.237 OA
ATOM     71  O   UNL A   1      54.666  22.495  33.696  1.00  0.00    -0.237 OA
ATOM     72  O   UNL A   1      54.261  24.751  32.813  1.00  0.00    -0.744 OA
ENDBRANCH  66  69
ENDBRANCH  39  62
ENDBRANCH  13  14
ENDBRANCH   6   8
ENDBRANCH   5   6
ENDBRANCH   4   5
ENDBRANCH   3   4
ENDBRANCH   2   3
ENDBRANCH   1   2
BRANCH   1  73
ATOM     73  C   UNL A   1      38.043  29.135  30.682  1.00  0.00     0.188 C 
BRANCH  73  74
ATOM     74  O   UNL A   1      39.095  28.294  31.150  1.00  0.00    -0.376 OA
BRANCH  74  75
ATOM     75  C   UNL A   1      40.009  27.773  30.189  1.00  0.00     0.202 C 
BRANCH  75  76
ATOM     76  C   UNL A   1      39.511  26.738  29.165  1.00  0.00     0.261 C 
BRANCH  76  77
ATOM     77  O   UNL A   1      39.885  26.922  27.785  1.00  0.00    -0.463 OA
BRANCH  77  78
ATOM     78  C   UNL A   1      41.025  26.270  27.445  1.00  0.00     0.311 C 
ATOM     79  O   UNL A   1      42.043  26.834  27.047  1.00  0.00    -0.252 OA
BRANCH  78  80
ATOM     80  C   UNL A   1      40.974  24.770  27.538  1.00  0.00     0.128 C 
ATOM     81  C   UNL A   1      40.110  24.120  26.484  1.00  0.00     0.039 C 
ATOM     82  C   UNL A   1      42.284  23.933  27.526  1.00  0.00     0.127 C 
ATOM     83  C   UNL A   1      40.296  22.663  26.879  1.00  0.00     0.118 C 
ATOM     84  N   UNL A   1      41.737  22.557  27.184  1.00  0.00    -0.364 N 
BRANCH  82  85
ATOM     85  C   UNL A   1      43.007  24.066  28.883  1.00  0.00    -0.025 A 
ATOM     86  C   UNL A   1      43.253  25.302  29.483  1.00  0.00     0.006 A 
ATOM     87  C   UNL A   1      43.365  22.943  29.660  1.00  0.00     0.006 A 
ATOM     88  C   UNL A   1      43.889  25.421  30.731  1.00  0.00     0.013 A 
ATOM     89  C   UNL A   1      43.932  23.047  30.933  1.00  0.00     0.013 A 
ATOM     90  C   UNL A   1      44.206  24.292  31.483  1.00  0.00     0.056 A 
BRANCH  90  91
ATOM     91  C   UNL A   1      44.739  24.384  32.887  1.00  0.00     0.416 C 
ATOM     92  F   UNL A   1      46.014  23.972  33.024  1.00  0.00    -0.166 F 
ATOM     93  F   UNL A   1      44.684  25.664  33.359  1.00  0.00    -0.166 F 
ATOM     94  F   UNL A   1      44.007  23.649  33.777  1.00  0.00    -0.166 F 
ENDBRANCH  90  91
ENDBRANCH  82  85
BRANCH  84  95
ATOM     95  C   UNL A   1      42.417  21.584  26.451  1.00  0.00     0.037 A 
ATOM     96  C   UNL A   1      42.110  20.213  26.548  1.00  0.00     0.029 A 
ATOM     97  C   UNL A   1      43.556  21.904  25.698  1.00  0.00     0.029 A 
ATOM     98  C   UNL A   1      42.900  19.225  25.938  1.00  0.00     0.041 A 
ATOM     99  C   UNL A   1      44.303  20.934  25.011  1.00  0.00     0.041 A 
ATOM    100  C   UNL A   1      43.974  19.598  25.150  1.00  0.00     0.123 A 
ATOM    101  F   UNL A   1      44.701  18.658  24.534  1.00  0.00    -0.207 F 
ENDBRANCH  84  95
ENDBRANCH  78  80
ENDBRANCH  77  78
ENDBRANCH  76  77
ENDBRANCH  75  76
ENDBRANCH  74  75
ENDBRANCH  73  74
ENDBRANCH   1  73
TORSDOF 23
ENDMDL
MODEL 3
REMARK VINA RESULT:      -7.4      4.809     11.627
REMARK SMILES O=C(OCCOCCOCCOC(=O)[C@H]1CCN(c2ccc(F)cc2)[C@@H]1c1ccc(C(F)(F)F)cc1)c1ccc(-c2c3nc(c(-c4cccc(S(=O)(=O)[O-])c4F)c4ccc([nH]4)c(-c4cccc(S(=O)(=O)[O-])c4F)c4nc(c(-c5cccc(S(=O)(=O)[O-])c5F)c5ccc2[nH]5)C=C4)C=C3)cc1
REMARK SMILES IDX 7 1 6 2 5 3 4 4 3 5 2 6 1 7 37 8 38 9 99 10 39 11 98 12
REMARK SMILES IDX 40 13 41 14 42 15 92 16 43 17 97 18 91 19 93 20 44 21 96 22
REMARK SMILES IDX 90 23 89 24 45 26 77 27 57 28 76 29 58 30 61 31 75 32 94 33
REMARK SMILES IDX 59 34 60 35 74 37 95 38 62 39 46 40 47 41 55 42 48 43 50 44
REMARK SMILES IDX 56 45 49 46 51 47 52 48 53 49 54 50 78 51 79 52 87 53 80 54
REMARK SMILES IDX 82 55 88 56 81 57 83 58 84 59 85 60 86 61 63 62 64 63 72 64
REMARK SMILES IDX 65 65 67 66 73 67 66 68 68 69 69 70 70 71 71 72 8 73 9 74
REMARK SMILES IDX 10 75 11 76 12 77 13 78 14 79 15 80 16 81 26 82 17 83 18 84
REMARK SMILES IDX 27 85 28 86 36 87 29 88 35 89 30 90 31 91 32 92 33 93 34 94
REMARK SMILES IDX 19 95 20 96 25 97 21 98 24 99 22 100 23 101
REMARK H PARENT 93 25 61 36
REMARK Flexibility Score: inf
ROOT
ATOM      1  C   UNL A   1      53.224  38.795  29.674  1.00  0.00     0.188 C 
ENDROOT
BRANCH   1   2
ATOM      2  O   UNL A   1      53.982  37.581  29.653  1.00  0.00    -0.376 OA
BRANCH   2   3
ATOM      3  C   UNL A   1      53.296  36.495  29.026  1.00  0.00     0.202 C 
BRANCH   3   4
ATOM      4  C   UNL A   1      52.149  36.941  28.113  1.00  0.00     0.261 C 
BRANCH   4   5
ATOM      5  O   UNL A   1      52.251  36.354  26.807  1.00  0.00    -0.460 OA
BRANCH   5   6
ATOM      6  C   UNL A   1      51.676  35.191  26.404  1.00  0.00     0.338 C 
ATOM      7  O   UNL A   1      52.350  34.376  25.776  1.00  0.00    -0.246 OA
BRANCH   6   8
ATOM      8  C   UNL A   1      50.289  34.809  26.795  1.00  0.00     0.060 A 
ATOM      9  C   UNL A   1      49.115  35.290  26.209  1.00  0.00     0.016 A 
ATOM     10  C   UNL A   1      50.175  33.840  27.794  1.00  0.00     0.016 A 
ATOM     11  C   UNL A   1      47.857  34.924  26.698  1.00  0.00     0.010 A 
ATOM     12  C   UNL A   1      48.917  33.396  28.208  1.00  0.00     0.010 A 
ATOM     13  C   UNL A   1      47.740  33.967  27.705  1.00  0.00    -0.014 A 
BRANCH  13  14
ATOM     14  C   UNL A   1      46.428  33.616  28.317  1.00  0.00     0.031 A 
ATOM     15  C   UNL A   1      45.940  34.439  29.487  1.00  0.00     0.074 A 
ATOM     16  C   UNL A   1      45.689  32.579  27.867  1.00  0.00     0.049 A 
ATOM     17  N   UNL A   1      44.901  34.252  30.258  1.00  0.00    -0.248 NA
ATOM     18  C   UNL A   1      46.730  35.634  29.842  1.00  0.00     0.031 C 
ATOM     19  C   UNL A   1      46.003  31.737  26.710  1.00  0.00     0.029 A 
ATOM     20  N   UNL A   1      44.518  32.038  28.344  1.00  0.00    -0.354 N 
ATOM     21  C   UNL A   1      44.938  35.277  31.198  1.00  0.00     0.074 A 
ATOM     22  C   UNL A   1      46.136  36.042  30.952  1.00  0.00     0.031 C 
ATOM     23  C   UNL A   1      45.068  30.778  26.591  1.00  0.00     0.029 A 
ATOM     24  C   UNL A   1      44.134  30.884  27.693  1.00  0.00     0.049 A 
ATOM     25  H   UNL A   1      44.002  32.436  29.082  1.00  0.00     0.167 HD
ATOM     26  C   UNL A   1      44.019  35.601  32.136  1.00  0.00     0.034 A 
ATOM     27  C   UNL A   1      43.156  30.003  27.972  1.00  0.00     0.034 A 
ATOM     28  C   UNL A   1      42.781  34.899  32.301  1.00  0.00     0.049 A 
ATOM     29  C   UNL A   1      42.188  30.345  29.064  1.00  0.00     0.074 A 
ATOM     30  C   UNL A   1      41.714  35.212  33.123  1.00  0.00     0.029 A 
ATOM     31  N   UNL A   1      42.442  33.742  31.618  1.00  0.00    -0.354 N 
ATOM     32  N   UNL A   1      42.198  31.374  29.873  1.00  0.00    -0.248 NA
ATOM     33  C   UNL A   1      41.023  29.461  29.210  1.00  0.00     0.031 C 
ATOM     34  C   UNL A   1      40.729  34.238  32.939  1.00  0.00     0.029 A 
ATOM     35  C   UNL A   1      41.180  33.329  31.997  1.00  0.00     0.049 A 
ATOM     36  H   UNL A   1      43.014  33.285  30.961  1.00  0.00     0.167 HD
ATOM     37  C   UNL A   1      41.003  31.304  30.572  1.00  0.00     0.074 A 
ATOM     38  C   UNL A   1      40.312  30.115  30.116  1.00  0.00     0.031 C 
ATOM     39  C   UNL A   1      40.507  32.163  31.491  1.00  0.00     0.034 A 
BRANCH  26  40
ATOM     40  C   UNL A   1      44.278  36.822  32.978  1.00  0.00     0.023 A 
ATOM     41  C   UNL A   1      44.910  36.679  34.232  1.00  0.00     0.012 A 
ATOM     42  C   UNL A   1      43.933  38.109  32.524  1.00  0.00     0.148 A 
ATOM     43  C   UNL A   1      45.152  37.787  35.040  1.00  0.00     0.002 A 
ATOM     44  C   UNL A   1      44.217  39.216  33.316  1.00  0.00     0.091 A 
ATOM     45  F   UNL A   1      43.317  38.227  31.339  1.00  0.00    -0.205 F 
ATOM     46  C   UNL A   1      44.814  39.056  34.579  1.00  0.00     0.022 A 
BRANCH  44  47
ATOM     47  S   UNL A   1      43.889  40.899  32.782  1.00  0.00     0.127 S 
ATOM     48  O   UNL A   1      44.418  41.673  33.904  1.00  0.00    -0.237 OA
ATOM     49  O   UNL A   1      44.676  40.993  31.552  1.00  0.00    -0.237 OA
ATOM     50  O   UNL A   1      42.448  40.981  32.585  1.00  0.00    -0.744 OA
ENDBRANCH  44  47
ENDBRANCH  26  40
BRANCH  27  51
ATOM     51  C   UNL A   1      42.950  28.747  27.196  1.00  0.00     0.023 A 
ATOM     52  C   UNL A   1      42.036  28.731  26.129  1.00  0.00     0.012 A 
ATOM     53  C   UNL A   1      43.551  27.540  27.602  1.00  0.00     0.148 A 
ATOM     54  C   UNL A   1      41.700  27.529  25.501  1.00  0.00     0.002 A 
ATOM     55  C   UNL A   1      43.224  26.347  26.961  1.00  0.00     0.091 A 
ATOM     56  F   UNL A   1      44.411  27.566  28.632  1.00  0.00    -0.205 F 
ATOM     57  C   UNL A   1      42.287  26.336  25.920  1.00  0.00     0.022 A 
BRANCH  55  58
ATOM     58  S   UNL A   1      44.050  24.814  27.413  1.00  0.00     0.127 S 
ATOM     59  O   UNL A   1      45.437  25.097  27.054  1.00  0.00    -0.237 OA
ATOM     60  O   UNL A   1      43.808  24.707  28.852  1.00  0.00    -0.237 OA
ATOM     61  O   UNL A   1      43.362  23.807  26.613  1.00  0.00    -0.744 OA
ENDBRANCH  55  58
ENDBRANCH  27  51
BRANCH  39  62
ATOM     62  C   UNL A   1      39.133  31.885  32.014  1.00  0.00     0.023 A 
ATOM     63  C   UNL A   1      38.971  31.247  33.255  1.00  0.00     0.012 A 
ATOM     64  C   UNL A   1      38.009  32.345  31.303  1.00  0.00     0.148 A 
ATOM     65  C   UNL A   1      37.697  31.060  33.783  1.00  0.00     0.002 A 
ATOM     66  C   UNL A   1      36.747  32.200  31.858  1.00  0.00     0.091 A 
ATOM     67  F   UNL A   1      38.199  32.922  30.108  1.00  0.00    -0.205 F 
ATOM     68  C   UNL A   1      36.588  31.550  33.093  1.00  0.00     0.022 A 
BRANCH  66  69
ATOM     69  S   UNL A   1      35.278  32.889  31.090  1.00  0.00     0.127 S 
ATOM     70  O   UNL A   1      34.229  32.455  32.011  1.00  0.00    -0.237 OA
ATOM     71  O   UNL A   1      35.563  34.324  31.118  1.00  0.00    -0.237 OA
ATOM     72  O   UNL A   1      35.210  32.312  29.755  1.00  0.00    -0.744 OA
ENDBRANCH  66  69
ENDBRANCH  39  62
ENDBRANCH  13  14
ENDBRANCH   6   8
ENDBRANCH   5   6
ENDBRANCH   4   5
ENDBRANCH   3   4
ENDBRANCH   2   3
ENDBRANCH   1   2
BRANCH   1  73
ATOM     73  C   UNL A   1      52.989  39.299  31.099  1.00  0.00     0.188 C 
BRANCH  73  74
ATOM     74  O   UNL A   1      51.883  38.741  31.806  1.00  0.00    -0.376 OA
BRANCH  74  75
ATOM     75  C   UNL A   1      50.654  39.462  31.793  1.00  0.00     0.202 C 
BRANCH  75  76
ATOM     76  C   UNL A   1      49.413  38.816  31.153  1.00  0.00     0.261 C 
BRANCH  76  77
ATOM     77  O   UNL A   1      48.333  39.684  30.753  1.00  0.00    -0.463 OA
BRANCH  77  78
ATOM     78  C   UNL A   1      47.876  39.431  29.501  1.00  0.00     0.311 C 
ATOM     79  O   UNL A   1      48.304  38.526  28.786  1.00  0.00    -0.252 OA
BRANCH  78  80
ATOM     80  C   UNL A   1      46.816  40.366  28.990  1.00  0.00     0.128 C 
ATOM     81  C   UNL A   1      47.213  41.823  29.026  1.00  0.00     0.039 C 
ATOM     82  C   UNL A   1      46.208  40.172  27.573  1.00  0.00     0.127 C 
ATOM     83  C   UNL A   1      45.945  42.438  28.457  1.00  0.00     0.118 C 
ATOM     84  N   UNL A   1      45.578  41.537  27.346  1.00  0.00    -0.364 N 
BRANCH  82  85
ATOM     85  C   UNL A   1      45.247  38.964  27.572  1.00  0.00    -0.025 A 
ATOM     86  C   UNL A   1      43.961  39.030  28.108  1.00  0.00     0.006 A 
ATOM     87  C   UNL A   1      45.565  37.748  26.928  1.00  0.00     0.006 A 
ATOM     88  C   UNL A   1      43.077  37.937  28.084  1.00  0.00     0.013 A 
ATOM     89  C   UNL A   1      44.670  36.680  26.834  1.00  0.00     0.013 A 
ATOM     90  C   UNL A   1      43.413  36.759  27.418  1.00  0.00     0.056 A 
BRANCH  90  91
ATOM     91  C   UNL A   1      42.435  35.632  27.234  1.00  0.00     0.416 C 
ATOM     92  F   UNL A   1      41.169  35.934  27.585  1.00  0.00    -0.166 F 
ATOM     93  F   UNL A   1      42.396  35.211  25.937  1.00  0.00    -0.166 F 
ATOM     94  F   UNL A   1      42.771  34.521  27.955  1.00  0.00    -0.166 F 
ENDBRANCH  90  91
ENDBRANCH  82  85
BRANCH  84  95
ATOM     95  C   UNL A   1      45.449  42.163  26.106  1.00  0.00     0.037 A 
ATOM     96  C   UNL A   1      44.544  43.220  25.884  1.00  0.00     0.029 A 
ATOM     97  C   UNL A   1      46.099  41.666  24.968  1.00  0.00     0.029 A 
ATOM     98  C   UNL A   1      44.299  43.737  24.602  1.00  0.00     0.041 A 
ATOM     99  C   UNL A   1      45.928  42.231  23.695  1.00  0.00     0.041 A 
ATOM    100  C   UNL A   1      45.017  43.256  23.522  1.00  0.00     0.123 A 
ATOM    101  F   UNL A   1      44.813  43.779  22.307  1.00  0.00    -0.207 F 
ENDBRANCH  84  95
ENDBRANCH  78  80
ENDBRANCH  77  78
ENDBRANCH  76  77
ENDBRANCH  75  76
ENDBRANCH  74  75
ENDBRANCH  73  74
ENDBRANCH   1  73
TORSDOF 23
ENDMDL
