MODEL 1
REMARK VINA RESULT:      -9.7      0.000      0.000
REMARK SMILES CC(C)[C@H](NC(=O)[C@H](Cc1ccccc1)n1c(=O)[nH]c2ccccc2c1=O)C(=O)OCCOCCOCCOC(=O)c1ccc(-c2c3nc(c(-c4cccc(S(=O)(=O)[O-])c4F)c4ccc([nH]4)c(-c4cccc(S(=O)(=O)[O-])c4F)c4nc(c(-c5cccc(S(=O)(=O)[O-])c5F)c5ccc2[nH]5)C=C4)C=C3)cc1
REMARK SMILES IDX 34 1 33 2 32 3 31 4 30 5 28 6 29 7 4 8 2 9 1 10 3 11 5 12
REMARK SMILES IDX 6 13 7 15 8 16 16 17 17 18 26 19 18 20 19 21 25 22 27 23
REMARK SMILES IDX 20 24 24 26 21 27 23 28 22 29 9 30 10 31 11 32 15 33 12 34
REMARK SMILES IDX 14 35 13 36 35 37 36 38 37 39 38 40 39 41 40 42 41 43 42 44
REMARK SMILES IDX 43 45 104 46 44 47 103 48 45 49 46 50 47 51 97 52 48 53
REMARK SMILES IDX 102 54 96 55 98 56 49 57 101 58 95 59 94 60 50 62 82 63
REMARK SMILES IDX 62 64 81 65 63 66 66 67 80 68 99 69 64 70 65 71 79 73 100 74
REMARK SMILES IDX 67 75 51 76 52 77 60 78 53 79 55 80 61 81 54 82 56 83 57 84
REMARK SMILES IDX 58 85 59 86 83 87 84 88 92 89 85 90 87 91 93 92 86 93 88 94
REMARK SMILES IDX 89 95 90 96 91 97 68 98 69 99 77 100 70 101 72 102 78 103
REMARK SMILES IDX 71 104 73 105 74 106 75 107 76 108
REMARK H PARENT 5 14 19 25 98 61 66 72
REMARK Flexibility Score: inf
ROOT
ATOM      1  C   UNL A   1      37.898  23.349  26.093  1.00  0.00     0.188 C 
ENDROOT
BRANCH   1   2
ATOM      2  O   UNL A   1      37.140  22.313  25.474  1.00  0.00    -0.376 OA
BRANCH   2   3
ATOM      3  C   UNL A   1      35.764  22.248  25.838  1.00  0.00     0.202 C 
BRANCH   3   4
ATOM      4  C   UNL A   1      35.023  23.585  25.800  1.00  0.00     0.261 C 
BRANCH   4   5
ATOM      5  O   UNL A   1      35.273  24.298  24.584  1.00  0.00    -0.462 OA
BRANCH   5   6
ATOM      6  C   UNL A   1      34.451  24.007  23.538  1.00  0.00     0.328 C 
ATOM      7  O   UNL A   1      34.802  23.413  22.528  1.00  0.00    -0.250 OA
BRANCH   6   8
ATOM      8  C   UNL A   1      33.115  24.751  23.706  1.00  0.00     0.194 C 
BRANCH   8   9
ATOM      9  C   UNL A   1      32.009  23.777  23.181  1.00  0.00     0.017 C 
ATOM     10  C   UNL A   1      32.067  22.441  23.923  1.00  0.00     0.010 C 
ATOM     11  C   UNL A   1      30.581  24.330  23.219  1.00  0.00     0.010 C 
ENDBRANCH   8   9
BRANCH   8  12
ATOM     12  N   UNL A   1      33.145  26.038  22.990  1.00  0.00    -0.341 N 
ATOM     13  C   UNL A   1      32.664  27.284  23.260  1.00  0.00     0.244 C 
ATOM     14  H   UNL A   1      33.616  25.987  22.128  1.00  0.00     0.164 HD
ATOM     15  O   UNL A   1      32.851  28.100  22.348  1.00  0.00    -0.273 OA
BRANCH  13  16
ATOM     16  C   UNL A   1      31.805  27.623  24.498  1.00  0.00     0.189 C 
BRANCH  16  17
ATOM     17  N   UNL A   1      32.519  28.557  25.445  1.00  0.00    -0.247 N 
ATOM     18  C   UNL A   1      32.013  29.816  25.579  1.00  0.00     0.329 A 
ATOM     19  C   UNL A   1      33.671  28.178  26.153  1.00  0.00     0.264 A 
ATOM     20  O   UNL A   1      31.005  30.161  24.973  1.00  0.00    -0.248 OA
ATOM     21  N   UNL A   1      32.546  30.661  26.492  1.00  0.00    -0.307 N 
ATOM     22  C   UNL A   1      34.359  29.217  26.986  1.00  0.00     0.064 A 
ATOM     23  O   UNL A   1      34.146  27.046  26.107  1.00  0.00    -0.268 OA
ATOM     24  C   UNL A   1      33.695  30.410  27.213  1.00  0.00     0.055 A 
ATOM     25  H   UNL A   1      32.082  31.514  26.654  1.00  0.00     0.171 HD
ATOM     26  C   UNL A   1      35.641  29.061  27.523  1.00  0.00     0.016 A 
ATOM     27  C   UNL A   1      34.194  31.386  28.081  1.00  0.00     0.027 A 
ATOM     28  C   UNL A   1      36.197  30.073  28.324  1.00  0.00     0.001 A 
ATOM     29  C   UNL A   1      35.458  31.215  28.637  1.00  0.00     0.002 A 
ENDBRANCH  16  17
BRANCH  16  30
ATOM     30  C   UNL A   1      30.235  27.804  24.068  1.00  0.00     0.071 C 
BRANCH  30  31
ATOM     31  C   UNL A   1      29.493  28.835  23.183  1.00  0.00    -0.045 A 
ATOM     32  C   UNL A   1      30.038  29.459  22.053  1.00  0.00     0.004 A 
ATOM     33  C   UNL A   1      28.127  29.122  23.441  1.00  0.00     0.004 A 
ATOM     34  C   UNL A   1      29.315  30.425  21.318  1.00  0.00     0.000 A 
ATOM     35  C   UNL A   1      27.407  30.093  22.724  1.00  0.00     0.000 A 
ATOM     36  C   UNL A   1      28.010  30.764  21.670  1.00  0.00     0.000 A 
ENDBRANCH  30  31
ENDBRANCH  16  30
ENDBRANCH  13  16
ENDBRANCH   8  12
ENDBRANCH   6   8
ENDBRANCH   5   6
ENDBRANCH   4   5
ENDBRANCH   3   4
ENDBRANCH   2   3
ENDBRANCH   1   2
BRANCH   1  37
ATOM     37  C   UNL A   1      39.233  22.864  26.697  1.00  0.00     0.188 C 
BRANCH  37  38
ATOM     38  O   UNL A   1      40.436  23.510  26.253  1.00  0.00    -0.376 OA
BRANCH  38  39
ATOM     39  C   UNL A   1      41.650  22.737  26.244  1.00  0.00     0.202 C 
BRANCH  39  40
ATOM     40  C   UNL A   1      42.385  22.601  27.603  1.00  0.00     0.261 C 
BRANCH  40  41
ATOM     41  O   UNL A   1      43.639  23.386  27.670  1.00  0.00    -0.460 OA
BRANCH  41  42
ATOM     42  C   UNL A   1      43.537  24.629  27.099  1.00  0.00     0.338 C 
ATOM     43  O   UNL A   1      43.845  24.853  25.941  1.00  0.00    -0.246 OA
BRANCH  42  44
ATOM     44  C   UNL A   1      42.975  25.776  27.896  1.00  0.00     0.060 A 
ATOM     45  C   UNL A   1      43.878  26.711  28.396  1.00  0.00     0.016 A 
ATOM     46  C   UNL A   1      41.745  25.733  28.543  1.00  0.00     0.016 A 
ATOM     47  C   UNL A   1      43.617  27.620  29.421  1.00  0.00     0.010 A 
ATOM     48  C   UNL A   1      41.456  26.631  29.614  1.00  0.00     0.010 A 
ATOM     49  C   UNL A   1      42.393  27.585  30.063  1.00  0.00    -0.014 A 
BRANCH  49  50
ATOM     50  C   UNL A   1      42.187  28.520  31.206  1.00  0.00     0.031 A 
ATOM     51  C   UNL A   1      41.162  29.620  31.141  1.00  0.00     0.074 A 
ATOM     52  C   UNL A   1      42.799  28.285  32.385  1.00  0.00     0.049 A 
ATOM     53  N   UNL A   1      40.982  30.635  31.947  1.00  0.00    -0.248 NA
ATOM     54  C   UNL A   1      40.176  29.539  30.052  1.00  0.00     0.031 C 
ATOM     55  C   UNL A   1      43.615  27.109  32.692  1.00  0.00     0.029 A 
ATOM     56  N   UNL A   1      42.832  29.024  33.546  1.00  0.00    -0.354 N 
ATOM     57  C   UNL A   1      39.916  31.359  31.423  1.00  0.00     0.074 A 
ATOM     58  C   UNL A   1      39.442  30.626  30.268  1.00  0.00     0.031 C 
ATOM     59  C   UNL A   1      44.112  27.231  33.932  1.00  0.00     0.029 A 
ATOM     60  C   UNL A   1      43.728  28.531  34.469  1.00  0.00     0.049 A 
ATOM     61  H   UNL A   1      42.274  29.819  33.700  1.00  0.00     0.167 HD
ATOM     62  C   UNL A   1      39.408  32.541  31.854  1.00  0.00     0.034 A 
ATOM     63  C   UNL A   1      44.253  29.102  35.573  1.00  0.00     0.034 A 
ATOM     64  C   UNL A   1      39.885  33.241  33.021  1.00  0.00     0.049 A 
ATOM     65  C   UNL A   1      43.798  30.486  35.953  1.00  0.00     0.074 A 
ATOM     66  C   UNL A   1      39.512  34.485  33.498  1.00  0.00     0.029 A 
ATOM     67  N   UNL A   1      40.845  32.751  33.894  1.00  0.00    -0.354 N 
ATOM     68  N   UNL A   1      42.868  31.229  35.400  1.00  0.00    -0.248 NA
ATOM     69  C   UNL A   1      44.460  31.115  37.105  1.00  0.00     0.031 C 
ATOM     70  C   UNL A   1      40.277  34.763  34.639  1.00  0.00     0.029 A 
ATOM     71  C   UNL A   1      41.092  33.672  34.897  1.00  0.00     0.049 A 
ATOM     72  H   UNL A   1      41.286  31.875  33.812  1.00  0.00     0.167 HD
ATOM     73  C   UNL A   1      42.812  32.396  36.152  1.00  0.00     0.074 A 
ATOM     74  C   UNL A   1      43.790  32.254  37.212  1.00  0.00     0.031 C 
ATOM     75  C   UNL A   1      42.033  33.492  35.974  1.00  0.00     0.034 A 
BRANCH  62  76
ATOM     76  C   UNL A   1      38.343  33.198  31.011  1.00  0.00     0.023 A 
ATOM     77  C   UNL A   1      38.644  33.707  29.732  1.00  0.00     0.012 A 
ATOM     78  C   UNL A   1      37.019  33.281  31.492  1.00  0.00     0.148 A 
ATOM     79  C   UNL A   1      37.650  34.319  28.963  1.00  0.00     0.002 A 
ATOM     80  C   UNL A   1      36.029  33.857  30.705  1.00  0.00     0.091 A 
ATOM     81  F   UNL A   1      36.755  32.802  32.716  1.00  0.00    -0.205 F 
ATOM     82  C   UNL A   1      36.345  34.389  29.446  1.00  0.00     0.022 A 
BRANCH  80  83
ATOM     83  S   UNL A   1      34.308  33.938  31.217  1.00  0.00     0.127 S 
ATOM     84  O   UNL A   1      34.083  32.579  31.711  1.00  0.00    -0.237 OA
ATOM     85  O   UNL A   1      34.344  34.966  32.258  1.00  0.00    -0.237 OA
ATOM     86  O   UNL A   1      33.549  34.302  30.030  1.00  0.00    -0.744 OA
ENDBRANCH  80  83
ENDBRANCH  62  76
BRANCH  63  87
ATOM     87  C   UNL A   1      45.323  28.401  36.346  1.00  0.00     0.023 A 
ATOM     88  C   UNL A   1      46.676  28.579  36.001  1.00  0.00     0.012 A 
ATOM     89  C   UNL A   1      45.001  27.556  37.430  1.00  0.00     0.148 A 
ATOM     90  C   UNL A   1      47.683  27.913  36.704  1.00  0.00     0.002 A 
ATOM     91  C   UNL A   1      46.011  26.949  38.167  1.00  0.00     0.091 A 
ATOM     92  F   UNL A   1      43.707  27.364  37.725  1.00  0.00    -0.205 F 
ATOM     93  C   UNL A   1      47.352  27.111  37.794  1.00  0.00     0.022 A 
BRANCH  91  94
ATOM     94  S   UNL A   1      45.679  26.012  39.664  1.00  0.00     0.127 S 
ATOM     95  O   UNL A   1      45.401  24.681  39.130  1.00  0.00    -0.237 OA
ATOM     96  O   UNL A   1      46.947  26.133  40.386  1.00  0.00    -0.237 OA
ATOM     97  O   UNL A   1      44.558  26.681  40.311  1.00  0.00    -0.744 OA
ENDBRANCH  91  94
ENDBRANCH  63  87
BRANCH  75  98
ATOM     98  C   UNL A   1      42.165  34.609  36.975  1.00  0.00     0.023 A 
ATOM     99  C   UNL A   1      43.040  35.684  36.724  1.00  0.00     0.012 A 
ATOM    100  C   UNL A   1      41.363  34.625  38.134  1.00  0.00     0.148 A 
ATOM    101  C   UNL A   1      43.137  36.743  37.626  1.00  0.00     0.002 A 
ATOM    102  C   UNL A   1      41.427  35.708  39.002  1.00  0.00     0.091 A 
ATOM    103  F   UNL A   1      40.554  33.581  38.366  1.00  0.00    -0.205 F 
ATOM    104  C   UNL A   1      42.323  36.762  38.757  1.00  0.00     0.022 A 
BRANCH 102 105
ATOM    105  S   UNL A   1      40.345  35.863  40.426  1.00  0.00     0.127 S 
ATOM    106  O   UNL A   1      39.032  35.968  39.794  1.00  0.00    -0.237 OA
ATOM    107  O   UNL A   1      40.584  34.604  41.134  1.00  0.00    -0.237 OA
ATOM    108  O   UNL A   1      40.791  37.050  41.143  1.00  0.00    -0.744 OA
ENDBRANCH 102 105
ENDBRANCH  75  98
ENDBRANCH  49  50
ENDBRANCH  42  44
ENDBRANCH  41  42
ENDBRANCH  40  41
ENDBRANCH  39  40
ENDBRANCH  38  39
ENDBRANCH  37  38
ENDBRANCH   1  37
TORSDOF 26
ENDMDL
MODEL 2
REMARK VINA RESULT:      -9.1      7.166      9.839
REMARK SMILES CC(C)[C@H](NC(=O)[C@H](Cc1ccccc1)n1c(=O)[nH]c2ccccc2c1=O)C(=O)OCCOCCOCCOC(=O)c1ccc(-c2c3nc(c(-c4cccc(S(=O)(=O)[O-])c4F)c4ccc([nH]4)c(-c4cccc(S(=O)(=O)[O-])c4F)c4nc(c(-c5cccc(S(=O)(=O)[O-])c5F)c5ccc2[nH]5)C=C4)C=C3)cc1
REMARK SMILES IDX 34 1 33 2 32 3 31 4 30 5 28 6 29 7 4 8 2 9 1 10 3 11 5 12
REMARK SMILES IDX 6 13 7 15 8 16 16 17 17 18 26 19 18 20 19 21 25 22 27 23
REMARK SMILES IDX 20 24 24 26 21 27 23 28 22 29 9 30 10 31 11 32 15 33 12 34
REMARK SMILES IDX 14 35 13 36 35 37 36 38 37 39 38 40 39 41 40 42 41 43 42 44
REMARK SMILES IDX 43 45 104 46 44 47 103 48 45 49 46 50 47 51 97 52 48 53
REMARK SMILES IDX 102 54 96 55 98 56 49 57 101 58 95 59 94 60 50 62 82 63
REMARK SMILES IDX 62 64 81 65 63 66 66 67 80 68 99 69 64 70 65 71 79 73 100 74
REMARK SMILES IDX 67 75 51 76 52 77 60 78 53 79 55 80 61 81 54 82 56 83 57 84
REMARK SMILES IDX 58 85 59 86 83 87 84 88 92 89 85 90 87 91 93 92 86 93 88 94
REMARK SMILES IDX 89 95 90 96 91 97 68 98 69 99 77 100 70 101 72 102 78 103
REMARK SMILES IDX 71 104 73 105 74 106 75 107 76 108
REMARK H PARENT 5 14 19 25 98 61 66 72
REMARK Flexibility Score: inf
ROOT
ATOM      1  C   UNL A   1      37.852  24.007  26.415  1.00  0.00     0.188 C 
ENDROOT
BRANCH   1   2
ATOM      2  O   UNL A   1      37.318  23.347  25.271  1.00  0.00    -0.376 OA
BRANCH   2   3
ATOM      3  C   UNL A   1      36.125  22.598  25.486  1.00  0.00     0.202 C 
BRANCH   3   4
ATOM      4  C   UNL A   1      34.892  23.434  25.831  1.00  0.00     0.261 C 
BRANCH   4   5
ATOM      5  O   UNL A   1      34.614  24.412  24.823  1.00  0.00    -0.462 OA
BRANCH   5   6
ATOM      6  C   UNL A   1      33.944  23.967  23.723  1.00  0.00     0.328 C 
ATOM      7  O   UNL A   1      34.476  23.441  22.756  1.00  0.00    -0.250 OA
BRANCH   6   8
ATOM      8  C   UNL A   1      32.485  24.455  23.773  1.00  0.00     0.194 C 
BRANCH   8   9
ATOM      9  C   UNL A   1      31.612  23.179  24.004  1.00  0.00     0.017 C 
ATOM     10  C   UNL A   1      32.034  22.053  23.058  1.00  0.00     0.010 C 
ATOM     11  C   UNL A   1      31.582  22.661  25.445  1.00  0.00     0.010 C 
ENDBRANCH   8   9
BRANCH   8  12
ATOM     12  N   UNL A   1      32.140  25.182  22.540  1.00  0.00    -0.341 N 
ATOM     13  C   UNL A   1      31.330  26.241  22.259  1.00  0.00     0.244 C 
ATOM     14  H   UNL A   1      32.593  24.824  21.743  1.00  0.00     0.164 HD
ATOM     15  O   UNL A   1      31.266  26.516  21.055  1.00  0.00    -0.273 OA
BRANCH  13  16
ATOM     16  C   UNL A   1      30.428  26.932  23.305  1.00  0.00     0.189 C 
BRANCH  16  17
ATOM     17  N   UNL A   1      31.215  27.437  24.490  1.00  0.00    -0.247 N 
ATOM     18  C   UNL A   1      30.971  26.851  25.696  1.00  0.00     0.329 A 
ATOM     19  C   UNL A   1      32.149  28.482  24.387  1.00  0.00     0.264 A 
ATOM     20  O   UNL A   1      30.164  25.934  25.803  1.00  0.00    -0.248 OA
ATOM     21  N   UNL A   1      31.721  27.187  26.772  1.00  0.00    -0.307 N 
ATOM     22  C   UNL A   1      32.796  28.974  25.645  1.00  0.00     0.064 A 
ATOM     23  O   UNL A   1      32.442  29.017  23.321  1.00  0.00    -0.268 OA
ATOM     24  C   UNL A   1      32.635  28.220  26.795  1.00  0.00     0.055 A 
ATOM     25  H   UNL A   1      31.607  26.659  27.595  1.00  0.00     0.171 HD
ATOM     26  C   UNL A   1      33.531  30.161  25.731  1.00  0.00     0.016 A 
ATOM     27  C   UNL A   1      33.306  28.524  27.984  1.00  0.00     0.027 A 
ATOM     28  C   UNL A   1      34.136  30.530  26.944  1.00  0.00     0.001 A 
ATOM     29  C   UNL A   1      34.059  29.691  28.058  1.00  0.00     0.002 A 
ENDBRANCH  16  17
BRANCH  16  30
ATOM     30  C   UNL A   1      29.262  27.808  22.559  1.00  0.00     0.071 C 
BRANCH  30  31
ATOM     31  C   UNL A   1      28.857  29.301  22.625  1.00  0.00    -0.045 A 
ATOM     32  C   UNL A   1      29.439  30.323  21.862  1.00  0.00     0.004 A 
ATOM     33  C   UNL A   1      27.753  29.691  23.428  1.00  0.00     0.004 A 
ATOM     34  C   UNL A   1      29.046  31.672  22.007  1.00  0.00     0.000 A 
ATOM     35  C   UNL A   1      27.368  31.033  23.590  1.00  0.00     0.000 A 
ATOM     36  C   UNL A   1      28.031  32.032  22.892  1.00  0.00     0.000 A 
ENDBRANCH  30  31
ENDBRANCH  16  30
ENDBRANCH  13  16
ENDBRANCH   8  12
ENDBRANCH   6   8
ENDBRANCH   5   6
ENDBRANCH   4   5
ENDBRANCH   3   4
ENDBRANCH   2   3
ENDBRANCH   1   2
BRANCH   1  37
ATOM     37  C   UNL A   1      39.269  23.529  26.802  1.00  0.00     0.188 C 
BRANCH  37  38
ATOM     38  O   UNL A   1      39.577  22.141  26.601  1.00  0.00    -0.376 OA
BRANCH  38  39
ATOM     39  C   UNL A   1      40.762  21.619  27.229  1.00  0.00     0.202 C 
BRANCH  39  40
ATOM     40  C   UNL A   1      41.635  20.674  26.364  1.00  0.00     0.261 C 
BRANCH  40  41
ATOM     41  O   UNL A   1      43.067  21.052  26.348  1.00  0.00    -0.460 OA
BRANCH  41  42
ATOM     42  C   UNL A   1      43.318  22.216  25.668  1.00  0.00     0.338 C 
ATOM     43  O   UNL A   1      42.968  22.397  24.514  1.00  0.00    -0.246 OA
BRANCH  42  44
ATOM     44  C   UNL A   1      44.005  23.359  26.366  1.00  0.00     0.060 A 
ATOM     45  C   UNL A   1      44.013  24.592  25.720  1.00  0.00     0.016 A 
ATOM     46  C   UNL A   1      44.989  23.187  27.334  1.00  0.00     0.016 A 
ATOM     47  C   UNL A   1      44.869  25.653  26.014  1.00  0.00     0.010 A 
ATOM     48  C   UNL A   1      45.899  24.245  27.639  1.00  0.00     0.010 A 
ATOM     49  C   UNL A   1      45.846  25.490  26.978  1.00  0.00    -0.014 A 
BRANCH  49  50
ATOM     50  C   UNL A   1      46.789  26.623  27.202  1.00  0.00     0.031 A 
ATOM     51  C   UNL A   1      46.526  27.663  28.258  1.00  0.00     0.074 A 
ATOM     52  C   UNL A   1      47.985  26.635  26.576  1.00  0.00     0.049 A 
ATOM     53  N   UNL A   1      47.124  28.809  28.460  1.00  0.00    -0.248 NA
ATOM     54  C   UNL A   1      45.486  27.348  29.249  1.00  0.00     0.031 C 
ATOM     55  C   UNL A   1      48.502  25.562  25.725  1.00  0.00     0.029 A 
ATOM     56  N   UNL A   1      48.981  27.584  26.555  1.00  0.00    -0.354 N 
ATOM     57  C   UNL A   1      46.484  29.390  29.550  1.00  0.00     0.074 A 
ATOM     58  C   UNL A   1      45.497  28.436  30.011  1.00  0.00     0.031 C 
ATOM     59  C   UNL A   1      49.689  25.934  25.223  1.00  0.00     0.029 A 
ATOM     60  C   UNL A   1      49.970  27.302  25.639  1.00  0.00     0.049 A 
ATOM     61  H   UNL A   1      48.986  28.380  27.134  1.00  0.00     0.167 HD
ATOM     62  C   UNL A   1      46.685  30.620  30.087  1.00  0.00     0.034 A 
ATOM     63  C   UNL A   1      50.938  28.088  25.123  1.00  0.00     0.034 A 
ATOM     64  C   UNL A   1      47.689  31.543  29.622  1.00  0.00     0.049 A 
ATOM     65  C   UNL A   1      51.049  29.508  25.613  1.00  0.00     0.074 A 
ATOM     66  C   UNL A   1      47.923  32.847  30.026  1.00  0.00     0.029 A 
ATOM     67  N   UNL A   1      48.629  31.256  28.643  1.00  0.00    -0.354 N 
ATOM     68  N   UNL A   1      50.375  30.106  26.567  1.00  0.00    -0.248 NA
ATOM     69  C   UNL A   1      52.050  30.364  24.961  1.00  0.00     0.031 C 
ATOM     70  C   UNL A   1      48.980  33.358  29.261  1.00  0.00     0.029 A 
ATOM     71  C   UNL A   1      49.433  32.359  28.414  1.00  0.00     0.049 A 
ATOM     72  H   UNL A   1      48.712  30.392  28.178  1.00  0.00     0.167 HD
ATOM     73  C   UNL A   1      50.889  31.394  26.650  1.00  0.00     0.074 A 
ATOM     74  C   UNL A   1      51.945  31.485  25.662  1.00  0.00     0.031 C 
ATOM     75  C   UNL A   1      50.513  32.415  27.461  1.00  0.00     0.034 A 
BRANCH  62  76
ATOM     76  C   UNL A   1      45.744  31.074  31.176  1.00  0.00     0.023 A 
ATOM     77  C   UNL A   1      46.049  30.857  32.534  1.00  0.00     0.012 A 
ATOM     78  C   UNL A   1      44.555  31.754  30.836  1.00  0.00     0.148 A 
ATOM     79  C   UNL A   1      45.167  31.278  33.532  1.00  0.00     0.002 A 
ATOM     80  C   UNL A   1      43.701  32.202  31.837  1.00  0.00     0.091 A 
ATOM     81  F   UNL A   1      44.276  31.940  29.538  1.00  0.00    -0.205 F 
ATOM     82  C   UNL A   1      43.999  31.954  33.186  1.00  0.00     0.022 A 
BRANCH  80  83
ATOM     83  S   UNL A   1      42.204  33.134  31.489  1.00  0.00     0.127 S 
ATOM     84  O   UNL A   1      41.522  33.090  32.783  1.00  0.00    -0.237 OA
ATOM     85  O   UNL A   1      42.736  34.448  31.126  1.00  0.00    -0.237 OA
ATOM     86  O   UNL A   1      41.531  32.430  30.407  1.00  0.00    -0.744 OA
ENDBRANCH  80  83
ENDBRANCH  62  76
BRANCH  63  87
ATOM     87  C   UNL A   1      51.818  27.578  24.029  1.00  0.00     0.023 A 
ATOM     88  C   UNL A   1      53.091  27.060  24.329  1.00  0.00     0.012 A 
ATOM     89  C   UNL A   1      51.392  27.603  22.684  1.00  0.00     0.148 A 
ATOM     90  C   UNL A   1      53.930  26.598  23.311  1.00  0.00     0.002 A 
ATOM     91  C   UNL A   1      52.204  27.082  21.683  1.00  0.00     0.091 A 
ATOM     92  F   UNL A   1      50.193  28.135  22.405  1.00  0.00    -0.205 F 
ATOM     93  C   UNL A   1      53.482  26.596  21.992  1.00  0.00     0.022 A 
BRANCH  91  94
ATOM     94  S   UNL A   1      51.649  26.917  19.982  1.00  0.00     0.127 S 
ATOM     95  O   UNL A   1      51.919  28.250  19.448  1.00  0.00    -0.237 OA
ATOM     96  O   UNL A   1      52.529  25.862  19.476  1.00  0.00    -0.237 OA
ATOM     97  O   UNL A   1      50.245  26.537  20.057  1.00  0.00    -0.744 OA
ENDBRANCH  91  94
ENDBRANCH  63  87
BRANCH  75  98
ATOM     98  C   UNL A   1      51.279  33.707  27.353  1.00  0.00     0.023 A 
ATOM     99  C   UNL A   1      52.285  34.013  28.290  1.00  0.00     0.012 A 
ATOM    100  C   UNL A   1      51.046  34.584  26.275  1.00  0.00     0.148 A 
ATOM    101  C   UNL A   1      53.028  35.188  28.172  1.00  0.00     0.002 A 
ATOM    102  C   UNL A   1      51.825  35.726  26.135  1.00  0.00     0.091 A 
ATOM    103  F   UNL A   1      50.068  34.285  25.407  1.00  0.00    -0.205 F 
ATOM    104  C   UNL A   1      52.807  36.036  27.090  1.00  0.00     0.022 A 
BRANCH 102 105
ATOM    105  S   UNL A   1      51.678  36.822  24.720  1.00  0.00     0.127 S 
ATOM    106  O   UNL A   1      52.069  35.943  23.619  1.00  0.00    -0.237 OA
ATOM    107  O   UNL A   1      50.258  37.172  24.746  1.00  0.00    -0.237 OA
ATOM    108  O   UNL A   1      52.578  37.937  24.980  1.00  0.00    -0.744 OA
ENDBRANCH 102 105
ENDBRANCH  75  98
ENDBRANCH  49  50
ENDBRANCH  42  44
ENDBRANCH  41  42
ENDBRANCH  40  41
ENDBRANCH  39  40
ENDBRANCH  38  39
ENDBRANCH  37  38
ENDBRANCH   1  37
TORSDOF 26
ENDMDL
MODEL 3
REMARK VINA RESULT:      -9.0      4.000      8.095
REMARK SMILES CC(C)[C@H](NC(=O)[C@H](Cc1ccccc1)n1c(=O)[nH]c2ccccc2c1=O)C(=O)OCCOCCOCCOC(=O)c1ccc(-c2c3nc(c(-c4cccc(S(=O)(=O)[O-])c4F)c4ccc([nH]4)c(-c4cccc(S(=O)(=O)[O-])c4F)c4nc(c(-c5cccc(S(=O)(=O)[O-])c5F)c5ccc2[nH]5)C=C4)C=C3)cc1
REMARK SMILES IDX 34 1 33 2 32 3 31 4 30 5 28 6 29 7 4 8 2 9 1 10 3 11 5 12
REMARK SMILES IDX 6 13 7 15 8 16 16 17 17 18 26 19 18 20 19 21 25 22 27 23
REMARK SMILES IDX 20 24 24 26 21 27 23 28 22 29 9 30 10 31 11 32 15 33 12 34
REMARK SMILES IDX 14 35 13 36 35 37 36 38 37 39 38 40 39 41 40 42 41 43 42 44
REMARK SMILES IDX 43 45 104 46 44 47 103 48 45 49 46 50 47 51 97 52 48 53
REMARK SMILES IDX 102 54 96 55 98 56 49 57 101 58 95 59 94 60 50 62 82 63
REMARK SMILES IDX 62 64 81 65 63 66 66 67 80 68 99 69 64 70 65 71 79 73 100 74
REMARK SMILES IDX 67 75 51 76 52 77 60 78 53 79 55 80 61 81 54 82 56 83 57 84
REMARK SMILES IDX 58 85 59 86 83 87 84 88 92 89 85 90 87 91 93 92 86 93 88 94
REMARK SMILES IDX 89 95 90 96 91 97 68 98 69 99 77 100 70 101 72 102 78 103
REMARK SMILES IDX 71 104 73 105 74 106 75 107 76 108
REMARK H PARENT 5 14 19 25 98 61 66 72
REMARK Flexibility Score: inf
ROOT
ATOM      1  C   UNL A   1      38.011  23.684  26.418  1.00  0.00     0.188 C 
ENDROOT
BRANCH   1   2
ATOM      2  O   UNL A   1      37.147  23.027  25.495  1.00  0.00    -0.376 OA
BRANCH   2   3
ATOM      3  C   UNL A   1      35.881  22.622  26.009  1.00  0.00     0.202 C 
BRANCH   3   4
ATOM      4  C   UNL A   1      34.872  23.754  26.203  1.00  0.00     0.261 C 
BRANCH   4   5
ATOM      5  O   UNL A   1      34.886  24.673  25.106  1.00  0.00    -0.462 OA
BRANCH   5   6
ATOM      6  C   UNL A   1      34.394  24.205  23.924  1.00  0.00     0.328 C 
ATOM      7  O   UNL A   1      35.079  23.945  22.946  1.00  0.00    -0.250 OA
BRANCH   6   8
ATOM      8  C   UNL A   1      32.859  24.302  23.928  1.00  0.00     0.194 C 
BRANCH   8   9
ATOM      9  C   UNL A   1      32.334  22.832  24.032  1.00  0.00     0.017 C 
ATOM     10  C   UNL A   1      31.308  22.700  25.158  1.00  0.00     0.010 C 
ATOM     11  C   UNL A   1      31.760  22.251  22.736  1.00  0.00     0.010 C 
ENDBRANCH   8   9
BRANCH   8  12
ATOM     12  N   UNL A   1      32.381  25.007  22.727  1.00  0.00    -0.341 N 
ATOM     13  C   UNL A   1      31.490  26.014  22.511  1.00  0.00     0.244 C 
ATOM     14  H   UNL A   1      32.797  24.679  21.897  1.00  0.00     0.164 HD
ATOM     15  O   UNL A   1      31.322  26.285  21.315  1.00  0.00    -0.273 OA
BRANCH  13  16
ATOM     16  C   UNL A   1      30.625  26.648  23.622  1.00  0.00     0.189 C 
BRANCH  16  17
ATOM     17  N   UNL A   1      31.463  27.200  24.749  1.00  0.00    -0.247 N 
ATOM     18  C   UNL A   1      31.134  26.817  26.015  1.00  0.00     0.329 A 
ATOM     19  C   UNL A   1      32.527  28.092  24.533  1.00  0.00     0.264 A 
ATOM     20  O   UNL A   1      30.213  26.035  26.222  1.00  0.00    -0.248 OA
ATOM     21  N   UNL A   1      31.914  27.195  27.056  1.00  0.00    -0.307 N 
ATOM     22  C   UNL A   1      33.224  28.659  25.731  1.00  0.00     0.064 A 
ATOM     23  O   UNL A   1      32.896  28.437  23.413  1.00  0.00    -0.268 OA
ATOM     24  C   UNL A   1      32.957  28.094  26.966  1.00  0.00     0.055 A 
ATOM     25  H   UNL A   1      31.725  26.801  27.938  1.00  0.00     0.171 HD
ATOM     26  C   UNL A   1      34.108  29.742  25.678  1.00  0.00     0.016 A 
ATOM     27  C   UNL A   1      33.653  28.464  28.121  1.00  0.00     0.027 A 
ATOM     28  C   UNL A   1      34.747  30.188  26.847  1.00  0.00     0.001 A 
ATOM     29  C   UNL A   1      34.553  29.523  28.059  1.00  0.00     0.002 A 
ENDBRANCH  16  17
BRANCH  16  30
ATOM     30  C   UNL A   1      29.356  27.450  22.966  1.00  0.00     0.071 C 
BRANCH  30  31
ATOM     31  C   UNL A   1      28.808  28.887  23.145  1.00  0.00    -0.045 A 
ATOM     32  C   UNL A   1      27.453  29.240  23.087  1.00  0.00     0.004 A 
ATOM     33  C   UNL A   1      29.699  29.936  23.495  1.00  0.00     0.004 A 
ATOM     34  C   UNL A   1      27.030  30.582  23.216  1.00  0.00     0.000 A 
ATOM     35  C   UNL A   1      29.287  31.275  23.609  1.00  0.00     0.000 A 
ATOM     36  C   UNL A   1      27.949  31.604  23.449  1.00  0.00     0.000 A 
ENDBRANCH  30  31
ENDBRANCH  16  30
ENDBRANCH  13  16
ENDBRANCH   8  12
ENDBRANCH   6   8
ENDBRANCH   5   6
ENDBRANCH   4   5
ENDBRANCH   3   4
ENDBRANCH   2   3
ENDBRANCH   1   2
BRANCH   1  37
ATOM     37  C   UNL A   1      39.410  23.038  26.526  1.00  0.00     0.188 C 
BRANCH  37  38
ATOM     38  O   UNL A   1      39.531  21.655  26.158  1.00  0.00    -0.376 OA
BRANCH  38  39
ATOM     39  C   UNL A   1      40.461  20.844  26.898  1.00  0.00     0.202 C 
BRANCH  39  40
ATOM     40  C   UNL A   1      41.536  20.101  26.063  1.00  0.00     0.261 C 
BRANCH  40  41
ATOM     41  O   UNL A   1      42.916  20.558  26.346  1.00  0.00    -0.460 OA
BRANCH  41  42
ATOM     42  C   UNL A   1      43.179  21.822  25.881  1.00  0.00     0.338 C 
ATOM     43  O   UNL A   1      43.399  22.061  24.705  1.00  0.00    -0.246 OA
BRANCH  42  44
ATOM     44  C   UNL A   1      43.151  22.990  26.829  1.00  0.00     0.060 A 
ATOM     45  C   UNL A   1      43.644  24.206  26.362  1.00  0.00     0.016 A 
ATOM     46  C   UNL A   1      43.111  22.857  28.213  1.00  0.00     0.016 A 
ATOM     47  C   UNL A   1      44.025  25.284  27.159  1.00  0.00     0.010 A 
ATOM     48  C   UNL A   1      43.521  23.932  29.058  1.00  0.00     0.010 A 
ATOM     49  C   UNL A   1      43.983  25.159  28.535  1.00  0.00    -0.014 A 
BRANCH  49  50
ATOM     50  C   UNL A   1      44.476  26.307  29.348  1.00  0.00     0.031 A 
ATOM     51  C   UNL A   1      45.909  26.386  29.801  1.00  0.00     0.074 A 
ATOM     52  C   UNL A   1      43.684  27.382  29.543  1.00  0.00     0.049 A 
ATOM     53  N   UNL A   1      46.462  27.197  30.667  1.00  0.00    -0.248 NA
ATOM     54  C   UNL A   1      46.856  25.463  29.158  1.00  0.00     0.031 C 
ATOM     55  C   UNL A   1      42.362  27.575  28.942  1.00  0.00     0.029 A 
ATOM     56  N   UNL A   1      43.872  28.514  30.302  1.00  0.00    -0.354 N 
ATOM     57  C   UNL A   1      47.803  26.834  30.733  1.00  0.00     0.074 A 
ATOM     58  C   UNL A   1      47.996  25.774  29.766  1.00  0.00     0.031 C 
ATOM     59  C   UNL A   1      41.837  28.723  29.397  1.00  0.00     0.029 A 
ATOM     60  C   UNL A   1      42.740  29.295  30.388  1.00  0.00     0.049 A 
ATOM     61  H   UNL A   1      44.725  28.742  30.736  1.00  0.00     0.167 HD
ATOM     62  C   UNL A   1      48.768  27.322  31.552  1.00  0.00     0.034 A 
ATOM     63  C   UNL A   1      42.430  30.299  31.234  1.00  0.00     0.034 A 
ATOM     64  C   UNL A   1      48.554  28.393  32.494  1.00  0.00     0.049 A 
ATOM     65  C   UNL A   1      43.455  30.726  32.251  1.00  0.00     0.074 A 
ATOM     66  C   UNL A   1      49.428  28.906  33.437  1.00  0.00     0.029 A 
ATOM     67  N   UNL A   1      47.376  29.115  32.609  1.00  0.00    -0.354 N 
ATOM     68  N   UNL A   1      44.692  30.313  32.398  1.00  0.00    -0.248 NA
ATOM     69  C   UNL A   1      43.049  31.755  33.219  1.00  0.00     0.031 C 
ATOM     70  C   UNL A   1      48.762  29.913  34.148  1.00  0.00     0.029 A 
ATOM     71  C   UNL A   1      47.489  30.057  33.617  1.00  0.00     0.049 A 
ATOM     72  H   UNL A   1      46.574  28.978  32.054  1.00  0.00     0.167 HD
ATOM     73  C   UNL A   1      45.220  31.050  33.451  1.00  0.00     0.074 A 
ATOM     74  C   UNL A   1      44.174  31.949  33.894  1.00  0.00     0.031 C 
ATOM     75  C   UNL A   1      46.454  30.979  34.010  1.00  0.00     0.034 A 
BRANCH  62  76
ATOM     76  C   UNL A   1      50.116  26.644  31.534  1.00  0.00     0.023 A 
ATOM     77  C   UNL A   1      51.194  27.195  30.815  1.00  0.00     0.012 A 
ATOM     78  C   UNL A   1      50.313  25.457  32.271  1.00  0.00     0.148 A 
ATOM     79  C   UNL A   1      52.436  26.554  30.801  1.00  0.00     0.002 A 
ATOM     80  C   UNL A   1      51.562  24.846  32.282  1.00  0.00     0.091 A 
ATOM     81  F   UNL A   1      49.272  24.941  32.940  1.00  0.00    -0.205 F 
ATOM     82  C   UNL A   1      52.622  25.386  31.538  1.00  0.00     0.022 A 
BRANCH  80  83
ATOM     83  S   UNL A   1      51.911  23.372  33.250  1.00  0.00     0.127 S 
ATOM     84  O   UNL A   1      50.815  22.490  32.850  1.00  0.00    -0.237 OA
ATOM     85  O   UNL A   1      53.227  22.977  32.745  1.00  0.00    -0.237 OA
ATOM     86  O   UNL A   1      51.896  23.790  34.644  1.00  0.00    -0.744 OA
ENDBRANCH  80  83
ENDBRANCH  62  76
BRANCH  63  87
ATOM     87  C   UNL A   1      41.065  30.908  31.211  1.00  0.00     0.023 A 
ATOM     88  C   UNL A   1      40.815  32.054  30.434  1.00  0.00     0.012 A 
ATOM     89  C   UNL A   1      40.008  30.348  31.961  1.00  0.00     0.148 A 
ATOM     90  C   UNL A   1      39.548  32.643  30.421  1.00  0.00     0.002 A 
ATOM     91  C   UNL A   1      38.734  30.899  31.891  1.00  0.00     0.091 A 
ATOM     92  F   UNL A   1      40.267  29.279  32.727  1.00  0.00    -0.205 F 
ATOM     93  C   UNL A   1      38.506  32.058  31.137  1.00  0.00     0.022 A 
BRANCH  91  94
ATOM     94  S   UNL A   1      37.310  30.131  32.673  1.00  0.00     0.127 S 
ATOM     95  O   UNL A   1      37.888  29.616  33.911  1.00  0.00    -0.237 OA
ATOM     96  O   UNL A   1      36.405  31.269  32.842  1.00  0.00    -0.237 OA
ATOM     97  O   UNL A   1      36.834  29.126  31.731  1.00  0.00    -0.744 OA
ENDBRANCH  91  94
ENDBRANCH  63  87
BRANCH  75  98
ATOM     98  C   UNL A   1      46.763  31.934  35.133  1.00  0.00     0.023 A 
ATOM     99  C   UNL A   1      46.609  31.525  36.472  1.00  0.00     0.012 A 
ATOM    100  C   UNL A   1      47.278  33.216  34.855  1.00  0.00     0.148 A 
ATOM    101  C   UNL A   1      46.934  32.389  37.518  1.00  0.00     0.002 A 
ATOM    102  C   UNL A   1      47.648  34.052  35.902  1.00  0.00     0.091 A 
ATOM    103  F   UNL A   1      47.395  33.595  33.574  1.00  0.00    -0.205 F 
ATOM    104  C   UNL A   1      47.464  33.645  37.234  1.00  0.00     0.022 A 
BRANCH 102 105
ATOM    105  S   UNL A   1      48.430  35.645  35.629  1.00  0.00     0.127 S 
ATOM    106  O   UNL A   1      47.444  36.323  34.790  1.00  0.00    -0.237 OA
ATOM    107  O   UNL A   1      48.541  36.172  36.989  1.00  0.00    -0.237 OA
ATOM    108  O   UNL A   1      49.707  35.361  34.987  1.00  0.00    -0.744 OA
ENDBRANCH 102 105
ENDBRANCH  75  98
ENDBRANCH  49  50
ENDBRANCH  42  44
ENDBRANCH  41  42
ENDBRANCH  40  41
ENDBRANCH  39  40
ENDBRANCH  38  39
ENDBRANCH  37  38
ENDBRANCH   1  37
TORSDOF 26
ENDMDL
