MODEL 1
REMARK VINA RESULT:     -10.5      0.000      0.000
REMARK SMILES Cc1nn(-c2ccc(C(=O)OCCOCCOCCOC(=O)c3ccc(-c4c5nc(c(-c6cccc(S(=O)(=O)[O-])c6F)c6ccc([nH]6)c(-c6cccc(S(=O)(=O)[O-])c6F)c6nc(c(-c7cccc(S(=O)(=O)[O-])c7F)c7ccc4[nH]7)C=C6)C=C5)cc3)cc2)c(=O)c2ccccc12
REMARK SMILES IDX 16 1 15 2 14 3 13 4 12 5 11 6 9 7 10 8 8 9 5 10 6 11 87 12
REMARK SMILES IDX 7 13 86 14 4 15 1 16 2 17 3 18 95 19 90 20 94 21 88 22 91 23
REMARK SMILES IDX 93 24 89 25 92 26 17 27 18 28 19 29 20 30 21 31 22 32 23 33
REMARK SMILES IDX 24 34 85 35 25 36 84 37 26 38 27 39 28 40 78 41 29 42 83 43
REMARK SMILES IDX 77 44 79 45 30 46 82 47 76 48 75 49 31 51 63 52 43 53 62 54
REMARK SMILES IDX 44 55 47 56 61 57 80 58 45 59 46 60 60 62 81 63 48 64 32 65
REMARK SMILES IDX 33 66 41 67 34 68 36 69 42 70 35 71 37 72 38 73 39 74 40 75
REMARK SMILES IDX 64 76 65 77 73 78 66 79 68 80 74 81 67 82 69 83 70 84 71 85
REMARK SMILES IDX 72 86 49 87 50 88 58 89 51 90 53 91 59 92 52 93 54 94 55 95
REMARK SMILES IDX 56 96 57 97
REMARK H PARENT 79 50 47 61
REMARK Flexibility Score: inf
ROOT
ATOM      1  C   UNL A   1      38.246  22.293  25.962  1.00  0.00     0.188 C 
ENDROOT
BRANCH   1   2
ATOM      2  C   UNL A   1      37.645  23.715  25.952  1.00  0.00     0.188 C 
BRANCH   2   3
ATOM      3  O   UNL A   1      36.244  23.890  25.981  1.00  0.00    -0.376 OA
BRANCH   3   4
ATOM      4  C   UNL A   1      35.450  23.595  24.845  1.00  0.00     0.202 C 
BRANCH   4   5
ATOM      5  C   UNL A   1      34.626  22.311  24.674  1.00  0.00     0.261 C 
BRANCH   5   6
ATOM      6  O   UNL A   1      33.540  22.385  23.746  1.00  0.00    -0.460 OA
BRANCH   6   7
ATOM      7  C   UNL A   1      32.309  22.483  24.314  1.00  0.00     0.338 C 
ATOM      8  O   UNL A   1      31.707  21.613  24.919  1.00  0.00    -0.246 OA
BRANCH   7   9
ATOM      9  C   UNL A   1      31.865  23.889  24.264  1.00  0.00     0.060 A 
ATOM     10  C   UNL A   1      31.047  26.559  24.087  1.00  0.00     0.069 A 
ATOM     11  C   UNL A   1      31.814  25.991  23.062  1.00  0.00     0.029 A 
ATOM     12  C   UNL A   1      30.655  25.763  25.174  1.00  0.00     0.029 A 
ATOM     13  C   UNL A   1      32.258  24.672  23.170  1.00  0.00     0.018 A 
ATOM     14  C   UNL A   1      31.037  24.421  25.253  1.00  0.00     0.018 A 
BRANCH  10  15
ATOM     15  N   UNL A   1      30.741  27.946  24.054  1.00  0.00    -0.196 N 
ATOM     16  C   UNL A   1      31.809  30.762  26.172  1.00  0.00     0.069 C 
ATOM     17  C   UNL A   1      31.078  29.960  25.120  1.00  0.00     0.066 A 
ATOM     18  N   UNL A   1      31.301  28.682  25.072  1.00  0.00    -0.169 NA
ATOM     19  C   UNL A   1      30.142  30.653  24.211  1.00  0.00     0.010 A 
ATOM     20  C   UNL A   1      29.559  29.893  23.205  1.00  0.00     0.051 A 
ATOM     21  C   UNL A   1      29.785  31.999  24.354  1.00  0.00     0.011 A 
ATOM     22  C   UNL A   1      29.936  28.480  23.046  1.00  0.00     0.279 A 
ATOM     23  C   UNL A   1      28.595  30.458  22.357  1.00  0.00     0.014 A 
ATOM     24  C   UNL A   1      28.834  32.566  23.498  1.00  0.00     0.001 A 
ATOM     25  O   UNL A   1      29.482  27.867  22.080  1.00  0.00    -0.267 OA
ATOM     26  C   UNL A   1      28.230  31.793  22.509  1.00  0.00     0.001 A 
ENDBRANCH  10  15
ENDBRANCH   7   9
ENDBRANCH   6   7
ENDBRANCH   5   6
ENDBRANCH   4   5
ENDBRANCH   3   4
ENDBRANCH   2   3
ENDBRANCH   1   2
BRANCH   1  27
ATOM     27  O   UNL A   1      38.152  21.454  24.825  1.00  0.00    -0.376 OA
BRANCH  27  28
ATOM     28  C   UNL A   1      38.025  20.054  24.997  1.00  0.00     0.202 C 
BRANCH  28  29
ATOM     29  C   UNL A   1      39.119  19.212  25.669  1.00  0.00     0.261 C 
BRANCH  29  30
ATOM     30  O   UNL A   1      40.428  19.789  25.654  1.00  0.00    -0.460 OA
BRANCH  30  31
ATOM     31  C   UNL A   1      41.024  19.908  26.868  1.00  0.00     0.338 C 
ATOM     32  O   UNL A   1      41.241  19.019  27.675  1.00  0.00    -0.246 OA
BRANCH  31  33
ATOM     33  C   UNL A   1      41.544  21.281  27.004  1.00  0.00     0.060 A 
ATOM     34  C   UNL A   1      41.618  22.118  25.892  1.00  0.00     0.016 A 
ATOM     35  C   UNL A   1      41.957  21.729  28.266  1.00  0.00     0.016 A 
ATOM     36  C   UNL A   1      42.093  23.422  26.049  1.00  0.00     0.010 A 
ATOM     37  C   UNL A   1      42.448  23.028  28.417  1.00  0.00     0.010 A 
ATOM     38  C   UNL A   1      42.502  23.889  27.312  1.00  0.00    -0.014 A 
BRANCH  38  39
ATOM     39  C   UNL A   1      42.814  25.327  27.494  1.00  0.00     0.031 A 
ATOM     40  C   UNL A   1      41.842  26.284  28.114  1.00  0.00     0.074 A 
ATOM     41  C   UNL A   1      44.016  25.765  27.072  1.00  0.00     0.049 A 
ATOM     42  N   UNL A   1      42.029  27.537  28.435  1.00  0.00    -0.248 NA
ATOM     43  C   UNL A   1      40.492  25.780  28.407  1.00  0.00     0.031 C 
ATOM     44  C   UNL A   1      45.018  24.939  26.395  1.00  0.00     0.029 A 
ATOM     45  N   UNL A   1      44.598  27.005  27.148  1.00  0.00    -0.354 N 
ATOM     46  C   UNL A   1      40.827  27.979  28.970  1.00  0.00     0.074 A 
ATOM     47  C   UNL A   1      39.906  26.862  28.910  1.00  0.00     0.031 C 
ATOM     48  C   UNL A   1      46.098  25.690  26.134  1.00  0.00     0.029 A 
ATOM     49  C   UNL A   1      45.863  27.048  26.615  1.00  0.00     0.049 A 
ATOM     50  H   UNL A   1      44.152  27.786  27.547  1.00  0.00     0.167 HD
ATOM     51  C   UNL A   1      40.531  29.197  29.484  1.00  0.00     0.034 A 
ATOM     52  C   UNL A   1      46.747  28.061  26.533  1.00  0.00     0.034 A 
ATOM     53  C   UNL A   1      41.455  30.300  29.552  1.00  0.00     0.049 A 
ATOM     54  C   UNL A   1      46.398  29.395  27.125  1.00  0.00     0.074 A 
ATOM     55  C   UNL A   1      41.259  31.546  30.123  1.00  0.00     0.029 A 
ATOM     56  N   UNL A   1      42.736  30.300  29.025  1.00  0.00    -0.354 N 
ATOM     57  N   UNL A   1      45.311  29.750  27.762  1.00  0.00    -0.248 NA
ATOM     58  C   UNL A   1      47.408  30.459  27.016  1.00  0.00     0.031 C 
ATOM     59  C   UNL A   1      42.415  32.306  29.925  1.00  0.00     0.029 A 
ATOM     60  C   UNL A   1      43.337  31.528  29.246  1.00  0.00     0.049 A 
ATOM     61  H   UNL A   1      43.158  29.540  28.562  1.00  0.00     0.167 HD
ATOM     62  C   UNL A   1      45.509  31.069  28.149  1.00  0.00     0.074 A 
ATOM     63  C   UNL A   1      46.827  31.449  27.686  1.00  0.00     0.031 C 
ATOM     64  C   UNL A   1      44.664  31.890  28.818  1.00  0.00     0.034 A 
BRANCH  51  65
ATOM     65  C   UNL A   1      39.168  29.407  30.086  1.00  0.00     0.023 A 
ATOM     66  C   UNL A   1      38.924  28.939  31.392  1.00  0.00     0.012 A 
ATOM     67  C   UNL A   1      38.192  30.183  29.431  1.00  0.00     0.148 A 
ATOM     68  C   UNL A   1      37.725  29.238  32.038  1.00  0.00     0.002 A 
ATOM     69  C   UNL A   1      37.011  30.500  30.092  1.00  0.00     0.091 A 
ATOM     70  F   UNL A   1      38.449  30.613  28.187  1.00  0.00    -0.205 F 
ATOM     71  C   UNL A   1      36.775  30.025  31.393  1.00  0.00     0.022 A 
BRANCH  69  72
ATOM     72  S   UNL A   1      35.747  31.558  29.377  1.00  0.00     0.127 S 
ATOM     73  O   UNL A   1      34.937  31.884  30.552  1.00  0.00    -0.237 OA
ATOM     74  O   UNL A   1      36.538  32.671  28.854  1.00  0.00    -0.237 OA
ATOM     75  O   UNL A   1      35.072  30.756  28.366  1.00  0.00    -0.744 OA
ENDBRANCH  69  72
ENDBRANCH  51  65
BRANCH  52  76
ATOM     76  C   UNL A   1      48.079  27.806  25.927  1.00  0.00     0.023 A 
ATOM     77  C   UNL A   1      49.159  27.459  26.760  1.00  0.00     0.012 A 
ATOM     78  C   UNL A   1      48.255  27.819  24.531  1.00  0.00     0.148 A 
ATOM     79  C   UNL A   1      50.398  27.132  26.212  1.00  0.00     0.002 A 
ATOM     80  C   UNL A   1      49.482  27.457  23.988  1.00  0.00     0.091 A 
ATOM     81  F   UNL A   1      47.208  28.151  23.764  1.00  0.00    -0.205 F 
ATOM     82  C   UNL A   1      50.557  27.121  24.828  1.00  0.00     0.022 A 
BRANCH  80  83
ATOM     83  S   UNL A   1      49.756  27.316  22.220  1.00  0.00     0.127 S 
ATOM     84  O   UNL A   1      51.131  26.828  22.168  1.00  0.00    -0.237 OA
ATOM     85  O   UNL A   1      48.739  26.337  21.838  1.00  0.00    -0.237 OA
ATOM     86  O   UNL A   1      49.547  28.651  21.677  1.00  0.00    -0.744 OA
ENDBRANCH  80  83
ENDBRANCH  52  76
BRANCH  64  87
ATOM     87  C   UNL A   1      45.119  33.294  29.103  1.00  0.00     0.023 A 
ATOM     88  C   UNL A   1      45.932  33.541  30.226  1.00  0.00     0.012 A 
ATOM     89  C   UNL A   1      44.852  34.337  28.194  1.00  0.00     0.148 A 
ATOM     90  C   UNL A   1      46.468  34.810  30.445  1.00  0.00     0.002 A 
ATOM     91  C   UNL A   1      45.417  35.591  28.401  1.00  0.00     0.091 A 
ATOM     92  F   UNL A   1      44.069  34.077  27.138  1.00  0.00    -0.205 F 
ATOM     93  C   UNL A   1      46.222  35.829  29.527  1.00  0.00     0.022 A 
BRANCH  91  94
ATOM     94  S   UNL A   1      45.217  36.950  27.242  1.00  0.00     0.127 S 
ATOM     95  O   UNL A   1      45.645  38.092  28.048  1.00  0.00    -0.237 OA
ATOM     96  O   UNL A   1      46.141  36.579  26.171  1.00  0.00    -0.237 OA
ATOM     97  O   UNL A   1      43.812  36.955  26.861  1.00  0.00    -0.744 OA
ENDBRANCH  91  94
ENDBRANCH  64  87
ENDBRANCH  38  39
ENDBRANCH  31  33
ENDBRANCH  30  31
ENDBRANCH  29  30
ENDBRANCH  28  29
ENDBRANCH  27  28
ENDBRANCH   1  27
TORSDOF 21
ENDMDL
MODEL 2
REMARK VINA RESULT:     -10.3      1.703      7.348
REMARK SMILES Cc1nn(-c2ccc(C(=O)OCCOCCOCCOC(=O)c3ccc(-c4c5nc(c(-c6cccc(S(=O)(=O)[O-])c6F)c6ccc([nH]6)c(-c6cccc(S(=O)(=O)[O-])c6F)c6nc(c(-c7cccc(S(=O)(=O)[O-])c7F)c7ccc4[nH]7)C=C6)C=C5)cc3)cc2)c(=O)c2ccccc12
REMARK SMILES IDX 16 1 15 2 14 3 13 4 12 5 11 6 9 7 10 8 8 9 5 10 6 11 87 12
REMARK SMILES IDX 7 13 86 14 4 15 1 16 2 17 3 18 95 19 90 20 94 21 88 22 91 23
REMARK SMILES IDX 93 24 89 25 92 26 17 27 18 28 19 29 20 30 21 31 22 32 23 33
REMARK SMILES IDX 24 34 85 35 25 36 84 37 26 38 27 39 28 40 78 41 29 42 83 43
REMARK SMILES IDX 77 44 79 45 30 46 82 47 76 48 75 49 31 51 63 52 43 53 62 54
REMARK SMILES IDX 44 55 47 56 61 57 80 58 45 59 46 60 60 62 81 63 48 64 32 65
REMARK SMILES IDX 33 66 41 67 34 68 36 69 42 70 35 71 37 72 38 73 39 74 40 75
REMARK SMILES IDX 64 76 65 77 73 78 66 79 68 80 74 81 67 82 69 83 70 84 71 85
REMARK SMILES IDX 72 86 49 87 50 88 58 89 51 90 53 91 59 92 52 93 54 94 55 95
REMARK SMILES IDX 56 96 57 97
REMARK H PARENT 79 50 47 61
REMARK Flexibility Score: inf
ROOT
ATOM      1  C   UNL A   1      38.232  22.200  26.097  1.00  0.00     0.188 C 
ENDROOT
BRANCH   1   2
ATOM      2  C   UNL A   1      37.629  23.622  26.086  1.00  0.00     0.188 C 
BRANCH   2   3
ATOM      3  O   UNL A   1      36.227  23.794  26.107  1.00  0.00    -0.376 OA
BRANCH   3   4
ATOM      4  C   UNL A   1      35.445  23.542  24.952  1.00  0.00     0.202 C 
BRANCH   4   5
ATOM      5  C   UNL A   1      34.709  22.223  24.676  1.00  0.00     0.261 C 
BRANCH   5   6
ATOM      6  O   UNL A   1      33.518  22.325  23.892  1.00  0.00    -0.460 OA
BRANCH   6   7
ATOM      7  C   UNL A   1      32.372  22.471  24.610  1.00  0.00     0.338 C 
ATOM      8  O   UNL A   1      31.865  21.653  25.357  1.00  0.00    -0.246 OA
BRANCH   7   9
ATOM      9  C   UNL A   1      31.913  23.869  24.508  1.00  0.00     0.060 A 
ATOM     10  C   UNL A   1      31.063  26.521  24.231  1.00  0.00     0.069 A 
ATOM     11  C   UNL A   1      31.800  25.910  23.208  1.00  0.00     0.029 A 
ATOM     12  C   UNL A   1      30.715  25.774  25.367  1.00  0.00     0.029 A 
ATOM     13  C   UNL A   1      32.260  24.601  23.364  1.00  0.00     0.018 A 
ATOM     14  C   UNL A   1      31.113  24.441  25.498  1.00  0.00     0.018 A 
BRANCH  10  15
ATOM     15  N   UNL A   1      30.741  27.902  24.141  1.00  0.00    -0.196 N 
ATOM     16  C   UNL A   1      31.766  30.811  26.152  1.00  0.00     0.069 C 
ATOM     17  C   UNL A   1      31.050  29.959  25.128  1.00  0.00     0.066 A 
ATOM     18  N   UNL A   1      31.287  28.683  25.132  1.00  0.00    -0.169 NA
ATOM     19  C   UNL A   1      30.112  30.606  24.188  1.00  0.00     0.010 A 
ATOM     20  C   UNL A   1      29.543  29.801  23.209  1.00  0.00     0.051 A 
ATOM     21  C   UNL A   1      29.739  31.952  24.276  1.00  0.00     0.011 A 
ATOM     22  C   UNL A   1      29.936  28.386  23.109  1.00  0.00     0.279 A 
ATOM     23  C   UNL A   1      28.577  30.320  22.335  1.00  0.00     0.014 A 
ATOM     24  C   UNL A   1      28.787  32.474  23.394  1.00  0.00     0.001 A 
ATOM     25  O   UNL A   1      29.494  27.731  22.165  1.00  0.00    -0.267 OA
ATOM     26  C   UNL A   1      28.198  31.656  22.432  1.00  0.00     0.001 A 
ENDBRANCH  10  15
ENDBRANCH   7   9
ENDBRANCH   6   7
ENDBRANCH   5   6
ENDBRANCH   4   5
ENDBRANCH   3   4
ENDBRANCH   2   3
ENDBRANCH   1   2
BRANCH   1  27
ATOM     27  O   UNL A   1      38.133  21.358  24.963  1.00  0.00    -0.376 OA
BRANCH  27  28
ATOM     28  C   UNL A   1      38.134  19.952  25.134  1.00  0.00     0.202 C 
BRANCH  28  29
ATOM     29  C   UNL A   1      39.323  19.207  25.754  1.00  0.00     0.261 C 
BRANCH  29  30
ATOM     30  O   UNL A   1      40.614  19.650  25.322  1.00  0.00    -0.460 OA
BRANCH  30  31
ATOM     31  C   UNL A   1      41.570  19.681  26.286  1.00  0.00     0.338 C 
ATOM     32  O   UNL A   1      42.262  18.753  26.670  1.00  0.00    -0.246 OA
BRANCH  31  33
ATOM     33  C   UNL A   1      41.779  21.082  26.694  1.00  0.00     0.060 A 
ATOM     34  C   UNL A   1      41.971  21.402  28.038  1.00  0.00     0.016 A 
ATOM     35  C   UNL A   1      41.788  22.082  25.712  1.00  0.00     0.016 A 
ATOM     36  C   UNL A   1      42.190  22.733  28.397  1.00  0.00     0.010 A 
ATOM     37  C   UNL A   1      41.991  23.415  26.077  1.00  0.00     0.010 A 
ATOM     38  C   UNL A   1      42.212  23.746  27.421  1.00  0.00    -0.014 A 
BRANCH  38  39
ATOM     39  C   UNL A   1      42.640  25.115  27.797  1.00  0.00     0.031 A 
ATOM     40  C   UNL A   1      44.057  25.578  27.651  1.00  0.00     0.074 A 
ATOM     41  C   UNL A   1      41.705  25.950  28.291  1.00  0.00     0.049 A 
ATOM     42  N   UNL A   1      44.543  26.778  27.834  1.00  0.00    -0.248 NA
ATOM     43  C   UNL A   1      45.058  24.574  27.257  1.00  0.00     0.031 C 
ATOM     44  C   UNL A   1      40.307  25.590  28.539  1.00  0.00     0.029 A 
ATOM     45  N   UNL A   1      41.786  27.265  28.673  1.00  0.00    -0.354 N 
ATOM     46  C   UNL A   1      45.904  26.683  27.578  1.00  0.00     0.074 A 
ATOM     47  C   UNL A   1      46.173  25.299  27.248  1.00  0.00     0.031 C 
ATOM     48  C   UNL A   1      39.658  26.663  29.014  1.00  0.00     0.029 A 
ATOM     49  C   UNL A   1      40.592  27.781  29.113  1.00  0.00     0.049 A 
ATOM     50  H   UNL A   1      42.619  27.787  28.635  1.00  0.00     0.167 HD
ATOM     51  C   UNL A   1      46.834  27.668  27.595  1.00  0.00     0.034 A 
ATOM     52  C   UNL A   1      40.273  29.020  29.536  1.00  0.00     0.034 A 
ATOM     53  C   UNL A   1      46.557  29.046  27.913  1.00  0.00     0.049 A 
ATOM     54  C   UNL A   1      41.320  30.094  29.529  1.00  0.00     0.074 A 
ATOM     55  C   UNL A   1      47.429  30.122  27.883  1.00  0.00     0.029 A 
ATOM     56  N   UNL A   1      45.331  29.537  28.329  1.00  0.00    -0.354 N 
ATOM     57  N   UNL A   1      42.568  30.021  29.139  1.00  0.00    -0.248 NA
ATOM     58  C   UNL A   1      40.910  31.430  29.990  1.00  0.00     0.031 C 
ATOM     59  C   UNL A   1      46.734  31.260  28.299  1.00  0.00     0.029 A 
ATOM     60  C   UNL A   1      45.426  30.898  28.572  1.00  0.00     0.049 A 
ATOM     61  H   UNL A   1      44.513  29.000  28.436  1.00  0.00     0.167 HD
ATOM     62  C   UNL A   1      43.089  31.299  29.287  1.00  0.00     0.074 A 
ATOM     63  C   UNL A   1      42.019  32.134  29.790  1.00  0.00     0.031 C 
ATOM     64  C   UNL A   1      44.348  31.733  29.036  1.00  0.00     0.034 A 
BRANCH  51  65
ATOM     65  C   UNL A   1      48.243  27.327  27.196  1.00  0.00     0.023 A 
ATOM     66  C   UNL A   1      48.587  27.353  25.830  1.00  0.00     0.012 A 
ATOM     67  C   UNL A   1      49.248  27.128  28.162  1.00  0.00     0.148 A 
ATOM     68  C   UNL A   1      49.912  27.183  25.430  1.00  0.00     0.002 A 
ATOM     69  C   UNL A   1      50.571  26.987  27.758  1.00  0.00     0.091 A 
ATOM     70  F   UNL A   1      48.894  27.105  29.455  1.00  0.00    -0.205 F 
ATOM     71  C   UNL A   1      50.903  27.011  26.392  1.00  0.00     0.022 A 
BRANCH  69  72
ATOM     72  S   UNL A   1      51.934  26.822  28.917  1.00  0.00     0.127 S 
ATOM     73  O   UNL A   1      51.337  25.981  29.956  1.00  0.00    -0.237 OA
ATOM     74  O   UNL A   1      52.950  26.156  28.103  1.00  0.00    -0.237 OA
ATOM     75  O   UNL A   1      52.273  28.174  29.338  1.00  0.00    -0.744 OA
ENDBRANCH  69  72
ENDBRANCH  51  65
BRANCH  52  76
ATOM     76  C   UNL A   1      38.868  29.308  29.923  1.00  0.00     0.023 A 
ATOM     77  C   UNL A   1      38.463  29.093  31.253  1.00  0.00     0.012 A 
ATOM     78  C   UNL A   1      37.965  29.874  29.004  1.00  0.00     0.148 A 
ATOM     79  C   UNL A   1      37.175  29.435  31.664  1.00  0.00     0.002 A 
ATOM     80  C   UNL A   1      36.695  30.247  29.428  1.00  0.00     0.091 A 
ATOM     81  F   UNL A   1      38.381  30.069  27.746  1.00  0.00    -0.205 F 
ATOM     82  C   UNL A   1      36.296  30.020  30.755  1.00  0.00     0.022 A 
BRANCH  80  83
ATOM     83  S   UNL A   1      35.528  31.096  28.361  1.00  0.00     0.127 S 
ATOM     84  O   UNL A   1      34.999  29.994  27.560  1.00  0.00    -0.237 OA
ATOM     85  O   UNL A   1      34.590  31.657  29.333  1.00  0.00    -0.237 OA
ATOM     86  O   UNL A   1      36.305  32.084  27.626  1.00  0.00    -0.744 OA
ENDBRANCH  80  83
ENDBRANCH  52  76
BRANCH  64  87
ATOM     87  C   UNL A   1      44.663  33.180  29.295  1.00  0.00     0.023 A 
ATOM     88  C   UNL A   1      45.284  33.545  30.505  1.00  0.00     0.012 A 
ATOM     89  C   UNL A   1      44.464  34.151  28.294  1.00  0.00     0.148 A 
ATOM     90  C   UNL A   1      45.698  34.860  30.718  1.00  0.00     0.002 A 
ATOM     91  C   UNL A   1      44.910  35.452  28.500  1.00  0.00     0.091 A 
ATOM     92  F   UNL A   1      43.865  33.778  27.155  1.00  0.00    -0.205 F 
ATOM     93  C   UNL A   1      45.523  35.808  29.712  1.00  0.00     0.022 A 
BRANCH  91  94
ATOM     94  S   UNL A   1      44.794  36.730  27.242  1.00  0.00     0.127 S 
ATOM     95  O   UNL A   1      45.647  36.186  26.187  1.00  0.00    -0.237 OA
ATOM     96  O   UNL A   1      43.364  36.728  26.933  1.00  0.00    -0.237 OA
ATOM     97  O   UNL A   1      45.282  37.954  27.861  1.00  0.00    -0.744 OA
ENDBRANCH  91  94
ENDBRANCH  64  87
ENDBRANCH  38  39
ENDBRANCH  31  33
ENDBRANCH  30  31
ENDBRANCH  29  30
ENDBRANCH  28  29
ENDBRANCH  27  28
ENDBRANCH   1  27
TORSDOF 21
ENDMDL
MODEL 3
REMARK VINA RESULT:     -10.3      6.733     11.137
REMARK SMILES Cc1nn(-c2ccc(C(=O)OCCOCCOCCOC(=O)c3ccc(-c4c5nc(c(-c6cccc(S(=O)(=O)[O-])c6F)c6ccc([nH]6)c(-c6cccc(S(=O)(=O)[O-])c6F)c6nc(c(-c7cccc(S(=O)(=O)[O-])c7F)c7ccc4[nH]7)C=C6)C=C5)cc3)cc2)c(=O)c2ccccc12
REMARK SMILES IDX 16 1 15 2 14 3 13 4 12 5 11 6 9 7 10 8 8 9 5 10 6 11 87 12
REMARK SMILES IDX 7 13 86 14 4 15 1 16 2 17 3 18 95 19 90 20 94 21 88 22 91 23
REMARK SMILES IDX 93 24 89 25 92 26 17 27 18 28 19 29 20 30 21 31 22 32 23 33
REMARK SMILES IDX 24 34 85 35 25 36 84 37 26 38 27 39 28 40 78 41 29 42 83 43
REMARK SMILES IDX 77 44 79 45 30 46 82 47 76 48 75 49 31 51 63 52 43 53 62 54
REMARK SMILES IDX 44 55 47 56 61 57 80 58 45 59 46 60 60 62 81 63 48 64 32 65
REMARK SMILES IDX 33 66 41 67 34 68 36 69 42 70 35 71 37 72 38 73 39 74 40 75
REMARK SMILES IDX 64 76 65 77 73 78 66 79 68 80 74 81 67 82 69 83 70 84 71 85
REMARK SMILES IDX 72 86 49 87 50 88 58 89 51 90 53 91 59 92 52 93 54 94 55 95
REMARK SMILES IDX 56 96 57 97
REMARK H PARENT 79 50 47 61
REMARK Flexibility Score: inf
ROOT
ATOM      1  C   UNL A   1      34.049  31.962  27.986  1.00  0.00     0.188 C 
ENDROOT
BRANCH   1   2
ATOM      2  C   UNL A   1      33.640  30.684  27.222  1.00  0.00     0.188 C 
BRANCH   2   3
ATOM      3  O   UNL A   1      32.279  30.319  27.135  1.00  0.00    -0.376 OA
BRANCH   3   4
ATOM      4  C   UNL A   1      31.738  29.807  25.929  1.00  0.00     0.202 C 
BRANCH   4   5
ATOM      5  C   UNL A   1      31.630  28.312  25.594  1.00  0.00     0.261 C 
BRANCH   5   6
ATOM      6  O   UNL A   1      32.023  27.940  24.271  1.00  0.00    -0.460 OA
BRANCH   6   7
ATOM      7  C   UNL A   1      33.358  27.740  24.106  1.00  0.00     0.338 C 
ATOM      8  O   UNL A   1      34.223  28.594  24.017  1.00  0.00    -0.246 OA
BRANCH   7   9
ATOM      9  C   UNL A   1      33.652  26.301  24.247  1.00  0.00     0.060 A 
ATOM     10  C   UNL A   1      34.205  23.564  24.429  1.00  0.00     0.069 A 
ATOM     11  C   UNL A   1      33.776  24.113  23.214  1.00  0.00     0.029 A 
ATOM     12  C   UNL A   1      34.401  24.407  25.533  1.00  0.00     0.029 A 
ATOM     13  C   UNL A   1      33.459  25.471  23.134  1.00  0.00     0.018 A 
ATOM     14  C   UNL A   1      34.153  25.779  25.439  1.00  0.00     0.018 A 
BRANCH  10  15
ATOM     15  N   UNL A   1      34.365  22.157  24.549  1.00  0.00    -0.196 N 
ATOM     16  C   UNL A   1      37.343  20.042  25.011  1.00  0.00     0.069 C 
ATOM     17  C   UNL A   1      35.912  20.465  24.771  1.00  0.00     0.066 A 
ATOM     18  N   UNL A   1      35.670  21.736  24.653  1.00  0.00    -0.169 NA
ATOM     19  C   UNL A   1      34.865  19.428  24.667  1.00  0.00     0.010 A 
ATOM     20  C   UNL A   1      33.553  19.866  24.533  1.00  0.00     0.051 A 
ATOM     21  C   UNL A   1      35.140  18.056  24.643  1.00  0.00     0.011 A 
ATOM     22  C   UNL A   1      33.258  21.307  24.564  1.00  0.00     0.279 A 
ATOM     23  C   UNL A   1      32.513  18.945  24.341  1.00  0.00     0.014 A 
ATOM     24  C   UNL A   1      34.100  17.137  24.467  1.00  0.00     0.001 A 
ATOM     25  O   UNL A   1      32.077  21.654  24.550  1.00  0.00    -0.267 OA
ATOM     26  C   UNL A   1      32.790  17.581  24.304  1.00  0.00     0.001 A 
ENDBRANCH  10  15
ENDBRANCH   7   9
ENDBRANCH   6   7
ENDBRANCH   5   6
ENDBRANCH   4   5
ENDBRANCH   3   4
ENDBRANCH   2   3
ENDBRANCH   1   2
BRANCH   1  27
ATOM     27  O   UNL A   1      33.276  33.144  27.895  1.00  0.00    -0.376 OA
BRANCH  27  28
ATOM     28  C   UNL A   1      33.878  34.397  28.170  1.00  0.00     0.202 C 
BRANCH  28  29
ATOM     29  C   UNL A   1      33.379  35.311  29.297  1.00  0.00     0.261 C 
BRANCH  29  30
ATOM     30  O   UNL A   1      32.815  34.637  30.426  1.00  0.00    -0.460 OA
BRANCH  30  31
ATOM     31  C   UNL A   1      33.029  35.234  31.627  1.00  0.00     0.338 C 
ATOM     32  O   UNL A   1      32.277  35.988  32.221  1.00  0.00    -0.246 OA
BRANCH  31  33
ATOM     33  C   UNL A   1      34.268  34.687  32.209  1.00  0.00     0.060 A 
ATOM     34  C   UNL A   1      34.211  33.637  33.126  1.00  0.00     0.016 A 
ATOM     35  C   UNL A   1      35.500  35.233  31.823  1.00  0.00     0.016 A 
ATOM     36  C   UNL A   1      35.399  33.121  33.646  1.00  0.00     0.010 A 
ATOM     37  C   UNL A   1      36.685  34.725  32.359  1.00  0.00     0.010 A 
ATOM     38  C   UNL A   1      36.643  33.653  33.260  1.00  0.00    -0.014 A 
BRANCH  38  39
ATOM     39  C   UNL A   1      37.891  32.965  33.670  1.00  0.00     0.031 A 
ATOM     40  C   UNL A   1      38.660  33.366  34.892  1.00  0.00     0.074 A 
ATOM     41  C   UNL A   1      38.332  31.954  32.897  1.00  0.00     0.049 A 
ATOM     42  N   UNL A   1      39.700  32.780  35.425  1.00  0.00    -0.248 NA
ATOM     43  C   UNL A   1      38.217  34.575  35.603  1.00  0.00     0.031 C 
ATOM     44  C   UNL A   1      37.701  31.518  31.649  1.00  0.00     0.029 A 
ATOM     45  N   UNL A   1      39.406  31.113  33.042  1.00  0.00    -0.354 N 
ATOM     46  C   UNL A   1      40.041  33.540  36.536  1.00  0.00     0.074 A 
ATOM     47  C   UNL A   1      39.108  34.647  36.587  1.00  0.00     0.031 C 
ATOM     48  C   UNL A   1      38.390  30.479  31.153  1.00  0.00     0.029 A 
ATOM     49  C   UNL A   1      39.511  30.182  32.038  1.00  0.00     0.049 A 
ATOM     50  H   UNL A   1      40.039  31.173  33.794  1.00  0.00     0.167 HD
ATOM     51  C   UNL A   1      41.026  33.317  37.438  1.00  0.00     0.034 A 
ATOM     52  C   UNL A   1      40.401  29.188  31.853  1.00  0.00     0.034 A 
ATOM     53  C   UNL A   1      41.942  32.207  37.388  1.00  0.00     0.049 A 
ATOM     54  C   UNL A   1      41.471  28.954  32.878  1.00  0.00     0.074 A 
ATOM     55  C   UNL A   1      42.925  31.867  38.304  1.00  0.00     0.029 A 
ATOM     56  N   UNL A   1      42.003  31.269  36.371  1.00  0.00    -0.354 N 
ATOM     57  N   UNL A   1      41.684  29.593  34.001  1.00  0.00    -0.248 NA
ATOM     58  C   UNL A   1      42.406  27.846  32.628  1.00  0.00     0.031 C 
ATOM     59  C   UNL A   1      43.592  30.734  37.830  1.00  0.00     0.029 A 
ATOM     60  C   UNL A   1      43.015  30.358  36.628  1.00  0.00     0.049 A 
ATOM     61  H   UNL A   1      41.416  31.252  35.581  1.00  0.00     0.167 HD
ATOM     62  C   UNL A   1      42.761  28.956  34.604  1.00  0.00     0.074 A 
ATOM     63  C   UNL A   1      43.151  27.871  33.728  1.00  0.00     0.031 C 
ATOM     64  C   UNL A   1      43.375  29.257  35.774  1.00  0.00     0.034 A 
BRANCH  51  65
ATOM     65  C   UNL A   1      41.142  34.249  38.614  1.00  0.00     0.023 A 
ATOM     66  C   UNL A   1      42.008  35.356  38.520  1.00  0.00     0.012 A 
ATOM     67  C   UNL A   1      40.300  34.118  39.735  1.00  0.00     0.148 A 
ATOM     68  C   UNL A   1      42.038  36.319  39.528  1.00  0.00     0.002 A 
ATOM     69  C   UNL A   1      40.315  35.097  40.722  1.00  0.00     0.091 A 
ATOM     70  F   UNL A   1      39.486  33.054  39.800  1.00  0.00    -0.205 F 
ATOM     71  C   UNL A   1      41.185  36.195  40.621  1.00  0.00     0.022 A 
BRANCH  69  72
ATOM     72  S   UNL A   1      39.214  35.067  42.142  1.00  0.00     0.127 S 
ATOM     73  O   UNL A   1      37.997  35.659  41.585  1.00  0.00    -0.237 OA
ATOM     74  O   UNL A   1      39.121  33.636  42.428  1.00  0.00    -0.237 OA
ATOM     75  O   UNL A   1      39.866  35.859  43.176  1.00  0.00    -0.744 OA
ENDBRANCH  69  72
ENDBRANCH  51  65
BRANCH  52  76
ATOM     76  C   UNL A   1      40.246  28.295  30.676  1.00  0.00     0.023 A 
ATOM     77  C   UNL A   1      39.258  27.294  30.697  1.00  0.00     0.012 A 
ATOM     78  C   UNL A   1      41.011  28.493  29.511  1.00  0.00     0.148 A 
ATOM     79  C   UNL A   1      39.035  26.498  29.574  1.00  0.00     0.002 A 
ATOM     80  C   UNL A   1      40.759  27.722  28.383  1.00  0.00     0.091 A 
ATOM     81  F   UNL A   1      41.942  29.456  29.521  1.00  0.00    -0.205 F 
ATOM     82  C   UNL A   1      39.778  26.718  28.416  1.00  0.00     0.022 A 
BRANCH  80  83
ATOM     83  S   UNL A   1      41.591  27.995  26.816  1.00  0.00     0.127 S 
ATOM     84  O   UNL A   1      42.987  28.101  27.234  1.00  0.00    -0.237 OA
ATOM     85  O   UNL A   1      41.257  26.774  26.085  1.00  0.00    -0.237 OA
ATOM     86  O   UNL A   1      41.012  29.211  26.264  1.00  0.00    -0.744 OA
ENDBRANCH  80  83
ENDBRANCH  52  76
BRANCH  64  87
ATOM     87  C   UNL A   1      44.541  28.409  36.200  1.00  0.00     0.023 A 
ATOM     88  C   UNL A   1      45.843  28.784  35.817  1.00  0.00     0.012 A 
ATOM     89  C   UNL A   1      44.360  27.324  37.080  1.00  0.00     0.148 A 
ATOM     90  C   UNL A   1      46.950  28.087  36.301  1.00  0.00     0.002 A 
ATOM     91  C   UNL A   1      45.470  26.655  37.584  1.00  0.00     0.091 A 
ATOM     92  F   UNL A   1      43.109  26.984  37.423  1.00  0.00    -0.205 F 
ATOM     93  C   UNL A   1      46.764  27.033  37.193  1.00  0.00     0.022 A 
BRANCH  91  94
ATOM     94  S   UNL A   1      45.340  25.330  38.791  1.00  0.00     0.127 S 
ATOM     95  O   UNL A   1      44.663  26.002  39.899  1.00  0.00    -0.237 OA
ATOM     96  O   UNL A   1      44.521  24.347  38.082  1.00  0.00    -0.237 OA
ATOM     97  O   UNL A   1      46.703  24.900  39.071  1.00  0.00    -0.744 OA
ENDBRANCH  91  94
ENDBRANCH  64  87
ENDBRANCH  38  39
ENDBRANCH  31  33
ENDBRANCH  30  31
ENDBRANCH  29  30
ENDBRANCH  28  29
ENDBRANCH  27  28
ENDBRANCH   1  27
TORSDOF 21
ENDMDL
