MODEL 1
REMARK VINA RESULT:      -9.5      0.000      0.000
REMARK SMILES CCOc1cccc2c(SCC(=O)OCCOCCOCCOC(=O)c3ccc(-c4c5nc(c(-c6cccc(S(=O)(=O)[O-])c6F)c6ccc([nH]6)c(-c6cccc(S(=O)(=O)[O-])c6F)c6nc(c(-c7cccc(S(=O)(=O)[O-])c7F)c7ccc4[nH]7)C=C6)C=C5)cc3)cc(C)nc12
REMARK SMILES IDX 18 1 17 2 16 3 15 4 14 5 12 6 13 7 11 8 10 9 9 10 4 11 5 12
REMARK SMILES IDX 93 13 6 14 8 15 92 16 7 17 90 18 89 19 91 20 3 21 2 22 1 23
REMARK SMILES IDX 19 24 20 25 21 26 22 27 23 28 24 29 25 30 26 31 27 32 88 33
REMARK SMILES IDX 28 34 87 35 29 36 30 37 31 38 81 39 32 40 86 41 80 42 82 43
REMARK SMILES IDX 33 44 85 45 79 46 78 47 34 49 66 50 46 51 65 52 47 53 50 54
REMARK SMILES IDX 64 55 83 56 48 57 49 58 63 60 84 61 51 62 35 63 36 64 44 65
REMARK SMILES IDX 37 66 39 67 45 68 38 69 40 70 41 71 42 72 43 73 67 74 68 75
REMARK SMILES IDX 76 76 69 77 71 78 77 79 70 80 72 81 73 82 74 83 75 84 52 85
REMARK SMILES IDX 53 86 61 87 54 88 56 89 62 90 55 91 57 92 58 93 59 94 60 95
REMARK H PARENT 82 48 50 59
REMARK Flexibility Score: inf
ROOT
ATOM      1  C   UNL A   1      34.759  29.651  27.506  1.00  0.00     0.188 C 
ENDROOT
BRANCH   1   2
ATOM      2  O   UNL A   1      33.996  28.484  27.219  1.00  0.00    -0.376 OA
BRANCH   2   3
ATOM      3  C   UNL A   1      32.581  28.552  27.370  1.00  0.00     0.202 C 
BRANCH   3   4
ATOM      4  C   UNL A   1      31.781  27.748  26.341  1.00  0.00     0.261 C 
BRANCH   4   5
ATOM      5  O   UNL A   1      31.313  26.531  26.953  1.00  0.00    -0.463 OA
BRANCH   5   6
ATOM      6  C   UNL A   1      31.300  25.416  26.177  1.00  0.00     0.316 C 
ATOM      7  O   UNL A   1      30.491  25.225  25.277  1.00  0.00    -0.251 OA
BRANCH   6   8
ATOM      8  C   UNL A   1      32.533  24.547  26.399  1.00  0.00     0.197 C 
BRANCH   8   9
ATOM      9  S   UNL A   1      33.855  24.770  25.146  1.00  0.00    -0.114 SA
BRANCH   9  10
ATOM     10  C   UNL A   1      34.795  23.199  25.132  1.00  0.00     0.019 A 
ATOM     11  C   UNL A   1      34.266  19.554  24.577  1.00  0.00     0.145 A 
ATOM     12  C   UNL A   1      32.999  19.487  24.001  1.00  0.00     0.049 A 
ATOM     13  C   UNL A   1      34.880  20.777  24.880  1.00  0.00     0.114 A 
ATOM     14  C   UNL A   1      32.289  20.659  23.796  1.00  0.00     0.005 A 
ATOM     15  C   UNL A   1      34.147  21.978  24.742  1.00  0.00     0.018 A 
ATOM     16  N   UNL A   1      36.164  20.773  25.255  1.00  0.00    -0.249 NA
ATOM     17  C   UNL A   1      32.839  21.882  24.193  1.00  0.00     0.012 A 
ATOM     18  C   UNL A   1      36.804  21.931  25.478  1.00  0.00     0.039 A 
ATOM     19  C   UNL A   1      36.155  23.157  25.459  1.00  0.00     0.039 A 
ATOM     20  C   UNL A   1      38.277  21.793  25.693  1.00  0.00     0.067 C 
BRANCH  11  21
ATOM     21  O   UNL A   1      34.931  18.358  24.760  1.00  0.00    -0.492 OA
BRANCH  21  22
ATOM     22  C   UNL A   1      34.350  17.321  23.950  1.00  0.00     0.226 C 
ATOM     23  C   UNL A   1      33.961  16.127  24.805  1.00  0.00     0.049 C 
ENDBRANCH  21  22
ENDBRANCH  11  21
ENDBRANCH   9  10
ENDBRANCH   8   9
ENDBRANCH   6   8
ENDBRANCH   5   6
ENDBRANCH   4   5
ENDBRANCH   3   4
ENDBRANCH   2   3
ENDBRANCH   1   2
BRANCH   1  24
ATOM     24  C   UNL A   1      34.083  31.029  27.343  1.00  0.00     0.188 C 
BRANCH  24  25
ATOM     25  O   UNL A   1      34.082  31.937  28.430  1.00  0.00    -0.376 OA
BRANCH  25  26
ATOM     26  C   UNL A   1      34.300  33.303  28.121  1.00  0.00     0.202 C 
BRANCH  26  27
ATOM     27  C   UNL A   1      33.249  34.284  28.640  1.00  0.00     0.261 C 
BRANCH  27  28
ATOM     28  O   UNL A   1      33.778  35.223  29.599  1.00  0.00    -0.460 OA
BRANCH  28  29
ATOM     29  C   UNL A   1      33.387  34.987  30.876  1.00  0.00     0.338 C 
ATOM     30  O   UNL A   1      32.268  35.154  31.323  1.00  0.00    -0.246 OA
BRANCH  29  31
ATOM     31  C   UNL A   1      34.489  34.493  31.726  1.00  0.00     0.060 A 
ATOM     32  C   UNL A   1      35.483  35.350  32.201  1.00  0.00     0.016 A 
ATOM     33  C   UNL A   1      34.660  33.113  31.828  1.00  0.00     0.016 A 
ATOM     34  C   UNL A   1      36.680  34.822  32.693  1.00  0.00     0.010 A 
ATOM     35  C   UNL A   1      35.843  32.591  32.366  1.00  0.00     0.010 A 
ATOM     36  C   UNL A   1      36.895  33.437  32.748  1.00  0.00    -0.014 A 
BRANCH  36  37
ATOM     37  C   UNL A   1      38.227  32.868  33.118  1.00  0.00     0.031 A 
ATOM     38  C   UNL A   1      38.866  31.793  32.268  1.00  0.00     0.074 A 
ATOM     39  C   UNL A   1      38.887  33.306  34.210  1.00  0.00     0.049 A 
ATOM     40  N   UNL A   1      39.873  31.005  32.550  1.00  0.00    -0.248 NA
ATOM     41  C   UNL A   1      38.305  31.579  30.923  1.00  0.00     0.031 C 
ATOM     42  C   UNL A   1      38.449  34.391  35.087  1.00  0.00     0.029 A 
ATOM     43  N   UNL A   1      40.058  32.867  34.785  1.00  0.00    -0.354 N 
ATOM     44  C   UNL A   1      40.021  30.160  31.454  1.00  0.00     0.074 A 
ATOM     45  C   UNL A   1      39.021  30.551  30.485  1.00  0.00     0.031 C 
ATOM     46  C   UNL A   1      39.330  34.535  36.085  1.00  0.00     0.029 A 
ATOM     47  C   UNL A   1      40.326  33.473  35.991  1.00  0.00     0.049 A 
ATOM     48  H   UNL A   1      40.643  32.191  34.375  1.00  0.00     0.167 HD
ATOM     49  C   UNL A   1      40.905  29.148  31.274  1.00  0.00     0.034 A 
ATOM     50  C   UNL A   1      41.203  33.162  36.967  1.00  0.00     0.034 A 
ATOM     51  C   UNL A   1      41.933  28.791  32.217  1.00  0.00     0.049 A 
ATOM     52  C   UNL A   1      42.112  31.981  36.793  1.00  0.00     0.074 A 
ATOM     53  C   UNL A   1      42.881  27.787  32.117  1.00  0.00     0.029 A 
ATOM     54  N   UNL A   1      42.152  29.425  33.429  1.00  0.00    -0.354 N 
ATOM     55  N   UNL A   1      42.232  31.181  35.763  1.00  0.00    -0.248 NA
ATOM     56  C   UNL A   1      43.004  31.659  37.915  1.00  0.00     0.031 C 
ATOM     57  C   UNL A   1      43.659  27.799  33.280  1.00  0.00     0.029 A 
ATOM     58  C   UNL A   1      43.210  28.826  34.093  1.00  0.00     0.049 A 
ATOM     59  H   UNL A   1      41.632  30.189  33.769  1.00  0.00     0.167 HD
ATOM     60  C   UNL A   1      43.224  30.270  36.104  1.00  0.00     0.074 A 
ATOM     61  C   UNL A   1      43.688  30.631  37.428  1.00  0.00     0.031 C 
ATOM     62  C   UNL A   1      43.694  29.218  35.390  1.00  0.00     0.034 A 
BRANCH  49  63
ATOM     63  C   UNL A   1      40.815  28.335  30.008  1.00  0.00     0.023 A 
ATOM     64  C   UNL A   1      39.770  27.406  29.840  1.00  0.00     0.012 A 
ATOM     65  C   UNL A   1      41.706  28.573  28.942  1.00  0.00     0.148 A 
ATOM     66  C   UNL A   1      39.621  26.718  28.635  1.00  0.00     0.002 A 
ATOM     67  C   UNL A   1      41.528  27.913  27.730  1.00  0.00     0.091 A 
ATOM     68  F   UNL A   1      42.708  29.445  29.129  1.00  0.00    -0.205 F 
ATOM     69  C   UNL A   1      40.490  26.981  27.577  1.00  0.00     0.022 A 
BRANCH  67  70
ATOM     70  S   UNL A   1      42.549  28.248  26.290  1.00  0.00     0.127 S 
ATOM     71  O   UNL A   1      42.702  29.700  26.368  1.00  0.00    -0.237 OA
ATOM     72  O   UNL A   1      43.765  27.490  26.587  1.00  0.00    -0.237 OA
ATOM     73  O   UNL A   1      41.796  27.758  25.143  1.00  0.00    -0.744 OA
ENDBRANCH  67  70
ENDBRANCH  49  63
BRANCH  50  74
ATOM     74  C   UNL A   1      41.206  33.966  38.221  1.00  0.00     0.023 A 
ATOM     75  C   UNL A   1      42.020  35.109  38.320  1.00  0.00     0.012 A 
ATOM     76  C   UNL A   1      40.331  33.650  39.281  1.00  0.00     0.148 A 
ATOM     77  C   UNL A   1      41.959  35.924  39.453  1.00  0.00     0.002 A 
ATOM     78  C   UNL A   1      40.219  34.508  40.367  1.00  0.00     0.091 A 
ATOM     79  F   UNL A   1      39.593  32.535  39.187  1.00  0.00    -0.205 F 
ATOM     80  C   UNL A   1      41.042  35.637  40.463  1.00  0.00     0.022 A 
BRANCH  78  81
ATOM     81  S   UNL A   1      38.924  34.305  41.596  1.00  0.00     0.127 S 
ATOM     82  O   UNL A   1      39.361  33.103  42.299  1.00  0.00    -0.237 OA
ATOM     83  O   UNL A   1      39.033  35.545  42.365  1.00  0.00    -0.237 OA
ATOM     84  O   UNL A   1      37.686  34.190  40.834  1.00  0.00    -0.744 OA
ENDBRANCH  78  81
ENDBRANCH  50  74
BRANCH  62  85
ATOM     85  C   UNL A   1      44.788  28.392  36.010  1.00  0.00     0.023 A 
ATOM     86  C   UNL A   1      46.129  28.625  35.647  1.00  0.00     0.012 A 
ATOM     87  C   UNL A   1      44.493  27.429  36.995  1.00  0.00     0.148 A 
ATOM     88  C   UNL A   1      47.159  27.892  36.236  1.00  0.00     0.002 A 
ATOM     89  C   UNL A   1      45.528  26.731  37.606  1.00  0.00     0.091 A 
ATOM     90  F   UNL A   1      43.209  27.210  37.311  1.00  0.00    -0.205 F 
ATOM     91  C   UNL A   1      46.859  26.953  37.221  1.00  0.00     0.022 A 
BRANCH  89  92
ATOM     92  S   UNL A   1      45.243  25.560  38.938  1.00  0.00     0.127 S 
ATOM     93  O   UNL A   1      44.357  26.319  39.818  1.00  0.00    -0.237 OA
ATOM     94  O   UNL A   1      44.602  24.445  38.240  1.00  0.00    -0.237 OA
ATOM     95  O   UNL A   1      46.557  25.251  39.487  1.00  0.00    -0.744 OA
ENDBRANCH  89  92
ENDBRANCH  62  85
ENDBRANCH  36  37
ENDBRANCH  29  31
ENDBRANCH  28  29
ENDBRANCH  27  28
ENDBRANCH  26  27
ENDBRANCH  25  26
ENDBRANCH  24  25
ENDBRANCH   1  24
TORSDOF 24
ENDMDL
MODEL 2
REMARK VINA RESULT:      -9.4      2.217      7.698
REMARK SMILES CCOc1cccc2c(SCC(=O)OCCOCCOCCOC(=O)c3ccc(-c4c5nc(c(-c6cccc(S(=O)(=O)[O-])c6F)c6ccc([nH]6)c(-c6cccc(S(=O)(=O)[O-])c6F)c6nc(c(-c7cccc(S(=O)(=O)[O-])c7F)c7ccc4[nH]7)C=C6)C=C5)cc3)cc(C)nc12
REMARK SMILES IDX 18 1 17 2 16 3 15 4 14 5 12 6 13 7 11 8 10 9 9 10 4 11 5 12
REMARK SMILES IDX 93 13 6 14 8 15 92 16 7 17 90 18 89 19 91 20 3 21 2 22 1 23
REMARK SMILES IDX 19 24 20 25 21 26 22 27 23 28 24 29 25 30 26 31 27 32 88 33
REMARK SMILES IDX 28 34 87 35 29 36 30 37 31 38 81 39 32 40 86 41 80 42 82 43
REMARK SMILES IDX 33 44 85 45 79 46 78 47 34 49 66 50 46 51 65 52 47 53 50 54
REMARK SMILES IDX 64 55 83 56 48 57 49 58 63 60 84 61 51 62 35 63 36 64 44 65
REMARK SMILES IDX 37 66 39 67 45 68 38 69 40 70 41 71 42 72 43 73 67 74 68 75
REMARK SMILES IDX 76 76 69 77 71 78 77 79 70 80 72 81 73 82 74 83 75 84 52 85
REMARK SMILES IDX 53 86 61 87 54 88 56 89 62 90 55 91 57 92 58 93 59 94 60 95
REMARK H PARENT 82 48 50 59
REMARK Flexibility Score: inf
ROOT
ATOM      1  C   UNL A   1      35.412  31.648  28.034  1.00  0.00     0.188 C 
ENDROOT
BRANCH   1   2
ATOM      2  O   UNL A   1      34.373  31.101  27.231  1.00  0.00    -0.376 OA
BRANCH   2   3
ATOM      3  C   UNL A   1      33.035  31.520  27.483  1.00  0.00     0.202 C 
BRANCH   3   4
ATOM      4  C   UNL A   1      31.968  30.831  26.629  1.00  0.00     0.261 C 
BRANCH   4   5
ATOM      5  O   UNL A   1      31.906  29.436  26.985  1.00  0.00    -0.463 OA
BRANCH   5   6
ATOM      6  C   UNL A   1      31.786  28.544  25.968  1.00  0.00     0.316 C 
ATOM      7  O   UNL A   1      31.454  28.854  24.830  1.00  0.00    -0.251 OA
BRANCH   6   8
ATOM      8  C   UNL A   1      32.327  27.169  26.342  1.00  0.00     0.197 C 
BRANCH   8   9
ATOM      9  S   UNL A   1      31.197  25.776  25.951  1.00  0.00    -0.114 SA
BRANCH   9  10
ATOM     10  C   UNL A   1      32.224  24.532  25.086  1.00  0.00     0.019 A 
ATOM     11  C   UNL A   1      34.533  21.708  25.837  1.00  0.00     0.145 A 
ATOM     12  C   UNL A   1      34.321  21.456  27.190  1.00  0.00     0.049 A 
ATOM     13  C   UNL A   1      33.793  22.668  25.134  1.00  0.00     0.114 A 
ATOM     14  C   UNL A   1      33.408  22.234  27.885  1.00  0.00     0.005 A 
ATOM     15  C   UNL A   1      32.907  23.517  25.838  1.00  0.00     0.018 A 
ATOM     16  N   UNL A   1      33.918  22.726  23.804  1.00  0.00    -0.249 NA
ATOM     17  C   UNL A   1      32.738  23.271  27.228  1.00  0.00     0.012 A 
ATOM     18  C   UNL A   1      33.167  23.581  23.093  1.00  0.00     0.039 A 
ATOM     19  C   UNL A   1      32.336  24.518  23.692  1.00  0.00     0.039 A 
ATOM     20  C   UNL A   1      33.260  23.403  21.612  1.00  0.00     0.067 C 
BRANCH  11  21
ATOM     21  O   UNL A   1      35.453  20.904  25.191  1.00  0.00    -0.492 OA
BRANCH  21  22
ATOM     22  C   UNL A   1      36.599  21.668  24.780  1.00  0.00     0.226 C 
ATOM     23  C   UNL A   1      37.871  21.092  25.381  1.00  0.00     0.049 C 
ENDBRANCH  21  22
ENDBRANCH  11  21
ENDBRANCH   9  10
ENDBRANCH   8   9
ENDBRANCH   6   8
ENDBRANCH   5   6
ENDBRANCH   4   5
ENDBRANCH   3   4
ENDBRANCH   2   3
ENDBRANCH   1   2
BRANCH   1  24
ATOM     24  C   UNL A   1      35.622  33.178  28.021  1.00  0.00     0.188 C 
BRANCH  24  25
ATOM     25  O   UNL A   1      35.066  33.965  29.059  1.00  0.00    -0.376 OA
BRANCH  25  26
ATOM     26  C   UNL A   1      34.227  35.038  28.665  1.00  0.00     0.202 C 
BRANCH  26  27
ATOM     27  C   UNL A   1      32.910  35.174  29.428  1.00  0.00     0.261 C 
BRANCH  27  28
ATOM     28  O   UNL A   1      32.903  36.282  30.352  1.00  0.00    -0.460 OA
BRANCH  28  29
ATOM     29  C   UNL A   1      32.522  35.949  31.610  1.00  0.00     0.338 C 
ATOM     30  O   UNL A   1      31.421  36.131  32.095  1.00  0.00    -0.246 OA
BRANCH  29  31
ATOM     31  C   UNL A   1      33.610  35.321  32.387  1.00  0.00     0.060 A 
ATOM     32  C   UNL A   1      34.901  35.852  32.391  1.00  0.00     0.016 A 
ATOM     33  C   UNL A   1      33.385  34.047  32.905  1.00  0.00     0.016 A 
ATOM     34  C   UNL A   1      35.974  35.070  32.830  1.00  0.00     0.010 A 
ATOM     35  C   UNL A   1      34.457  33.287  33.387  1.00  0.00     0.010 A 
ATOM     36  C   UNL A   1      35.775  33.763  33.299  1.00  0.00    -0.014 A 
BRANCH  36  37
ATOM     37  C   UNL A   1      36.927  32.865  33.616  1.00  0.00     0.031 A 
ATOM     38  C   UNL A   1      37.655  32.987  34.937  1.00  0.00     0.074 A 
ATOM     39  C   UNL A   1      37.335  31.927  32.738  1.00  0.00     0.049 A 
ATOM     40  N   UNL A   1      38.813  32.490  35.292  1.00  0.00    -0.248 NA
ATOM     41  C   UNL A   1      36.993  33.764  35.999  1.00  0.00     0.031 C 
ATOM     42  C   UNL A   1      36.692  31.625  31.460  1.00  0.00     0.029 A 
ATOM     43  N   UNL A   1      38.413  31.071  32.777  1.00  0.00    -0.354 N 
ATOM     44  C   UNL A   1      39.051  32.948  36.584  1.00  0.00     0.074 A 
ATOM     45  C   UNL A   1      37.901  33.738  36.966  1.00  0.00     0.031 C 
ATOM     46  C   UNL A   1      37.380  30.661  30.836  1.00  0.00     0.029 A 
ATOM     47  C   UNL A   1      38.582  30.365  31.608  1.00  0.00     0.049 A 
ATOM     48  H   UNL A   1      39.000  30.974  33.560  1.00  0.00     0.167 HD
ATOM     49  C   UNL A   1      40.129  32.733  37.377  1.00  0.00     0.034 A 
ATOM     50  C   UNL A   1      39.622  29.637  31.152  1.00  0.00     0.034 A 
ATOM     51  C   UNL A   1      41.250  31.906  37.016  1.00  0.00     0.049 A 
ATOM     52  C   UNL A   1      40.847  29.487  32.003  1.00  0.00     0.074 A 
ATOM     53  C   UNL A   1      42.384  31.622  37.759  1.00  0.00     0.029 A 
ATOM     54  N   UNL A   1      41.380  31.226  35.817  1.00  0.00    -0.354 N 
ATOM     55  N   UNL A   1      41.067  29.936  33.214  1.00  0.00    -0.248 NA
ATOM     56  C   UNL A   1      41.968  28.731  31.427  1.00  0.00     0.031 C 
ATOM     57  C   UNL A   1      43.211  30.789  36.997  1.00  0.00     0.029 A 
ATOM     58  C   UNL A   1      42.580  30.535  35.791  1.00  0.00     0.049 A 
ATOM     59  H   UNL A   1      40.717  31.233  35.088  1.00  0.00     0.167 HD
ATOM     60  C   UNL A   1      42.344  29.506  33.552  1.00  0.00     0.074 A 
ATOM     61  C   UNL A   1      42.840  28.739  32.427  1.00  0.00     0.031 C 
ATOM     62  C   UNL A   1      43.048  29.739  34.687  1.00  0.00     0.034 A 
BRANCH  49  63
ATOM     63  C   UNL A   1      40.168  33.402  38.728  1.00  0.00     0.023 A 
ATOM     64  C   UNL A   1      39.727  32.709  39.871  1.00  0.00     0.012 A 
ATOM     65  C   UNL A   1      40.745  34.681  38.875  1.00  0.00     0.148 A 
ATOM     66  C   UNL A   1      39.849  33.282  41.138  1.00  0.00     0.002 A 
ATOM     67  C   UNL A   1      40.898  35.229  40.143  1.00  0.00     0.091 A 
ATOM     68  F   UNL A   1      41.138  35.334  37.771  1.00  0.00    -0.205 F 
ATOM     69  C   UNL A   1      40.445  34.534  41.275  1.00  0.00     0.022 A 
BRANCH  67  70
ATOM     70  S   UNL A   1      41.727  36.799  40.421  1.00  0.00     0.127 S 
ATOM     71  O   UNL A   1      40.838  37.730  39.728  1.00  0.00    -0.237 OA
ATOM     72  O   UNL A   1      41.707  36.909  41.880  1.00  0.00    -0.237 OA
ATOM     73  O   UNL A   1      43.058  36.656  39.845  1.00  0.00    -0.744 OA
ENDBRANCH  67  70
ENDBRANCH  49  63
BRANCH  50  74
ATOM     74  C   UNL A   1      39.549  29.048  29.785  1.00  0.00     0.023 A 
ATOM     75  C   UNL A   1      39.640  29.881  28.656  1.00  0.00     0.012 A 
ATOM     76  C   UNL A   1      39.482  27.651  29.606  1.00  0.00     0.148 A 
ATOM     77  C   UNL A   1      39.670  29.331  27.372  1.00  0.00     0.002 A 
ATOM     78  C   UNL A   1      39.593  27.109  28.333  1.00  0.00     0.091 A 
ATOM     79  F   UNL A   1      39.354  26.875  30.692  1.00  0.00    -0.205 F 
ATOM     80  C   UNL A   1      39.671  27.947  27.212  1.00  0.00     0.022 A 
BRANCH  78  81
ATOM     81  S   UNL A   1      39.802  25.342  28.077  1.00  0.00     0.127 S 
ATOM     82  O   UNL A   1      38.587  24.804  28.679  1.00  0.00    -0.237 OA
ATOM     83  O   UNL A   1      39.863  25.248  26.618  1.00  0.00    -0.237 OA
ATOM     84  O   UNL A   1      41.053  25.004  28.743  1.00  0.00    -0.744 OA
ENDBRANCH  78  81
ENDBRANCH  50  74
BRANCH  62  85
ATOM     85  C   UNL A   1      44.423  29.139  34.787  1.00  0.00     0.023 A 
ATOM     86  C   UNL A   1      45.545  29.894  34.394  1.00  0.00     0.012 A 
ATOM     87  C   UNL A   1      44.608  27.850  35.326  1.00  0.00     0.148 A 
ATOM     88  C   UNL A   1      46.830  29.366  34.512  1.00  0.00     0.002 A 
ATOM     89  C   UNL A   1      45.894  27.347  35.478  1.00  0.00     0.091 A 
ATOM     90  F   UNL A   1      43.525  27.142  35.675  1.00  0.00    -0.205 F 
ATOM     91  C   UNL A   1      47.005  28.098  35.061  1.00  0.00     0.022 A 
BRANCH  89  92
ATOM     92  S   UNL A   1      46.221  25.756  36.246  1.00  0.00     0.127 S 
ATOM     93  O   UNL A   1      45.649  25.946  37.578  1.00  0.00    -0.237 OA
ATOM     94  O   UNL A   1      45.475  24.837  35.387  1.00  0.00    -0.237 OA
ATOM     95  O   UNL A   1      47.666  25.581  36.205  1.00  0.00    -0.744 OA
ENDBRANCH  89  92
ENDBRANCH  62  85
ENDBRANCH  36  37
ENDBRANCH  29  31
ENDBRANCH  28  29
ENDBRANCH  27  28
ENDBRANCH  26  27
ENDBRANCH  25  26
ENDBRANCH  24  25
ENDBRANCH   1  24
TORSDOF 24
ENDMDL
MODEL 3
REMARK VINA RESULT:      -8.9      1.859      2.166
REMARK SMILES CCOc1cccc2c(SCC(=O)OCCOCCOCCOC(=O)c3ccc(-c4c5nc(c(-c6cccc(S(=O)(=O)[O-])c6F)c6ccc([nH]6)c(-c6cccc(S(=O)(=O)[O-])c6F)c6nc(c(-c7cccc(S(=O)(=O)[O-])c7F)c7ccc4[nH]7)C=C6)C=C5)cc3)cc(C)nc12
REMARK SMILES IDX 18 1 17 2 16 3 15 4 14 5 12 6 13 7 11 8 10 9 9 10 4 11 5 12
REMARK SMILES IDX 93 13 6 14 8 15 92 16 7 17 90 18 89 19 91 20 3 21 2 22 1 23
REMARK SMILES IDX 19 24 20 25 21 26 22 27 23 28 24 29 25 30 26 31 27 32 88 33
REMARK SMILES IDX 28 34 87 35 29 36 30 37 31 38 81 39 32 40 86 41 80 42 82 43
REMARK SMILES IDX 33 44 85 45 79 46 78 47 34 49 66 50 46 51 65 52 47 53 50 54
REMARK SMILES IDX 64 55 83 56 48 57 49 58 63 60 84 61 51 62 35 63 36 64 44 65
REMARK SMILES IDX 37 66 39 67 45 68 38 69 40 70 41 71 42 72 43 73 67 74 68 75
REMARK SMILES IDX 76 76 69 77 71 78 77 79 70 80 72 81 73 82 74 83 75 84 52 85
REMARK SMILES IDX 53 86 61 87 54 88 56 89 62 90 55 91 57 92 58 93 59 94 60 95
REMARK H PARENT 82 48 50 59
REMARK Flexibility Score: inf
ROOT
ATOM      1  C   UNL A   1      34.750  29.724  27.499  1.00  0.00     0.188 C 
ENDROOT
BRANCH   1   2
ATOM      2  O   UNL A   1      33.977  28.561  27.227  1.00  0.00    -0.376 OA
BRANCH   2   3
ATOM      3  C   UNL A   1      32.571  28.618  27.455  1.00  0.00     0.202 C 
BRANCH   3   4
ATOM      4  C   UNL A   1      31.712  27.962  26.371  1.00  0.00     0.261 C 
BRANCH   4   5
ATOM      5  O   UNL A   1      31.300  26.657  26.821  1.00  0.00    -0.463 OA
BRANCH   5   6
ATOM      6  C   UNL A   1      31.357  25.646  25.916  1.00  0.00     0.316 C 
ATOM      7  O   UNL A   1      30.616  25.563  24.944  1.00  0.00    -0.251 OA
BRANCH   6   8
ATOM      8  C   UNL A   1      32.583  24.762  26.117  1.00  0.00     0.197 C 
BRANCH   8   9
ATOM      9  S   UNL A   1      33.746  24.741  24.697  1.00  0.00    -0.114 SA
BRANCH   9  10
ATOM     10  C   UNL A   1      34.686  23.178  24.849  1.00  0.00     0.019 A 
ATOM     11  C   UNL A   1      34.177  19.497  24.593  1.00  0.00     0.145 A 
ATOM     12  C   UNL A   1      32.931  19.376  23.983  1.00  0.00     0.049 A 
ATOM     13  C   UNL A   1      34.780  20.743  24.810  1.00  0.00     0.114 A 
ATOM     14  C   UNL A   1      32.227  20.525  23.655  1.00  0.00     0.005 A 
ATOM     15  C   UNL A   1      34.052  21.926  24.545  1.00  0.00     0.018 A 
ATOM     16  N   UNL A   1      36.051  20.776  25.226  1.00  0.00    -0.249 NA
ATOM     17  C   UNL A   1      32.763  21.779  23.963  1.00  0.00     0.012 A 
ATOM     18  C   UNL A   1      36.683  21.951  25.370  1.00  0.00     0.039 A 
ATOM     19  C   UNL A   1      36.034  23.169  25.224  1.00  0.00     0.039 A 
ATOM     20  C   UNL A   1      38.148  21.836  25.645  1.00  0.00     0.067 C 
BRANCH  11  21
ATOM     21  O   UNL A   1      34.836  18.323  24.899  1.00  0.00    -0.492 OA
BRANCH  21  22
ATOM     22  C   UNL A   1      34.345  17.236  24.096  1.00  0.00     0.226 C 
ATOM     23  C   UNL A   1      34.624  15.903  24.770  1.00  0.00     0.049 C 
ENDBRANCH  21  22
ENDBRANCH  11  21
ENDBRANCH   9  10
ENDBRANCH   8   9
ENDBRANCH   6   8
ENDBRANCH   5   6
ENDBRANCH   4   5
ENDBRANCH   3   4
ENDBRANCH   2   3
ENDBRANCH   1   2
BRANCH   1  24
ATOM     24  C   UNL A   1      34.075  31.105  27.357  1.00  0.00     0.188 C 
BRANCH  24  25
ATOM     25  O   UNL A   1      34.082  32.000  28.455  1.00  0.00    -0.376 OA
BRANCH  25  26
ATOM     26  C   UNL A   1      34.249  33.375  28.155  1.00  0.00     0.202 C 
BRANCH  26  27
ATOM     27  C   UNL A   1      33.208  34.323  28.750  1.00  0.00     0.261 C 
BRANCH  27  28
ATOM     28  O   UNL A   1      33.769  35.257  29.696  1.00  0.00    -0.460 OA
BRANCH  28  29
ATOM     29  C   UNL A   1      33.471  34.979  30.990  1.00  0.00     0.338 C 
ATOM     30  O   UNL A   1      32.395  35.158  31.529  1.00  0.00    -0.246 OA
BRANCH  29  31
ATOM     31  C   UNL A   1      34.618  34.417  31.730  1.00  0.00     0.060 A 
ATOM     32  C   UNL A   1      35.663  35.227  32.177  1.00  0.00     0.016 A 
ATOM     33  C   UNL A   1      34.764  33.030  31.746  1.00  0.00     0.016 A 
ATOM     34  C   UNL A   1      36.880  34.651  32.553  1.00  0.00     0.010 A 
ATOM     35  C   UNL A   1      35.969  32.457  32.169  1.00  0.00     0.010 A 
ATOM     36  C   UNL A   1      37.065  33.260  32.519  1.00  0.00    -0.014 A 
BRANCH  36  37
ATOM     37  C   UNL A   1      38.407  32.647  32.761  1.00  0.00     0.031 A 
ATOM     38  C   UNL A   1      39.012  31.700  31.748  1.00  0.00     0.074 A 
ATOM     39  C   UNL A   1      39.105  32.929  33.880  1.00  0.00     0.049 A 
ATOM     40  N   UNL A   1      40.025  30.881  31.884  1.00  0.00    -0.248 NA
ATOM     41  C   UNL A   1      38.405  31.675  30.406  1.00  0.00     0.031 C 
ATOM     42  C   UNL A   1      38.701  33.882  34.913  1.00  0.00     0.029 A 
ATOM     43  N   UNL A   1      40.293  32.415  34.348  1.00  0.00    -0.354 N 
ATOM     44  C   UNL A   1      40.132  30.196  30.678  1.00  0.00     0.074 A 
ATOM     45  C   UNL A   1      39.101  30.717  29.806  1.00  0.00     0.031 C 
ATOM     46  C   UNL A   1      39.616  33.886  35.891  1.00  0.00     0.029 A 
ATOM     47  C   UNL A   1      40.604  32.847  35.617  1.00  0.00     0.049 A 
ATOM     48  H   UNL A   1      40.861  31.802  33.829  1.00  0.00     0.167 HD
ATOM     49  C   UNL A   1      41.005  29.219  30.329  1.00  0.00     0.034 A 
ATOM     50  C   UNL A   1      41.512  32.405  36.510  1.00  0.00     0.034 A 
ATOM     51  C   UNL A   1      42.063  28.736  31.178  1.00  0.00     0.049 A 
ATOM     52  C   UNL A   1      42.409  31.260  36.143  1.00  0.00     0.074 A 
ATOM     53  C   UNL A   1      43.003  27.755  30.907  1.00  0.00     0.029 A 
ATOM     54  N   UNL A   1      42.325  29.196  32.458  1.00  0.00    -0.354 N 
ATOM     55  N   UNL A   1      42.491  30.611  35.009  1.00  0.00    -0.248 NA
ATOM     56  C   UNL A   1      43.337  30.786  37.179  1.00  0.00     0.031 C 
ATOM     57  C   UNL A   1      43.819  27.606  32.034  1.00  0.00     0.029 A 
ATOM     58  C   UNL A   1      43.402  28.511  32.996  1.00  0.00     0.049 A 
ATOM     59  H   UNL A   1      41.820  29.905  32.918  1.00  0.00     0.167 HD
ATOM     60  C   UNL A   1      43.490  29.661  35.186  1.00  0.00     0.074 A 
ATOM     61  C   UNL A   1      44.000  29.836  36.531  1.00  0.00     0.031 C 
ATOM     62  C   UNL A   1      43.932  28.719  34.318  1.00  0.00     0.034 A 
BRANCH  49  63
ATOM     63  C   UNL A   1      40.869  28.590  28.966  1.00  0.00     0.023 A 
ATOM     64  C   UNL A   1      41.396  29.240  27.834  1.00  0.00     0.012 A 
ATOM     65  C   UNL A   1      40.313  27.302  28.827  1.00  0.00     0.148 A 
ATOM     66  C   UNL A   1      41.361  28.622  26.582  1.00  0.00     0.002 A 
ATOM     67  C   UNL A   1      40.316  26.676  27.585  1.00  0.00     0.091 A 
ATOM     68  F   UNL A   1      39.796  26.709  29.914  1.00  0.00    -0.205 F 
ATOM     69  C   UNL A   1      40.834  27.337  26.461  1.00  0.00     0.022 A 
BRANCH  67  70
ATOM     70  S   UNL A   1      39.732  24.993  27.351  1.00  0.00     0.127 S 
ATOM     71  O   UNL A   1      40.898  24.358  26.739  1.00  0.00    -0.237 OA
ATOM     72  O   UNL A   1      39.455  24.565  28.722  1.00  0.00    -0.237 OA
ATOM     73  O   UNL A   1      38.554  25.093  26.500  1.00  0.00    -0.744 OA
ENDBRANCH  67  70
ENDBRANCH  49  63
BRANCH  50  74
ATOM     74  C   UNL A   1      41.561  33.027  37.863  1.00  0.00     0.023 A 
ATOM     75  C   UNL A   1      40.764  32.515  38.901  1.00  0.00     0.012 A 
ATOM     76  C   UNL A   1      42.468  34.071  38.142  1.00  0.00     0.148 A 
ATOM     77  C   UNL A   1      40.873  33.028  40.195  1.00  0.00     0.002 A 
ATOM     78  C   UNL A   1      42.628  34.520  39.446  1.00  0.00     0.091 A 
ATOM     79  F   UNL A   1      43.190  34.575  37.131  1.00  0.00    -0.205 F 
ATOM     80  C   UNL A   1      41.820  34.012  40.472  1.00  0.00     0.022 A 
BRANCH  78  81
ATOM     81  S   UNL A   1      43.962  35.634  39.900  1.00  0.00     0.127 S 
ATOM     82  O   UNL A   1      45.122  34.971  39.314  1.00  0.00    -0.237 OA
ATOM     83  O   UNL A   1      43.562  36.878  39.240  1.00  0.00    -0.237 OA
ATOM     84  O   UNL A   1      43.927  35.701  41.356  1.00  0.00    -0.744 OA
ENDBRANCH  78  81
ENDBRANCH  50  74
BRANCH  62  85
ATOM     85  C   UNL A   1      45.043  27.816  34.779  1.00  0.00     0.023 A 
ATOM     86  C   UNL A   1      46.380  28.153  34.495  1.00  0.00     0.012 A 
ATOM     87  C   UNL A   1      44.765  26.667  35.546  1.00  0.00     0.148 A 
ATOM     88  C   UNL A   1      47.424  27.345  34.944  1.00  0.00     0.002 A 
ATOM     89  C   UNL A   1      45.812  25.889  36.024  1.00  0.00     0.091 A 
ATOM     90  F   UNL A   1      43.484  26.354  35.789  1.00  0.00    -0.205 F 
ATOM     91  C   UNL A   1      47.141  26.220  35.715  1.00  0.00     0.022 A 
BRANCH  89  92
ATOM     92  S   UNL A   1      45.547  24.467  37.089  1.00  0.00     0.127 S 
ATOM     93  O   UNL A   1      46.914  23.989  37.294  1.00  0.00    -0.237 OA
ATOM     94  O   UNL A   1      44.930  25.073  38.269  1.00  0.00    -0.237 OA
ATOM     95  O   UNL A   1      44.674  23.568  36.347  1.00  0.00    -0.744 OA
ENDBRANCH  89  92
ENDBRANCH  62  85
ENDBRANCH  36  37
ENDBRANCH  29  31
ENDBRANCH  28  29
ENDBRANCH  27  28
ENDBRANCH  26  27
ENDBRANCH  25  26
ENDBRANCH  24  25
ENDBRANCH   1  24
TORSDOF 24
ENDMDL
