MODEL 1
REMARK VINA RESULT:      -9.5      0.000      0.000
REMARK SMILES NC(=O)[C@@H]1CCC[N@@H+]1[C@@H](C(=O)OCCOCCOCCOC(=O)c1ccc(-c2c3nc(c(-c4cccc(S(=O)(=O)[O-])c4F)c4ccc([nH]4)c(-c4cccc(S(=O)(=O)[O-])c4F)c4nc(c(-c5cccc(S(=O)(=O)[O-])c5F)c5ccc2[nH]5)C=C4)C=C3)cc1)c1c[nH]c2cc(OCc3ccccc3)ccc12
REMARK SMILES IDX 16 1 15 2 14 3 13 4 12 5 10 6 11 7 9 8 8 9 4 10 5 11 6 12
REMARK SMILES IDX 7 13 2 15 1 16 3 19 87 20 88 21 103 22 89 23 90 24 102 25
REMARK SMILES IDX 91 27 101 28 92 29 93 30 94 31 95 32 96 33 100 34 97 35
REMARK SMILES IDX 99 36 98 37 17 38 18 39 19 40 20 41 21 42 22 43 23 44 24 45
REMARK SMILES IDX 25 46 86 47 26 48 85 49 27 50 28 51 29 52 79 53 30 54 84 55
REMARK SMILES IDX 78 56 80 57 31 58 83 59 77 60 76 61 32 63 64 64 44 65 63 66
REMARK SMILES IDX 45 67 48 68 62 69 81 70 46 71 47 72 61 74 82 75 49 76 33 77
REMARK SMILES IDX 34 78 42 79 35 80 37 81 43 82 36 83 38 84 39 85 40 86 41 87
REMARK SMILES IDX 65 88 66 89 74 90 67 91 69 92 75 93 68 94 70 95 71 96 72 97
REMARK SMILES IDX 73 98 50 99 51 100 59 101 52 102 54 103 60 104 53 105 55 106
REMARK SMILES IDX 56 107 57 108 58 109
REMARK H PARENT 8 14 1 17 1 18 89 26 80 62 48 73
REMARK Flexibility Score: inf
ROOT
ATOM      1  C   UNL A   1      33.459  31.187  27.735  1.00  0.00     0.188 C 
ENDROOT
BRANCH   1   2
ATOM      2  O   UNL A   1      32.324  30.759  27.013  1.00  0.00    -0.376 OA
BRANCH   2   3
ATOM      3  C   UNL A   1      32.497  29.594  26.218  1.00  0.00     0.202 C 
BRANCH   3   4
ATOM      4  C   UNL A   1      31.817  28.292  26.682  1.00  0.00     0.261 C 
BRANCH   4   5
ATOM      5  O   UNL A   1      32.527  27.084  26.314  1.00  0.00    -0.459 OA
BRANCH   5   6
ATOM      6  C   UNL A   1      31.758  26.008  25.970  1.00  0.00     0.370 C 
ATOM      7  O   UNL A   1      30.996  25.451  26.759  1.00  0.00    -0.245 OA
BRANCH   6   8
ATOM      8  C   UNL A   1      31.879  25.573  24.507  1.00  0.00     0.329 C 
BRANCH   8   9
ATOM      9  N   UNL A   1      30.920  26.127  23.474  1.00  0.00    -0.309 N 
ATOM     10  C   UNL A   1      31.010  27.390  22.722  1.00  0.00     0.275 C 
ATOM     11  C   UNL A   1      29.971  28.304  23.359  1.00  0.00     0.081 C 
ATOM     12  C   UNL A   1      28.837  27.353  23.613  1.00  0.00     0.068 C 
ATOM     13  C   UNL A   1      29.501  25.995  23.734  1.00  0.00     0.264 C 
ATOM     14  H   UNL A   1      31.403  25.452  22.880  1.00  0.00     0.349 HD
BRANCH  10  15
ATOM     15  C   UNL A   1      32.299  28.122  22.430  1.00  0.00     0.275 C 
ATOM     16  N   UNL A   1      33.220  27.316  21.783  1.00  0.00    -0.365 N 
ATOM     17  H   UNL A   1      34.102  27.676  21.536  1.00  0.00     0.159 HD
ATOM     18  H   UNL A   1      32.992  26.382  21.570  1.00  0.00     0.159 HD
ATOM     19  O   UNL A   1      32.574  29.277  22.714  1.00  0.00    -0.268 OA
ENDBRANCH  10  15
ENDBRANCH   8   9
BRANCH   8  20
ATOM     20  C   UNL A   1      32.473  24.063  24.188  1.00  0.00     0.046 A 
ATOM     21  C   UNL A   1      31.748  22.995  24.721  1.00  0.00     0.094 A 
ATOM     22  C   UNL A   1      33.775  23.344  24.079  1.00  0.00     0.009 A 
ATOM     23  N   UNL A   1      32.421  22.720  25.917  1.00  0.00    -0.361 N 
ATOM     24  C   UNL A   1      33.808  22.478  25.638  1.00  0.00     0.050 A 
ATOM     25  C   UNL A   1      35.266  23.198  23.099  1.00  0.00     0.015 A 
ATOM     26  H   UNL A   1      32.007  22.696  26.811  1.00  0.00     0.166 HD
ATOM     27  C   UNL A   1      35.503  21.570  26.235  1.00  0.00     0.073 A 
ATOM     28  C   UNL A   1      36.783  22.382  23.621  1.00  0.00     0.047 A 
ATOM     29  C   UNL A   1      36.965  21.619  25.185  1.00  0.00     0.121 A 
BRANCH  29  30
ATOM     30  O   UNL A   1      37.968  22.275  25.989  1.00  0.00    -0.489 OA
BRANCH  30  31
ATOM     31  C   UNL A   1      39.260  21.716  26.128  1.00  0.00     0.265 C 
BRANCH  31  32
ATOM     32  C   UNL A   1      40.374  22.604  26.594  1.00  0.00    -0.011 A 
ATOM     33  C   UNL A   1      40.073  23.633  27.493  1.00  0.00     0.007 A 
ATOM     34  C   UNL A   1      41.702  22.399  26.196  1.00  0.00     0.007 A 
ATOM     35  C   UNL A   1      41.075  24.471  27.967  1.00  0.00     0.000 A 
ATOM     36  C   UNL A   1      42.709  23.221  26.698  1.00  0.00     0.000 A 
ATOM     37  C   UNL A   1      42.391  24.262  27.575  1.00  0.00     0.000 A 
ENDBRANCH  31  32
ENDBRANCH  30  31
ENDBRANCH  29  30
ENDBRANCH   8  20
ENDBRANCH   6   8
ENDBRANCH   5   6
ENDBRANCH   4   5
ENDBRANCH   3   4
ENDBRANCH   2   3
ENDBRANCH   1   2
BRANCH   1  38
ATOM     38  C   UNL A   1      33.784  32.688  27.736  1.00  0.00     0.188 C 
BRANCH  38  39
ATOM     39  O   UNL A   1      34.088  33.319  28.967  1.00  0.00    -0.376 OA
BRANCH  39  40
ATOM     40  C   UNL A   1      34.653  32.515  30.005  1.00  0.00     0.202 C 
BRANCH  40  41
ATOM     41  C   UNL A   1      34.655  33.000  31.463  1.00  0.00     0.261 C 
BRANCH  41  42
ATOM     42  O   UNL A   1      34.566  34.428  31.589  1.00  0.00    -0.460 OA
BRANCH  42  43
ATOM     43  C   UNL A   1      35.164  35.204  32.513  1.00  0.00     0.338 C 
ATOM     44  O   UNL A   1      34.879  36.344  32.821  1.00  0.00    -0.246 OA
BRANCH  43  45
ATOM     45  C   UNL A   1      36.206  34.337  33.138  1.00  0.00     0.060 A 
ATOM     46  C   UNL A   1      36.113  33.555  34.719  1.00  0.00     0.016 A 
ATOM     47  C   UNL A   1      37.766  34.253  32.273  1.00  0.00     0.016 A 
ATOM     48  C   UNL A   1      37.531  32.777  35.521  1.00  0.00     0.010 A 
ATOM     49  C   UNL A   1      39.358  33.382  33.154  1.00  0.00     0.010 A 
ATOM     50  C   UNL A   1      39.155  32.674  34.790  1.00  0.00    -0.014 A 
BRANCH  50  51
ATOM     51  C   UNL A   1      40.386  32.276  35.527  1.00  0.00     0.031 A 
ATOM     52  C   UNL A   1      41.173  33.320  36.268  1.00  0.00     0.074 A 
ATOM     53  C   UNL A   1      40.927  31.051  35.389  1.00  0.00     0.049 A 
ATOM     54  N   UNL A   1      42.183  33.213  37.094  1.00  0.00    -0.248 NA
ATOM     55  C   UNL A   1      40.772  34.701  36.006  1.00  0.00     0.031 C 
ATOM     56  C   UNL A   1      40.429  29.979  34.533  1.00  0.00     0.029 A 
ATOM     57  N   UNL A   1      42.041  30.503  35.980  1.00  0.00    -0.354 N 
ATOM     58  C   UNL A   1      42.543  34.518  37.428  1.00  0.00     0.074 A 
ATOM     59  C   UNL A   1      41.605  35.379  36.771  1.00  0.00     0.031 C 
ATOM     60  C   UNL A   1      41.192  28.887  34.693  1.00  0.00     0.029 A 
ATOM     61  C   UNL A   1      42.233  29.177  35.670  1.00  0.00     0.049 A 
ATOM     62  H   UNL A   1      42.644  31.012  36.569  1.00  0.00     0.167 HD
ATOM     63  C   UNL A   1      43.577  34.984  38.173  1.00  0.00     0.034 A 
ATOM     64  C   UNL A   1      43.120  28.288  36.157  1.00  0.00     0.034 A 
ATOM     65  C   UNL A   1      44.515  34.111  38.809  1.00  0.00     0.049 A 
ATOM     66  C   UNL A   1      44.088  28.743  37.214  1.00  0.00     0.074 A 
ATOM     67  C   UNL A   1      45.513  34.412  39.716  1.00  0.00     0.029 A 
ATOM     68  N   UNL A   1      44.571  32.747  38.579  1.00  0.00    -0.354 N 
ATOM     69  N   UNL A   1      44.298  29.953  37.674  1.00  0.00    -0.248 NA
ATOM     70  C   UNL A   1      44.898  27.704  37.863  1.00  0.00     0.031 C 
ATOM     71  C   UNL A   1      46.180  33.224  40.030  1.00  0.00     0.029 A 
ATOM     72  C   UNL A   1      45.555  32.182  39.362  1.00  0.00     0.049 A 
ATOM     73  H   UNL A   1      43.996  32.254  37.951  1.00  0.00     0.167 HD
ATOM     74  C   UNL A   1      45.236  29.816  38.690  1.00  0.00     0.074 A 
ATOM     75  C   UNL A   1      45.532  28.403  38.794  1.00  0.00     0.031 C 
ATOM     76  C   UNL A   1      45.805  30.771  39.466  1.00  0.00     0.034 A 
BRANCH  63  77
ATOM     77  C   UNL A   1      43.740  36.485  38.349  1.00  0.00     0.023 A 
ATOM     78  C   UNL A   1      44.622  37.204  37.511  1.00  0.00     0.012 A 
ATOM     79  C   UNL A   1      42.995  37.202  39.312  1.00  0.00     0.148 A 
ATOM     80  C   UNL A   1      44.824  38.574  37.678  1.00  0.00     0.002 A 
ATOM     81  C   UNL A   1      43.140  38.583  39.417  1.00  0.00     0.091 A 
ATOM     82  F   UNL A   1      42.168  36.523  40.120  1.00  0.00    -0.205 F 
ATOM     83  C   UNL A   1      44.075  39.265  38.623  1.00  0.00     0.022 A 
BRANCH  81  84
ATOM     84  S   UNL A   1      42.132  39.599  40.506  1.00  0.00     0.127 S 
ATOM     85  O   UNL A   1      42.546  39.119  41.824  1.00  0.00    -0.237 OA
ATOM     86  O   UNL A   1      42.595  40.946  40.175  1.00  0.00    -0.237 OA
ATOM     87  O   UNL A   1      40.747  39.322  40.152  1.00  0.00    -0.744 OA
ENDBRANCH  81  84
ENDBRANCH  63  77
BRANCH  64  88
ATOM     88  C   UNL A   1      43.023  26.855  35.760  1.00  0.00     0.023 A 
ATOM     89  C   UNL A   1      42.051  26.032  36.366  1.00  0.00     0.012 A 
ATOM     90  C   UNL A   1      43.846  26.316  34.755  1.00  0.00     0.148 A 
ATOM     91  C   UNL A   1      41.929  24.689  36.009  1.00  0.00     0.002 A 
ATOM     92  C   UNL A   1      43.681  24.992  34.364  1.00  0.00     0.091 A 
ATOM     93  F   UNL A   1      44.758  27.117  34.187  1.00  0.00    -0.205 F 
ATOM     94  C   UNL A   1      42.737  24.173  35.001  1.00  0.00     0.022 A 
BRANCH  92  95
ATOM     95  S   UNL A   1      44.591  24.276  32.991  1.00  0.00     0.127 S 
ATOM     96  O   UNL A   1      45.956  24.268  33.511  1.00  0.00    -0.237 OA
ATOM     97  O   UNL A   1      43.969  22.958  32.873  1.00  0.00    -0.237 OA
ATOM     98  O   UNL A   1      44.354  25.159  31.857  1.00  0.00    -0.744 OA
ENDBRANCH  92  95
ENDBRANCH  64  88
BRANCH  76  99
ATOM     99  C   UNL A   1      46.750  30.327  40.542  1.00  0.00     0.023 A 
ATOM    100  C   UNL A   1      48.137  30.296  40.307  1.00  0.00     0.012 A 
ATOM    101  C   UNL A   1      46.249  30.014  41.821  1.00  0.00     0.148 A 
ATOM    102  C   UNL A   1      49.011  29.911  41.322  1.00  0.00     0.002 A 
ATOM    103  C   UNL A   1      47.129  29.693  42.841  1.00  0.00     0.091 A 
ATOM    104  F   UNL A   1      44.922  30.040  42.013  1.00  0.00    -0.205 F 
ATOM    105  C   UNL A   1      48.509  29.621  42.590  1.00  0.00     0.022 A 
BRANCH 103 106
ATOM    106  S   UNL A   1      46.580  29.416  44.527  1.00  0.00     0.127 S 
ATOM    107  O   UNL A   1      47.802  28.926  45.161  1.00  0.00    -0.237 OA
ATOM    108  O   UNL A   1      46.172  30.760  44.941  1.00  0.00    -0.237 OA
ATOM    109  O   UNL A   1      45.491  28.453  44.446  1.00  0.00    -0.744 OA
ENDBRANCH 103 106
ENDBRANCH  76  99
ENDBRANCH  50  51
ENDBRANCH  43  45
ENDBRANCH  42  43
ENDBRANCH  41  42
ENDBRANCH  40  41
ENDBRANCH  39  40
ENDBRANCH  38  39
ENDBRANCH   1  38
TORSDOF 26
ENDMDL
MODEL 2
REMARK VINA RESULT:      -9.4      4.030      6.910
REMARK SMILES NC(=O)[C@@H]1CCC[N@@H+]1[C@@H](C(=O)OCCOCCOCCOC(=O)c1ccc(-c2c3nc(c(-c4cccc(S(=O)(=O)[O-])c4F)c4ccc([nH]4)c(-c4cccc(S(=O)(=O)[O-])c4F)c4nc(c(-c5cccc(S(=O)(=O)[O-])c5F)c5ccc2[nH]5)C=C4)C=C3)cc1)c1c[nH]c2cc(OCc3ccccc3)ccc12
REMARK SMILES IDX 16 1 15 2 14 3 13 4 12 5 10 6 11 7 9 8 8 9 4 10 5 11 6 12
REMARK SMILES IDX 7 13 2 15 1 16 3 19 87 20 88 21 103 22 89 23 90 24 102 25
REMARK SMILES IDX 91 27 101 28 92 29 93 30 94 31 95 32 96 33 100 34 97 35
REMARK SMILES IDX 99 36 98 37 17 38 18 39 19 40 20 41 21 42 22 43 23 44 24 45
REMARK SMILES IDX 25 46 86 47 26 48 85 49 27 50 28 51 29 52 79 53 30 54 84 55
REMARK SMILES IDX 78 56 80 57 31 58 83 59 77 60 76 61 32 63 64 64 44 65 63 66
REMARK SMILES IDX 45 67 48 68 62 69 81 70 46 71 47 72 61 74 82 75 49 76 33 77
REMARK SMILES IDX 34 78 42 79 35 80 37 81 43 82 36 83 38 84 39 85 40 86 41 87
REMARK SMILES IDX 65 88 66 89 74 90 67 91 69 92 75 93 68 94 70 95 71 96 72 97
REMARK SMILES IDX 73 98 50 99 51 100 59 101 52 102 54 103 60 104 53 105 55 106
REMARK SMILES IDX 56 107 57 108 58 109
REMARK H PARENT 8 14 1 17 1 18 89 26 80 62 48 73
REMARK Flexibility Score: inf
ROOT
ATOM      1  C   UNL A   1      33.837  31.041  27.643  1.00  0.00     0.188 C 
ENDROOT
BRANCH   1   2
ATOM      2  O   UNL A   1      32.629  30.753  26.972  1.00  0.00    -0.376 OA
BRANCH   2   3
ATOM      3  C   UNL A   1      32.667  29.656  26.070  1.00  0.00     0.202 C 
BRANCH   3   4
ATOM      4  C   UNL A   1      31.930  28.363  26.468  1.00  0.00     0.261 C 
BRANCH   4   5
ATOM      5  O   UNL A   1      32.685  27.149  26.235  1.00  0.00    -0.459 OA
BRANCH   5   6
ATOM      6  C   UNL A   1      31.958  26.028  25.947  1.00  0.00     0.370 C 
ATOM      7  O   UNL A   1      31.313  25.414  26.797  1.00  0.00    -0.245 OA
BRANCH   6   8
ATOM      8  C   UNL A   1      31.969  25.615  24.473  1.00  0.00     0.329 C 
BRANCH   8   9
ATOM      9  N   UNL A   1      30.883  26.115  23.543  1.00  0.00    -0.309 N 
ATOM     10  C   UNL A   1      30.860  27.346  22.736  1.00  0.00     0.275 C 
ATOM     11  C   UNL A   1      29.892  28.274  23.457  1.00  0.00     0.081 C 
ATOM     12  C   UNL A   1      28.813  27.323  23.885  1.00  0.00     0.068 C 
ATOM     13  C   UNL A   1      29.508  25.977  23.980  1.00  0.00     0.264 C 
ATOM     14  H   UNL A   1      31.301  25.420  22.923  1.00  0.00     0.349 HD
BRANCH  10  15
ATOM     15  C   UNL A   1      32.092  28.079  22.259  1.00  0.00     0.275 C 
ATOM     16  N   UNL A   1      32.982  27.237  21.614  1.00  0.00    -0.365 N 
ATOM     17  H   UNL A   1      33.826  27.594  21.255  1.00  0.00     0.159 HD
ATOM     18  H   UNL A   1      32.770  26.280  21.514  1.00  0.00     0.159 HD
ATOM     19  O   UNL A   1      32.350  29.263  22.403  1.00  0.00    -0.268 OA
ENDBRANCH  10  15
ENDBRANCH   8   9
BRANCH   8  20
ATOM     20  C   UNL A   1      32.626  24.150  24.077  1.00  0.00     0.046 A 
ATOM     21  C   UNL A   1      31.855  23.029  24.390  1.00  0.00     0.094 A 
ATOM     22  C   UNL A   1      33.944  23.451  24.067  1.00  0.00     0.009 A 
ATOM     23  N   UNL A   1      32.368  22.627  25.629  1.00  0.00    -0.361 N 
ATOM     24  C   UNL A   1      33.784  22.422  25.515  1.00  0.00     0.050 A 
ATOM     25  C   UNL A   1      35.555  23.417  23.286  1.00  0.00     0.015 A 
ATOM     26  H   UNL A   1      31.839  22.505  26.451  1.00  0.00     0.166 HD
ATOM     27  C   UNL A   1      35.400  21.459  26.233  1.00  0.00     0.073 A 
ATOM     28  C   UNL A   1      37.002  22.554  23.917  1.00  0.00     0.047 A 
ATOM     29  C   UNL A   1      36.987  21.626  25.400  1.00  0.00     0.121 A 
BRANCH  29  30
ATOM     30  O   UNL A   1      37.863  22.194  26.398  1.00  0.00    -0.489 OA
BRANCH  30  31
ATOM     31  C   UNL A   1      39.268  22.101  26.261  1.00  0.00     0.265 C 
BRANCH  31  32
ATOM     32  C   UNL A   1      40.122  23.098  26.985  1.00  0.00    -0.011 A 
ATOM     33  C   UNL A   1      41.166  22.623  27.786  1.00  0.00     0.007 A 
ATOM     34  C   UNL A   1      39.933  24.479  26.840  1.00  0.00     0.007 A 
ATOM     35  C   UNL A   1      41.995  23.509  28.463  1.00  0.00     0.000 A 
ATOM     36  C   UNL A   1      40.786  25.365  27.495  1.00  0.00     0.000 A 
ATOM     37  C   UNL A   1      41.809  24.878  28.313  1.00  0.00     0.000 A 
ENDBRANCH  31  32
ENDBRANCH  30  31
ENDBRANCH  29  30
ENDBRANCH   8  20
ENDBRANCH   6   8
ENDBRANCH   5   6
ENDBRANCH   4   5
ENDBRANCH   3   4
ENDBRANCH   2   3
ENDBRANCH   1   2
BRANCH   1  38
ATOM     38  C   UNL A   1      33.995  32.435  28.270  1.00  0.00     0.188 C 
BRANCH  38  39
ATOM     39  O   UNL A   1      34.712  32.560  29.484  1.00  0.00    -0.376 OA
BRANCH  39  40
ATOM     40  C   UNL A   1      35.751  31.613  29.743  1.00  0.00     0.202 C 
BRANCH  40  41
ATOM     41  C   UNL A   1      35.924  30.998  31.141  1.00  0.00     0.261 C 
BRANCH  41  42
ATOM     42  O   UNL A   1      35.943  31.973  32.194  1.00  0.00    -0.460 OA
BRANCH  42  43
ATOM     43  C   UNL A   1      36.707  31.961  33.304  1.00  0.00     0.338 C 
ATOM     44  O   UNL A   1      36.441  32.426  34.393  1.00  0.00    -0.246 OA
BRANCH  43  45
ATOM     45  C   UNL A   1      37.925  31.181  32.932  1.00  0.00     0.060 A 
ATOM     46  C   UNL A   1      38.189  29.455  33.198  1.00  0.00     0.016 A 
ATOM     47  C   UNL A   1      39.309  32.140  32.339  1.00  0.00     0.016 A 
ATOM     48  C   UNL A   1      39.797  28.658  32.994  1.00  0.00     0.010 A 
ATOM     49  C   UNL A   1      41.110  31.263  32.102  1.00  0.00     0.010 A 
ATOM     50  C   UNL A   1      41.269  29.512  32.461  1.00  0.00    -0.014 A 
BRANCH  50  51
ATOM     51  C   UNL A   1      42.644  28.946  32.535  1.00  0.00     0.031 A 
ATOM     52  C   UNL A   1      43.388  28.978  33.841  1.00  0.00     0.074 A 
ATOM     53  C   UNL A   1      43.320  28.584  31.428  1.00  0.00     0.049 A 
ATOM     54  N   UNL A   1      44.520  28.429  34.201  1.00  0.00    -0.248 NA
ATOM     55  C   UNL A   1      42.764  29.783  34.890  1.00  0.00     0.031 C 
ATOM     56  C   UNL A   1      42.844  28.697  30.052  1.00  0.00     0.029 A 
ATOM     57  N   UNL A   1      44.577  28.046  31.294  1.00  0.00    -0.354 N 
ATOM     58  C   UNL A   1      44.746  28.847  35.513  1.00  0.00     0.074 A 
ATOM     59  C   UNL A   1      43.606  29.628  35.892  1.00  0.00     0.031 C 
ATOM     60  C   UNL A   1      43.766  28.191  29.218  1.00  0.00     0.029 A 
ATOM     61  C   UNL A   1      44.898  27.712  29.999  1.00  0.00     0.049 A 
ATOM     62  H   UNL A   1      45.190  27.913  32.053  1.00  0.00     0.167 HD
ATOM     63  C   UNL A   1      45.810  28.648  36.331  1.00  0.00     0.034 A 
ATOM     64  C   UNL A   1      45.965  27.051  29.508  1.00  0.00     0.034 A 
ATOM     65  C   UNL A   1      46.948  27.878  35.930  1.00  0.00     0.049 A 
ATOM     66  C   UNL A   1      47.015  26.568  30.469  1.00  0.00     0.074 A 
ATOM     67  C   UNL A   1      48.025  27.455  36.684  1.00  0.00     0.029 A 
ATOM     68  N   UNL A   1      47.154  27.429  34.637  1.00  0.00    -0.354 N 
ATOM     69  N   UNL A   1      47.128  26.801  31.755  1.00  0.00    -0.248 NA
ATOM     70  C   UNL A   1      48.053  25.681  29.927  1.00  0.00     0.031 C 
ATOM     71  C   UNL A   1      48.890  26.752  35.840  1.00  0.00     0.029 A 
ATOM     72  C   UNL A   1      48.317  26.692  34.578  1.00  0.00     0.049 A 
ATOM     73  H   UNL A   1      46.559  27.609  33.873  1.00  0.00     0.167 HD
ATOM     74  C   UNL A   1      48.224  26.061  32.182  1.00  0.00     0.074 A 
ATOM     75  C   UNL A   1      48.724  25.353  31.022  1.00  0.00     0.031 C 
ATOM     76  C   UNL A   1      48.771  25.976  33.419  1.00  0.00     0.034 A 
BRANCH  63  77
ATOM     77  C   UNL A   1      45.791  29.253  37.725  1.00  0.00     0.023 A 
ATOM     78  C   UNL A   1      46.070  30.627  37.903  1.00  0.00     0.012 A 
ATOM     79  C   UNL A   1      45.458  28.483  38.861  1.00  0.00     0.148 A 
ATOM     80  C   UNL A   1      46.102  31.200  39.174  1.00  0.00     0.002 A 
ATOM     81  C   UNL A   1      45.410  29.081  40.118  1.00  0.00     0.091 A 
ATOM     82  F   UNL A   1      45.206  27.176  38.700  1.00  0.00    -0.205 F 
ATOM     83  C   UNL A   1      45.762  30.430  40.280  1.00  0.00     0.022 A 
BRANCH  81  84
ATOM     84  S   UNL A   1      44.854  28.222  41.596  1.00  0.00     0.127 S 
ATOM     85  O   UNL A   1      46.117  28.002  42.302  1.00  0.00    -0.237 OA
ATOM     86  O   UNL A   1      43.979  29.218  42.212  1.00  0.00    -0.237 OA
ATOM     87  O   UNL A   1      44.182  27.015  41.137  1.00  0.00    -0.744 OA
ENDBRANCH  81  84
ENDBRANCH  63  77
BRANCH  64  88
ATOM     88  C   UNL A   1      46.004  26.680  28.066  1.00  0.00     0.023 A 
ATOM     89  C   UNL A   1      45.391  25.483  27.641  1.00  0.00     0.012 A 
ATOM     90  C   UNL A   1      46.595  27.523  27.109  1.00  0.00     0.148 A 
ATOM     91  C   UNL A   1      45.401  25.113  26.296  1.00  0.00     0.002 A 
ATOM     92  C   UNL A   1      46.554  27.177  25.763  1.00  0.00     0.091 A 
ATOM     93  F   UNL A   1      47.167  28.659  27.533  1.00  0.00    -0.205 F 
ATOM     94  C   UNL A   1      45.974  25.965  25.357  1.00  0.00     0.022 A 
BRANCH  92  95
ATOM     95  S   UNL A   1      47.156  28.269  24.470  1.00  0.00     0.127 S 
ATOM     96  O   UNL A   1      48.602  28.116  24.602  1.00  0.00    -0.237 OA
ATOM     97  O   UNL A   1      46.578  27.662  23.271  1.00  0.00    -0.237 OA
ATOM     98  O   UNL A   1      46.629  29.588  24.792  1.00  0.00    -0.744 OA
ENDBRANCH  92  95
ENDBRANCH  64  88
BRANCH  76  99
ATOM     99  C   UNL A   1      49.927  25.039  33.610  1.00  0.00     0.023 A 
ATOM    100  C   UNL A   1      51.250  25.501  33.488  1.00  0.00     0.012 A 
ATOM    101  C   UNL A   1      49.683  23.705  33.990  1.00  0.00     0.148 A 
ATOM    102  C   UNL A   1      52.318  24.632  33.697  1.00  0.00     0.002 A 
ATOM    103  C   UNL A   1      50.751  22.863  34.257  1.00  0.00     0.091 A 
ATOM    104  F   UNL A   1      48.412  23.288  34.087  1.00  0.00    -0.205 F 
ATOM    105  C   UNL A   1      52.070  23.318  34.092  1.00  0.00     0.022 A 
BRANCH 103 106
ATOM    106  S   UNL A   1      50.522  21.195  34.878  1.00  0.00     0.127 S 
ATOM    107  O   UNL A   1      49.819  20.558  33.766  1.00  0.00    -0.237 OA
ATOM    108  O   UNL A   1      51.902  20.746  35.067  1.00  0.00    -0.237 OA
ATOM    109  O   UNL A   1      49.754  21.322  36.108  1.00  0.00    -0.744 OA
ENDBRANCH 103 106
ENDBRANCH  76  99
ENDBRANCH  50  51
ENDBRANCH  43  45
ENDBRANCH  42  43
ENDBRANCH  41  42
ENDBRANCH  40  41
ENDBRANCH  39  40
ENDBRANCH  38  39
ENDBRANCH   1  38
TORSDOF 26
ENDMDL
MODEL 3
REMARK VINA RESULT:      -9.2      6.604     12.027
REMARK SMILES NC(=O)[C@@H]1CCC[N@@H+]1[C@@H](C(=O)OCCOCCOCCOC(=O)c1ccc(-c2c3nc(c(-c4cccc(S(=O)(=O)[O-])c4F)c4ccc([nH]4)c(-c4cccc(S(=O)(=O)[O-])c4F)c4nc(c(-c5cccc(S(=O)(=O)[O-])c5F)c5ccc2[nH]5)C=C4)C=C3)cc1)c1c[nH]c2cc(OCc3ccccc3)ccc12
REMARK SMILES IDX 16 1 15 2 14 3 13 4 12 5 10 6 11 7 9 8 8 9 4 10 5 11 6 12
REMARK SMILES IDX 7 13 2 15 1 16 3 19 87 20 88 21 103 22 89 23 90 24 102 25
REMARK SMILES IDX 91 27 101 28 92 29 93 30 94 31 95 32 96 33 100 34 97 35
REMARK SMILES IDX 99 36 98 37 17 38 18 39 19 40 20 41 21 42 22 43 23 44 24 45
REMARK SMILES IDX 25 46 86 47 26 48 85 49 27 50 28 51 29 52 79 53 30 54 84 55
REMARK SMILES IDX 78 56 80 57 31 58 83 59 77 60 76 61 32 63 64 64 44 65 63 66
REMARK SMILES IDX 45 67 48 68 62 69 81 70 46 71 47 72 61 74 82 75 49 76 33 77
REMARK SMILES IDX 34 78 42 79 35 80 37 81 43 82 36 83 38 84 39 85 40 86 41 87
REMARK SMILES IDX 65 88 66 89 74 90 67 91 69 92 75 93 68 94 70 95 71 96 72 97
REMARK SMILES IDX 73 98 50 99 51 100 59 101 52 102 54 103 60 104 53 105 55 106
REMARK SMILES IDX 56 107 57 108 58 109
REMARK H PARENT 8 14 1 17 1 18 89 26 80 62 48 73
REMARK Flexibility Score: inf
ROOT
ATOM      1  C   UNL A   1      35.139  32.063  30.780  1.00  0.00     0.188 C 
ENDROOT
BRANCH   1   2
ATOM      2  O   UNL A   1      35.029  32.453  29.428  1.00  0.00    -0.376 OA
BRANCH   2   3
ATOM      3  C   UNL A   1      34.996  31.397  28.478  1.00  0.00     0.202 C 
BRANCH   3   4
ATOM      4  C   UNL A   1      33.793  31.321  27.519  1.00  0.00     0.261 C 
BRANCH   4   5
ATOM      5  O   UNL A   1      33.795  30.165  26.647  1.00  0.00    -0.459 OA
BRANCH   5   6
ATOM      6  C   UNL A   1      32.631  29.454  26.577  1.00  0.00     0.370 C 
ATOM      7  O   UNL A   1      31.830  29.390  27.510  1.00  0.00    -0.245 OA
BRANCH   6   8
ATOM      8  C   UNL A   1      32.372  28.774  25.230  1.00  0.00     0.329 C 
BRANCH   8   9
ATOM      9  N   UNL A   1      30.950  28.481  24.796  1.00  0.00    -0.309 N 
ATOM     10  C   UNL A   1      30.241  27.190  24.784  1.00  0.00     0.275 C 
ATOM     11  C   UNL A   1      30.179  26.787  23.317  1.00  0.00     0.081 C 
ATOM     12  C   UNL A   1      29.903  28.101  22.646  1.00  0.00     0.068 C 
ATOM     13  C   UNL A   1      30.464  29.139  23.601  1.00  0.00     0.264 C 
ATOM     14  H   UNL A   1      30.746  28.866  25.718  1.00  0.00     0.349 HD
BRANCH  10  15
ATOM     15  C   UNL A   1      30.582  26.019  25.676  1.00  0.00     0.275 C 
ATOM     16  N   UNL A   1      30.448  24.808  25.019  1.00  0.00    -0.365 N 
ATOM     17  H   UNL A   1      30.642  23.967  25.491  1.00  0.00     0.159 HD
ATOM     18  H   UNL A   1      30.160  24.789  24.076  1.00  0.00     0.159 HD
ATOM     19  O   UNL A   1      30.922  26.056  26.847  1.00  0.00    -0.268 OA
ENDBRANCH  10  15
ENDBRANCH   8   9
BRANCH   8  20
ATOM     20  C   UNL A   1      33.522  27.743  24.641  1.00  0.00     0.046 A 
ATOM     21  C   UNL A   1      34.055  28.070  23.393  1.00  0.00     0.094 A 
ATOM     22  C   UNL A   1      33.828  26.284  24.577  1.00  0.00     0.009 A 
ATOM     23  N   UNL A   1      33.289  27.301  22.508  1.00  0.00    -0.361 N 
ATOM     24  C   UNL A   1      33.360  25.920  22.895  1.00  0.00     0.050 A 
ATOM     25  C   UNL A   1      34.290  24.861  25.561  1.00  0.00     0.015 A 
ATOM     26  H   UNL A   1      32.781  27.653  21.741  1.00  0.00     0.166 HD
ATOM     27  C   UNL A   1      33.234  24.003  22.291  1.00  0.00     0.073 A 
ATOM     28  C   UNL A   1      34.187  23.146  25.027  1.00  0.00     0.047 A 
ATOM     29  C   UNL A   1      33.613  22.673  23.443  1.00  0.00     0.121 A 
BRANCH  29  30
ATOM     30  O   UNL A   1      32.395  21.902  23.521  1.00  0.00    -0.489 OA
BRANCH  30  31
ATOM     31  C   UNL A   1      32.284  20.821  24.427  1.00  0.00     0.265 C 
BRANCH  31  32
ATOM     32  C   UNL A   1      32.905  19.510  24.051  1.00  0.00    -0.011 A 
ATOM     33  C   UNL A   1      32.336  18.780  23.001  1.00  0.00     0.007 A 
ATOM     34  C   UNL A   1      34.058  19.027  24.685  1.00  0.00     0.007 A 
ATOM     35  C   UNL A   1      32.887  17.568  22.605  1.00  0.00     0.000 A 
ATOM     36  C   UNL A   1      34.626  17.827  24.263  1.00  0.00     0.000 A 
ATOM     37  C   UNL A   1      34.034  17.095  23.231  1.00  0.00     0.000 A 
ENDBRANCH  31  32
ENDBRANCH  30  31
ENDBRANCH  29  30
ENDBRANCH   8  20
ENDBRANCH   6   8
ENDBRANCH   5   6
ENDBRANCH   4   5
ENDBRANCH   3   4
ENDBRANCH   2   3
ENDBRANCH   1   2
BRANCH   1  38
ATOM     38  C   UNL A   1      36.541  31.747  31.324  1.00  0.00     0.188 C 
BRANCH  38  39
ATOM     39  O   UNL A   1      37.078  32.569  32.344  1.00  0.00    -0.376 OA
BRANCH  39  40
ATOM     40  C   UNL A   1      37.861  31.940  33.361  1.00  0.00     0.202 C 
BRANCH  40  41
ATOM     41  C   UNL A   1      38.548  32.775  34.453  1.00  0.00     0.261 C 
BRANCH  41  42
ATOM     42  O   UNL A   1      38.962  32.000  35.588  1.00  0.00    -0.460 OA
BRANCH  42  43
ATOM     43  C   UNL A   1      39.367  32.461  36.787  1.00  0.00     0.338 C 
ATOM     44  O   UNL A   1      39.098  32.013  37.883  1.00  0.00    -0.246 OA
BRANCH  43  45
ATOM     45  C   UNL A   1      40.284  33.599  36.481  1.00  0.00     0.060 A 
ATOM     46  C   UNL A   1      39.815  35.276  36.187  1.00  0.00     0.016 A 
ATOM     47  C   UNL A   1      41.991  33.164  36.196  1.00  0.00     0.016 A 
ATOM     48  C   UNL A   1      40.948  36.518  35.530  1.00  0.00     0.010 A 
ATOM     49  C   UNL A   1      43.271  34.542  35.467  1.00  0.00     0.010 A 
ATOM     50  C   UNL A   1      42.662  36.200  35.152  1.00  0.00    -0.014 A 
BRANCH  50  51
ATOM     51  C   UNL A   1      43.537  37.121  34.376  1.00  0.00     0.031 A 
ATOM     52  C   UNL A   1      43.588  37.005  32.878  1.00  0.00     0.074 A 
ATOM     53  C   UNL A   1      44.434  37.921  34.982  1.00  0.00     0.049 A 
ATOM     54  N   UNL A   1      44.148  37.768  31.973  1.00  0.00    -0.248 NA
ATOM     55  C   UNL A   1      42.928  35.824  32.325  1.00  0.00     0.031 C 
ATOM     56  C   UNL A   1      44.688  38.002  36.418  1.00  0.00     0.029 A 
ATOM     57  N   UNL A   1      45.316  38.830  34.445  1.00  0.00    -0.354 N 
ATOM     58  C   UNL A   1      43.919  37.138  30.750  1.00  0.00     0.074 A 
ATOM     59  C   UNL A   1      43.120  35.983  31.030  1.00  0.00     0.031 C 
ATOM     60  C   UNL A   1      45.612  38.945  36.657  1.00  0.00     0.029 A 
ATOM     61  C   UNL A   1      46.015  39.543  35.391  1.00  0.00     0.049 A 
ATOM     62  H   UNL A   1      45.435  38.958  33.477  1.00  0.00     0.167 HD
ATOM     63  C   UNL A   1      44.357  37.449  29.504  1.00  0.00     0.034 A 
ATOM     64  C   UNL A   1      46.849  40.592  35.251  1.00  0.00     0.034 A 
ATOM     65  C   UNL A   1      45.169  38.598  29.243  1.00  0.00     0.049 A 
ATOM     66  C   UNL A   1      47.105  41.127  33.869  1.00  0.00     0.074 A 
ATOM     67  C   UNL A   1      45.560  39.135  28.031  1.00  0.00     0.029 A 
ATOM     68  N   UNL A   1      45.730  39.382  30.237  1.00  0.00    -0.354 N 
ATOM     69  N   UNL A   1      46.725  40.640  32.712  1.00  0.00    -0.248 NA
ATOM     70  C   UNL A   1      47.853  42.388  33.774  1.00  0.00     0.031 C 
ATOM     71  C   UNL A   1      46.368  40.246  28.295  1.00  0.00     0.029 A 
ATOM     72  C   UNL A   1      46.426  40.428  29.669  1.00  0.00     0.049 A 
ATOM     73  H   UNL A   1      45.645  39.218  31.203  1.00  0.00     0.167 HD
ATOM     74  C   UNL A   1      47.154  41.552  31.756  1.00  0.00     0.074 A 
ATOM     75  C   UNL A   1      47.799  42.632  32.472  1.00  0.00     0.031 C 
ATOM     76  C   UNL A   1      47.030  41.501  30.407  1.00  0.00     0.034 A 
BRANCH  63  77
ATOM     77  C   UNL A   1      43.964  36.553  28.340  1.00  0.00     0.023 A 
ATOM     78  C   UNL A   1      42.707  36.714  27.717  1.00  0.00     0.012 A 
ATOM     79  C   UNL A   1      44.848  35.577  27.828  1.00  0.00     0.148 A 
ATOM     80  C   UNL A   1      42.303  35.878  26.676  1.00  0.00     0.002 A 
ATOM     81  C   UNL A   1      44.471  34.802  26.734  1.00  0.00     0.091 A 
ATOM     82  F   UNL A   1      46.037  35.410  28.425  1.00  0.00    -0.205 F 
ATOM     83  C   UNL A   1      43.189  34.930  26.178  1.00  0.00     0.022 A 
BRANCH  81  84
ATOM     84  S   UNL A   1      45.577  33.641  25.921  1.00  0.00     0.127 S 
ATOM     85  O   UNL A   1      44.779  32.415  25.932  1.00  0.00    -0.237 OA
ATOM     86  O   UNL A   1      45.737  34.252  24.602  1.00  0.00    -0.237 OA
ATOM     87  O   UNL A   1      46.788  33.601  26.728  1.00  0.00    -0.744 OA
ENDBRANCH  81  84
ENDBRANCH  63  77
BRANCH  64  88
ATOM     88  C   UNL A   1      47.368  41.289  36.460  1.00  0.00     0.023 A 
ATOM     89  C   UNL A   1      48.609  40.900  37.007  1.00  0.00     0.012 A 
ATOM     90  C   UNL A   1      46.672  42.364  37.041  1.00  0.00     0.148 A 
ATOM     91  C   UNL A   1      49.126  41.542  38.133  1.00  0.00     0.002 A 
ATOM     92  C   UNL A   1      47.219  43.035  38.129  1.00  0.00     0.091 A 
ATOM     93  F   UNL A   1      45.498  42.722  36.503  1.00  0.00    -0.205 F 
ATOM     94  C   UNL A   1      48.436  42.615  38.687  1.00  0.00     0.022 A 
BRANCH  92  95
ATOM     95  S   UNL A   1      46.462  44.505  38.831  1.00  0.00     0.127 S 
ATOM     96  O   UNL A   1      46.325  45.359  37.655  1.00  0.00    -0.237 OA
ATOM     97  O   UNL A   1      45.205  43.973  39.357  1.00  0.00    -0.237 OA
ATOM     98  O   UNL A   1      47.390  44.978  39.849  1.00  0.00    -0.744 OA
ENDBRANCH  92  95
ENDBRANCH  64  88
BRANCH  76  99
ATOM     99  C   UNL A   1      47.535  42.670  29.614  1.00  0.00     0.023 A 
ATOM    100  C   UNL A   1      46.638  43.610  29.075  1.00  0.00     0.012 A 
ATOM    101  C   UNL A   1      48.923  42.868  29.476  1.00  0.00     0.148 A 
ATOM    102  C   UNL A   1      47.116  44.710  28.366  1.00  0.00     0.002 A 
ATOM    103  C   UNL A   1      49.392  43.997  28.824  1.00  0.00     0.091 A 
ATOM    104  F   UNL A   1      49.755  41.951  29.990  1.00  0.00    -0.205 F 
ATOM    105  C   UNL A   1      48.491  44.910  28.251  1.00  0.00     0.022 A 
BRANCH 103 106
ATOM    106  S   UNL A   1      51.141  44.389  28.727  1.00  0.00     0.127 S 
ATOM    107  O   UNL A   1      51.676  43.199  28.069  1.00  0.00    -0.237 OA
ATOM    108  O   UNL A   1      51.139  45.597  27.901  1.00  0.00    -0.237 OA
ATOM    109  O   UNL A   1      51.586  44.595  30.099  1.00  0.00    -0.744 OA
ENDBRANCH 103 106
ENDBRANCH  76  99
ENDBRANCH  50  51
ENDBRANCH  43  45
ENDBRANCH  42  43
ENDBRANCH  41  42
ENDBRANCH  40  41
ENDBRANCH  39  40
ENDBRANCH  38  39
ENDBRANCH   1  38
TORSDOF 26
ENDMDL
