MODEL 1
REMARK VINA RESULT:     -11.4      0.000      0.000
REMARK SMILES O=C(OCCOCCOCCOC(=O)[C@H]1CC[C@@H]2CCCC[C@H]2N1C(=O)N1CCSCC1)c1ccc(-c2c3nc(c(-c4cccc(S(=O)(=O)[O-])c4F)c4ccc([nH]4)c(-c4cccc(S(=O)(=O)[O-])c4F)c4nc(c(-c5cccc(S(=O)(=O)[O-])c5F)c5ccc2[nH]5)C=C4)C=C3)cc1
REMARK SMILES IDX 7 1 6 2 5 3 4 4 3 5 2 6 1 7 33 8 34 9 95 10 35 11 94 12
REMARK SMILES IDX 36 13 37 14 38 15 88 16 39 17 93 18 87 19 89 20 40 21 92 22
REMARK SMILES IDX 86 23 85 24 41 26 73 27 53 28 72 29 54 30 57 31 71 32 90 33
REMARK SMILES IDX 55 34 56 35 70 37 91 38 58 39 42 40 43 41 51 42 44 43 46 44
REMARK SMILES IDX 52 45 45 46 47 47 48 48 49 49 50 50 74 51 75 52 83 53 76 54
REMARK SMILES IDX 78 55 84 56 77 57 79 58 80 59 81 60 82 61 59 62 60 63 68 64
REMARK SMILES IDX 61 65 63 66 69 67 62 68 64 69 65 70 66 71 67 72 8 73 9 74
REMARK SMILES IDX 10 75 11 76 12 77 13 78 14 79 15 80 16 81 24 82 17 83 23 84
REMARK SMILES IDX 18 85 22 86 19 87 21 88 20 89 25 90 26 91 27 92 28 93 32 94
REMARK SMILES IDX 29 95 31 96 30 97
REMARK H PARENT 89 25 57 36
REMARK Flexibility Score: inf
ROOT
ATOM      1  C   UNL A   1      32.373  28.701  23.621  1.00  0.00     0.188 C 
ENDROOT
BRANCH   1   2
ATOM      2  O   UNL A   1      32.684  29.545  24.731  1.00  0.00    -0.376 OA
BRANCH   2   3
ATOM      3  C   UNL A   1      31.548  30.023  25.473  1.00  0.00     0.202 C 
BRANCH   3   4
ATOM      4  C   UNL A   1      31.845  31.037  26.593  1.00  0.00     0.261 C 
BRANCH   4   5
ATOM      5  O   UNL A   1      33.194  30.869  27.035  1.00  0.00    -0.460 OA
BRANCH   5   6
ATOM      6  C   UNL A   1      33.778  31.933  27.654  1.00  0.00     0.338 C 
ATOM      7  O   UNL A   1      33.309  33.025  27.843  1.00  0.00    -0.246 OA
BRANCH   6   8
ATOM      8  C   UNL A   1      35.152  31.482  27.978  1.00  0.00     0.060 A 
ATOM      9  C   UNL A   1      35.329  30.134  28.309  1.00  0.00     0.016 A 
ATOM     10  C   UNL A   1      36.226  32.369  28.026  1.00  0.00     0.016 A 
ATOM     11  C   UNL A   1      36.517  29.699  28.847  1.00  0.00     0.010 A 
ATOM     12  C   UNL A   1      37.457  31.909  28.515  1.00  0.00     0.010 A 
ATOM     13  C   UNL A   1      37.587  30.583  28.969  1.00  0.00    -0.014 A 
BRANCH  13  14
ATOM     14  C   UNL A   1      38.762  30.101  29.726  1.00  0.00     0.031 A 
ATOM     15  C   UNL A   1      39.644  29.078  29.097  1.00  0.00     0.074 A 
ATOM     16  C   UNL A   1      39.168  30.726  30.847  1.00  0.00     0.049 A 
ATOM     17  N   UNL A   1      40.706  28.515  29.599  1.00  0.00    -0.248 NA
ATOM     18  C   UNL A   1      39.336  28.677  27.714  1.00  0.00     0.031 C 
ATOM     19  C   UNL A   1      38.519  31.901  31.404  1.00  0.00     0.029 A 
ATOM     20  N   UNL A   1      40.207  30.500  31.711  1.00  0.00    -0.354 N 
ATOM     21  C   UNL A   1      41.181  27.675  28.610  1.00  0.00     0.074 A 
ATOM     22  C   UNL A   1      40.304  27.805  27.468  1.00  0.00     0.031 C 
ATOM     23  C   UNL A   1      39.172  32.306  32.503  1.00  0.00     0.029 A 
ATOM     24  C   UNL A   1      40.162  31.311  32.825  1.00  0.00     0.049 A 
ATOM     25  H   UNL A   1      40.911  29.831  31.552  1.00  0.00     0.167 HD
ATOM     26  C   UNL A   1      42.262  26.870  28.671  1.00  0.00     0.034 A 
ATOM     27  C   UNL A   1      40.755  31.194  34.026  1.00  0.00     0.034 A 
ATOM     28  C   UNL A   1      43.110  26.768  29.826  1.00  0.00     0.049 A 
ATOM     29  C   UNL A   1      41.752  30.101  34.170  1.00  0.00     0.074 A 
ATOM     30  C   UNL A   1      44.227  25.977  30.005  1.00  0.00     0.029 A 
ATOM     31  N   UNL A   1      42.912  27.460  31.012  1.00  0.00    -0.354 N 
ATOM     32  N   UNL A   1      42.168  29.268  33.249  1.00  0.00    -0.248 NA
ATOM     33  C   UNL A   1      42.394  29.959  35.477  1.00  0.00     0.031 C 
ATOM     34  C   UNL A   1      44.672  26.148  31.319  1.00  0.00     0.029 A 
ATOM     35  C   UNL A   1      43.857  27.079  31.946  1.00  0.00     0.049 A 
ATOM     36  H   UNL A   1      42.203  28.125  31.167  1.00  0.00     0.167 HD
ATOM     37  C   UNL A   1      43.167  28.530  33.848  1.00  0.00     0.074 A 
ATOM     38  C   UNL A   1      43.279  29.007  35.215  1.00  0.00     0.031 C 
ATOM     39  C   UNL A   1      43.938  27.564  33.300  1.00  0.00     0.034 A 
BRANCH  26  40
ATOM     40  C   UNL A   1      42.529  25.992  27.488  1.00  0.00     0.023 A 
ATOM     41  C   UNL A   1      43.246  26.477  26.378  1.00  0.00     0.012 A 
ATOM     42  C   UNL A   1      42.073  24.661  27.500  1.00  0.00     0.148 A 
ATOM     43  C   UNL A   1      43.495  25.645  25.286  1.00  0.00     0.002 A 
ATOM     44  C   UNL A   1      42.358  23.830  26.429  1.00  0.00     0.091 A 
ATOM     45  F   UNL A   1      41.360  24.243  28.557  1.00  0.00    -0.205 F 
ATOM     46  C   UNL A   1      43.061  24.321  25.317  1.00  0.00     0.022 A 
BRANCH  44  47
ATOM     47  S   UNL A   1      41.884  22.100  26.398  1.00  0.00     0.127 S 
ATOM     48  O   UNL A   1      40.425  22.194  26.360  1.00  0.00    -0.237 OA
ATOM     49  O   UNL A   1      42.501  21.641  25.155  1.00  0.00    -0.237 OA
ATOM     50  O   UNL A   1      42.429  21.508  27.612  1.00  0.00    -0.744 OA
ENDBRANCH  44  47
ENDBRANCH  26  40
BRANCH  27  51
ATOM     51  C   UNL A   1      40.375  32.050  35.184  1.00  0.00     0.023 A 
ATOM     52  C   UNL A   1      41.123  33.196  35.494  1.00  0.00     0.012 A 
ATOM     53  C   UNL A   1      39.279  31.703  36.004  1.00  0.00     0.148 A 
ATOM     54  C   UNL A   1      40.786  33.981  36.601  1.00  0.00     0.002 A 
ATOM     55  C   UNL A   1      38.918  32.514  37.078  1.00  0.00     0.091 A 
ATOM     56  F   UNL A   1      38.622  30.570  35.719  1.00  0.00    -0.205 F 
ATOM     57  C   UNL A   1      39.683  33.647  37.384  1.00  0.00     0.022 A 
BRANCH  55  58
ATOM     58  S   UNL A   1      37.495  32.170  38.126  1.00  0.00     0.127 S 
ATOM     59  O   UNL A   1      36.446  32.986  37.513  1.00  0.00    -0.237 OA
ATOM     60  O   UNL A   1      37.324  30.730  37.952  1.00  0.00    -0.237 OA
ATOM     61  O   UNL A   1      37.880  32.602  39.463  1.00  0.00    -0.744 OA
ENDBRANCH  55  58
ENDBRANCH  27  51
BRANCH  39  62
ATOM     62  C   UNL A   1      44.996  26.993  34.187  1.00  0.00     0.023 A 
ATOM     63  C   UNL A   1      46.262  27.604  34.254  1.00  0.00     0.012 A 
ATOM     64  C   UNL A   1      44.719  25.854  34.962  1.00  0.00     0.148 A 
ATOM     65  C   UNL A   1      47.254  27.063  35.067  1.00  0.00     0.002 A 
ATOM     66  C   UNL A   1      45.692  25.356  35.811  1.00  0.00     0.091 A 
ATOM     67  F   UNL A   1      43.513  25.278  34.845  1.00  0.00    -0.205 F 
ATOM     68  C   UNL A   1      46.965  25.949  35.853  1.00  0.00     0.022 A 
BRANCH  66  69
ATOM     69  S   UNL A   1      45.376  23.991  36.928  1.00  0.00     0.127 S 
ATOM     70  O   UNL A   1      44.436  24.590  37.874  1.00  0.00    -0.237 OA
ATOM     71  O   UNL A   1      44.790  22.993  36.033  1.00  0.00    -0.237 OA
ATOM     72  O   UNL A   1      46.668  23.617  37.488  1.00  0.00    -0.744 OA
ENDBRANCH  66  69
ENDBRANCH  39  62
ENDBRANCH  13  14
ENDBRANCH   6   8
ENDBRANCH   5   6
ENDBRANCH   4   5
ENDBRANCH   3   4
ENDBRANCH   2   3
ENDBRANCH   1   2
BRANCH   1  73
ATOM     73  C   UNL A   1      33.471  28.555  22.560  1.00  0.00     0.188 C 
BRANCH  73  74
ATOM     74  O   UNL A   1      33.805  27.235  22.156  1.00  0.00    -0.376 OA
BRANCH  74  75
ATOM     75  C   UNL A   1      32.721  26.435  21.700  1.00  0.00     0.202 C 
BRANCH  75  76
ATOM     76  C   UNL A   1      32.866  24.904  21.752  1.00  0.00     0.261 C 
BRANCH  76  77
ATOM     77  O   UNL A   1      32.776  24.300  23.059  1.00  0.00    -0.462 OA
BRANCH  77  78
ATOM     78  C   UNL A   1      31.664  23.531  23.260  1.00  0.00     0.329 C 
ATOM     79  O   UNL A   1      30.547  24.004  23.466  1.00  0.00    -0.250 OA
BRANCH  78  80
ATOM     80  C   UNL A   1      31.915  22.000  23.208  1.00  0.00     0.197 C 
ATOM     81  C   UNL A   1      32.166  21.429  21.812  1.00  0.00     0.038 C 
ATOM     82  N   UNL A   1      32.765  21.301  24.203  1.00  0.00    -0.308 N 
ATOM     83  C   UNL A   1      31.850  19.940  21.777  1.00  0.00     0.008 C 
ATOM     84  C   UNL A   1      32.450  19.813  24.254  1.00  0.00     0.091 C 
ATOM     85  C   UNL A   1      32.648  19.187  22.835  1.00  0.00     0.012 C 
ATOM     86  C   UNL A   1      33.194  18.918  25.259  1.00  0.00     0.025 C 
ATOM     87  C   UNL A   1      32.265  17.698  22.770  1.00  0.00     0.006 C 
ATOM     88  C   UNL A   1      32.758  17.453  25.191  1.00  0.00     0.002 C 
ATOM     89  C   UNL A   1      33.004  16.875  23.808  1.00  0.00     0.000 C 
BRANCH  82  90
ATOM     90  C   UNL A   1      33.082  22.031  25.357  1.00  0.00     0.321 C 
ATOM     91  O   UNL A   1      32.284  22.257  26.259  1.00  0.00    -0.248 OA
ATOM     92  N   UNL A   1      34.392  22.556  25.406  1.00  0.00    -0.323 N 
ATOM     93  C   UNL A   1      35.535  21.642  25.443  1.00  0.00     0.132 C 
ATOM     94  C   UNL A   1      34.553  23.784  26.186  1.00  0.00     0.132 C 
ATOM     95  C   UNL A   1      36.905  22.221  25.085  1.00  0.00     0.091 C 
ATOM     96  C   UNL A   1      35.760  24.625  25.776  1.00  0.00     0.091 C 
ATOM     97  S   UNL A   1      37.339  23.742  25.981  1.00  0.00    -0.158 SA
ENDBRANCH  82  90
ENDBRANCH  78  80
ENDBRANCH  77  78
ENDBRANCH  76  77
ENDBRANCH  75  76
ENDBRANCH  74  75
ENDBRANCH  73  74
ENDBRANCH   1  73
TORSDOF 21
ENDMDL
MODEL 2
REMARK VINA RESULT:     -10.3      1.328      7.443
REMARK SMILES O=C(OCCOCCOCCOC(=O)[C@H]1CC[C@@H]2CCCC[C@H]2N1C(=O)N1CCSCC1)c1ccc(-c2c3nc(c(-c4cccc(S(=O)(=O)[O-])c4F)c4ccc([nH]4)c(-c4cccc(S(=O)(=O)[O-])c4F)c4nc(c(-c5cccc(S(=O)(=O)[O-])c5F)c5ccc2[nH]5)C=C4)C=C3)cc1
REMARK SMILES IDX 7 1 6 2 5 3 4 4 3 5 2 6 1 7 33 8 34 9 95 10 35 11 94 12
REMARK SMILES IDX 36 13 37 14 38 15 88 16 39 17 93 18 87 19 89 20 40 21 92 22
REMARK SMILES IDX 86 23 85 24 41 26 73 27 53 28 72 29 54 30 57 31 71 32 90 33
REMARK SMILES IDX 55 34 56 35 70 37 91 38 58 39 42 40 43 41 51 42 44 43 46 44
REMARK SMILES IDX 52 45 45 46 47 47 48 48 49 49 50 50 74 51 75 52 83 53 76 54
REMARK SMILES IDX 78 55 84 56 77 57 79 58 80 59 81 60 82 61 59 62 60 63 68 64
REMARK SMILES IDX 61 65 63 66 69 67 62 68 64 69 65 70 66 71 67 72 8 73 9 74
REMARK SMILES IDX 10 75 11 76 12 77 13 78 14 79 15 80 16 81 24 82 17 83 23 84
REMARK SMILES IDX 18 85 22 86 19 87 21 88 20 89 25 90 26 91 27 92 28 93 32 94
REMARK SMILES IDX 29 95 31 96 30 97
REMARK H PARENT 89 25 57 36
REMARK Flexibility Score: inf
ROOT
ATOM      1  C   UNL A   1      32.334  30.015  25.910  1.00  0.00     0.188 C 
ENDROOT
BRANCH   1   2
ATOM      2  O   UNL A   1      31.180  30.848  25.797  1.00  0.00    -0.376 OA
BRANCH   2   3
ATOM      3  C   UNL A   1      31.285  32.129  26.443  1.00  0.00     0.202 C 
BRANCH   3   4
ATOM      4  C   UNL A   1      32.550  32.361  27.289  1.00  0.00     0.261 C 
BRANCH   4   5
ATOM      5  O   UNL A   1      32.789  33.766  27.404  1.00  0.00    -0.460 OA
BRANCH   5   6
ATOM      6  C   UNL A   1      33.278  34.213  28.595  1.00  0.00     0.338 C 
ATOM      7  O   UNL A   1      32.846  35.099  29.285  1.00  0.00    -0.246 OA
BRANCH   6   8
ATOM      8  C   UNL A   1      34.511  33.423  28.825  1.00  0.00     0.060 A 
ATOM      9  C   UNL A   1      34.391  32.233  29.550  1.00  0.00     0.016 A 
ATOM     10  C   UNL A   1      35.762  33.870  28.402  1.00  0.00     0.016 A 
ATOM     11  C   UNL A   1      35.511  31.577  30.003  1.00  0.00     0.010 A 
ATOM     12  C   UNL A   1      36.902  33.164  28.811  1.00  0.00     0.010 A 
ATOM     13  C   UNL A   1      36.776  32.042  29.652  1.00  0.00    -0.014 A 
BRANCH  13  14
ATOM     14  C   UNL A   1      37.928  31.406  30.324  1.00  0.00     0.031 A 
ATOM     15  C   UNL A   1      38.192  31.738  31.753  1.00  0.00     0.074 A 
ATOM     16  C   UNL A   1      38.586  30.381  29.751  1.00  0.00     0.049 A 
ATOM     17  N   UNL A   1      39.157  31.305  32.513  1.00  0.00    -0.248 NA
ATOM     18  C   UNL A   1      37.225  32.616  32.433  1.00  0.00     0.031 C 
ATOM     19  C   UNL A   1      38.239  29.812  28.460  1.00  0.00     0.029 A 
ATOM     20  N   UNL A   1      39.653  29.622  30.154  1.00  0.00    -0.354 N 
ATOM     21  C   UNL A   1      38.933  31.875  33.753  1.00  0.00     0.074 A 
ATOM     22  C   UNL A   1      37.734  32.677  33.655  1.00  0.00     0.031 C 
ATOM     23  C   UNL A   1      39.058  28.788  28.176  1.00  0.00     0.029 A 
ATOM     24  C   UNL A   1      40.097  28.760  29.174  1.00  0.00     0.049 A 
ATOM     25  H   UNL A   1      40.059  29.685  31.048  1.00  0.00     0.167 HD
ATOM     26  C   UNL A   1      39.680  31.727  34.867  1.00  0.00     0.034 A 
ATOM     27  C   UNL A   1      41.268  28.115  29.029  1.00  0.00     0.034 A 
ATOM     28  C   UNL A   1      40.867  30.921  34.923  1.00  0.00     0.049 A 
ATOM     29  C   UNL A   1      42.218  28.203  30.168  1.00  0.00     0.074 A 
ATOM     30  C   UNL A   1      41.710  30.706  35.996  1.00  0.00     0.029 A 
ATOM     31  N   UNL A   1      41.397  30.221  33.848  1.00  0.00    -0.354 N 
ATOM     32  N   UNL A   1      42.032  28.785  31.326  1.00  0.00    -0.248 NA
ATOM     33  C   UNL A   1      43.500  27.514  30.015  1.00  0.00     0.031 C 
ATOM     34  C   UNL A   1      42.780  29.922  35.554  1.00  0.00     0.029 A 
ATOM     35  C   UNL A   1      42.582  29.612  34.217  1.00  0.00     0.049 A 
ATOM     36  H   UNL A   1      40.989  30.165  32.954  1.00  0.00     0.167 HD
ATOM     37  C   UNL A   1      43.155  28.489  32.069  1.00  0.00     0.074 A 
ATOM     38  C   UNL A   1      44.021  27.689  31.222  1.00  0.00     0.031 C 
ATOM     39  C   UNL A   1      43.426  28.830  33.350  1.00  0.00     0.034 A 
BRANCH  26  40
ATOM     40  C   UNL A   1      39.272  32.513  36.073  1.00  0.00     0.023 A 
ATOM     41  C   UNL A   1      39.708  33.840  36.250  1.00  0.00     0.012 A 
ATOM     42  C   UNL A   1      38.426  31.921  37.029  1.00  0.00     0.148 A 
ATOM     43  C   UNL A   1      39.314  34.564  37.376  1.00  0.00     0.002 A 
ATOM     44  C   UNL A   1      38.006  32.659  38.124  1.00  0.00     0.091 A 
ATOM     45  F   UNL A   1      38.059  30.644  36.848  1.00  0.00    -0.205 F 
ATOM     46  C   UNL A   1      38.455  33.978  38.305  1.00  0.00     0.022 A 
BRANCH  44  47
ATOM     47  S   UNL A   1      36.865  32.009  39.345  1.00  0.00     0.127 S 
ATOM     48  O   UNL A   1      37.225  32.787  40.530  1.00  0.00    -0.237 OA
ATOM     49  O   UNL A   1      35.570  32.350  38.759  1.00  0.00    -0.237 OA
ATOM     50  O   UNL A   1      37.142  30.583  39.441  1.00  0.00    -0.744 OA
ENDBRANCH  44  47
ENDBRANCH  26  40
BRANCH  27  51
ATOM     51  C   UNL A   1      41.641  27.426  27.763  1.00  0.00     0.023 A 
ATOM     52  C   UNL A   1      41.896  28.168  26.600  1.00  0.00     0.012 A 
ATOM     53  C   UNL A   1      41.711  26.017  27.707  1.00  0.00     0.148 A 
ATOM     54  C   UNL A   1      42.213  27.519  25.403  1.00  0.00     0.002 A 
ATOM     55  C   UNL A   1      42.075  25.376  26.524  1.00  0.00     0.091 A 
ATOM     56  F   UNL A   1      41.404  25.333  28.818  1.00  0.00    -0.205 F 
ATOM     57  C   UNL A   1      42.311  26.129  25.366  1.00  0.00     0.022 A 
BRANCH  55  58
ATOM     58  S   UNL A   1      42.249  23.588  26.395  1.00  0.00     0.127 S 
ATOM     59  O   UNL A   1      42.852  23.423  25.072  1.00  0.00    -0.237 OA
ATOM     60  O   UNL A   1      43.140  23.283  27.512  1.00  0.00    -0.237 OA
ATOM     61  O   UNL A   1      40.898  23.054  26.503  1.00  0.00    -0.744 OA
ENDBRANCH  55  58
ENDBRANCH  27  51
BRANCH  39  62
ATOM     62  C   UNL A   1      44.703  28.296  33.910  1.00  0.00     0.023 A 
ATOM     63  C   UNL A   1      45.871  29.081  33.872  1.00  0.00     0.012 A 
ATOM     64  C   UNL A   1      44.731  27.014  34.486  1.00  0.00     0.148 A 
ATOM     65  C   UNL A   1      47.065  28.577  34.377  1.00  0.00     0.002 A 
ATOM     66  C   UNL A   1      45.909  26.543  35.039  1.00  0.00     0.091 A 
ATOM     67  F   UNL A   1      43.607  26.282  34.474  1.00  0.00    -0.205 F 
ATOM     68  C   UNL A   1      47.081  27.316  34.972  1.00  0.00     0.022 A 
BRANCH  66  69
ATOM     69  S   UNL A   1      45.997  24.979  35.909  1.00  0.00     0.127 S 
ATOM     70  O   UNL A   1      45.177  24.117  35.059  1.00  0.00    -0.237 OA
ATOM     71  O   UNL A   1      47.431  24.689  35.872  1.00  0.00    -0.237 OA
ATOM     72  O   UNL A   1      45.464  25.225  37.242  1.00  0.00    -0.744 OA
ENDBRANCH  66  69
ENDBRANCH  39  62
ENDBRANCH  13  14
ENDBRANCH   6   8
ENDBRANCH   5   6
ENDBRANCH   4   5
ENDBRANCH   3   4
ENDBRANCH   2   3
ENDBRANCH   1   2
BRANCH   1  73
ATOM     73  C   UNL A   1      32.254  28.655  25.206  1.00  0.00     0.188 C 
BRANCH  73  74
ATOM     74  O   UNL A   1      31.315  27.718  25.717  1.00  0.00    -0.376 OA
BRANCH  74  75
ATOM     75  C   UNL A   1      31.008  26.623  24.863  1.00  0.00     0.202 C 
BRANCH  75  76
ATOM     76  C   UNL A   1      31.157  25.196  25.418  1.00  0.00     0.261 C 
BRANCH  76  77
ATOM     77  O   UNL A   1      30.882  24.122  24.495  1.00  0.00    -0.462 OA
BRANCH  77  78
ATOM     78  C   UNL A   1      31.941  23.752  23.714  1.00  0.00     0.329 C 
ATOM     79  O   UNL A   1      32.721  24.560  23.211  1.00  0.00    -0.250 OA
BRANCH  78  80
ATOM     80  C   UNL A   1      32.091  22.220  23.508  1.00  0.00     0.197 C 
ATOM     81  C   UNL A   1      32.198  21.768  22.050  1.00  0.00     0.038 C 
ATOM     82  N   UNL A   1      32.969  21.386  24.365  1.00  0.00    -0.308 N 
ATOM     83  C   UNL A   1      31.788  20.309  21.911  1.00  0.00     0.008 C 
ATOM     84  C   UNL A   1      32.567  19.920  24.310  1.00  0.00     0.091 C 
ATOM     85  C   UNL A   1      32.616  19.418  22.830  1.00  0.00     0.012 C 
ATOM     86  C   UNL A   1      33.328  18.896  25.168  1.00  0.00     0.025 C 
ATOM     87  C   UNL A   1      32.136  17.964  22.666  1.00  0.00     0.006 C 
ATOM     88  C   UNL A   1      32.798  17.470  25.008  1.00  0.00     0.002 C 
ATOM     89  C   UNL A   1      32.900  17.009  23.564  1.00  0.00     0.000 C 
BRANCH  82  90
ATOM     90  C   UNL A   1      33.419  21.988  25.548  1.00  0.00     0.321 C 
ATOM     91  O   UNL A   1      32.724  22.122  26.549  1.00  0.00    -0.248 OA
ATOM     92  N   UNL A   1      34.736  22.496  25.511  1.00  0.00    -0.323 N 
ATOM     93  C   UNL A   1      35.860  21.577  25.331  1.00  0.00     0.132 C 
ATOM     94  C   UNL A   1      35.000  23.634  26.394  1.00  0.00     0.132 C 
ATOM     95  C   UNL A   1      37.195  22.181  24.891  1.00  0.00     0.091 C 
ATOM     96  C   UNL A   1      36.172  24.506  25.948  1.00  0.00     0.091 C 
ATOM     97  S   UNL A   1      37.748  23.596  25.890  1.00  0.00    -0.158 SA
ENDBRANCH  82  90
ENDBRANCH  78  80
ENDBRANCH  77  78
ENDBRANCH  76  77
ENDBRANCH  75  76
ENDBRANCH  74  75
ENDBRANCH  73  74
ENDBRANCH   1  73
TORSDOF 21
ENDMDL
MODEL 3
REMARK VINA RESULT:     -10.1      2.351      7.746
REMARK SMILES O=C(OCCOCCOCCOC(=O)[C@H]1CC[C@@H]2CCCC[C@H]2N1C(=O)N1CCSCC1)c1ccc(-c2c3nc(c(-c4cccc(S(=O)(=O)[O-])c4F)c4ccc([nH]4)c(-c4cccc(S(=O)(=O)[O-])c4F)c4nc(c(-c5cccc(S(=O)(=O)[O-])c5F)c5ccc2[nH]5)C=C4)C=C3)cc1
REMARK SMILES IDX 7 1 6 2 5 3 4 4 3 5 2 6 1 7 33 8 34 9 95 10 35 11 94 12
REMARK SMILES IDX 36 13 37 14 38 15 88 16 39 17 93 18 87 19 89 20 40 21 92 22
REMARK SMILES IDX 86 23 85 24 41 26 73 27 53 28 72 29 54 30 57 31 71 32 90 33
REMARK SMILES IDX 55 34 56 35 70 37 91 38 58 39 42 40 43 41 51 42 44 43 46 44
REMARK SMILES IDX 52 45 45 46 47 47 48 48 49 49 50 50 74 51 75 52 83 53 76 54
REMARK SMILES IDX 78 55 84 56 77 57 79 58 80 59 81 60 82 61 59 62 60 63 68 64
REMARK SMILES IDX 61 65 63 66 69 67 62 68 64 69 65 70 66 71 67 72 8 73 9 74
REMARK SMILES IDX 10 75 11 76 12 77 13 78 14 79 15 80 16 81 24 82 17 83 23 84
REMARK SMILES IDX 18 85 22 86 19 87 21 88 20 89 25 90 26 91 27 92 28 93 32 94
REMARK SMILES IDX 29 95 31 96 30 97
REMARK H PARENT 89 25 57 36
REMARK Flexibility Score: inf
ROOT
ATOM      1  C   UNL A   1      32.252  29.841  25.955  1.00  0.00     0.188 C 
ENDROOT
BRANCH   1   2
ATOM      2  O   UNL A   1      31.347  30.941  25.856  1.00  0.00    -0.376 OA
BRANCH   2   3
ATOM      3  C   UNL A   1      31.671  32.075  26.680  1.00  0.00     0.202 C 
BRANCH   3   4
ATOM      4  C   UNL A   1      32.919  31.932  27.571  1.00  0.00     0.261 C 
BRANCH   4   5
ATOM      5  O   UNL A   1      33.651  33.159  27.555  1.00  0.00    -0.460 OA
BRANCH   5   6
ATOM      6  C   UNL A   1      33.503  33.980  28.633  1.00  0.00     0.338 C 
ATOM      7  O   UNL A   1      32.724  34.887  28.769  1.00  0.00    -0.246 OA
BRANCH   6   8
ATOM      8  C   UNL A   1      34.566  33.566  29.579  1.00  0.00     0.060 A 
ATOM      9  C   UNL A   1      35.891  33.847  29.227  1.00  0.00     0.016 A 
ATOM     10  C   UNL A   1      34.280  32.861  30.747  1.00  0.00     0.016 A 
ATOM     11  C   UNL A   1      36.932  33.289  29.931  1.00  0.00     0.010 A 
ATOM     12  C   UNL A   1      35.344  32.346  31.500  1.00  0.00     0.010 A 
ATOM     13  C   UNL A   1      36.671  32.522  31.064  1.00  0.00    -0.014 A 
BRANCH  13  14
ATOM     14  C   UNL A   1      37.816  31.801  31.657  1.00  0.00     0.031 A 
ATOM     15  C   UNL A   1      38.272  32.186  33.022  1.00  0.00     0.074 A 
ATOM     16  C   UNL A   1      38.294  30.676  31.092  1.00  0.00     0.049 A 
ATOM     17  N   UNL A   1      39.264  31.693  33.707  1.00  0.00    -0.248 NA
ATOM     18  C   UNL A   1      37.485  33.207  33.735  1.00  0.00     0.031 C 
ATOM     19  C   UNL A   1      37.747  30.074  29.889  1.00  0.00     0.029 A 
ATOM     20  N   UNL A   1      39.313  29.827  31.435  1.00  0.00    -0.354 N 
ATOM     21  C   UNL A   1      39.242  32.357  34.919  1.00  0.00     0.074 A 
ATOM     22  C   UNL A   1      38.131  33.282  34.890  1.00  0.00     0.031 C 
ATOM     23  C   UNL A   1      38.416  28.949  29.595  1.00  0.00     0.029 A 
ATOM     24  C   UNL A   1      39.551  28.863  30.478  1.00  0.00     0.049 A 
ATOM     25  H   UNL A   1      39.821  29.897  32.275  1.00  0.00     0.167 HD
ATOM     26  C   UNL A   1      40.088  32.192  35.956  1.00  0.00     0.034 A 
ATOM     27  C   UNL A   1      40.623  28.082  30.258  1.00  0.00     0.034 A 
ATOM     28  C   UNL A   1      41.182  31.262  35.946  1.00  0.00     0.049 A 
ATOM     29  C   UNL A   1      41.698  28.129  31.283  1.00  0.00     0.074 A 
ATOM     30  C   UNL A   1      42.112  31.017  36.938  1.00  0.00     0.029 A 
ATOM     31  N   UNL A   1      41.512  30.443  34.875  1.00  0.00    -0.354 N 
ATOM     32  N   UNL A   1      41.705  28.797  32.409  1.00  0.00    -0.248 NA
ATOM     33  C   UNL A   1      42.875  27.292  31.047  1.00  0.00     0.031 C 
ATOM     34  C   UNL A   1      43.037  30.092  36.444  1.00  0.00     0.029 A 
ATOM     35  C   UNL A   1      42.659  29.727  35.160  1.00  0.00     0.049 A 
ATOM     36  H   UNL A   1      41.003  30.381  34.034  1.00  0.00     0.167 HD
ATOM     37  C   UNL A   1      42.866  28.421  33.051  1.00  0.00     0.074 A 
ATOM     38  C   UNL A   1      43.543  27.479  32.177  1.00  0.00     0.031 C 
ATOM     39  C   UNL A   1      43.313  28.805  34.268  1.00  0.00     0.034 A 
BRANCH  26  40
ATOM     40  C   UNL A   1      39.903  33.090  37.140  1.00  0.00     0.023 A 
ATOM     41  C   UNL A   1      38.849  32.876  38.048  1.00  0.00     0.012 A 
ATOM     42  C   UNL A   1      40.807  34.146  37.353  1.00  0.00     0.148 A 
ATOM     43  C   UNL A   1      38.693  33.715  39.152  1.00  0.00     0.002 A 
ATOM     44  C   UNL A   1      40.669  34.951  38.472  1.00  0.00     0.091 A 
ATOM     45  F   UNL A   1      41.777  34.345  36.448  1.00  0.00    -0.205 F 
ATOM     46  C   UNL A   1      39.608  34.743  39.370  1.00  0.00     0.022 A 
BRANCH  44  47
ATOM     47  S   UNL A   1      41.824  36.267  38.862  1.00  0.00     0.127 S 
ATOM     48  O   UNL A   1      43.057  35.518  39.100  1.00  0.00    -0.237 OA
ATOM     49  O   UNL A   1      41.812  37.052  37.628  1.00  0.00    -0.237 OA
ATOM     50  O   UNL A   1      41.284  36.948  40.031  1.00  0.00    -0.744 OA
ENDBRANCH  44  47
ENDBRANCH  26  40
BRANCH  27  51
ATOM     51  C   UNL A   1      40.778  27.280  29.012  1.00  0.00     0.023 A 
ATOM     52  C   UNL A   1      40.094  26.065  28.863  1.00  0.00     0.012 A 
ATOM     53  C   UNL A   1      41.638  27.716  27.981  1.00  0.00     0.148 A 
ATOM     54  C   UNL A   1      40.265  25.295  27.709  1.00  0.00     0.002 A 
ATOM     55  C   UNL A   1      41.768  26.970  26.811  1.00  0.00     0.091 A 
ATOM     56  F   UNL A   1      42.324  28.850  28.179  1.00  0.00    -0.205 F 
ATOM     57  C   UNL A   1      41.091  25.750  26.682  1.00  0.00     0.022 A 
BRANCH  55  58
ATOM     58  S   UNL A   1      42.795  27.494  25.428  1.00  0.00     0.127 S 
ATOM     59  O   UNL A   1      42.005  28.576  24.839  1.00  0.00    -0.237 OA
ATOM     60  O   UNL A   1      44.018  27.930  26.099  1.00  0.00    -0.237 OA
ATOM     61  O   UNL A   1      42.929  26.322  24.573  1.00  0.00    -0.744 OA
ENDBRANCH  55  58
ENDBRANCH  27  51
BRANCH  39  62
ATOM     62  C   UNL A   1      44.581  28.163  34.729  1.00  0.00     0.023 A 
ATOM     63  C   UNL A   1      45.819  28.771  34.447  1.00  0.00     0.012 A 
ATOM     64  C   UNL A   1      44.532  26.961  35.455  1.00  0.00     0.148 A 
ATOM     65  C   UNL A   1      47.002  28.165  34.860  1.00  0.00     0.002 A 
ATOM     66  C   UNL A   1      45.709  26.395  35.912  1.00  0.00     0.091 A 
ATOM     67  F   UNL A   1      43.336  26.394  35.674  1.00  0.00    -0.205 F 
ATOM     68  C   UNL A   1      46.946  26.986  35.603  1.00  0.00     0.022 A 
BRANCH  66  69
ATOM     69  S   UNL A   1      45.725  24.938  36.956  1.00  0.00     0.127 S 
ATOM     70  O   UNL A   1      47.155  24.765  37.206  1.00  0.00    -0.237 OA
ATOM     71  O   UNL A   1      44.950  25.384  38.114  1.00  0.00    -0.237 OA
ATOM     72  O   UNL A   1      45.098  23.876  36.180  1.00  0.00    -0.744 OA
ENDBRANCH  66  69
ENDBRANCH  39  62
ENDBRANCH  13  14
ENDBRANCH   6   8
ENDBRANCH   5   6
ENDBRANCH   4   5
ENDBRANCH   3   4
ENDBRANCH   2   3
ENDBRANCH   1   2
BRANCH   1  73
ATOM     73  C   UNL A   1      31.690  28.470  25.556  1.00  0.00     0.188 C 
BRANCH  73  74
ATOM     74  O   UNL A   1      32.289  27.329  26.153  1.00  0.00    -0.376 OA
BRANCH  74  75
ATOM     75  C   UNL A   1      31.496  26.148  26.162  1.00  0.00     0.202 C 
BRANCH  75  76
ATOM     76  C   UNL A   1      30.982  25.598  24.820  1.00  0.00     0.261 C 
BRANCH  76  77
ATOM     77  O   UNL A   1      31.112  24.175  24.624  1.00  0.00    -0.462 OA
BRANCH  77  78
ATOM     78  C   UNL A   1      32.214  23.793  23.912  1.00  0.00     0.329 C 
ATOM     79  O   UNL A   1      33.070  24.585  23.521  1.00  0.00    -0.250 OA
BRANCH  78  80
ATOM     80  C   UNL A   1      32.309  22.269  23.632  1.00  0.00     0.197 C 
ATOM     81  C   UNL A   1      32.295  21.878  22.153  1.00  0.00     0.038 C 
ATOM     82  N   UNL A   1      33.227  21.379  24.385  1.00  0.00    -0.308 N 
ATOM     83  C   UNL A   1      31.839  20.435  21.985  1.00  0.00     0.008 C 
ATOM     84  C   UNL A   1      32.784  19.926  24.300  1.00  0.00     0.091 C 
ATOM     85  C   UNL A   1      32.709  19.487  22.801  1.00  0.00     0.012 C 
ATOM     86  C   UNL A   1      33.580  18.849  25.056  1.00  0.00     0.025 C 
ATOM     87  C   UNL A   1      32.182  18.053  22.614  1.00  0.00     0.006 C 
ATOM     88  C   UNL A   1      33.003  17.444  24.877  1.00  0.00     0.002 C 
ATOM     89  C   UNL A   1      32.985  17.043  23.412  1.00  0.00     0.000 C 
BRANCH  82  90
ATOM     90  C   UNL A   1      33.778  21.919  25.555  1.00  0.00     0.321 C 
ATOM     91  O   UNL A   1      33.121  22.195  26.552  1.00  0.00    -0.248 OA
ATOM     92  N   UNL A   1      35.164  22.187  25.508  1.00  0.00    -0.323 N 
ATOM     93  C   UNL A   1      36.109  21.082  25.349  1.00  0.00     0.132 C 
ATOM     94  C   UNL A   1      35.625  23.281  26.365  1.00  0.00     0.132 C 
ATOM     95  C   UNL A   1      37.528  21.433  24.897  1.00  0.00     0.091 C 
ATOM     96  C   UNL A   1      36.930  23.924  25.901  1.00  0.00     0.091 C 
ATOM     97  S   UNL A   1      38.323  22.751  25.865  1.00  0.00    -0.158 SA
ENDBRANCH  82  90
ENDBRANCH  78  80
ENDBRANCH  77  78
ENDBRANCH  76  77
ENDBRANCH  75  76
ENDBRANCH  74  75
ENDBRANCH  73  74
ENDBRANCH   1  73
TORSDOF 21
ENDMDL
