MODEL 1
REMARK VINA RESULT:     -10.1      0.000      0.000
REMARK SMILES O=C(OCCOCCOCCOC(=O)c1cc(-c2ccccc2)nc(Nc2nc3ccccc3s2)n1)c1ccc(-c2c3nc(c(-c4cccc(S(=O)(=O)[O-])c4F)c4ccc([nH]4)c(-c4cccc(S(=O)(=O)[O-])c4F)c4nc(c(-c5cccc(S(=O)(=O)[O-])c5F)c5ccc2[nH]5)C=C4)C=C3)cc1
REMARK SMILES IDX 7 1 6 2 5 3 4 4 3 5 2 6 1 7 37 8 38 9 99 10 39 11 98 12
REMARK SMILES IDX 40 13 41 14 42 15 92 16 43 17 97 18 91 19 93 20 44 21 96 22
REMARK SMILES IDX 90 23 89 24 45 26 77 27 57 28 76 29 58 30 61 31 75 32 94 33
REMARK SMILES IDX 59 34 60 35 74 37 95 38 62 39 46 40 47 41 55 42 48 43 50 44
REMARK SMILES IDX 56 45 49 46 51 47 52 48 53 49 54 50 78 51 79 52 87 53 80 54
REMARK SMILES IDX 82 55 88 56 81 57 83 58 84 59 85 60 86 61 63 62 64 63 72 64
REMARK SMILES IDX 65 65 67 66 73 67 66 68 68 69 69 70 70 71 71 72 8 73 9 74
REMARK SMILES IDX 10 75 11 76 12 77 13 78 14 79 15 80 16 81 36 82 17 83 25 84
REMARK SMILES IDX 24 85 18 86 19 87 23 88 20 89 22 90 21 91 26 92 27 94 28 95
REMARK SMILES IDX 35 96 29 97 34 98 30 99 33 100 31 101 32 102
REMARK H PARENT 93 25 61 36 26 93
REMARK Flexibility Score: inf
ROOT
ATOM      1  C   UNL A   1      41.367  21.684  27.297  1.00  0.00     0.188 C 
ENDROOT
BRANCH   1   2
ATOM      2  O   UNL A   1      42.355  22.704  27.147  1.00  0.00    -0.376 OA
BRANCH   2   3
ATOM      3  C   UNL A   1      42.931  22.853  25.842  1.00  0.00     0.202 C 
BRANCH   3   4
ATOM      4  C   UNL A   1      43.344  24.270  25.420  1.00  0.00     0.261 C 
BRANCH   4   5
ATOM      5  O   UNL A   1      42.998  25.195  26.451  1.00  0.00    -0.460 OA
BRANCH   5   6
ATOM      6  C   UNL A   1      42.173  26.205  26.066  1.00  0.00     0.338 C 
ATOM      7  O   UNL A   1      41.187  26.088  25.374  1.00  0.00    -0.246 OA
BRANCH   6   8
ATOM      8  C   UNL A   1      42.762  27.452  26.614  1.00  0.00     0.060 A 
ATOM      9  C   UNL A   1      43.491  27.346  27.804  1.00  0.00     0.016 A 
ATOM     10  C   UNL A   1      42.561  28.700  26.026  1.00  0.00     0.016 A 
ATOM     11  C   UNL A   1      43.856  28.467  28.505  1.00  0.00     0.010 A 
ATOM     12  C   UNL A   1      42.998  29.845  26.705  1.00  0.00     0.010 A 
ATOM     13  C   UNL A   1      43.577  29.723  27.981  1.00  0.00    -0.014 A 
BRANCH  13  14
ATOM     14  C   UNL A   1      43.682  30.854  28.919  1.00  0.00     0.031 A 
ATOM     15  C   UNL A   1      44.914  31.703  28.859  1.00  0.00     0.074 A 
ATOM     16  C   UNL A   1      42.608  31.289  29.602  1.00  0.00     0.049 A 
ATOM     17  N   UNL A   1      45.186  32.795  29.518  1.00  0.00    -0.248 NA
ATOM     18  C   UNL A   1      45.940  31.324  27.872  1.00  0.00     0.031 C 
ATOM     19  C   UNL A   1      41.252  30.755  29.466  1.00  0.00     0.029 A 
ATOM     20  N   UNL A   1      42.472  32.323  30.495  1.00  0.00    -0.354 N 
ATOM     21  C   UNL A   1      46.418  33.218  29.046  1.00  0.00     0.074 A 
ATOM     22  C   UNL A   1      46.848  32.269  28.046  1.00  0.00     0.031 C 
ATOM     23  C   UNL A   1      40.443  31.477  30.253  1.00  0.00     0.029 A 
ATOM     24  C   UNL A   1      41.234  32.345  31.088  1.00  0.00     0.049 A 
ATOM     25  H   UNL A   1      43.183  32.976  30.688  1.00  0.00     0.167 HD
ATOM     26  C   UNL A   1      47.119  34.310  29.418  1.00  0.00     0.034 A 
ATOM     27  C   UNL A   1      40.823  32.928  32.228  1.00  0.00     0.034 A 
ATOM     28  C   UNL A   1      46.666  35.237  30.414  1.00  0.00     0.049 A 
ATOM     29  C   UNL A   1      41.725  33.968  32.800  1.00  0.00     0.074 A 
ATOM     30  C   UNL A   1      47.301  36.365  30.895  1.00  0.00     0.029 A 
ATOM     31  N   UNL A   1      45.471  35.117  31.110  1.00  0.00    -0.354 N 
ATOM     32  N   UNL A   1      42.875  34.382  32.332  1.00  0.00    -0.248 NA
ATOM     33  C   UNL A   1      41.235  34.702  33.970  1.00  0.00     0.031 C 
ATOM     34  C   UNL A   1      46.521  36.888  31.932  1.00  0.00     0.029 A 
ATOM     35  C   UNL A   1      45.376  36.118  32.057  1.00  0.00     0.049 A 
ATOM     36  H   UNL A   1      44.793  34.421  30.952  1.00  0.00     0.167 HD
ATOM     37  C   UNL A   1      43.206  35.485  33.093  1.00  0.00     0.074 A 
ATOM     38  C   UNL A   1      42.141  35.664  34.060  1.00  0.00     0.031 C 
ATOM     39  C   UNL A   1      44.287  36.289  32.982  1.00  0.00     0.034 A 
BRANCH  26  40
ATOM     40  C   UNL A   1      48.480  34.474  28.811  1.00  0.00     0.023 A 
ATOM     41  C   UNL A   1      49.614  33.869  29.390  1.00  0.00     0.012 A 
ATOM     42  C   UNL A   1      48.630  35.294  27.678  1.00  0.00     0.148 A 
ATOM     43  C   UNL A   1      50.886  34.122  28.875  1.00  0.00     0.002 A 
ATOM     44  C   UNL A   1      49.892  35.504  27.144  1.00  0.00     0.091 A 
ATOM     45  F   UNL A   1      47.540  35.888  27.171  1.00  0.00    -0.205 F 
ATOM     46  C   UNL A   1      51.023  34.933  27.750  1.00  0.00     0.022 A 
BRANCH  44  47
ATOM     47  S   UNL A   1      50.153  36.481  25.664  1.00  0.00     0.127 S 
ATOM     48  O   UNL A   1      49.619  37.781  26.070  1.00  0.00    -0.237 OA
ATOM     49  O   UNL A   1      51.608  36.436  25.520  1.00  0.00    -0.237 OA
ATOM     50  O   UNL A   1      49.418  35.809  24.602  1.00  0.00    -0.744 OA
ENDBRANCH  44  47
ENDBRANCH  26  40
BRANCH  27  51
ATOM     51  C   UNL A   1      39.563  32.546  32.930  1.00  0.00     0.023 A 
ATOM     52  C   UNL A   1      39.506  31.380  33.717  1.00  0.00     0.012 A 
ATOM     53  C   UNL A   1      38.383  33.302  32.743  1.00  0.00     0.148 A 
ATOM     54  C   UNL A   1      38.297  30.962  34.286  1.00  0.00     0.002 A 
ATOM     55  C   UNL A   1      37.192  32.908  33.355  1.00  0.00     0.091 A 
ATOM     56  F   UNL A   1      38.447  34.400  31.976  1.00  0.00    -0.205 F 
ATOM     57  C   UNL A   1      37.146  31.729  34.113  1.00  0.00     0.022 A 
BRANCH  55  58
ATOM     58  S   UNL A   1      35.692  33.906  33.305  1.00  0.00     0.127 S 
ATOM     59  O   UNL A   1      34.997  33.334  32.153  1.00  0.00    -0.237 OA
ATOM     60  O   UNL A   1      35.072  33.606  34.596  1.00  0.00    -0.237 OA
ATOM     61  O   UNL A   1      36.138  35.283  33.150  1.00  0.00    -0.744 OA
ENDBRANCH  55  58
ENDBRANCH  27  51
BRANCH  39  62
ATOM     62  C   UNL A   1      44.332  37.469  33.898  1.00  0.00     0.023 A 
ATOM     63  C   UNL A   1      44.943  37.362  35.161  1.00  0.00     0.012 A 
ATOM     64  C   UNL A   1      43.806  38.701  33.470  1.00  0.00     0.148 A 
ATOM     65  C   UNL A   1      45.004  38.467  36.003  1.00  0.00     0.002 A 
ATOM     66  C   UNL A   1      43.931  39.812  34.285  1.00  0.00     0.091 A 
ATOM     67  F   UNL A   1      43.201  38.758  32.275  1.00  0.00    -0.205 F 
ATOM     68  C   UNL A   1      44.513  39.695  35.558  1.00  0.00     0.022 A 
BRANCH  66  69
ATOM     69  S   UNL A   1      43.434  41.450  33.752  1.00  0.00     0.127 S 
ATOM     70  O   UNL A   1      44.296  41.660  32.590  1.00  0.00    -0.237 OA
ATOM     71  O   UNL A   1      42.019  41.248  33.439  1.00  0.00    -0.237 OA
ATOM     72  O   UNL A   1      43.689  42.340  34.877  1.00  0.00    -0.744 OA
ENDBRANCH  66  69
ENDBRANCH  39  62
ENDBRANCH  13  14
ENDBRANCH   6   8
ENDBRANCH   5   6
ENDBRANCH   4   5
ENDBRANCH   3   4
ENDBRANCH   2   3
ENDBRANCH   1   2
BRANCH   1  73
ATOM     73  C   UNL A   1      40.485  21.460  26.066  1.00  0.00     0.188 C 
BRANCH  73  74
ATOM     74  O   UNL A   1      39.081  21.307  26.270  1.00  0.00    -0.376 OA
BRANCH  74  75
ATOM     75  C   UNL A   1      38.215  22.263  25.673  1.00  0.00     0.202 C 
BRANCH  75  76
ATOM     76  C   UNL A   1      36.698  22.083  25.806  1.00  0.00     0.261 C 
BRANCH  76  77
ATOM     77  O   UNL A   1      35.902  23.092  25.179  1.00  0.00    -0.459 OA
BRANCH  77  78
ATOM     78  C   UNL A   1      35.441  22.727  23.959  1.00  0.00     0.357 C 
ATOM     79  O   UNL A   1      36.032  22.831  22.892  1.00  0.00    -0.244 OA
BRANCH  78  80
ATOM     80  C   UNL A   1      34.019  22.365  24.019  1.00  0.00     0.154 A 
ATOM     81  C   UNL A   1      33.837  21.021  24.011  1.00  0.00     0.065 A 
ATOM     82  N   UNL A   1      33.079  23.275  24.349  1.00  0.00    -0.206 NA
ATOM     83  C   UNL A   1      32.623  20.587  24.460  1.00  0.00     0.077 A 
ATOM     84  C   UNL A   1      31.876  22.769  24.677  1.00  0.00     0.230 A 
ATOM     85  N   UNL A   1      31.626  21.442  24.756  1.00  0.00    -0.213 NA
BRANCH  83  86
ATOM     86  C   UNL A   1      32.446  19.134  24.455  1.00  0.00     0.000 A 
ATOM     87  C   UNL A   1      32.552  18.489  23.237  1.00  0.00     0.010 A 
ATOM     88  C   UNL A   1      32.671  18.375  25.616  1.00  0.00     0.010 A 
ATOM     89  C   UNL A   1      33.174  17.247  23.148  1.00  0.00     0.001 A 
ATOM     90  C   UNL A   1      33.163  17.069  25.532  1.00  0.00     0.001 A 
ATOM     91  C   UNL A   1      33.477  16.529  24.292  1.00  0.00     0.000 A 
ENDBRANCH  83  86
BRANCH  84  92
ATOM     92  N   UNL A   1      30.823  23.583  25.103  1.00  0.00    -0.300 N 
ATOM     93  H   UNL A   1      30.074  23.141  25.564  1.00  0.00     0.172 HD
BRANCH  92  94
ATOM     94  C   UNL A   1      30.740  24.918  24.938  1.00  0.00     0.190 A 
ATOM     95  N   UNL A   1      30.118  25.553  23.968  1.00  0.00    -0.220 NA
ATOM     96  S   UNL A   1      31.443  25.963  26.127  1.00  0.00    -0.097 S 
ATOM     97  C   UNL A   1      30.259  26.926  24.105  1.00  0.00     0.084 A 
ATOM     98  C   UNL A   1      31.037  27.342  25.183  1.00  0.00     0.056 A 
ATOM     99  C   UNL A   1      29.720  27.916  23.258  1.00  0.00     0.030 A 
ATOM    100  C   UNL A   1      31.366  28.697  25.382  1.00  0.00     0.021 A 
ATOM    101  C   UNL A   1      30.051  29.262  23.429  1.00  0.00     0.002 A 
ATOM    102  C   UNL A   1      30.885  29.644  24.469  1.00  0.00     0.002 A 
ENDBRANCH  92  94
ENDBRANCH  84  92
ENDBRANCH  78  80
ENDBRANCH  77  78
ENDBRANCH  76  77
ENDBRANCH  75  76
ENDBRANCH  74  75
ENDBRANCH  73  74
ENDBRANCH   1  73
TORSDOF 23
ENDMDL
MODEL 2
REMARK VINA RESULT:     -10.0      1.698      2.253
REMARK SMILES O=C(OCCOCCOCCOC(=O)c1cc(-c2ccccc2)nc(Nc2nc3ccccc3s2)n1)c1ccc(-c2c3nc(c(-c4cccc(S(=O)(=O)[O-])c4F)c4ccc([nH]4)c(-c4cccc(S(=O)(=O)[O-])c4F)c4nc(c(-c5cccc(S(=O)(=O)[O-])c5F)c5ccc2[nH]5)C=C4)C=C3)cc1
REMARK SMILES IDX 7 1 6 2 5 3 4 4 3 5 2 6 1 7 37 8 38 9 99 10 39 11 98 12
REMARK SMILES IDX 40 13 41 14 42 15 92 16 43 17 97 18 91 19 93 20 44 21 96 22
REMARK SMILES IDX 90 23 89 24 45 26 77 27 57 28 76 29 58 30 61 31 75 32 94 33
REMARK SMILES IDX 59 34 60 35 74 37 95 38 62 39 46 40 47 41 55 42 48 43 50 44
REMARK SMILES IDX 56 45 49 46 51 47 52 48 53 49 54 50 78 51 79 52 87 53 80 54
REMARK SMILES IDX 82 55 88 56 81 57 83 58 84 59 85 60 86 61 63 62 64 63 72 64
REMARK SMILES IDX 65 65 67 66 73 67 66 68 68 69 69 70 70 71 71 72 8 73 9 74
REMARK SMILES IDX 10 75 11 76 12 77 13 78 14 79 15 80 16 81 36 82 17 83 25 84
REMARK SMILES IDX 24 85 18 86 19 87 23 88 20 89 22 90 21 91 26 92 27 94 28 95
REMARK SMILES IDX 35 96 29 97 34 98 30 99 33 100 31 101 32 102
REMARK H PARENT 93 25 61 36 26 93
REMARK Flexibility Score: inf
ROOT
ATOM      1  C   UNL A   1      41.451  21.772  25.806  1.00  0.00     0.188 C 
ENDROOT
BRANCH   1   2
ATOM      2  O   UNL A   1      42.667  21.408  26.459  1.00  0.00    -0.376 OA
BRANCH   2   3
ATOM      3  C   UNL A   1      43.845  22.129  26.072  1.00  0.00     0.202 C 
BRANCH   3   4
ATOM      4  C   UNL A   1      43.879  22.690  24.643  1.00  0.00     0.261 C 
BRANCH   4   5
ATOM      5  O   UNL A   1      43.593  24.088  24.673  1.00  0.00    -0.460 OA
BRANCH   5   6
ATOM      6  C   UNL A   1      44.640  24.884  25.024  1.00  0.00     0.338 C 
ATOM      7  O   UNL A   1      45.782  24.757  24.643  1.00  0.00    -0.246 OA
BRANCH   6   8
ATOM      8  C   UNL A   1      44.103  25.871  25.992  1.00  0.00     0.060 A 
ATOM      9  C   UNL A   1      43.688  27.106  25.481  1.00  0.00     0.016 A 
ATOM     10  C   UNL A   1      44.062  25.633  27.365  1.00  0.00     0.016 A 
ATOM     11  C   UNL A   1      43.414  28.156  26.321  1.00  0.00     0.010 A 
ATOM     12  C   UNL A   1      43.712  26.683  28.223  1.00  0.00     0.010 A 
ATOM     13  C   UNL A   1      43.463  27.964  27.696  1.00  0.00    -0.014 A 
BRANCH  13  14
ATOM     14  C   UNL A   1      43.497  29.184  28.520  1.00  0.00     0.031 A 
ATOM     15  C   UNL A   1      44.789  29.936  28.608  1.00  0.00     0.074 A 
ATOM     16  C   UNL A   1      42.360  29.766  28.941  1.00  0.00     0.049 A 
ATOM     17  N   UNL A   1      45.033  31.075  29.194  1.00  0.00    -0.248 NA
ATOM     18  C   UNL A   1      45.938  29.377  27.874  1.00  0.00     0.031 C 
ATOM     19  C   UNL A   1      41.008  29.314  28.607  1.00  0.00     0.029 A 
ATOM     20  N   UNL A   1      42.157  30.902  29.685  1.00  0.00    -0.354 N 
ATOM     21  C   UNL A   1      46.362  31.356  28.923  1.00  0.00     0.074 A 
ATOM     22  C   UNL A   1      46.880  30.272  28.121  1.00  0.00     0.031 C 
ATOM     23  C   UNL A   1      40.138  30.175  29.151  1.00  0.00     0.029 A 
ATOM     24  C   UNL A   1      40.839  31.076  30.030  1.00  0.00     0.049 A 
ATOM     25  H   UNL A   1      42.876  31.523  29.943  1.00  0.00     0.167 HD
ATOM     26  C   UNL A   1      47.078  32.433  29.309  1.00  0.00     0.034 A 
ATOM     27  C   UNL A   1      40.283  31.812  31.008  1.00  0.00     0.034 A 
ATOM     28  C   UNL A   1      46.537  33.496  30.105  1.00  0.00     0.049 A 
ATOM     29  C   UNL A   1      41.155  32.847  31.633  1.00  0.00     0.074 A 
ATOM     30  C   UNL A   1      47.172  34.626  30.583  1.00  0.00     0.029 A 
ATOM     31  N   UNL A   1      45.231  33.538  30.572  1.00  0.00    -0.354 N 
ATOM     32  N   UNL A   1      42.402  33.126  31.351  1.00  0.00    -0.248 NA
ATOM     33  C   UNL A   1      40.530  33.741  32.611  1.00  0.00     0.031 C 
ATOM     34  C   UNL A   1      46.267  35.316  31.397  1.00  0.00     0.029 A 
ATOM     35  C   UNL A   1      45.055  34.644  31.381  1.00  0.00     0.049 A 
ATOM     36  H   UNL A   1      44.533  32.876  30.360  1.00  0.00     0.167 HD
ATOM     37  C   UNL A   1      42.688  34.283  32.048  1.00  0.00     0.074 A 
ATOM     38  C   UNL A   1      41.486  34.644  32.774  1.00  0.00     0.031 C 
ATOM     39  C   UNL A   1      43.837  34.994  32.063  1.00  0.00     0.034 A 
BRANCH  26  40
ATOM     40  C   UNL A   1      48.535  32.434  28.956  1.00  0.00     0.023 A 
ATOM     41  C   UNL A   1      49.484  31.789  29.775  1.00  0.00     0.012 A 
ATOM     42  C   UNL A   1      48.964  33.141  27.817  1.00  0.00     0.148 A 
ATOM     43  C   UNL A   1      50.846  31.893  29.490  1.00  0.00     0.002 A 
ATOM     44  C   UNL A   1      50.315  33.201  27.514  1.00  0.00     0.091 A 
ATOM     45  F   UNL A   1      48.044  33.777  27.078  1.00  0.00    -0.205 F 
ATOM     46  C   UNL A   1      51.259  32.593  28.357  1.00  0.00     0.022 A 
BRANCH  44  47
ATOM     47  S   UNL A   1      50.928  34.026  26.045  1.00  0.00     0.127 S 
ATOM     48  O   UNL A   1      52.374  33.874  26.204  1.00  0.00    -0.237 OA
ATOM     49  O   UNL A   1      50.342  33.218  24.975  1.00  0.00    -0.237 OA
ATOM     50  O   UNL A   1      50.431  35.392  26.113  1.00  0.00    -0.744 OA
ENDBRANCH  44  47
ENDBRANCH  26  40
BRANCH  27  51
ATOM     51  C   UNL A   1      38.889  31.599  31.495  1.00  0.00     0.023 A 
ATOM     52  C   UNL A   1      38.620  30.664  32.512  1.00  0.00     0.012 A 
ATOM     53  C   UNL A   1      37.806  32.270  30.880  1.00  0.00     0.148 A 
ATOM     54  C   UNL A   1      37.302  30.384  32.893  1.00  0.00     0.002 A 
ATOM     55  C   UNL A   1      36.499  32.024  31.299  1.00  0.00     0.091 A 
ATOM     56  F   UNL A   1      38.076  33.144  29.900  1.00  0.00    -0.205 F 
ATOM     57  C   UNL A   1      36.245  31.069  32.295  1.00  0.00     0.022 A 
BRANCH  55  58
ATOM     58  S   UNL A   1      35.084  32.958  30.686  1.00  0.00     0.127 S 
ATOM     59  O   UNL A   1      35.676  34.276  30.463  1.00  0.00    -0.237 OA
ATOM     60  O   UNL A   1      34.736  32.236  29.462  1.00  0.00    -0.237 OA
ATOM     61  O   UNL A   1      34.080  32.890  31.739  1.00  0.00    -0.744 OA
ENDBRANCH  55  58
ENDBRANCH  27  51
BRANCH  39  62
ATOM     62  C   UNL A   1      43.820  36.265  32.848  1.00  0.00     0.023 A 
ATOM     63  C   UNL A   1      44.024  36.239  34.240  1.00  0.00     0.012 A 
ATOM     64  C   UNL A   1      43.651  37.491  32.182  1.00  0.00     0.148 A 
ATOM     65  C   UNL A   1      44.030  37.425  34.967  1.00  0.00     0.002 A 
ATOM     66  C   UNL A   1      43.727  38.671  32.902  1.00  0.00     0.091 A 
ATOM     67  F   UNL A   1      43.426  37.476  30.860  1.00  0.00    -0.205 F 
ATOM     68  C   UNL A   1      43.899  38.640  34.296  1.00  0.00     0.022 A 
BRANCH  66  69
ATOM     69  S   UNL A   1      43.684  40.279  32.110  1.00  0.00     0.127 S 
ATOM     70  O   UNL A   1      44.347  41.119  33.106  1.00  0.00    -0.237 OA
ATOM     71  O   UNL A   1      44.462  40.037  30.895  1.00  0.00    -0.237 OA
ATOM     72  O   UNL A   1      42.278  40.584  31.883  1.00  0.00    -0.744 OA
ENDBRANCH  66  69
ENDBRANCH  39  62
ENDBRANCH  13  14
ENDBRANCH   6   8
ENDBRANCH   5   6
ENDBRANCH   4   5
ENDBRANCH   3   4
ENDBRANCH   2   3
ENDBRANCH   1   2
BRANCH   1  73
ATOM     73  C   UNL A   1      40.188  21.579  26.650  1.00  0.00     0.188 C 
BRANCH  73  74
ATOM     74  O   UNL A   1      39.511  22.746  27.116  1.00  0.00    -0.376 OA
BRANCH  74  75
ATOM     75  C   UNL A   1      38.908  23.595  26.149  1.00  0.00     0.202 C 
BRANCH  75  76
ATOM     76  C   UNL A   1      37.380  23.614  26.020  1.00  0.00     0.261 C 
BRANCH  76  77
ATOM     77  O   UNL A   1      36.791  22.409  25.525  1.00  0.00    -0.459 OA
BRANCH  77  78
ATOM     78  C   UNL A   1      35.540  22.193  25.997  1.00  0.00     0.357 C 
ATOM     79  O   UNL A   1      35.189  22.201  27.170  1.00  0.00    -0.244 OA
BRANCH  78  80
ATOM     80  C   UNL A   1      34.645  21.729  24.929  1.00  0.00     0.154 A 
ATOM     81  C   UNL A   1      34.538  20.376  24.909  1.00  0.00     0.065 A 
ATOM     82  N   UNL A   1      33.825  22.583  24.284  1.00  0.00    -0.206 NA
ATOM     83  C   UNL A   1      33.453  19.881  24.244  1.00  0.00     0.077 A 
ATOM     84  C   UNL A   1      32.844  22.010  23.563  1.00  0.00     0.230 A 
ATOM     85  N   UNL A   1      32.627  20.675  23.538  1.00  0.00    -0.213 NA
BRANCH  83  86
ATOM     86  C   UNL A   1      33.345  18.421  24.241  1.00  0.00     0.000 A 
ATOM     87  C   UNL A   1      34.490  17.705  23.943  1.00  0.00     0.010 A 
ATOM     88  C   UNL A   1      32.341  17.769  24.974  1.00  0.00     0.010 A 
ATOM     89  C   UNL A   1      34.776  16.520  24.617  1.00  0.00     0.001 A 
ATOM     90  C   UNL A   1      32.569  16.510  25.538  1.00  0.00     0.001 A 
ATOM     91  C   UNL A   1      33.818  15.914  25.412  1.00  0.00     0.000 A 
ENDBRANCH  83  86
BRANCH  84  92
ATOM     92  N   UNL A   1      31.879  22.766  22.893  1.00  0.00    -0.300 N 
ATOM     93  H   UNL A   1      31.250  22.278  22.315  1.00  0.00     0.172 HD
BRANCH  92  94
ATOM     94  C   UNL A   1      31.734  24.104  22.966  1.00  0.00     0.190 A 
ATOM     95  N   UNL A   1      32.554  25.011  22.482  1.00  0.00    -0.220 NA
ATOM     96  S   UNL A   1      30.309  24.762  23.698  1.00  0.00    -0.097 S 
ATOM     97  C   UNL A   1      32.098  26.291  22.761  1.00  0.00     0.084 A 
ATOM     98  C   UNL A   1      30.924  26.356  23.507  1.00  0.00     0.056 A 
ATOM     99  C   UNL A   1      32.713  27.504  22.389  1.00  0.00     0.030 A 
ATOM    100  C   UNL A   1      30.404  27.582  23.967  1.00  0.00     0.021 A 
ATOM    101  C   UNL A   1      32.223  28.727  22.852  1.00  0.00     0.002 A 
ATOM    102  C   UNL A   1      31.091  28.761  23.653  1.00  0.00     0.002 A 
ENDBRANCH  92  94
ENDBRANCH  84  92
ENDBRANCH  78  80
ENDBRANCH  77  78
ENDBRANCH  76  77
ENDBRANCH  75  76
ENDBRANCH  74  75
ENDBRANCH  73  74
ENDBRANCH   1  73
TORSDOF 23
ENDMDL
MODEL 3
REMARK VINA RESULT:      -9.8      2.150      7.310
REMARK SMILES O=C(OCCOCCOCCOC(=O)c1cc(-c2ccccc2)nc(Nc2nc3ccccc3s2)n1)c1ccc(-c2c3nc(c(-c4cccc(S(=O)(=O)[O-])c4F)c4ccc([nH]4)c(-c4cccc(S(=O)(=O)[O-])c4F)c4nc(c(-c5cccc(S(=O)(=O)[O-])c5F)c5ccc2[nH]5)C=C4)C=C3)cc1
REMARK SMILES IDX 7 1 6 2 5 3 4 4 3 5 2 6 1 7 37 8 38 9 99 10 39 11 98 12
REMARK SMILES IDX 40 13 41 14 42 15 92 16 43 17 97 18 91 19 93 20 44 21 96 22
REMARK SMILES IDX 90 23 89 24 45 26 77 27 57 28 76 29 58 30 61 31 75 32 94 33
REMARK SMILES IDX 59 34 60 35 74 37 95 38 62 39 46 40 47 41 55 42 48 43 50 44
REMARK SMILES IDX 56 45 49 46 51 47 52 48 53 49 54 50 78 51 79 52 87 53 80 54
REMARK SMILES IDX 82 55 88 56 81 57 83 58 84 59 85 60 86 61 63 62 64 63 72 64
REMARK SMILES IDX 65 65 67 66 73 67 66 68 68 69 69 70 70 71 71 72 8 73 9 74
REMARK SMILES IDX 10 75 11 76 12 77 13 78 14 79 15 80 16 81 36 82 17 83 25 84
REMARK SMILES IDX 24 85 18 86 19 87 23 88 20 89 22 90 21 91 26 92 27 94 28 95
REMARK SMILES IDX 35 96 29 97 34 98 30 99 33 100 31 101 32 102
REMARK H PARENT 93 25 61 36 26 93
REMARK Flexibility Score: inf
ROOT
ATOM      1  C   UNL A   1      41.418  22.182  26.040  1.00  0.00     0.188 C 
ENDROOT
BRANCH   1   2
ATOM      2  O   UNL A   1      42.657  21.685  26.548  1.00  0.00    -0.376 OA
BRANCH   2   3
ATOM      3  C   UNL A   1      43.849  22.324  26.071  1.00  0.00     0.202 C 
BRANCH   3   4
ATOM      4  C   UNL A   1      43.797  22.933  24.663  1.00  0.00     0.261 C 
BRANCH   4   5
ATOM      5  O   UNL A   1      43.531  24.332  24.757  1.00  0.00    -0.460 OA
BRANCH   5   6
ATOM      6  C   UNL A   1      44.608  25.104  25.063  1.00  0.00     0.338 C 
ATOM      7  O   UNL A   1      45.736  24.937  24.657  1.00  0.00    -0.246 OA
BRANCH   6   8
ATOM      8  C   UNL A   1      44.124  26.128  26.022  1.00  0.00     0.060 A 
ATOM      9  C   UNL A   1      43.709  27.355  25.492  1.00  0.00     0.016 A 
ATOM     10  C   UNL A   1      44.132  25.929  27.402  1.00  0.00     0.016 A 
ATOM     11  C   UNL A   1      43.485  28.432  26.311  1.00  0.00     0.010 A 
ATOM     12  C   UNL A   1      43.832  27.009  28.243  1.00  0.00     0.010 A 
ATOM     13  C   UNL A   1      43.584  28.278  27.688  1.00  0.00    -0.014 A 
BRANCH  13  14
ATOM     14  C   UNL A   1      43.668  29.521  28.475  1.00  0.00     0.031 A 
ATOM     15  C   UNL A   1      42.434  29.990  29.181  1.00  0.00     0.074 A 
ATOM     16  C   UNL A   1      44.859  30.061  28.790  1.00  0.00     0.049 A 
ATOM     17  N   UNL A   1      42.293  30.997  29.997  1.00  0.00    -0.248 NA
ATOM     18  C   UNL A   1      41.218  29.175  29.013  1.00  0.00     0.031 C 
ATOM     19  C   UNL A   1      46.161  29.481  28.454  1.00  0.00     0.029 A 
ATOM     20  N   UNL A   1      45.171  31.180  29.521  1.00  0.00    -0.354 N 
ATOM     21  C   UNL A   1      40.974  30.952  30.420  1.00  0.00     0.074 A 
ATOM     22  C   UNL A   1      40.350  29.822  29.773  1.00  0.00     0.031 C 
ATOM     23  C   UNL A   1      47.110  30.263  28.986  1.00  0.00     0.029 A 
ATOM     24  C   UNL A   1      46.512  31.474  29.486  1.00  0.00     0.049 A 
ATOM     25  H   UNL A   1      44.506  31.712  30.016  1.00  0.00     0.167 HD
ATOM     26  C   UNL A   1      40.349  31.784  31.279  1.00  0.00     0.034 A 
ATOM     27  C   UNL A   1      47.160  32.624  29.743  1.00  0.00     0.034 A 
ATOM     28  C   UNL A   1      40.995  32.899  31.909  1.00  0.00     0.049 A 
ATOM     29  C   UNL A   1      46.387  33.668  30.475  1.00  0.00     0.074 A 
ATOM     30  C   UNL A   1      40.459  33.830  32.777  1.00  0.00     0.029 A 
ATOM     31  N   UNL A   1      42.322  33.253  31.704  1.00  0.00    -0.354 N 
ATOM     32  N   UNL A   1      45.149  33.607  30.895  1.00  0.00    -0.248 NA
ATOM     33  C   UNL A   1      47.114  34.877  30.873  1.00  0.00     0.031 C 
ATOM     34  C   UNL A   1      41.444  34.787  33.043  1.00  0.00     0.029 A 
ATOM     35  C   UNL A   1      42.607  34.421  32.384  1.00  0.00     0.049 A 
ATOM     36  H   UNL A   1      42.963  32.747  31.155  1.00  0.00     0.167 HD
ATOM     37  C   UNL A   1      44.973  34.725  31.686  1.00  0.00     0.074 A 
ATOM     38  C   UNL A   1      46.229  35.451  31.673  1.00  0.00     0.031 C 
ATOM     39  C   UNL A   1      43.875  35.101  32.378  1.00  0.00     0.034 A 
BRANCH  26  40
ATOM     40  C   UNL A   1      38.881  31.561  31.483  1.00  0.00     0.023 A 
ATOM     41  C   UNL A   1      38.408  30.700  32.494  1.00  0.00     0.012 A 
ATOM     42  C   UNL A   1      37.966  32.180  30.611  1.00  0.00     0.148 A 
ATOM     43  C   UNL A   1      37.045  30.420  32.598  1.00  0.00     0.002 A 
ATOM     44  C   UNL A   1      36.610  31.933  30.750  1.00  0.00     0.091 A 
ATOM     45  F   UNL A   1      38.446  32.964  29.635  1.00  0.00    -0.205 F 
ATOM     46  C   UNL A   1      36.147  31.041  31.731  1.00  0.00     0.022 A 
BRANCH  44  47
ATOM     47  S   UNL A   1      35.382  32.736  29.720  1.00  0.00     0.127 S 
ATOM     48  O   UNL A   1      34.234  32.802  30.624  1.00  0.00    -0.237 OA
ATOM     49  O   UNL A   1      36.014  34.026  29.441  1.00  0.00    -0.237 OA
ATOM     50  O   UNL A   1      35.212  31.881  28.554  1.00  0.00    -0.744 OA
ENDBRANCH  44  47
ENDBRANCH  26  40
BRANCH  27  51
ATOM     51  C   UNL A   1      48.557  32.889  29.293  1.00  0.00     0.023 A 
ATOM     52  C   UNL A   1      48.812  33.395  28.005  1.00  0.00     0.012 A 
ATOM     53  C   UNL A   1      49.651  32.551  30.124  1.00  0.00     0.148 A 
ATOM     54  C   UNL A   1      50.126  33.540  27.543  1.00  0.00     0.002 A 
ATOM     55  C   UNL A   1      50.958  32.746  29.677  1.00  0.00     0.091 A 
ATOM     56  F   UNL A   1      49.393  32.053  31.341  1.00  0.00    -0.205 F 
ATOM     57  C   UNL A   1      51.196  33.226  28.380  1.00  0.00     0.022 A 
BRANCH  55  58
ATOM     58  S   UNL A   1      52.399  32.502  30.733  1.00  0.00     0.127 S 
ATOM     59  O   UNL A   1      52.002  33.221  31.942  1.00  0.00    -0.237 OA
ATOM     60  O   UNL A   1      52.439  31.047  30.879  1.00  0.00    -0.237 OA
ATOM     61  O   UNL A   1      53.523  33.071  30.004  1.00  0.00    -0.744 OA
ENDBRANCH  55  58
ENDBRANCH  27  51
BRANCH  39  62
ATOM     62  C   UNL A   1      44.012  36.326  33.224  1.00  0.00     0.023 A 
ATOM     63  C   UNL A   1      44.401  36.214  34.572  1.00  0.00     0.012 A 
ATOM     64  C   UNL A   1      43.800  37.592  32.652  1.00  0.00     0.148 A 
ATOM     65  C   UNL A   1      44.551  37.355  35.352  1.00  0.00     0.002 A 
ATOM     66  C   UNL A   1      44.017  38.726  33.416  1.00  0.00     0.091 A 
ATOM     67  F   UNL A   1      43.397  37.659  31.375  1.00  0.00    -0.205 F 
ATOM     68  C   UNL A   1      44.375  38.610  34.770  1.00  0.00     0.022 A 
BRANCH  66  69
ATOM     69  S   UNL A   1      43.926  40.377  32.724  1.00  0.00     0.127 S 
ATOM     70  O   UNL A   1      45.018  40.353  31.751  1.00  0.00    -0.237 OA
ATOM     71  O   UNL A   1      42.585  40.385  32.140  1.00  0.00    -0.237 OA
ATOM     72  O   UNL A   1      44.113  41.298  33.837  1.00  0.00    -0.744 OA
ENDBRANCH  66  69
ENDBRANCH  39  62
ENDBRANCH  13  14
ENDBRANCH   6   8
ENDBRANCH   5   6
ENDBRANCH   4   5
ENDBRANCH   3   4
ENDBRANCH   2   3
ENDBRANCH   1   2
BRANCH   1  73
ATOM     73  C   UNL A   1      40.255  22.140  27.035  1.00  0.00     0.188 C 
BRANCH  73  74
ATOM     74  O   UNL A   1      39.595  23.367  27.343  1.00  0.00    -0.376 OA
BRANCH  74  75
ATOM     75  C   UNL A   1      38.894  24.026  26.297  1.00  0.00     0.202 C 
BRANCH  75  76
ATOM     76  C   UNL A   1      37.362  23.952  26.263  1.00  0.00     0.261 C 
BRANCH  76  77
ATOM     77  O   UNL A   1      36.802  23.378  25.079  1.00  0.00    -0.459 OA
BRANCH  77  78
ATOM     78  C   UNL A   1      36.355  22.112  25.259  1.00  0.00     0.357 C 
ATOM     79  O   UNL A   1      37.037  21.096  25.312  1.00  0.00    -0.244 OA
BRANCH  78  80
ATOM     80  C   UNL A   1      34.890  22.053  25.180  1.00  0.00     0.154 A 
ATOM     81  C   UNL A   1      34.448  20.809  24.865  1.00  0.00     0.065 A 
ATOM     82  N   UNL A   1      34.123  23.050  25.668  1.00  0.00    -0.206 NA
ATOM     83  C   UNL A   1      33.139  20.557  25.158  1.00  0.00     0.077 A 
ATOM     84  C   UNL A   1      32.820  22.752  25.827  1.00  0.00     0.230 A 
ATOM     85  N   UNL A   1      32.308  21.521  25.597  1.00  0.00    -0.213 NA
BRANCH  83  86
ATOM     86  C   UNL A   1      32.680  19.208  24.822  1.00  0.00     0.000 A 
ATOM     87  C   UNL A   1      32.600  18.885  23.480  1.00  0.00     0.010 A 
ATOM     88  C   UNL A   1      32.807  18.152  25.739  1.00  0.00     0.010 A 
ATOM     89  C   UNL A   1      32.961  17.615  23.037  1.00  0.00     0.001 A 
ATOM     90  C   UNL A   1      33.029  16.844  25.299  1.00  0.00     0.001 A 
ATOM     91  C   UNL A   1      33.171  16.589  23.942  1.00  0.00     0.000 A 
ENDBRANCH  83  86
BRANCH  84  92
ATOM     92  N   UNL A   1      31.916  23.661  26.381  1.00  0.00    -0.300 N 
ATOM     93  H   UNL A   1      31.580  23.464  27.285  1.00  0.00     0.172 HD
BRANCH  92  94
ATOM     94  C   UNL A   1      31.461  24.783  25.789  1.00  0.00     0.190 A 
ATOM     95  N   UNL A   1      30.406  24.888  25.009  1.00  0.00    -0.220 NA
ATOM     96  S   UNL A   1      32.259  26.288  26.101  1.00  0.00    -0.097 S 
ATOM     97  C   UNL A   1      30.250  26.192  24.561  1.00  0.00     0.084 A 
ATOM     98  C   UNL A   1      31.230  27.088  24.980  1.00  0.00     0.056 A 
ATOM     99  C   UNL A   1      29.228  26.675  23.719  1.00  0.00     0.030 A 
ATOM    100  C   UNL A   1      31.269  28.416  24.511  1.00  0.00     0.021 A 
ATOM    101  C   UNL A   1      29.261  27.982  23.230  1.00  0.00     0.002 A 
ATOM    102  C   UNL A   1      30.287  28.837  23.606  1.00  0.00     0.002 A 
ENDBRANCH  92  94
ENDBRANCH  84  92
ENDBRANCH  78  80
ENDBRANCH  77  78
ENDBRANCH  76  77
ENDBRANCH  75  76
ENDBRANCH  74  75
ENDBRANCH  73  74
ENDBRANCH   1  73
TORSDOF 23
ENDMDL
