MODEL 1
REMARK VINA RESULT:     -13.4      0.000      0.000
REMARK SMILES Cc1ccccc1-c1c(Cl)ccc2c1C=C(C(=O)OCCOCCOCCOC(=O)c1ccc(-c3c4nc(c(-c5cccc(S(=O)(=O)[O-])c5F)c5ccc([nH]5)c(-c5cccc(S(=O)(=O)[O-])c5F)c5nc(c(-c6cccc(S(=O)(=O)[O-])c6F)c6ccc3[nH]6)C=C5)C=C4)cc1)[C@@H](C(F)(F)F)O2
REMARK SMILES IDX 24 1 23 2 22 3 21 4 20 5 19 6 17 7 18 8 16 9 8 10 9 11 14 12
REMARK SMILES IDX 10 13 11 14 13 15 15 16 12 17 99 18 94 19 7 20 1 21 2 22
REMARK SMILES IDX 3 23 4 24 6 25 5 26 95 27 96 28 97 29 98 30 25 31 26 32
REMARK SMILES IDX 27 33 28 34 29 35 30 36 31 37 32 38 93 39 33 40 92 41 34 42
REMARK SMILES IDX 35 43 36 44 86 45 37 46 91 47 85 48 87 49 38 50 90 51 84 52
REMARK SMILES IDX 83 53 39 55 71 56 51 57 70 58 52 59 55 60 69 61 88 62 53 63
REMARK SMILES IDX 54 64 68 66 89 67 56 68 40 69 41 70 49 71 42 72 44 73 50 74
REMARK SMILES IDX 43 75 45 76 46 77 47 78 48 79 72 80 73 81 81 82 74 83 76 84
REMARK SMILES IDX 82 85 75 86 77 87 78 88 79 89 80 90 57 91 58 92 66 93 59 94
REMARK SMILES IDX 61 95 67 96 60 97 62 98 63 99 64 100 65 101
REMARK H PARENT 87 54 55 65
REMARK Flexibility Score: inf
ROOT
ATOM      1  C   UNL A   1      32.835  33.844  28.046  1.00  0.00     0.188 C 
ENDROOT
BRANCH   1   2
ATOM      2  C   UNL A   1      32.175  33.038  26.972  1.00  0.00     0.188 C 
BRANCH   2   3
ATOM      3  O   UNL A   1      32.217  31.591  26.927  1.00  0.00    -0.376 OA
BRANCH   3   4
ATOM      4  C   UNL A   1      33.177  30.610  27.453  1.00  0.00     0.202 C 
BRANCH   4   5
ATOM      5  C   UNL A   1      33.742  28.899  27.155  1.00  0.00     0.261 C 
BRANCH   5   6
ATOM      6  O   UNL A   1      34.082  27.924  25.676  1.00  0.00    -0.460 OA
BRANCH   6   7
ATOM      7  C   UNL A   1      33.785  27.955  24.206  1.00  0.00     0.338 C 
ATOM      8  O   UNL A   1      33.548  28.984  23.567  1.00  0.00    -0.246 OA
BRANCH   7   9
ATOM      9  C   UNL A   1      33.554  26.737  23.327  1.00  0.00     0.087 C 
ATOM     10  C   UNL A   1      33.817  23.766  25.736  1.00  0.00     0.012 A 
ATOM     11  C   UNL A   1      33.030  23.251  26.803  1.00  0.00     0.049 A 
ATOM     12  C   UNL A   1      33.287  24.832  24.944  1.00  0.00     0.027 A 
ATOM     13  Cl  UNL A   1      33.612  22.019  27.879  1.00  0.00    -0.084 Cl
ATOM     14  C   UNL A   1      31.741  23.723  27.052  1.00  0.00     0.025 A 
ATOM     15  C   UNL A   1      31.959  25.226  25.177  1.00  0.00     0.128 A 
ATOM     16  C   UNL A   1      34.085  25.614  23.905  1.00  0.00     0.028 C 
ATOM     17  C   UNL A   1      31.199  24.699  26.227  1.00  0.00     0.049 A 
ATOM     18  O   UNL A   1      31.332  26.172  24.415  1.00  0.00    -0.475 OA
ATOM     19  C   UNL A   1      31.994  26.556  23.183  1.00  0.00     0.316 C 
BRANCH  10  20
ATOM     20  C   UNL A   1      35.150  23.198  25.442  1.00  0.00    -0.013 A 
ATOM     21  C   UNL A   1      34.172  21.236  24.157  1.00  0.00     0.045 C 
ATOM     22  C   UNL A   1      35.314  21.974  24.774  1.00  0.00    -0.043 A 
ATOM     23  C   UNL A   1      36.584  21.388  24.670  1.00  0.00     0.004 A 
ATOM     24  C   UNL A   1      37.708  22.048  25.151  1.00  0.00     0.000 A 
ATOM     25  C   UNL A   1      36.306  23.871  25.878  1.00  0.00     0.009 A 
ATOM     26  C   UNL A   1      37.573  23.307  25.724  1.00  0.00     0.001 A 
ENDBRANCH  10  20
BRANCH  19  27
ATOM     27  C   UNL A   1      31.614  25.553  22.074  1.00  0.00     0.430 C 
ATOM     28  F   UNL A   1      30.624  24.702  22.419  1.00  0.00    -0.167 F 
ATOM     29  F   UNL A   1      31.187  26.212  20.962  1.00  0.00    -0.167 F 
ATOM     30  F   UNL A   1      32.658  24.781  21.670  1.00  0.00    -0.167 F 
ENDBRANCH  19  27
ENDBRANCH   7   9
ENDBRANCH   6   7
ENDBRANCH   5   6
ENDBRANCH   4   5
ENDBRANCH   3   4
ENDBRANCH   2   3
ENDBRANCH   1   2
BRANCH   1  31
ATOM     31  O   UNL A   1      34.188  33.857  27.704  1.00  0.00    -0.376 OA
BRANCH  31  32
ATOM     32  C   UNL A   1      34.980  34.711  28.469  1.00  0.00     0.202 C 
BRANCH  32  33
ATOM     33  C   UNL A   1      36.179  33.947  29.030  1.00  0.00     0.261 C 
BRANCH  33  34
ATOM     34  O   UNL A   1      36.017  32.517  28.816  1.00  0.00    -0.460 OA
BRANCH  34  35
ATOM     35  C   UNL A   1      35.768  31.729  29.942  1.00  0.00     0.338 C 
ATOM     36  O   UNL A   1      35.343  32.172  30.969  1.00  0.00    -0.246 OA
BRANCH  35  37
ATOM     37  C   UNL A   1      36.312  30.321  29.720  1.00  0.00     0.060 A 
ATOM     38  C   UNL A   1      36.769  29.410  30.698  1.00  0.00     0.016 A 
ATOM     39  C   UNL A   1      36.776  30.088  28.486  1.00  0.00     0.016 A 
ATOM     40  C   UNL A   1      37.933  28.499  30.492  1.00  0.00     0.010 A 
ATOM     41  C   UNL A   1      38.000  29.414  28.438  1.00  0.00     0.010 A 
ATOM     42  C   UNL A   1      38.755  28.559  29.361  1.00  0.00    -0.014 A 
BRANCH  42  43
ATOM     43  C   UNL A   1      40.395  27.807  29.152  1.00  0.00     0.031 A 
ATOM     44  C   UNL A   1      40.908  26.216  28.512  1.00  0.00     0.074 A 
ATOM     45  C   UNL A   1      41.530  28.516  29.430  1.00  0.00     0.049 A 
ATOM     46  N   UNL A   1      42.051  25.984  27.879  1.00  0.00    -0.248 NA
ATOM     47  C   UNL A   1      40.111  24.915  28.303  1.00  0.00     0.031 C 
ATOM     48  C   UNL A   1      42.951  28.197  29.182  1.00  0.00     0.029 A 
ATOM     49  N   UNL A   1      41.646  29.786  30.001  1.00  0.00    -0.354 N 
ATOM     50  C   UNL A   1      42.029  24.666  27.411  1.00  0.00     0.074 A 
ATOM     51  C   UNL A   1      40.671  24.367  27.231  1.00  0.00     0.031 C 
ATOM     52  C   UNL A   1      43.739  29.030  29.882  1.00  0.00     0.029 A 
ATOM     53  C   UNL A   1      42.859  29.839  30.692  1.00  0.00     0.049 A 
ATOM     54  H   UNL A   1      40.989  30.516  29.928  1.00  0.00     0.167 HD
ATOM     55  C   UNL A   1      42.848  23.637  27.786  1.00  0.00     0.034 A 
ATOM     56  C   UNL A   1      42.818  29.920  32.045  1.00  0.00     0.034 A 
ATOM     57  C   UNL A   1      43.804  24.099  28.766  1.00  0.00     0.049 A 
ATOM     58  C   UNL A   1      43.329  28.619  32.607  1.00  0.00     0.074 A 
ATOM     59  C   UNL A   1      44.966  24.829  28.620  1.00  0.00     0.029 A 
ATOM     60  N   UNL A   1      43.420  24.220  30.108  1.00  0.00    -0.354 N 
ATOM     61  N   UNL A   1      43.316  27.475  31.971  1.00  0.00    -0.248 NA
ATOM     62  C   UNL A   1      44.041  28.556  33.872  1.00  0.00     0.031 C 
ATOM     63  C   UNL A   1      45.231  25.471  29.856  1.00  0.00     0.029 A 
ATOM     64  C   UNL A   1      44.287  25.066  30.791  1.00  0.00     0.049 A 
ATOM     65  H   UNL A   1      42.643  23.770  30.512  1.00  0.00     0.167 HD
ATOM     66  C   UNL A   1      44.019  26.545  32.682  1.00  0.00     0.074 A 
ATOM     67  C   UNL A   1      44.455  27.279  33.864  1.00  0.00     0.031 C 
ATOM     68  C   UNL A   1      44.247  25.265  32.244  1.00  0.00     0.034 A 
BRANCH  55  69
ATOM     69  C   UNL A   1      42.786  22.270  27.060  1.00  0.00     0.023 A 
ATOM     70  C   UNL A   1      41.952  21.296  27.631  1.00  0.00     0.012 A 
ATOM     71  C   UNL A   1      43.601  21.807  25.975  1.00  0.00     0.148 A 
ATOM     72  C   UNL A   1      42.022  19.940  27.254  1.00  0.00     0.002 A 
ATOM     73  C   UNL A   1      43.754  20.448  25.676  1.00  0.00     0.091 A 
ATOM     74  F   UNL A   1      44.193  22.684  25.156  1.00  0.00    -0.205 F 
ATOM     75  C   UNL A   1      42.959  19.506  26.321  1.00  0.00     0.022 A 
BRANCH  73  76
ATOM     76  S   UNL A   1      45.049  19.816  24.576  1.00  0.00     0.127 S 
ATOM     77  O   UNL A   1      44.805  20.578  23.349  1.00  0.00    -0.237 OA
ATOM     78  O   UNL A   1      46.278  20.178  25.278  1.00  0.00    -0.237 OA
ATOM     79  O   UNL A   1      44.808  18.383  24.444  1.00  0.00    -0.744 OA
ENDBRANCH  73  76
ENDBRANCH  55  69
BRANCH  56  80
ATOM     80  C   UNL A   1      41.697  30.798  32.530  1.00  0.00     0.023 A 
ATOM     81  C   UNL A   1      40.589  30.131  33.139  1.00  0.00     0.012 A 
ATOM     82  C   UNL A   1      41.797  32.184  32.701  1.00  0.00     0.148 A 
ATOM     83  C   UNL A   1      39.722  30.785  34.016  1.00  0.00     0.002 A 
ATOM     84  C   UNL A   1      40.894  32.844  33.551  1.00  0.00     0.091 A 
ATOM     85  F   UNL A   1      42.792  32.845  32.095  1.00  0.00    -0.205 F 
ATOM     86  C   UNL A   1      39.893  32.141  34.244  1.00  0.00     0.022 A 
BRANCH  84  87
ATOM     87  S   UNL A   1      41.070  34.605  33.887  1.00  0.00     0.127 S 
ATOM     88  O   UNL A   1      41.926  35.069  32.793  1.00  0.00    -0.237 OA
ATOM     89  O   UNL A   1      39.709  35.118  33.817  1.00  0.00    -0.237 OA
ATOM     90  O   UNL A   1      41.710  34.598  35.198  1.00  0.00    -0.744 OA
ENDBRANCH  84  87
ENDBRANCH  56  80
BRANCH  68  91
ATOM     91  C   UNL A   1      44.692  24.137  33.162  1.00  0.00     0.023 A 
ATOM     92  C   UNL A   1      43.839  23.059  33.479  1.00  0.00     0.012 A 
ATOM     93  C   UNL A   1      46.016  24.054  33.662  1.00  0.00     0.148 A 
ATOM     94  C   UNL A   1      44.217  22.035  34.349  1.00  0.00     0.002 A 
ATOM     95  C   UNL A   1      46.425  22.973  34.439  1.00  0.00     0.091 A 
ATOM     96  F   UNL A   1      46.897  25.029  33.411  1.00  0.00    -0.205 F 
ATOM     97  C   UNL A   1      45.516  21.986  34.822  1.00  0.00     0.022 A 
BRANCH  95  98
ATOM     98  S   UNL A   1      48.147  22.747  34.894  1.00  0.00     0.127 S 
ATOM     99  O   UNL A   1      48.149  23.197  36.284  1.00  0.00    -0.237 OA
ATOM    100  O   UNL A   1      48.329  21.304  34.725  1.00  0.00    -0.237 OA
ATOM    101  O   UNL A   1      48.912  23.561  33.959  1.00  0.00    -0.744 OA
ENDBRANCH  95  98
ENDBRANCH  68  91
ENDBRANCH  42  43
ENDBRANCH  35  37
ENDBRANCH  34  35
ENDBRANCH  33  34
ENDBRANCH  32  33
ENDBRANCH  31  32
ENDBRANCH   1  31
TORSDOF 22
ENDMDL
MODEL 2
REMARK VINA RESULT:     -12.7      1.879      2.359
REMARK SMILES Cc1ccccc1-c1c(Cl)ccc2c1C=C(C(=O)OCCOCCOCCOC(=O)c1ccc(-c3c4nc(c(-c5cccc(S(=O)(=O)[O-])c5F)c5ccc([nH]5)c(-c5cccc(S(=O)(=O)[O-])c5F)c5nc(c(-c6cccc(S(=O)(=O)[O-])c6F)c6ccc3[nH]6)C=C5)C=C4)cc1)[C@@H](C(F)(F)F)O2
REMARK SMILES IDX 24 1 23 2 22 3 21 4 20 5 19 6 17 7 18 8 16 9 8 10 9 11 14 12
REMARK SMILES IDX 10 13 11 14 13 15 15 16 12 17 99 18 94 19 7 20 1 21 2 22
REMARK SMILES IDX 3 23 4 24 6 25 5 26 95 27 96 28 97 29 98 30 25 31 26 32
REMARK SMILES IDX 27 33 28 34 29 35 30 36 31 37 32 38 93 39 33 40 92 41 34 42
REMARK SMILES IDX 35 43 36 44 86 45 37 46 91 47 85 48 87 49 38 50 90 51 84 52
REMARK SMILES IDX 83 53 39 55 71 56 51 57 70 58 52 59 55 60 69 61 88 62 53 63
REMARK SMILES IDX 54 64 68 66 89 67 56 68 40 69 41 70 49 71 42 72 44 73 50 74
REMARK SMILES IDX 43 75 45 76 46 77 47 78 48 79 72 80 73 81 81 82 74 83 76 84
REMARK SMILES IDX 82 85 75 86 77 87 78 88 79 89 80 90 57 91 58 92 66 93 59 94
REMARK SMILES IDX 61 95 67 96 60 97 62 98 63 99 64 100 65 101
REMARK H PARENT 87 54 55 65
REMARK Flexibility Score: inf
ROOT
ATOM      1  C   UNL A   1      33.951  35.775  30.120  1.00  0.00     0.188 C 
ENDROOT
BRANCH   1   2
ATOM      2  C   UNL A   1      33.039  35.040  29.189  1.00  0.00     0.188 C 
BRANCH   2   3
ATOM      3  O   UNL A   1      33.511  34.285  28.047  1.00  0.00    -0.376 OA
BRANCH   3   4
ATOM      4  C   UNL A   1      33.842  32.864  27.865  1.00  0.00     0.202 C 
BRANCH   4   5
ATOM      5  C   UNL A   1      33.021  31.259  27.574  1.00  0.00     0.261 C 
BRANCH   5   6
ATOM      6  O   UNL A   1      32.969  30.102  26.191  1.00  0.00    -0.460 OA
BRANCH   6   7
ATOM      7  C   UNL A   1      33.598  28.806  25.773  1.00  0.00     0.338 C 
ATOM      8  O   UNL A   1      34.482  28.227  26.411  1.00  0.00    -0.246 OA
BRANCH   7   9
ATOM      9  C   UNL A   1      33.384  28.112  24.440  1.00  0.00     0.087 C 
ATOM     10  C   UNL A   1      33.275  24.382  25.320  1.00  0.00     0.012 A 
ATOM     11  C   UNL A   1      32.370  23.526  26.007  1.00  0.00     0.049 A 
ATOM     12  C   UNL A   1      32.874  25.725  25.044  1.00  0.00     0.027 A 
ATOM     13  Cl  UNL A   1      32.788  21.906  26.469  1.00  0.00    -0.084 Cl
ATOM     14  C   UNL A   1      31.090  23.953  26.363  1.00  0.00     0.025 A 
ATOM     15  C   UNL A   1      31.553  26.093  25.348  1.00  0.00     0.128 A 
ATOM     16  C   UNL A   1      33.801  26.808  24.498  1.00  0.00     0.028 C 
ATOM     17  C   UNL A   1      30.676  25.232  26.017  1.00  0.00     0.049 A 
ATOM     18  O   UNL A   1      31.046  27.325  25.042  1.00  0.00    -0.475 OA
ATOM     19  C   UNL A   1      31.835  28.144  24.141  1.00  0.00     0.316 C 
BRANCH  10  20
ATOM     20  C   UNL A   1      34.597  23.884  24.885  1.00  0.00    -0.013 A 
ATOM     21  C   UNL A   1      33.754  23.298  22.560  1.00  0.00     0.045 C 
ATOM     22  C   UNL A   1      34.803  23.303  23.624  1.00  0.00    -0.043 A 
ATOM     23  C   UNL A   1      36.026  22.688  23.317  1.00  0.00     0.004 A 
ATOM     24  C   UNL A   1      37.078  22.717  24.224  1.00  0.00     0.000 A 
ATOM     25  C   UNL A   1      35.690  23.944  25.768  1.00  0.00     0.009 A 
ATOM     26  C   UNL A   1      36.921  23.377  25.437  1.00  0.00     0.001 A 
ENDBRANCH  10  20
BRANCH  19  27
ATOM     27  C   UNL A   1      31.504  27.755  22.686  1.00  0.00     0.430 C 
ATOM     28  F   UNL A   1      30.615  28.576  22.086  1.00  0.00    -0.167 F 
ATOM     29  F   UNL A   1      32.629  27.778  21.919  1.00  0.00    -0.167 F 
ATOM     30  F   UNL A   1      31.001  26.498  22.569  1.00  0.00    -0.167 F 
ENDBRANCH  19  27
ENDBRANCH   7   9
ENDBRANCH   6   7
ENDBRANCH   5   6
ENDBRANCH   4   5
ENDBRANCH   3   4
ENDBRANCH   2   3
ENDBRANCH   1   2
BRANCH   1  31
ATOM     31  O   UNL A   1      33.687  35.237  31.379  1.00  0.00    -0.376 OA
BRANCH  31  32
ATOM     32  C   UNL A   1      33.991  33.883  31.516  1.00  0.00     0.202 C 
BRANCH  32  33
ATOM     33  C   UNL A   1      35.474  33.711  31.842  1.00  0.00     0.261 C 
BRANCH  33  34
ATOM     34  O   UNL A   1      36.117  32.854  30.857  1.00  0.00    -0.460 OA
BRANCH  34  35
ATOM     35  C   UNL A   1      36.220  31.497  31.166  1.00  0.00     0.338 C 
ATOM     36  O   UNL A   1      35.810  31.025  32.186  1.00  0.00    -0.246 OA
BRANCH  35  37
ATOM     37  C   UNL A   1      37.095  30.795  30.132  1.00  0.00     0.060 A 
ATOM     38  C   UNL A   1      37.202  29.408  29.893  1.00  0.00     0.016 A 
ATOM     39  C   UNL A   1      38.142  31.513  29.705  1.00  0.00     0.016 A 
ATOM     40  C   UNL A   1      38.484  28.730  29.542  1.00  0.00     0.010 A 
ATOM     41  C   UNL A   1      39.346  30.806  29.632  1.00  0.00     0.010 A 
ATOM     42  C   UNL A   1      39.719  29.390  29.546  1.00  0.00    -0.014 A 
BRANCH  42  43
ATOM     43  C   UNL A   1      41.370  28.634  29.526  1.00  0.00     0.031 A 
ATOM     44  C   UNL A   1      41.985  27.123  28.787  1.00  0.00     0.074 A 
ATOM     45  C   UNL A   1      42.441  29.278  30.079  1.00  0.00     0.049 A 
ATOM     46  N   UNL A   1      43.219  26.945  28.333  1.00  0.00    -0.248 NA
ATOM     47  C   UNL A   1      41.234  25.876  28.285  1.00  0.00     0.031 C 
ATOM     48  C   UNL A   1      43.884  28.961  30.037  1.00  0.00     0.029 A 
ATOM     49  N   UNL A   1      42.459  30.465  30.816  1.00  0.00    -0.354 N 
ATOM     50  C   UNL A   1      43.276  25.697  27.707  1.00  0.00     0.074 A 
ATOM     51  C   UNL A   1      41.969  25.452  27.263  1.00  0.00     0.031 C 
ATOM     52  C   UNL A   1      44.541  29.683  30.960  1.00  0.00     0.029 A 
ATOM     53  C   UNL A   1      43.535  30.405  31.703  1.00  0.00     0.049 A 
ATOM     54  H   UNL A   1      41.824  31.212  30.724  1.00  0.00     0.167 HD
ATOM     55  C   UNL A   1      44.018  24.611  28.083  1.00  0.00     0.034 A 
ATOM     56  C   UNL A   1      43.264  30.319  33.029  1.00  0.00     0.034 A 
ATOM     57  C   UNL A   1      44.793  24.928  29.261  1.00  0.00     0.049 A 
ATOM     58  C   UNL A   1      43.671  28.948  33.503  1.00  0.00     0.074 A 
ATOM     59  C   UNL A   1      45.964  25.644  29.406  1.00  0.00     0.029 A 
ATOM     60  N   UNL A   1      44.185  24.891  30.523  1.00  0.00    -0.354 N 
ATOM     61  N   UNL A   1      43.767  27.892  32.734  1.00  0.00    -0.248 NA
ATOM     62  C   UNL A   1      44.156  28.714  34.851  1.00  0.00     0.031 C 
ATOM     63  C   UNL A   1      46.013  26.123  30.741  1.00  0.00     0.029 A 
ATOM     64  C   UNL A   1      44.923  25.626  31.444  1.00  0.00     0.049 A 
ATOM     65  H   UNL A   1      43.350  24.411  30.729  1.00  0.00     0.167 HD
ATOM     66  C   UNL A   1      44.337  26.866  33.432  1.00  0.00     0.074 A 
ATOM     67  C   UNL A   1      44.565  27.438  34.754  1.00  0.00     0.031 C 
ATOM     68  C   UNL A   1      44.636  25.645  32.882  1.00  0.00     0.034 A 
BRANCH  55  69
ATOM     69  C   UNL A   1      44.081  23.346  27.191  1.00  0.00     0.023 A 
ATOM     70  C   UNL A   1      44.844  23.446  26.018  1.00  0.00     0.012 A 
ATOM     71  C   UNL A   1      43.322  22.137  27.318  1.00  0.00     0.148 A 
ATOM     72  C   UNL A   1      44.754  22.491  24.986  1.00  0.00     0.002 A 
ATOM     73  C   UNL A   1      43.145  21.246  26.252  1.00  0.00     0.091 A 
ATOM     74  F   UNL A   1      42.813  21.782  28.503  1.00  0.00    -0.205 F 
ATOM     75  C   UNL A   1      43.866  21.424  25.076  1.00  0.00     0.022 A 
BRANCH  73  76
ATOM     76  S   UNL A   1      41.902  19.925  26.263  1.00  0.00     0.127 S 
ATOM     77  O   UNL A   1      42.253  19.167  25.059  1.00  0.00    -0.237 OA
ATOM     78  O   UNL A   1      42.177  19.230  27.517  1.00  0.00    -0.237 OA
ATOM     79  O   UNL A   1      40.604  20.587  26.190  1.00  0.00    -0.744 OA
ENDBRANCH  73  76
ENDBRANCH  55  69
BRANCH  56  80
ATOM     80  C   UNL A   1      42.077  31.155  33.424  1.00  0.00     0.023 A 
ATOM     81  C   UNL A   1      41.941  32.414  32.759  1.00  0.00     0.012 A 
ATOM     82  C   UNL A   1      40.974  30.674  34.140  1.00  0.00     0.148 A 
ATOM     83  C   UNL A   1      40.715  33.075  32.669  1.00  0.00     0.002 A 
ATOM     84  C   UNL A   1      39.754  31.367  34.081  1.00  0.00     0.091 A 
ATOM     85  F   UNL A   1      41.090  29.526  34.820  1.00  0.00    -0.205 F 
ATOM     86  C   UNL A   1      39.611  32.534  33.310  1.00  0.00     0.022 A 
BRANCH  84  87
ATOM     87  S   UNL A   1      38.286  30.711  34.891  1.00  0.00     0.127 S 
ATOM     88  O   UNL A   1      37.365  31.850  34.888  1.00  0.00    -0.237 OA
ATOM     89  O   UNL A   1      37.860  29.620  34.026  1.00  0.00    -0.237 OA
ATOM     90  O   UNL A   1      38.803  30.352  36.206  1.00  0.00    -0.744 OA
ENDBRANCH  84  87
ENDBRANCH  56  80
BRANCH  68  91
ATOM     91  C   UNL A   1      44.916  24.403  33.713  1.00  0.00     0.023 A 
ATOM     92  C   UNL A   1      43.892  23.501  34.068  1.00  0.00     0.012 A 
ATOM     93  C   UNL A   1      46.232  24.030  34.086  1.00  0.00     0.148 A 
ATOM     94  C   UNL A   1      44.125  22.376  34.861  1.00  0.00     0.002 A 
ATOM     95  C   UNL A   1      46.476  22.849  34.781  1.00  0.00     0.091 A 
ATOM     96  F   UNL A   1      47.270  24.822  33.790  1.00  0.00    -0.205 F 
ATOM     97  C   UNL A   1      45.421  22.044  35.210  1.00  0.00     0.022 A 
BRANCH  95  98
ATOM     98  S   UNL A   1      48.149  22.259  35.067  1.00  0.00     0.127 S 
ATOM     99  O   UNL A   1      48.936  23.199  34.272  1.00  0.00    -0.237 OA
ATOM    100  O   UNL A   1      48.295  22.421  36.515  1.00  0.00    -0.237 OA
ATOM    101  O   UNL A   1      48.160  20.874  34.616  1.00  0.00    -0.744 OA
ENDBRANCH  95  98
ENDBRANCH  68  91
ENDBRANCH  42  43
ENDBRANCH  35  37
ENDBRANCH  34  35
ENDBRANCH  33  34
ENDBRANCH  32  33
ENDBRANCH  31  32
ENDBRANCH   1  31
TORSDOF 22
ENDMDL
MODEL 3
REMARK VINA RESULT:     -12.6      2.169      2.974
REMARK SMILES Cc1ccccc1-c1c(Cl)ccc2c1C=C(C(=O)OCCOCCOCCOC(=O)c1ccc(-c3c4nc(c(-c5cccc(S(=O)(=O)[O-])c5F)c5ccc([nH]5)c(-c5cccc(S(=O)(=O)[O-])c5F)c5nc(c(-c6cccc(S(=O)(=O)[O-])c6F)c6ccc3[nH]6)C=C5)C=C4)cc1)[C@@H](C(F)(F)F)O2
REMARK SMILES IDX 24 1 23 2 22 3 21 4 20 5 19 6 17 7 18 8 16 9 8 10 9 11 14 12
REMARK SMILES IDX 10 13 11 14 13 15 15 16 12 17 99 18 94 19 7 20 1 21 2 22
REMARK SMILES IDX 3 23 4 24 6 25 5 26 95 27 96 28 97 29 98 30 25 31 26 32
REMARK SMILES IDX 27 33 28 34 29 35 30 36 31 37 32 38 93 39 33 40 92 41 34 42
REMARK SMILES IDX 35 43 36 44 86 45 37 46 91 47 85 48 87 49 38 50 90 51 84 52
REMARK SMILES IDX 83 53 39 55 71 56 51 57 70 58 52 59 55 60 69 61 88 62 53 63
REMARK SMILES IDX 54 64 68 66 89 67 56 68 40 69 41 70 49 71 42 72 44 73 50 74
REMARK SMILES IDX 43 75 45 76 46 77 47 78 48 79 72 80 73 81 81 82 74 83 76 84
REMARK SMILES IDX 82 85 75 86 77 87 78 88 79 89 80 90 57 91 58 92 66 93 59 94
REMARK SMILES IDX 61 95 67 96 60 97 62 98 63 99 64 100 65 101
REMARK H PARENT 87 54 55 65
REMARK Flexibility Score: inf
ROOT
ATOM      1  C   UNL A   1      33.265  36.508  29.747  1.00  0.00     0.188 C 
ENDROOT
BRANCH   1   2
ATOM      2  C   UNL A   1      33.212  35.315  28.846  1.00  0.00     0.188 C 
BRANCH   2   3
ATOM      3  O   UNL A   1      34.336  34.874  28.047  1.00  0.00    -0.376 OA
BRANCH   3   4
ATOM      4  C   UNL A   1      34.911  33.545  27.792  1.00  0.00     0.202 C 
BRANCH   4   5
ATOM      5  C   UNL A   1      34.456  31.778  27.885  1.00  0.00     0.261 C 
BRANCH   5   6
ATOM      6  O   UNL A   1      33.654  30.621  26.757  1.00  0.00    -0.460 OA
BRANCH   6   7
ATOM      7  C   UNL A   1      33.796  29.198  26.304  1.00  0.00     0.338 C 
ATOM      8  O   UNL A   1      34.246  28.288  27.005  1.00  0.00    -0.246 OA
BRANCH   7   9
ATOM      9  C   UNL A   1      33.585  28.700  24.884  1.00  0.00     0.087 C 
ATOM     10  C   UNL A   1      33.017  24.929  25.277  1.00  0.00     0.012 A 
ATOM     11  C   UNL A   1      31.985  24.107  25.809  1.00  0.00     0.049 A 
ATOM     12  C   UNL A   1      32.783  26.333  25.157  1.00  0.00     0.027 A 
ATOM     13  Cl  UNL A   1      32.197  22.405  26.080  1.00  0.00    -0.084 Cl
ATOM     14  C   UNL A   1      30.741  24.633  26.160  1.00  0.00     0.025 A 
ATOM     15  C   UNL A   1      31.495  26.812  25.447  1.00  0.00     0.128 A 
ATOM     16  C   UNL A   1      33.853  27.359  24.795  1.00  0.00     0.028 C 
ATOM     17  C   UNL A   1      30.491  25.984  25.961  1.00  0.00     0.049 A 
ATOM     18  O   UNL A   1      31.144  28.123  25.277  1.00  0.00    -0.475 OA
ATOM     19  C   UNL A   1      32.070  28.948  24.524  1.00  0.00     0.316 C 
BRANCH  10  20
ATOM     20  C   UNL A   1      34.300  24.338  24.841  1.00  0.00    -0.013 A 
ATOM     21  C   UNL A   1      33.426  23.843  22.507  1.00  0.00     0.045 C 
ATOM     22  C   UNL A   1      34.467  23.757  23.574  1.00  0.00    -0.043 A 
ATOM     23  C   UNL A   1      35.642  23.056  23.265  1.00  0.00     0.004 A 
ATOM     24  C   UNL A   1      36.689  22.995  24.176  1.00  0.00     0.000 A 
ATOM     25  C   UNL A   1      35.391  24.306  25.729  1.00  0.00     0.009 A 
ATOM     26  C   UNL A   1      36.577  23.651  25.396  1.00  0.00     0.001 A 
ENDBRANCH  10  20
BRANCH  19  27
ATOM     27  C   UNL A   1      31.783  28.780  23.018  1.00  0.00     0.430 C 
ATOM     28  F   UNL A   1      31.445  27.522  22.661  1.00  0.00    -0.167 F 
ATOM     29  F   UNL A   1      30.750  29.581  22.637  1.00  0.00    -0.167 F 
ATOM     30  F   UNL A   1      32.835  29.129  22.230  1.00  0.00    -0.167 F 
ENDBRANCH  19  27
ENDBRANCH   7   9
ENDBRANCH   6   7
ENDBRANCH   5   6
ENDBRANCH   4   5
ENDBRANCH   3   4
ENDBRANCH   2   3
ENDBRANCH   1   2
BRANCH   1  31
ATOM     31  O   UNL A   1      32.686  36.081  30.942  1.00  0.00    -0.376 OA
BRANCH  31  32
ATOM     32  C   UNL A   1      33.286  34.964  31.521  1.00  0.00     0.202 C 
BRANCH  32  33
ATOM     33  C   UNL A   1      34.435  35.400  32.429  1.00  0.00     0.261 C 
BRANCH  33  34
ATOM     34  O   UNL A   1      35.567  34.496  32.289  1.00  0.00    -0.460 OA
BRANCH  34  35
ATOM     35  C   UNL A   1      35.429  33.216  32.829  1.00  0.00     0.338 C 
ATOM     36  O   UNL A   1      35.122  33.016  33.969  1.00  0.00    -0.246 OA
BRANCH  35  37
ATOM     37  C   UNL A   1      35.925  32.176  31.830  1.00  0.00     0.060 A 
ATOM     38  C   UNL A   1      36.219  30.817  32.076  1.00  0.00     0.016 A 
ATOM     39  C   UNL A   1      36.518  32.683  30.742  1.00  0.00     0.016 A 
ATOM     40  C   UNL A   1      37.353  30.091  31.432  1.00  0.00     0.010 A 
ATOM     41  C   UNL A   1      37.706  32.043  30.371  1.00  0.00     0.010 A 
ATOM     42  C   UNL A   1      38.304  30.729  30.627  1.00  0.00    -0.014 A 
BRANCH  42  43
ATOM     43  C   UNL A   1      39.918  30.078  30.108  1.00  0.00     0.031 A 
ATOM     44  C   UNL A   1      40.406  28.499  29.417  1.00  0.00     0.074 A 
ATOM     45  C   UNL A   1      41.032  30.870  30.129  1.00  0.00     0.049 A 
ATOM     46  N   UNL A   1      41.411  28.318  28.570  1.00  0.00    -0.248 NA
ATOM     47  C   UNL A   1      39.679  27.142  29.409  1.00  0.00     0.031 C 
ATOM     48  C   UNL A   1      42.392  30.636  29.604  1.00  0.00     0.029 A 
ATOM     49  N   UNL A   1      41.168  32.167  30.631  1.00  0.00    -0.354 N 
ATOM     50  C   UNL A   1      41.391  26.984  28.151  1.00  0.00     0.074 A 
ATOM     51  C   UNL A   1      40.049  26.589  28.259  1.00  0.00     0.031 C 
ATOM     52  C   UNL A   1      43.243  31.546  30.108  1.00  0.00     0.029 A 
ATOM     53  C   UNL A   1      42.488  32.327  31.058  1.00  0.00     0.049 A 
ATOM     54  H   UNL A   1      40.459  32.848  30.675  1.00  0.00     0.167 HD
ATOM     55  C   UNL A   1      42.340  26.027  28.377  1.00  0.00     0.034 A 
ATOM     56  C   UNL A   1      42.715  32.459  32.389  1.00  0.00     0.034 A 
ATOM     57  C   UNL A   1      43.439  26.590  29.129  1.00  0.00     0.049 A 
ATOM     58  C   UNL A   1      43.423  31.218  32.868  1.00  0.00     0.074 A 
ATOM     59  C   UNL A   1      44.491  27.387  28.729  1.00  0.00     0.029 A 
ATOM     60  N   UNL A   1      43.326  26.739  30.518  1.00  0.00    -0.354 N 
ATOM     61  N   UNL A   1      43.365  30.051  32.277  1.00  0.00    -0.248 NA
ATOM     62  C   UNL A   1      44.378  31.253  33.962  1.00  0.00     0.031 C 
ATOM     63  C   UNL A   1      44.953  28.095  29.869  1.00  0.00     0.029 A 
ATOM     64  C   UNL A   1      44.249  27.666  30.987  1.00  0.00     0.049 A 
ATOM     65  H   UNL A   1      42.680  26.255  31.083  1.00  0.00     0.167 HD
ATOM     66  C   UNL A   1      44.262  29.199  32.854  1.00  0.00     0.074 A 
ATOM     67  C   UNL A   1      44.874  30.006  33.903  1.00  0.00     0.031 C 
ATOM     68  C   UNL A   1      44.489  27.920  32.412  1.00  0.00     0.034 A 
BRANCH  55  69
ATOM     69  C   UNL A   1      42.233  24.631  27.714  1.00  0.00     0.023 A 
ATOM     70  C   UNL A   1      41.554  23.643  28.444  1.00  0.00     0.012 A 
ATOM     71  C   UNL A   1      42.884  24.164  26.526  1.00  0.00     0.148 A 
ATOM     72  C   UNL A   1      41.631  22.278  28.104  1.00  0.00     0.002 A 
ATOM     73  C   UNL A   1      43.056  22.802  26.249  1.00  0.00     0.091 A 
ATOM     74  F   UNL A   1      43.289  25.033  25.594  1.00  0.00    -0.205 F 
ATOM     75  C   UNL A   1      42.426  21.851  27.044  1.00  0.00     0.022 A 
BRANCH  73  76
ATOM     76  S   UNL A   1      44.187  22.187  24.972  1.00  0.00     0.127 S 
ATOM     77  O   UNL A   1      45.434  22.875  25.313  1.00  0.00    -0.237 OA
ATOM     78  O   UNL A   1      44.204  20.747  25.219  1.00  0.00    -0.237 OA
ATOM     79  O   UNL A   1      43.616  22.591  23.692  1.00  0.00    -0.744 OA
ENDBRANCH  73  76
ENDBRANCH  55  69
BRANCH  56  80
ATOM     80  C   UNL A   1      41.656  33.281  33.070  1.00  0.00     0.023 A 
ATOM     81  C   UNL A   1      40.389  32.645  33.264  1.00  0.00     0.012 A 
ATOM     82  C   UNL A   1      41.905  34.464  33.776  1.00  0.00     0.148 A 
ATOM     83  C   UNL A   1      39.488  33.072  34.240  1.00  0.00     0.002 A 
ATOM     84  C   UNL A   1      40.973  34.913  34.726  1.00  0.00     0.091 A 
ATOM     85  F   UNL A   1      43.059  35.113  33.572  1.00  0.00    -0.205 F 
ATOM     86  C   UNL A   1      39.794  34.194  34.993  1.00  0.00     0.022 A 
BRANCH  84  87
ATOM     87  S   UNL A   1      41.319  36.363  35.736  1.00  0.00     0.127 S 
ATOM     88  O   UNL A   1      40.030  36.642  36.374  1.00  0.00    -0.237 OA
ATOM     89  O   UNL A   1      42.341  35.912  36.670  1.00  0.00    -0.237 OA
ATOM     90  O   UNL A   1      41.722  37.340  34.731  1.00  0.00    -0.744 OA
ENDBRANCH  84  87
ENDBRANCH  56  80
BRANCH  68  91
ATOM     91  C   UNL A   1      45.190  26.861  33.248  1.00  0.00     0.023 A 
ATOM     92  C   UNL A   1      46.391  26.254  32.823  1.00  0.00     0.012 A 
ATOM     93  C   UNL A   1      44.736  26.505  34.543  1.00  0.00     0.148 A 
ATOM     94  C   UNL A   1      47.028  25.255  33.561  1.00  0.00     0.002 A 
ATOM     95  C   UNL A   1      45.435  25.590  35.325  1.00  0.00     0.091 A 
ATOM     96  F   UNL A   1      43.607  27.032  35.033  1.00  0.00    -0.205 F 
ATOM     97  C   UNL A   1      46.554  24.929  34.819  1.00  0.00     0.022 A 
BRANCH  95  98
ATOM     98  S   UNL A   1      44.994  25.294  37.041  1.00  0.00     0.127 S 
ATOM     99  O   UNL A   1      46.026  24.347  37.454  1.00  0.00    -0.237 OA
ATOM    100  O   UNL A   1      45.124  26.627  37.632  1.00  0.00    -0.237 OA
ATOM    101  O   UNL A   1      43.630  24.781  37.014  1.00  0.00    -0.744 OA
ENDBRANCH  95  98
ENDBRANCH  68  91
ENDBRANCH  42  43
ENDBRANCH  35  37
ENDBRANCH  34  35
ENDBRANCH  33  34
ENDBRANCH  32  33
ENDBRANCH  31  32
ENDBRANCH   1  31
TORSDOF 22
ENDMDL
