MODEL 1
REMARK VINA RESULT:     -11.7      0.000      0.000
REMARK SMILES Cc1ccn(CC(=O)N2CCC3(CC2)NC(=O)C[C@@H]3C(=O)OCCOCCOCCOC(=O)c2ccc(-c3c4nc(c(-c5cccc(S(=O)(=O)[O-])c5F)c5ccc([nH]5)c(-c5cccc(S(=O)(=O)[O-])c5F)c5nc(c(-c6cccc(S(=O)(=O)[O-])c6F)c6ccc3[nH]6)C=C5)C=C4)cc2)n1
REMARK SMILES IDX 27 1 26 2 25 3 24 4 23 5 22 6 20 7 21 8 19 9 7 10 8 11 9 12
REMARK SMILES IDX 10 13 14 14 11 15 13 16 12 17 15 18 16 19 18 21 17 22 6 23
REMARK SMILES IDX 5 24 1 25 2 26 3 27 97 28 4 29 28 30 29 31 30 32 31 33 32 34
REMARK SMILES IDX 33 35 34 36 35 37 96 38 36 39 95 40 37 41 38 42 39 43 89 44
REMARK SMILES IDX 40 45 94 46 88 47 90 48 41 49 93 50 87 51 86 52 42 54 74 55
REMARK SMILES IDX 54 56 73 57 55 58 58 59 72 60 91 61 56 62 57 63 71 65 92 66
REMARK SMILES IDX 59 67 43 68 44 69 52 70 45 71 47 72 53 73 46 74 48 75 49 76
REMARK SMILES IDX 50 77 51 78 75 79 76 80 84 81 77 82 79 83 85 84 78 85 80 86
REMARK SMILES IDX 81 87 82 88 83 89 60 90 61 91 69 92 62 93 64 94 70 95 63 96
REMARK SMILES IDX 65 97 66 98 67 99 68 100
REMARK H PARENT 15 20 90 53 58 64
REMARK Flexibility Score: inf
ROOT
ATOM      1  C   UNL A   1      34.565  31.668  27.904  1.00  0.00     0.188 C 
ENDROOT
BRANCH   1   2
ATOM      2  C   UNL A   1      33.274  31.106  27.270  1.00  0.00     0.188 C 
BRANCH   2   3
ATOM      3  O   UNL A   1      33.075  29.713  27.420  1.00  0.00    -0.376 OA
BRANCH   3   4
ATOM      4  C   UNL A   1      34.061  28.891  26.804  1.00  0.00     0.202 C 
BRANCH   4   5
ATOM      5  C   UNL A   1      33.528  27.532  26.313  1.00  0.00     0.261 C 
BRANCH   5   6
ATOM      6  O   UNL A   1      33.711  27.270  24.906  1.00  0.00    -0.463 OA
BRANCH   6   7
ATOM      7  C   UNL A   1      33.063  28.111  24.068  1.00  0.00     0.311 C 
ATOM      8  O   UNL A   1      33.644  28.737  23.195  1.00  0.00    -0.252 OA
BRANCH   7   9
ATOM      9  C   UNL A   1      31.559  28.038  24.198  1.00  0.00     0.134 C 
ATOM     10  C   UNL A   1      33.001  23.352  22.650  1.00  0.00     0.244 C 
ATOM     11  O   UNL A   1      34.156  23.444  22.221  1.00  0.00    -0.273 OA
ATOM     12  N   UNL A   1      32.177  24.479  22.754  1.00  0.00    -0.341 N 
ATOM     13  C   UNL A   1      32.505  25.589  21.865  1.00  0.00     0.122 C 
ATOM     14  C   UNL A   1      31.599  24.828  24.048  1.00  0.00     0.122 C 
ATOM     15  C   UNL A   1      31.522  26.770  21.874  1.00  0.00     0.051 C 
ATOM     16  C   UNL A   1      30.419  25.764  23.895  1.00  0.00     0.051 C 
ATOM     17  C   UNL A   1      30.823  27.082  23.215  1.00  0.00     0.057 C 
ATOM     18  N   UNL A   1      29.598  27.822  22.939  1.00  0.00    -0.350 N 
ATOM     19  C   UNL A   1      29.587  29.120  23.375  1.00  0.00     0.221 C 
ATOM     20  H   UNL A   1      28.831  27.417  22.472  1.00  0.00     0.164 HD
ATOM     21  C   UNL A   1      30.893  29.413  24.038  1.00  0.00     0.117 C 
ATOM     22  O   UNL A   1      28.667  29.900  23.210  1.00  0.00    -0.275 OA
BRANCH  10  23
ATOM     23  C   UNL A   1      32.367  21.981  22.762  1.00  0.00     0.244 C 
BRANCH  23  24
ATOM     24  N   UNL A   1      32.673  21.216  23.949  1.00  0.00    -0.263 N 
ATOM     25  C   UNL A   1      32.708  18.070  25.569  1.00  0.00     0.069 C 
ATOM     26  C   UNL A   1      32.846  19.488  25.166  1.00  0.00     0.059 A 
ATOM     27  C   UNL A   1      33.380  20.563  25.913  1.00  0.00     0.045 A 
ATOM     28  N   UNL A   1      32.442  19.886  23.954  1.00  0.00    -0.178 NA
ATOM     29  C   UNL A   1      33.266  21.662  25.094  1.00  0.00     0.109 A 
ENDBRANCH  23  24
ENDBRANCH  10  23
ENDBRANCH   7   9
ENDBRANCH   6   7
ENDBRANCH   5   6
ENDBRANCH   4   5
ENDBRANCH   3   4
ENDBRANCH   2   3
ENDBRANCH   1   2
BRANCH   1  30
ATOM     30  O   UNL A   1      34.569  32.468  29.081  1.00  0.00    -0.376 OA
BRANCH  30  31
ATOM     31  C   UNL A   1      35.701  33.231  29.479  1.00  0.00     0.202 C 
BRANCH  31  32
ATOM     32  C   UNL A   1      36.687  32.655  30.489  1.00  0.00     0.261 C 
BRANCH  32  33
ATOM     33  O   UNL A   1      37.389  31.545  29.966  1.00  0.00    -0.460 OA
BRANCH  33  34
ATOM     34  C   UNL A   1      37.029  30.369  30.513  1.00  0.00     0.338 C 
ATOM     35  O   UNL A   1      36.321  30.192  31.491  1.00  0.00    -0.246 OA
BRANCH  34  36
ATOM     36  C   UNL A   1      37.634  29.280  29.737  1.00  0.00     0.060 A 
ATOM     37  C   UNL A   1      37.991  28.146  30.467  1.00  0.00     0.016 A 
ATOM     38  C   UNL A   1      38.085  29.507  28.426  1.00  0.00     0.016 A 
ATOM     39  C   UNL A   1      39.076  27.434  30.034  1.00  0.00     0.010 A 
ATOM     40  C   UNL A   1      39.168  28.790  27.988  1.00  0.00     0.010 A 
ATOM     41  C   UNL A   1      39.727  27.883  28.883  1.00  0.00    -0.014 A 
BRANCH  41  42
ATOM     42  C   UNL A   1      41.139  27.589  28.807  1.00  0.00     0.031 A 
ATOM     43  C   UNL A   1      41.485  26.312  28.176  1.00  0.00     0.074 A 
ATOM     44  C   UNL A   1      42.041  28.477  29.267  1.00  0.00     0.049 A 
ATOM     45  N   UNL A   1      42.065  25.299  28.725  1.00  0.00    -0.248 NA
ATOM     46  C   UNL A   1      41.022  26.094  26.802  1.00  0.00     0.031 C 
ATOM     47  C   UNL A   1      41.806  29.880  29.632  1.00  0.00     0.029 A 
ATOM     48  N   UNL A   1      43.396  28.360  29.331  1.00  0.00    -0.354 N 
ATOM     49  C   UNL A   1      42.251  24.395  27.690  1.00  0.00     0.074 A 
ATOM     50  C   UNL A   1      41.434  24.845  26.591  1.00  0.00     0.031 C 
ATOM     51  C   UNL A   1      42.982  30.543  29.578  1.00  0.00     0.029 A 
ATOM     52  C   UNL A   1      44.039  29.589  29.293  1.00  0.00     0.049 A 
ATOM     53  H   UNL A   1      43.867  27.498  29.396  1.00  0.00     0.167 HD
ATOM     54  C   UNL A   1      43.261  23.488  27.714  1.00  0.00     0.034 A 
ATOM     55  C   UNL A   1      45.316  29.808  28.900  1.00  0.00     0.034 A 
ATOM     56  C   UNL A   1      43.820  23.313  29.027  1.00  0.00     0.049 A 
ATOM     57  C   UNL A   1      46.045  28.518  28.988  1.00  0.00     0.074 A 
ATOM     58  C   UNL A   1      43.310  22.986  30.268  1.00  0.00     0.029 A 
ATOM     59  N   UNL A   1      45.078  23.816  29.258  1.00  0.00    -0.354 N 
ATOM     60  N   UNL A   1      46.325  27.909  30.109  1.00  0.00    -0.248 NA
ATOM     61  C   UNL A   1      46.107  27.684  27.797  1.00  0.00     0.031 C 
ATOM     62  C   UNL A   1      44.091  23.729  31.199  1.00  0.00     0.029 A 
ATOM     63  C   UNL A   1      45.040  24.449  30.471  1.00  0.00     0.049 A 
ATOM     64  H   UNL A   1      45.859  23.736  28.664  1.00  0.00     0.167 HD
ATOM     65  C   UNL A   1      46.174  26.556  29.824  1.00  0.00     0.074 A 
ATOM     66  C   UNL A   1      46.161  26.477  28.366  1.00  0.00     0.031 C 
ATOM     67  C   UNL A   1      45.772  25.662  30.778  1.00  0.00     0.034 A 
BRANCH  54  68
ATOM     68  C   UNL A   1      43.964  23.006  26.477  1.00  0.00     0.023 A 
ATOM     69  C   UNL A   1      44.520  23.976  25.620  1.00  0.00     0.012 A 
ATOM     70  C   UNL A   1      43.889  21.680  25.994  1.00  0.00     0.148 A 
ATOM     71  C   UNL A   1      44.957  23.645  24.335  1.00  0.00     0.002 A 
ATOM     72  C   UNL A   1      44.417  21.339  24.757  1.00  0.00     0.091 A 
ATOM     73  F   UNL A   1      43.185  20.756  26.658  1.00  0.00    -0.205 F 
ATOM     74  C   UNL A   1      44.925  22.322  23.908  1.00  0.00     0.022 A 
BRANCH  72  75
ATOM     75  S   UNL A   1      44.468  19.620  24.244  1.00  0.00     0.127 S 
ATOM     76  O   UNL A   1      45.616  19.120  24.992  1.00  0.00    -0.237 OA
ATOM     77  O   UNL A   1      43.168  19.122  24.694  1.00  0.00    -0.237 OA
ATOM     78  O   UNL A   1      44.607  19.680  22.792  1.00  0.00    -0.744 OA
ENDBRANCH  72  75
ENDBRANCH  54  68
BRANCH  55  79
ATOM     79  C   UNL A   1      45.847  30.999  28.198  1.00  0.00     0.023 A 
ATOM     80  C   UNL A   1      47.207  31.332  28.318  1.00  0.00     0.012 A 
ATOM     81  C   UNL A   1      45.073  31.712  27.249  1.00  0.00     0.148 A 
ATOM     82  C   UNL A   1      47.774  32.342  27.529  1.00  0.00     0.002 A 
ATOM     83  C   UNL A   1      45.630  32.742  26.499  1.00  0.00     0.091 A 
ATOM     84  F   UNL A   1      43.814  31.324  27.004  1.00  0.00    -0.205 F 
ATOM     85  C   UNL A   1      46.986  33.055  26.627  1.00  0.00     0.022 A 
BRANCH  83  86
ATOM     86  S   UNL A   1      44.624  33.717  25.370  1.00  0.00     0.127 S 
ATOM     87  O   UNL A   1      43.605  34.277  26.260  1.00  0.00    -0.237 OA
ATOM     88  O   UNL A   1      45.586  34.685  24.854  1.00  0.00    -0.237 OA
ATOM     89  O   UNL A   1      44.097  32.757  24.407  1.00  0.00    -0.744 OA
ENDBRANCH  83  86
ENDBRANCH  55  79
BRANCH  67  90
ATOM     90  C   UNL A   1      45.753  26.087  32.228  1.00  0.00     0.023 A 
ATOM     91  C   UNL A   1      46.898  25.973  33.042  1.00  0.00     0.012 A 
ATOM     92  C   UNL A   1      44.649  26.815  32.713  1.00  0.00     0.148 A 
ATOM     93  C   UNL A   1      46.936  26.547  34.315  1.00  0.00     0.002 A 
ATOM     94  C   UNL A   1      44.710  27.427  33.961  1.00  0.00     0.091 A 
ATOM     95  F   UNL A   1      43.565  26.928  31.931  1.00  0.00    -0.205 F 
ATOM     96  C   UNL A   1      45.848  27.287  34.769  1.00  0.00     0.022 A 
BRANCH  94  97
ATOM     97  S   UNL A   1      43.399  28.518  34.531  1.00  0.00     0.127 S 
ATOM     98  O   UNL A   1      42.223  27.960  33.867  1.00  0.00    -0.237 OA
ATOM     99  O   UNL A   1      43.429  28.326  35.983  1.00  0.00    -0.237 OA
ATOM    100  O   UNL A   1      43.795  29.856  34.107  1.00  0.00    -0.744 OA
ENDBRANCH  94  97
ENDBRANCH  67  90
ENDBRANCH  41  42
ENDBRANCH  34  36
ENDBRANCH  33  34
ENDBRANCH  32  33
ENDBRANCH  31  32
ENDBRANCH  30  31
ENDBRANCH   1  30
TORSDOF 22
ENDMDL
MODEL 2
REMARK VINA RESULT:     -11.6      1.293      1.464
REMARK SMILES Cc1ccn(CC(=O)N2CCC3(CC2)NC(=O)C[C@@H]3C(=O)OCCOCCOCCOC(=O)c2ccc(-c3c4nc(c(-c5cccc(S(=O)(=O)[O-])c5F)c5ccc([nH]5)c(-c5cccc(S(=O)(=O)[O-])c5F)c5nc(c(-c6cccc(S(=O)(=O)[O-])c6F)c6ccc3[nH]6)C=C5)C=C4)cc2)n1
REMARK SMILES IDX 27 1 26 2 25 3 24 4 23 5 22 6 20 7 21 8 19 9 7 10 8 11 9 12
REMARK SMILES IDX 10 13 14 14 11 15 13 16 12 17 15 18 16 19 18 21 17 22 6 23
REMARK SMILES IDX 5 24 1 25 2 26 3 27 97 28 4 29 28 30 29 31 30 32 31 33 32 34
REMARK SMILES IDX 33 35 34 36 35 37 96 38 36 39 95 40 37 41 38 42 39 43 89 44
REMARK SMILES IDX 40 45 94 46 88 47 90 48 41 49 93 50 87 51 86 52 42 54 74 55
REMARK SMILES IDX 54 56 73 57 55 58 58 59 72 60 91 61 56 62 57 63 71 65 92 66
REMARK SMILES IDX 59 67 43 68 44 69 52 70 45 71 47 72 53 73 46 74 48 75 49 76
REMARK SMILES IDX 50 77 51 78 75 79 76 80 84 81 77 82 79 83 85 84 78 85 80 86
REMARK SMILES IDX 81 87 82 88 83 89 60 90 61 91 69 92 62 93 64 94 70 95 63 96
REMARK SMILES IDX 65 97 66 98 67 99 68 100
REMARK H PARENT 15 20 90 53 58 64
REMARK Flexibility Score: inf
ROOT
ATOM      1  C   UNL A   1      34.517  31.658  27.906  1.00  0.00     0.188 C 
ENDROOT
BRANCH   1   2
ATOM      2  C   UNL A   1      33.234  31.077  27.273  1.00  0.00     0.188 C 
BRANCH   2   3
ATOM      3  O   UNL A   1      33.057  29.680  27.421  1.00  0.00    -0.376 OA
BRANCH   3   4
ATOM      4  C   UNL A   1      34.060  28.874  26.812  1.00  0.00     0.202 C 
BRANCH   4   5
ATOM      5  C   UNL A   1      33.543  27.527  26.276  1.00  0.00     0.261 C 
BRANCH   5   6
ATOM      6  O   UNL A   1      33.719  27.318  24.859  1.00  0.00    -0.463 OA
BRANCH   6   7
ATOM      7  C   UNL A   1      33.058  28.182  24.056  1.00  0.00     0.311 C 
ATOM      8  O   UNL A   1      33.626  28.844  23.202  1.00  0.00    -0.252 OA
BRANCH   7   9
ATOM      9  C   UNL A   1      31.555  28.089  24.194  1.00  0.00     0.134 C 
ATOM     10  C   UNL A   1      33.048  23.427  22.621  1.00  0.00     0.244 C 
ATOM     11  O   UNL A   1      34.200  23.536  22.186  1.00  0.00    -0.273 OA
ATOM     12  N   UNL A   1      32.210  24.544  22.734  1.00  0.00    -0.341 N 
ATOM     13  C   UNL A   1      32.520  25.661  21.846  1.00  0.00     0.122 C 
ATOM     14  C   UNL A   1      31.636  24.881  24.032  1.00  0.00     0.122 C 
ATOM     15  C   UNL A   1      31.522  26.830  21.866  1.00  0.00     0.051 C 
ATOM     16  C   UNL A   1      30.443  25.801  23.889  1.00  0.00     0.051 C 
ATOM     17  C   UNL A   1      30.826  27.127  23.211  1.00  0.00     0.057 C 
ATOM     18  N   UNL A   1      29.590  27.853  22.945  1.00  0.00    -0.350 N 
ATOM     19  C   UNL A   1      29.566  29.148  23.386  1.00  0.00     0.221 C 
ATOM     20  H   UNL A   1      28.826  27.440  22.481  1.00  0.00     0.164 HD
ATOM     21  C   UNL A   1      30.871  29.456  24.043  1.00  0.00     0.117 C 
ATOM     22  O   UNL A   1      28.635  29.918  23.229  1.00  0.00    -0.275 OA
BRANCH  10  23
ATOM     23  C   UNL A   1      32.432  22.048  22.731  1.00  0.00     0.244 C 
BRANCH  23  24
ATOM     24  N   UNL A   1      32.938  21.190  23.777  1.00  0.00    -0.263 N 
ATOM     25  C   UNL A   1      32.663  18.146  25.561  1.00  0.00     0.069 C 
ATOM     26  C   UNL A   1      33.050  19.459  24.998  1.00  0.00     0.059 A 
ATOM     27  C   UNL A   1      34.135  20.287  25.370  1.00  0.00     0.045 A 
ATOM     28  N   UNL A   1      32.339  20.001  24.002  1.00  0.00    -0.178 NA
ATOM     29  C   UNL A   1      34.042  21.390  24.554  1.00  0.00     0.109 A 
ENDBRANCH  23  24
ENDBRANCH  10  23
ENDBRANCH   7   9
ENDBRANCH   6   7
ENDBRANCH   5   6
ENDBRANCH   4   5
ENDBRANCH   3   4
ENDBRANCH   2   3
ENDBRANCH   1   2
BRANCH   1  30
ATOM     30  O   UNL A   1      34.509  32.472  29.073  1.00  0.00    -0.376 OA
BRANCH  30  31
ATOM     31  C   UNL A   1      35.629  33.258  29.460  1.00  0.00     0.202 C 
BRANCH  31  32
ATOM     32  C   UNL A   1      36.631  32.707  30.467  1.00  0.00     0.261 C 
BRANCH  32  33
ATOM     33  O   UNL A   1      37.342  31.600  29.951  1.00  0.00    -0.460 OA
BRANCH  33  34
ATOM     34  C   UNL A   1      36.973  30.421  30.487  1.00  0.00     0.338 C 
ATOM     35  O   UNL A   1      36.251  30.240  31.454  1.00  0.00    -0.246 OA
BRANCH  34  36
ATOM     36  C   UNL A   1      37.586  29.336  29.712  1.00  0.00     0.060 A 
ATOM     37  C   UNL A   1      37.930  28.197  30.440  1.00  0.00     0.016 A 
ATOM     38  C   UNL A   1      38.054  29.569  28.408  1.00  0.00     0.016 A 
ATOM     39  C   UNL A   1      39.020  27.485  30.017  1.00  0.00     0.010 A 
ATOM     40  C   UNL A   1      39.141  28.853  27.980  1.00  0.00     0.010 A 
ATOM     41  C   UNL A   1      39.687  27.939  28.877  1.00  0.00    -0.014 A 
BRANCH  41  42
ATOM     42  C   UNL A   1      41.099  27.642  28.818  1.00  0.00     0.031 A 
ATOM     43  C   UNL A   1      41.450  26.365  28.191  1.00  0.00     0.074 A 
ATOM     44  C   UNL A   1      41.997  28.529  29.289  1.00  0.00     0.049 A 
ATOM     45  N   UNL A   1      42.022  25.351  28.746  1.00  0.00    -0.248 NA
ATOM     46  C   UNL A   1      41.004  26.149  26.811  1.00  0.00     0.031 C 
ATOM     47  C   UNL A   1      41.760  29.933  29.653  1.00  0.00     0.029 A 
ATOM     48  N   UNL A   1      43.351  28.409  29.370  1.00  0.00    -0.354 N 
ATOM     49  C   UNL A   1      42.219  24.447  27.713  1.00  0.00     0.074 A 
ATOM     50  C   UNL A   1      41.416  24.899  26.605  1.00  0.00     0.031 C 
ATOM     51  C   UNL A   1      42.937  30.593  29.613  1.00  0.00     0.029 A 
ATOM     52  C   UNL A   1      43.996  29.637  29.340  1.00  0.00     0.049 A 
ATOM     53  H   UNL A   1      43.820  27.547  29.440  1.00  0.00     0.167 HD
ATOM     54  C   UNL A   1      43.226  23.538  27.749  1.00  0.00     0.034 A 
ATOM     55  C   UNL A   1      45.278  29.854  28.962  1.00  0.00     0.034 A 
ATOM     56  C   UNL A   1      43.770  23.362  29.069  1.00  0.00     0.049 A 
ATOM     57  C   UNL A   1      46.004  28.563  29.059  1.00  0.00     0.074 A 
ATOM     58  C   UNL A   1      43.244  23.036  30.303  1.00  0.00     0.029 A 
ATOM     59  N   UNL A   1      45.026  23.862  29.314  1.00  0.00    -0.354 N 
ATOM     60  N   UNL A   1      46.270  27.953  30.182  1.00  0.00    -0.248 NA
ATOM     61  C   UNL A   1      46.079  27.730  27.868  1.00  0.00     0.031 C 
ATOM     62  C   UNL A   1      44.015  23.776  31.244  1.00  0.00     0.029 A 
ATOM     63  C   UNL A   1      44.974  24.495  30.528  1.00  0.00     0.049 A 
ATOM     64  H   UNL A   1      45.813  23.781  28.730  1.00  0.00     0.167 HD
ATOM     65  C   UNL A   1      46.119  26.601  29.895  1.00  0.00     0.074 A 
ATOM     66  C   UNL A   1      46.124  26.522  28.437  1.00  0.00     0.031 C 
ATOM     67  C   UNL A   1      45.704  25.706  30.844  1.00  0.00     0.034 A 
BRANCH  54  68
ATOM     68  C   UNL A   1      43.944  23.055  26.520  1.00  0.00     0.023 A 
ATOM     69  C   UNL A   1      44.510  24.025  25.669  1.00  0.00     0.012 A 
ATOM     70  C   UNL A   1      43.874  21.730  26.037  1.00  0.00     0.148 A 
ATOM     71  C   UNL A   1      44.961  23.693  24.389  1.00  0.00     0.002 A 
ATOM     72  C   UNL A   1      44.416  21.388  24.806  1.00  0.00     0.091 A 
ATOM     73  F   UNL A   1      43.162  20.806  26.693  1.00  0.00    -0.205 F 
ATOM     74  C   UNL A   1      44.934  22.371  23.963  1.00  0.00     0.022 A 
BRANCH  72  75
ATOM     75  S   UNL A   1      44.473  19.669  24.295  1.00  0.00     0.127 S 
ATOM     76  O   UNL A   1      45.597  19.163  25.074  1.00  0.00    -0.237 OA
ATOM     77  O   UNL A   1      43.159  19.177  24.709  1.00  0.00    -0.237 OA
ATOM     78  O   UNL A   1      44.652  19.728  22.847  1.00  0.00    -0.744 OA
ENDBRANCH  72  75
ENDBRANCH  54  68
BRANCH  55  79
ATOM     79  C   UNL A   1      45.820  31.045  28.268  1.00  0.00     0.023 A 
ATOM     80  C   UNL A   1      47.172  31.395  28.431  1.00  0.00     0.012 A 
ATOM     81  C   UNL A   1      45.071  31.739  27.285  1.00  0.00     0.148 A 
ATOM     82  C   UNL A   1      47.754  32.403  27.652  1.00  0.00     0.002 A 
ATOM     83  C   UNL A   1      45.642  32.769  26.545  1.00  0.00     0.091 A 
ATOM     84  F   UNL A   1      43.826  31.335  27.001  1.00  0.00    -0.205 F 
ATOM     85  C   UNL A   1      46.989  33.099  26.717  1.00  0.00     0.022 A 
BRANCH  83  86
ATOM     86  S   UNL A   1      44.665  33.722  25.373  1.00  0.00     0.127 S 
ATOM     87  O   UNL A   1      43.668  34.357  26.237  1.00  0.00    -0.237 OA
ATOM     88  O   UNL A   1      45.656  34.632  24.809  1.00  0.00    -0.237 OA
ATOM     89  O   UNL A   1      44.104  32.734  24.457  1.00  0.00    -0.744 OA
ENDBRANCH  83  86
ENDBRANCH  55  79
BRANCH  67  90
ATOM     90  C   UNL A   1      45.669  26.131  32.294  1.00  0.00     0.023 A 
ATOM     91  C   UNL A   1      44.505  26.677  32.872  1.00  0.00     0.012 A 
ATOM     92  C   UNL A   1      46.738  25.771  33.138  1.00  0.00     0.148 A 
ATOM     93  C   UNL A   1      44.414  26.882  34.251  1.00  0.00     0.002 A 
ATOM     94  C   UNL A   1      46.624  25.930  34.516  1.00  0.00     0.091 A 
ATOM     95  F   UNL A   1      47.840  25.244  32.584  1.00  0.00    -0.205 F 
ATOM     96  C   UNL A   1      45.468  26.494  35.074  1.00  0.00     0.022 A 
BRANCH  94  97
ATOM     97  S   UNL A   1      47.886  25.308  35.635  1.00  0.00     0.127 S 
ATOM     98  O   UNL A   1      47.551  23.888  35.719  1.00  0.00    -0.237 OA
ATOM     99  O   UNL A   1      49.127  25.602  34.916  1.00  0.00    -0.237 OA
ATOM    100  O   UNL A   1      47.724  26.073  36.866  1.00  0.00    -0.744 OA
ENDBRANCH  94  97
ENDBRANCH  67  90
ENDBRANCH  41  42
ENDBRANCH  34  36
ENDBRANCH  33  34
ENDBRANCH  32  33
ENDBRANCH  31  32
ENDBRANCH  30  31
ENDBRANCH   1  30
TORSDOF 22
ENDMDL
MODEL 3
REMARK VINA RESULT:     -11.5      2.532      7.011
REMARK SMILES Cc1ccn(CC(=O)N2CCC3(CC2)NC(=O)C[C@@H]3C(=O)OCCOCCOCCOC(=O)c2ccc(-c3c4nc(c(-c5cccc(S(=O)(=O)[O-])c5F)c5ccc([nH]5)c(-c5cccc(S(=O)(=O)[O-])c5F)c5nc(c(-c6cccc(S(=O)(=O)[O-])c6F)c6ccc3[nH]6)C=C5)C=C4)cc2)n1
REMARK SMILES IDX 27 1 26 2 25 3 24 4 23 5 22 6 20 7 21 8 19 9 7 10 8 11 9 12
REMARK SMILES IDX 10 13 14 14 11 15 13 16 12 17 15 18 16 19 18 21 17 22 6 23
REMARK SMILES IDX 5 24 1 25 2 26 3 27 97 28 4 29 28 30 29 31 30 32 31 33 32 34
REMARK SMILES IDX 33 35 34 36 35 37 96 38 36 39 95 40 37 41 38 42 39 43 89 44
REMARK SMILES IDX 40 45 94 46 88 47 90 48 41 49 93 50 87 51 86 52 42 54 74 55
REMARK SMILES IDX 54 56 73 57 55 58 58 59 72 60 91 61 56 62 57 63 71 65 92 66
REMARK SMILES IDX 59 67 43 68 44 69 52 70 45 71 47 72 53 73 46 74 48 75 49 76
REMARK SMILES IDX 50 77 51 78 75 79 76 80 84 81 77 82 79 83 85 84 78 85 80 86
REMARK SMILES IDX 81 87 82 88 83 89 60 90 61 91 69 92 62 93 64 94 70 95 63 96
REMARK SMILES IDX 65 97 66 98 67 99 68 100
REMARK H PARENT 15 20 90 53 58 64
REMARK Flexibility Score: inf
ROOT
ATOM      1  C   UNL A   1      34.420  33.423  28.500  1.00  0.00     0.188 C 
ENDROOT
BRANCH   1   2
ATOM      2  C   UNL A   1      34.679  31.959  28.083  1.00  0.00     0.188 C 
BRANCH   2   3
ATOM      3  O   UNL A   1      33.791  31.432  27.115  1.00  0.00    -0.376 OA
BRANCH   3   4
ATOM      4  C   UNL A   1      33.811  30.015  26.982  1.00  0.00     0.202 C 
BRANCH   4   5
ATOM      5  C   UNL A   1      32.464  29.336  27.291  1.00  0.00     0.261 C 
BRANCH   5   6
ATOM      6  O   UNL A   1      31.565  29.209  26.169  1.00  0.00    -0.463 OA
BRANCH   6   7
ATOM      7  C   UNL A   1      31.131  27.955  25.910  1.00  0.00     0.311 C 
ATOM      8  O   UNL A   1      30.987  27.120  26.789  1.00  0.00    -0.252 OA
BRANCH   7   9
ATOM      9  C   UNL A   1      30.665  27.771  24.483  1.00  0.00     0.134 C 
ATOM     10  C   UNL A   1      33.787  23.790  25.399  1.00  0.00     0.244 C 
ATOM     11  O   UNL A   1      34.440  24.058  26.413  1.00  0.00    -0.273 OA
ATOM     12  N   UNL A   1      33.169  24.799  24.650  1.00  0.00    -0.341 N 
ATOM     13  C   UNL A   1      33.757  26.129  24.771  1.00  0.00     0.122 C 
ATOM     14  C   UNL A   1      31.729  24.740  24.419  1.00  0.00     0.122 C 
ATOM     15  C   UNL A   1      33.172  27.208  23.845  1.00  0.00     0.051 C 
ATOM     16  C   UNL A   1      31.317  25.618  23.257  1.00  0.00     0.051 C 
ATOM     17  C   UNL A   1      31.670  27.093  23.507  1.00  0.00     0.057 C 
ATOM     18  N   UNL A   1      31.416  27.818  22.268  1.00  0.00    -0.350 N 
ATOM     19  C   UNL A   1      30.639  28.938  22.393  1.00  0.00     0.221 C 
ATOM     20  H   UNL A   1      31.777  27.522  21.401  1.00  0.00     0.164 HD
ATOM     21  C   UNL A   1      30.259  29.100  23.828  1.00  0.00     0.117 C 
ATOM     22  O   UNL A   1      30.345  29.684  21.477  1.00  0.00    -0.275 OA
BRANCH  10  23
ATOM     23  C   UNL A   1      33.920  22.412  24.783  1.00  0.00     0.244 C 
BRANCH  23  24
ATOM     24  N   UNL A   1      35.260  21.894  24.628  1.00  0.00    -0.263 N 
ATOM     25  C   UNL A   1      37.493  19.176  25.015  1.00  0.00     0.069 C 
ATOM     26  C   UNL A   1      36.818  20.458  24.707  1.00  0.00     0.059 A 
ATOM     27  C   UNL A   1      37.366  21.616  24.108  1.00  0.00     0.045 A 
ATOM     28  N   UNL A   1      35.521  20.622  24.996  1.00  0.00    -0.178 NA
ATOM     29  C   UNL A   1      36.332  22.520  24.059  1.00  0.00     0.109 A 
ENDBRANCH  23  24
ENDBRANCH  10  23
ENDBRANCH   7   9
ENDBRANCH   6   7
ENDBRANCH   5   6
ENDBRANCH   4   5
ENDBRANCH   3   4
ENDBRANCH   2   3
ENDBRANCH   1   2
BRANCH   1  30
ATOM     30  O   UNL A   1      35.090  34.053  29.585  1.00  0.00    -0.376 OA
BRANCH  30  31
ATOM     31  C   UNL A   1      34.451  34.306  30.830  1.00  0.00     0.202 C 
BRANCH  31  32
ATOM     32  C   UNL A   1      34.580  33.299  31.967  1.00  0.00     0.261 C 
BRANCH  32  33
ATOM     33  O   UNL A   1      34.953  32.019  31.496  1.00  0.00    -0.460 OA
BRANCH  33  34
ATOM     34  C   UNL A   1      36.120  31.576  31.999  1.00  0.00     0.338 C 
ATOM     35  O   UNL A   1      36.451  31.528  33.172  1.00  0.00    -0.246 OA
BRANCH  34  36
ATOM     36  C   UNL A   1      36.977  31.139  30.891  1.00  0.00     0.060 A 
ATOM     37  C   UNL A   1      36.836  29.804  30.510  1.00  0.00     0.016 A 
ATOM     38  C   UNL A   1      38.057  31.934  30.471  1.00  0.00     0.016 A 
ATOM     39  C   UNL A   1      37.945  29.167  30.023  1.00  0.00     0.010 A 
ATOM     40  C   UNL A   1      39.166  31.299  29.977  1.00  0.00     0.010 A 
ATOM     41  C   UNL A   1      39.125  29.909  29.923  1.00  0.00    -0.014 A 
BRANCH  41  42
ATOM     42  C   UNL A   1      40.351  29.156  30.054  1.00  0.00     0.031 A 
ATOM     43  C   UNL A   1      40.771  28.867  31.428  1.00  0.00     0.074 A 
ATOM     44  C   UNL A   1      41.009  28.738  28.955  1.00  0.00     0.049 A 
ATOM     45  N   UNL A   1      41.838  29.280  32.023  1.00  0.00    -0.248 NA
ATOM     46  C   UNL A   1      39.831  28.129  32.277  1.00  0.00     0.031 C 
ATOM     47  C   UNL A   1      40.516  28.721  27.571  1.00  0.00     0.029 A 
ATOM     48  N   UNL A   1      42.193  28.071  28.874  1.00  0.00    -0.354 N 
ATOM     49  C   UNL A   1      41.817  28.654  33.261  1.00  0.00     0.074 A 
ATOM     50  C   UNL A   1      40.489  28.120  33.435  1.00  0.00     0.031 C 
ATOM     51  C   UNL A   1      41.238  27.823  26.867  1.00  0.00     0.029 A 
ATOM     52  C   UNL A   1      42.295  27.308  27.720  1.00  0.00     0.049 A 
ATOM     53  H   UNL A   1      42.898  28.123  29.559  1.00  0.00     0.167 HD
ATOM     54  C   UNL A   1      42.961  28.390  33.941  1.00  0.00     0.034 A 
ATOM     55  C   UNL A   1      43.094  26.228  27.548  1.00  0.00     0.034 A 
ATOM     56  C   UNL A   1      44.083  29.148  33.457  1.00  0.00     0.049 A 
ATOM     57  C   UNL A   1      44.164  26.287  28.574  1.00  0.00     0.074 A 
ATOM     58  C   UNL A   1      44.342  30.491  33.265  1.00  0.00     0.029 A 
ATOM     59  N   UNL A   1      45.058  28.473  32.762  1.00  0.00    -0.354 N 
ATOM     60  N   UNL A   1      45.113  27.184  28.594  1.00  0.00    -0.248 NA
ATOM     61  C   UNL A   1      43.945  25.586  29.831  1.00  0.00     0.031 C 
ATOM     62  C   UNL A   1      45.166  30.549  32.105  1.00  0.00     0.029 A 
ATOM     63  C   UNL A   1      45.373  29.239  31.671  1.00  0.00     0.049 A 
ATOM     64  H   UNL A   1      45.454  27.606  33.002  1.00  0.00     0.167 HD
ATOM     65  C   UNL A   1      45.307  27.462  29.943  1.00  0.00     0.074 A 
ATOM     66  C   UNL A   1      44.653  26.366  30.652  1.00  0.00     0.031 C 
ATOM     67  C   UNL A   1      45.713  28.698  30.370  1.00  0.00     0.034 A 
BRANCH  54  68
ATOM     68  C   UNL A   1      43.133  27.191  34.830  1.00  0.00     0.023 A 
ATOM     69  C   UNL A   1      42.366  26.046  34.539  1.00  0.00     0.012 A 
ATOM     70  C   UNL A   1      43.813  27.219  36.068  1.00  0.00     0.148 A 
ATOM     71  C   UNL A   1      42.263  24.990  35.449  1.00  0.00     0.002 A 
ATOM     72  C   UNL A   1      43.789  26.125  36.922  1.00  0.00     0.091 A 
ATOM     73  F   UNL A   1      44.380  28.350  36.504  1.00  0.00    -0.205 F 
ATOM     74  C   UNL A   1      42.991  25.019  36.633  1.00  0.00     0.022 A 
BRANCH  72  75
ATOM     75  S   UNL A   1      44.804  26.118  38.402  1.00  0.00     0.127 S 
ATOM     76  O   UNL A   1      43.925  26.763  39.370  1.00  0.00    -0.237 OA
ATOM     77  O   UNL A   1      45.026  24.689  38.620  1.00  0.00    -0.237 OA
ATOM     78  O   UNL A   1      46.008  26.850  38.018  1.00  0.00    -0.744 OA
ENDBRANCH  72  75
ENDBRANCH  54  68
BRANCH  55  79
ATOM     79  C   UNL A   1      42.811  25.025  26.730  1.00  0.00     0.023 A 
ATOM     80  C   UNL A   1      43.655  24.698  25.654  1.00  0.00     0.012 A 
ATOM     81  C   UNL A   1      41.830  24.078  27.112  1.00  0.00     0.148 A 
ATOM     82  C   UNL A   1      43.521  23.478  24.978  1.00  0.00     0.002 A 
ATOM     83  C   UNL A   1      41.672  22.887  26.410  1.00  0.00     0.091 A 
ATOM     84  F   UNL A   1      41.108  24.290  28.220  1.00  0.00    -0.205 F 
ATOM     85  C   UNL A   1      42.524  22.577  25.347  1.00  0.00     0.022 A 
BRANCH  83  86
ATOM     86  S   UNL A   1      40.357  21.732  26.827  1.00  0.00     0.127 S 
ATOM     87  O   UNL A   1      40.699  21.346  28.197  1.00  0.00    -0.237 OA
ATOM     88  O   UNL A   1      39.164  22.562  26.704  1.00  0.00    -0.237 OA
ATOM     89  O   UNL A   1      40.488  20.646  25.862  1.00  0.00    -0.744 OA
ENDBRANCH  83  86
ENDBRANCH  55  79
BRANCH  67  90
ATOM     90  C   UNL A   1      46.222  29.698  29.359  1.00  0.00     0.023 A 
ATOM     91  C   UNL A   1      47.575  29.722  28.965  1.00  0.00     0.012 A 
ATOM     92  C   UNL A   1      45.294  30.469  28.631  1.00  0.00     0.148 A 
ATOM     93  C   UNL A   1      48.000  30.510  27.892  1.00  0.00     0.002 A 
ATOM     94  C   UNL A   1      45.712  31.212  27.532  1.00  0.00     0.091 A 
ATOM     95  F   UNL A   1      44.005  30.435  29.004  1.00  0.00    -0.205 F 
ATOM     96  C   UNL A   1      47.065  31.243  27.166  1.00  0.00     0.022 A 
BRANCH  94  97
ATOM     97  S   UNL A   1      44.531  32.053  26.469  1.00  0.00     0.127 S 
ATOM     98  O   UNL A   1      44.041  33.122  27.336  1.00  0.00    -0.237 OA
ATOM     99  O   UNL A   1      45.366  32.505  25.354  1.00  0.00    -0.237 OA
ATOM    100  O   UNL A   1      43.551  31.038  26.096  1.00  0.00    -0.744 OA
ENDBRANCH  94  97
ENDBRANCH  67  90
ENDBRANCH  41  42
ENDBRANCH  34  36
ENDBRANCH  33  34
ENDBRANCH  32  33
ENDBRANCH  31  32
ENDBRANCH  30  31
ENDBRANCH   1  30
TORSDOF 22
ENDMDL
