MODEL 1
REMARK VINA RESULT:      -9.9      0.000      0.000
REMARK SMILES CC[C@@](C)(C(=O)OCCOCCOCCOC(=O)c1ccc(-c2c3nc(c(-c4cccc(S(=O)(=O)[O-])c4F)c4ccc([nH]4)c(-c4cccc(S(=O)(=O)[O-])c4F)c4nc(c(-c5cccc(S(=O)(=O)[O-])c5F)c5ccc2[nH]5)C=C4)C=C3)cc1)n1nnnc1Cc1cccs1
REMARK SMILES IDX 11 1 10 2 9 3 8 4 7 5 5 6 6 7 3 8 4 9 2 10 1 11 82 12 83 13
REMARK SMILES IDX 86 14 84 15 85 16 87 17 88 18 89 19 92 20 90 21 91 22 12 23
REMARK SMILES IDX 13 24 14 25 15 26 16 27 17 28 18 29 19 30 20 31 81 32 21 33
REMARK SMILES IDX 80 34 22 35 23 36 24 37 74 38 25 39 79 40 73 41 75 42 26 43
REMARK SMILES IDX 78 44 72 45 71 46 27 48 59 49 39 50 58 51 40 52 43 53 57 54
REMARK SMILES IDX 76 55 41 56 42 57 56 59 77 60 44 61 28 62 29 63 37 64 30 65
REMARK SMILES IDX 32 66 38 67 31 68 33 69 34 70 35 71 36 72 60 73 61 74 69 75
REMARK SMILES IDX 62 76 64 77 70 78 63 79 65 80 66 81 67 82 68 83 45 84 46 85
REMARK SMILES IDX 54 86 47 87 49 88 55 89 48 90 50 91 51 92 52 93 53 94
REMARK H PARENT 75 47 43 58
REMARK Flexibility Score: inf
ROOT
ATOM      1  C   UNL A   1      35.743  20.698  24.983  1.00  0.00     0.188 C 
ENDROOT
BRANCH   1   2
ATOM      2  O   UNL A   1      34.592  21.079  25.724  1.00  0.00    -0.376 OA
BRANCH   2   3
ATOM      3  C   UNL A   1      34.471  22.406  26.211  1.00  0.00     0.202 C 
BRANCH   3   4
ATOM      4  C   UNL A   1      33.078  23.029  26.431  1.00  0.00     0.261 C 
BRANCH   4   5
ATOM      5  O   UNL A   1      33.010  24.391  26.932  1.00  0.00    -0.461 OA
BRANCH   5   6
ATOM      6  C   UNL A   1      32.013  25.148  26.404  1.00  0.00     0.334 C 
ATOM      7  O   UNL A   1      30.829  24.861  26.545  1.00  0.00    -0.249 OA
BRANCH   6   8
ATOM      8  C   UNL A   1      32.439  26.343  25.521  1.00  0.00     0.160 C 
ATOM      9  C   UNL A   1      33.973  26.424  25.688  1.00  0.00     0.050 C 
BRANCH   8  10
ATOM     10  C   UNL A   1      31.904  27.770  25.910  1.00  0.00     0.039 C 
ATOM     11  C   UNL A   1      31.389  27.889  27.352  1.00  0.00     0.007 C 
ENDBRANCH   8  10
BRANCH   8  12
ATOM     12  N   UNL A   1      31.985  25.996  24.165  1.00  0.00    -0.212 N 
ATOM     13  N   UNL A   1      32.895  25.446  23.322  1.00  0.00    -0.044 NA
ATOM     14  C   UNL A   1      30.801  26.158  23.475  1.00  0.00     0.157 A 
ATOM     15  N   UNL A   1      32.250  25.187  22.202  1.00  0.00    -0.024 NA
ATOM     16  N   UNL A   1      30.955  25.597  22.287  1.00  0.00    -0.113 NA
BRANCH  14  17
ATOM     17  C   UNL A   1      29.539  26.824  23.914  1.00  0.00     0.125 C 
BRANCH  17  18
ATOM     18  C   UNL A   1      29.258  28.096  23.164  1.00  0.00     0.012 A 
ATOM     19  C   UNL A   1      28.036  28.712  22.959  1.00  0.00     0.016 A 
ATOM     20  S   UNL A   1      30.532  29.004  22.459  1.00  0.00    -0.148 S 
ATOM     21  C   UNL A   1      28.140  29.866  22.132  1.00  0.00     0.012 A 
ATOM     22  C   UNL A   1      29.439  30.111  21.752  1.00  0.00     0.065 A 
ENDBRANCH  17  18
ENDBRANCH  14  17
ENDBRANCH   8  12
ENDBRANCH   6   8
ENDBRANCH   5   6
ENDBRANCH   4   5
ENDBRANCH   3   4
ENDBRANCH   2   3
ENDBRANCH   1   2
BRANCH   1  23
ATOM     23  C   UNL A   1      36.808  21.759  24.684  1.00  0.00     0.188 C 
BRANCH  23  24
ATOM     24  O   UNL A   1      38.027  21.603  25.374  1.00  0.00    -0.376 OA
BRANCH  24  25
ATOM     25  C   UNL A   1      38.666  20.342  25.348  1.00  0.00     0.202 C 
BRANCH  25  26
ATOM     26  C   UNL A   1      39.973  20.137  26.133  1.00  0.00     0.261 C 
BRANCH  26  27
ATOM     27  O   UNL A   1      40.807  19.041  25.727  1.00  0.00    -0.460 OA
BRANCH  27  28
ATOM     28  C   UNL A   1      42.135  19.138  25.995  1.00  0.00     0.338 C 
ATOM     29  O   UNL A   1      42.978  18.294  25.783  1.00  0.00    -0.246 OA
BRANCH  28  30
ATOM     30  C   UNL A   1      42.409  20.557  26.348  1.00  0.00     0.060 A 
ATOM     31  C   UNL A   1      42.636  21.480  25.316  1.00  0.00     0.016 A 
ATOM     32  C   UNL A   1      42.395  20.982  27.677  1.00  0.00     0.016 A 
ATOM     33  C   UNL A   1      42.867  22.825  25.612  1.00  0.00     0.010 A 
ATOM     34  C   UNL A   1      42.658  22.323  27.973  1.00  0.00     0.010 A 
ATOM     35  C   UNL A   1      42.924  23.248  26.945  1.00  0.00    -0.014 A 
BRANCH  35  36
ATOM     36  C   UNL A   1      43.458  24.593  27.280  1.00  0.00     0.031 A 
ATOM     37  C   UNL A   1      42.533  25.578  27.945  1.00  0.00     0.074 A 
ATOM     38  C   UNL A   1      44.723  24.953  26.995  1.00  0.00     0.049 A 
ATOM     39  N   UNL A   1      42.730  26.834  28.248  1.00  0.00    -0.248 NA
ATOM     40  C   UNL A   1      41.199  25.072  28.313  1.00  0.00     0.031 C 
ATOM     41  C   UNL A   1      45.734  24.092  26.388  1.00  0.00     0.029 A 
ATOM     42  N   UNL A   1      45.358  26.161  27.156  1.00  0.00    -0.354 N 
ATOM     43  C   UNL A   1      41.541  27.278  28.811  1.00  0.00     0.074 A 
ATOM     44  C   UNL A   1      40.621  26.162  28.797  1.00  0.00     0.031 C 
ATOM     45  C   UNL A   1      46.853  24.812  26.186  1.00  0.00     0.029 A 
ATOM     46  C   UNL A   1      46.626  26.190  26.623  1.00  0.00     0.049 A 
ATOM     47  H   UNL A   1      44.946  26.932  27.608  1.00  0.00     0.167 HD
ATOM     48  C   UNL A   1      41.239  28.501  29.307  1.00  0.00     0.034 A 
ATOM     49  C   UNL A   1      47.489  27.216  26.475  1.00  0.00     0.034 A 
ATOM     50  C   UNL A   1      42.153  29.611  29.334  1.00  0.00     0.049 A 
ATOM     51  C   UNL A   1      47.113  28.586  26.989  1.00  0.00     0.074 A 
ATOM     52  C   UNL A   1      41.948  30.880  29.845  1.00  0.00     0.029 A 
ATOM     53  N   UNL A   1      43.437  29.592  28.813  1.00  0.00    -0.354 N 
ATOM     54  N   UNL A   1      46.020  28.970  27.604  1.00  0.00    -0.248 NA
ATOM     55  C   UNL A   1      48.106  29.658  26.817  1.00  0.00     0.031 C 
ATOM     56  C   UNL A   1      43.094  31.641  29.598  1.00  0.00     0.029 A 
ATOM     57  C   UNL A   1      44.031  30.832  28.976  1.00  0.00     0.049 A 
ATOM     58  H   UNL A   1      43.864  28.812  28.391  1.00  0.00     0.167 HD
ATOM     59  C   UNL A   1      46.212  30.310  27.927  1.00  0.00     0.074 A 
ATOM     60  C   UNL A   1      47.531  30.670  27.454  1.00  0.00     0.031 C 
ATOM     61  C   UNL A   1      45.366  31.170  28.551  1.00  0.00     0.034 A 
BRANCH  48  62
ATOM     62  C   UNL A   1      39.856  28.702  29.870  1.00  0.00     0.023 A 
ATOM     63  C   UNL A   1      39.568  28.293  31.188  1.00  0.00     0.012 A 
ATOM     64  C   UNL A   1      38.855  29.334  29.107  1.00  0.00     0.148 A 
ATOM     65  C   UNL A   1      38.294  28.475  31.725  1.00  0.00     0.002 A 
ATOM     66  C   UNL A   1      37.603  29.556  29.666  1.00  0.00     0.091 A 
ATOM     67  F   UNL A   1      39.143  29.696  27.849  1.00  0.00    -0.205 F 
ATOM     68  C   UNL A   1      37.317  29.116  30.968  1.00  0.00     0.022 A 
BRANCH  66  69
ATOM     69  S   UNL A   1      36.302  30.444  28.804  1.00  0.00     0.127 S 
ATOM     70  O   UNL A   1      37.068  31.446  28.063  1.00  0.00    -0.237 OA
ATOM     71  O   UNL A   1      35.713  29.392  27.974  1.00  0.00    -0.237 OA
ATOM     72  O   UNL A   1      35.420  30.971  29.835  1.00  0.00    -0.744 OA
ENDBRANCH  66  69
ENDBRANCH  48  62
BRANCH  49  73
ATOM     73  C   UNL A   1      48.811  26.994  25.819  1.00  0.00     0.023 A 
ATOM     74  C   UNL A   1      49.851  26.371  26.535  1.00  0.00     0.012 A 
ATOM     75  C   UNL A   1      49.044  27.409  24.492  1.00  0.00     0.148 A 
ATOM     76  C   UNL A   1      51.109  26.197  25.957  1.00  0.00     0.002 A 
ATOM     77  C   UNL A   1      50.281  27.179  23.903  1.00  0.00     0.091 A 
ATOM     78  F   UNL A   1      48.049  28.018  23.833  1.00  0.00    -0.205 F 
ATOM     79  C   UNL A   1      51.322  26.592  24.639  1.00  0.00     0.022 A 
BRANCH  77  80
ATOM     80  S   UNL A   1      50.615  27.544  22.176  1.00  0.00     0.127 S 
ATOM     81  O   UNL A   1      50.199  28.942  22.080  1.00  0.00    -0.237 OA
ATOM     82  O   UNL A   1      52.061  27.326  22.101  1.00  0.00    -0.237 OA
ATOM     83  O   UNL A   1      49.819  26.598  21.408  1.00  0.00    -0.744 OA
ENDBRANCH  77  80
ENDBRANCH  49  73
BRANCH  61  84
ATOM     84  C   UNL A   1      45.849  32.575  28.816  1.00  0.00     0.023 A 
ATOM     85  C   UNL A   1      46.698  32.838  29.910  1.00  0.00     0.012 A 
ATOM     86  C   UNL A   1      45.526  33.621  27.929  1.00  0.00     0.148 A 
ATOM     87  C   UNL A   1      47.187  34.125  30.136  1.00  0.00     0.002 A 
ATOM     88  C   UNL A   1      46.059  34.889  28.130  1.00  0.00     0.091 A 
ATOM     89  F   UNL A   1      44.707  33.357  26.900  1.00  0.00    -0.205 F 
ATOM     90  C   UNL A   1      46.878  35.146  29.241  1.00  0.00     0.022 A 
BRANCH  88  91
ATOM     91  S   UNL A   1      45.799  36.243  26.977  1.00  0.00     0.127 S 
ATOM     92  O   UNL A   1      46.349  37.376  27.719  1.00  0.00    -0.237 OA
ATOM     93  O   UNL A   1      46.595  35.825  25.824  1.00  0.00    -0.237 OA
ATOM     94  O   UNL A   1      44.364  36.296  26.734  1.00  0.00    -0.744 OA
ENDBRANCH  88  91
ENDBRANCH  61  84
ENDBRANCH  35  36
ENDBRANCH  28  30
ENDBRANCH  27  28
ENDBRANCH  26  27
ENDBRANCH  25  26
ENDBRANCH  24  25
ENDBRANCH  23  24
ENDBRANCH   1  23
TORSDOF 24
ENDMDL
MODEL 2
REMARK VINA RESULT:      -9.5      1.987      2.699
REMARK SMILES CC[C@@](C)(C(=O)OCCOCCOCCOC(=O)c1ccc(-c2c3nc(c(-c4cccc(S(=O)(=O)[O-])c4F)c4ccc([nH]4)c(-c4cccc(S(=O)(=O)[O-])c4F)c4nc(c(-c5cccc(S(=O)(=O)[O-])c5F)c5ccc2[nH]5)C=C4)C=C3)cc1)n1nnnc1Cc1cccs1
REMARK SMILES IDX 11 1 10 2 9 3 8 4 7 5 5 6 6 7 3 8 4 9 2 10 1 11 82 12 83 13
REMARK SMILES IDX 86 14 84 15 85 16 87 17 88 18 89 19 92 20 90 21 91 22 12 23
REMARK SMILES IDX 13 24 14 25 15 26 16 27 17 28 18 29 19 30 20 31 81 32 21 33
REMARK SMILES IDX 80 34 22 35 23 36 24 37 74 38 25 39 79 40 73 41 75 42 26 43
REMARK SMILES IDX 78 44 72 45 71 46 27 48 59 49 39 50 58 51 40 52 43 53 57 54
REMARK SMILES IDX 76 55 41 56 42 57 56 59 77 60 44 61 28 62 29 63 37 64 30 65
REMARK SMILES IDX 32 66 38 67 31 68 33 69 34 70 35 71 36 72 60 73 61 74 69 75
REMARK SMILES IDX 62 76 64 77 70 78 63 79 65 80 66 81 67 82 68 83 45 84 46 85
REMARK SMILES IDX 54 86 47 87 49 88 55 89 48 90 50 91 51 92 52 93 53 94
REMARK H PARENT 75 47 43 58
REMARK Flexibility Score: inf
ROOT
ATOM      1  C   UNL A   1      35.734  21.908  25.947  1.00  0.00     0.188 C 
ENDROOT
BRANCH   1   2
ATOM      2  O   UNL A   1      35.134  20.625  25.829  1.00  0.00    -0.376 OA
BRANCH   2   3
ATOM      3  C   UNL A   1      34.516  20.243  24.611  1.00  0.00     0.202 C 
BRANCH   3   4
ATOM      4  C   UNL A   1      32.988  20.367  24.444  1.00  0.00     0.261 C 
BRANCH   4   5
ATOM      5  O   UNL A   1      32.378  21.663  24.683  1.00  0.00    -0.461 OA
BRANCH   5   6
ATOM      6  C   UNL A   1      32.124  22.394  23.564  1.00  0.00     0.334 C 
ATOM      7  O   UNL A   1      32.306  21.947  22.437  1.00  0.00    -0.249 OA
BRANCH   6   8
ATOM      8  C   UNL A   1      31.690  23.862  23.775  1.00  0.00     0.160 C 
ATOM      9  C   UNL A   1      30.347  23.984  23.021  1.00  0.00     0.050 C 
BRANCH   8  10
ATOM     10  C   UNL A   1      32.606  24.991  23.177  1.00  0.00     0.039 C 
ATOM     11  C   UNL A   1      31.852  26.088  22.412  1.00  0.00     0.007 C 
ENDBRANCH   8  10
BRANCH   8  12
ATOM     12  N   UNL A   1      31.593  24.023  25.235  1.00  0.00    -0.212 N 
ATOM     13  N   UNL A   1      30.538  23.440  25.861  1.00  0.00    -0.044 NA
ATOM     14  C   UNL A   1      32.323  24.718  26.178  1.00  0.00     0.157 A 
ATOM     15  N   UNL A   1      30.692  23.685  27.147  1.00  0.00    -0.024 NA
ATOM     16  N   UNL A   1      31.798  24.450  27.362  1.00  0.00    -0.113 NA
BRANCH  14  17
ATOM     17  C   UNL A   1      33.497  25.619  25.982  1.00  0.00     0.125 C 
BRANCH  17  18
ATOM     18  C   UNL A   1      33.116  27.072  25.923  1.00  0.00     0.012 A 
ATOM     19  C   UNL A   1      33.580  28.039  25.050  1.00  0.00     0.016 A 
ATOM     20  S   UNL A   1      31.946  27.720  26.997  1.00  0.00    -0.148 S 
ATOM     21  C   UNL A   1      33.054  29.330  25.338  1.00  0.00     0.012 A 
ATOM     22  C   UNL A   1      32.187  29.305  26.406  1.00  0.00     0.065 A 
ENDBRANCH  17  18
ENDBRANCH  14  17
ENDBRANCH   8  12
ENDBRANCH   6   8
ENDBRANCH   5   6
ENDBRANCH   4   5
ENDBRANCH   3   4
ENDBRANCH   2   3
ENDBRANCH   1   2
BRANCH   1  23
ATOM     23  C   UNL A   1      36.634  22.406  24.811  1.00  0.00     0.188 C 
BRANCH  23  24
ATOM     24  O   UNL A   1      37.782  21.625  24.565  1.00  0.00    -0.376 OA
BRANCH  24  25
ATOM     25  C   UNL A   1      38.514  21.124  25.666  1.00  0.00     0.202 C 
BRANCH  25  26
ATOM     26  C   UNL A   1      39.393  19.876  25.488  1.00  0.00     0.261 C 
BRANCH  26  27
ATOM     27  O   UNL A   1      40.428  19.669  26.461  1.00  0.00    -0.460 OA
BRANCH  27  28
ATOM     28  C   UNL A   1      41.713  19.825  26.046  1.00  0.00     0.338 C 
ATOM     29  O   UNL A   1      42.335  19.076  25.324  1.00  0.00    -0.246 OA
BRANCH  28  30
ATOM     30  C   UNL A   1      42.130  21.202  26.420  1.00  0.00     0.060 A 
ATOM     31  C   UNL A   1      42.265  22.167  25.410  1.00  0.00     0.016 A 
ATOM     32  C   UNL A   1      42.340  21.552  27.754  1.00  0.00     0.016 A 
ATOM     33  C   UNL A   1      42.628  23.477  25.730  1.00  0.00     0.010 A 
ATOM     34  C   UNL A   1      42.734  22.857  28.070  1.00  0.00     0.010 A 
ATOM     35  C   UNL A   1      42.908  23.821  27.058  1.00  0.00    -0.014 A 
BRANCH  35  36
ATOM     36  C   UNL A   1      43.575  25.110  27.372  1.00  0.00     0.031 A 
ATOM     37  C   UNL A   1      42.730  26.230  27.919  1.00  0.00     0.074 A 
ATOM     38  C   UNL A   1      44.890  25.304  27.167  1.00  0.00     0.049 A 
ATOM     39  N   UNL A   1      43.055  27.469  28.180  1.00  0.00    -0.248 NA
ATOM     40  C   UNL A   1      41.323  25.904  28.208  1.00  0.00     0.031 C 
ATOM     41  C   UNL A   1      45.830  24.301  26.677  1.00  0.00     0.029 A 
ATOM     42  N   UNL A   1      45.653  26.437  27.320  1.00  0.00    -0.354 N 
ATOM     43  C   UNL A   1      41.892  28.079  28.631  1.00  0.00     0.074 A 
ATOM     44  C   UNL A   1      40.848  27.077  28.598  1.00  0.00     0.031 C 
ATOM     45  C   UNL A   1      47.039  24.873  26.528  1.00  0.00     0.029 A 
ATOM     46  C   UNL A   1      46.949  26.290  26.884  1.00  0.00     0.049 A 
ATOM     47  H   UNL A   1      45.306  27.274  27.705  1.00  0.00     0.167 HD
ATOM     48  C   UNL A   1      41.705  29.353  29.047  1.00  0.00     0.034 A 
ATOM     49  C   UNL A   1      47.938  27.199  26.756  1.00  0.00     0.034 A 
ATOM     50  C   UNL A   1      42.741  30.349  29.093  1.00  0.00     0.049 A 
ATOM     51  C   UNL A   1      47.694  28.629  27.178  1.00  0.00     0.074 A 
ATOM     52  C   UNL A   1      42.655  31.659  29.530  1.00  0.00     0.029 A 
ATOM     53  N   UNL A   1      44.047  30.153  28.672  1.00  0.00    -0.354 N 
ATOM     54  N   UNL A   1      46.614  29.170  27.691  1.00  0.00    -0.248 NA
ATOM     55  C   UNL A   1      48.817  29.567  27.033  1.00  0.00     0.031 C 
ATOM     56  C   UNL A   1      43.899  32.267  29.336  1.00  0.00     0.029 A 
ATOM     57  C   UNL A   1      44.773  31.322  28.823  1.00  0.00     0.049 A 
ATOM     58  H   UNL A   1      44.405  29.307  28.319  1.00  0.00     0.167 HD
ATOM     59  C   UNL A   1      46.943  30.494  27.967  1.00  0.00     0.074 A 
ATOM     60  C   UNL A   1      48.326  30.671  27.579  1.00  0.00     0.031 C 
ATOM     61  C   UNL A   1      46.165  31.479  28.486  1.00  0.00     0.034 A 
BRANCH  48  62
ATOM     62  C   UNL A   1      40.321  29.743  29.495  1.00  0.00     0.023 A 
ATOM     63  C   UNL A   1      39.355  30.126  28.542  1.00  0.00     0.012 A 
ATOM     64  C   UNL A   1      39.964  29.689  30.856  1.00  0.00     0.148 A 
ATOM     65  C   UNL A   1      38.069  30.486  28.940  1.00  0.00     0.002 A 
ATOM     66  C   UNL A   1      38.666  30.001  31.240  1.00  0.00     0.091 A 
ATOM     67  F   UNL A   1      40.902  29.343  31.750  1.00  0.00    -0.205 F 
ATOM     68  C   UNL A   1      37.722  30.412  30.286  1.00  0.00     0.022 A 
BRANCH  66  69
ATOM     69  S   UNL A   1      38.098  29.860  32.938  1.00  0.00     0.127 S 
ATOM     70  O   UNL A   1      36.667  29.624  32.752  1.00  0.00    -0.237 OA
ATOM     71  O   UNL A   1      38.850  28.700  33.417  1.00  0.00    -0.237 OA
ATOM     72  O   UNL A   1      38.442  31.118  33.585  1.00  0.00    -0.744 OA
ENDBRANCH  66  69
ENDBRANCH  48  62
BRANCH  49  73
ATOM     73  C   UNL A   1      49.265  26.790  26.212  1.00  0.00     0.023 A 
ATOM     74  C   UNL A   1      50.126  25.995  26.993  1.00  0.00     0.012 A 
ATOM     75  C   UNL A   1      49.683  27.195  24.928  1.00  0.00     0.148 A 
ATOM     76  C   UNL A   1      51.391  25.642  26.523  1.00  0.00     0.002 A 
ATOM     77  C   UNL A   1      50.920  26.789  24.442  1.00  0.00     0.091 A 
ATOM     78  F   UNL A   1      48.858  27.968  24.206  1.00  0.00    -0.205 F 
ATOM     79  C   UNL A   1      51.785  26.030  25.246  1.00  0.00     0.022 A 
BRANCH  77  80
ATOM     80  S   UNL A   1      51.466  27.139  22.767  1.00  0.00     0.127 S 
ATOM     81  O   UNL A   1      50.318  26.695  21.979  1.00  0.00    -0.237 OA
ATOM     82  O   UNL A   1      51.656  28.591  22.814  1.00  0.00    -0.237 OA
ATOM     83  O   UNL A   1      52.690  26.374  22.579  1.00  0.00    -0.744 OA
ENDBRANCH  77  80
ENDBRANCH  49  73
BRANCH  61  84
ATOM     84  C   UNL A   1      46.793  32.830  28.723  1.00  0.00     0.023 A 
ATOM     85  C   UNL A   1      47.374  33.132  29.971  1.00  0.00     0.012 A 
ATOM     86  C   UNL A   1      46.881  33.771  27.678  1.00  0.00     0.148 A 
ATOM     87  C   UNL A   1      47.999  34.362  30.185  1.00  0.00     0.002 A 
ATOM     88  C   UNL A   1      47.550  34.973  27.881  1.00  0.00     0.091 A 
ATOM     89  F   UNL A   1      46.313  33.473  26.500  1.00  0.00    -0.205 F 
ATOM     90  C   UNL A   1      48.097  35.275  29.139  1.00  0.00     0.022 A 
BRANCH  88  91
ATOM     91  S   UNL A   1      47.815  36.169  26.566  1.00  0.00     0.127 S 
ATOM     92  O   UNL A   1      48.654  35.410  25.639  1.00  0.00    -0.237 OA
ATOM     93  O   UNL A   1      46.454  36.416  26.093  1.00  0.00    -0.237 OA
ATOM     94  O   UNL A   1      48.458  37.318  27.189  1.00  0.00    -0.744 OA
ENDBRANCH  88  91
ENDBRANCH  61  84
ENDBRANCH  35  36
ENDBRANCH  28  30
ENDBRANCH  27  28
ENDBRANCH  26  27
ENDBRANCH  25  26
ENDBRANCH  24  25
ENDBRANCH  23  24
ENDBRANCH   1  23
TORSDOF 24
ENDMDL
MODEL 3
REMARK VINA RESULT:      -9.2      4.134      9.721
REMARK SMILES CC[C@@](C)(C(=O)OCCOCCOCCOC(=O)c1ccc(-c2c3nc(c(-c4cccc(S(=O)(=O)[O-])c4F)c4ccc([nH]4)c(-c4cccc(S(=O)(=O)[O-])c4F)c4nc(c(-c5cccc(S(=O)(=O)[O-])c5F)c5ccc2[nH]5)C=C4)C=C3)cc1)n1nnnc1Cc1cccs1
REMARK SMILES IDX 11 1 10 2 9 3 8 4 7 5 5 6 6 7 3 8 4 9 2 10 1 11 82 12 83 13
REMARK SMILES IDX 86 14 84 15 85 16 87 17 88 18 89 19 92 20 90 21 91 22 12 23
REMARK SMILES IDX 13 24 14 25 15 26 16 27 17 28 18 29 19 30 20 31 81 32 21 33
REMARK SMILES IDX 80 34 22 35 23 36 24 37 74 38 25 39 79 40 73 41 75 42 26 43
REMARK SMILES IDX 78 44 72 45 71 46 27 48 59 49 39 50 58 51 40 52 43 53 57 54
REMARK SMILES IDX 76 55 41 56 42 57 56 59 77 60 44 61 28 62 29 63 37 64 30 65
REMARK SMILES IDX 32 66 38 67 31 68 33 69 34 70 35 71 36 72 60 73 61 74 69 75
REMARK SMILES IDX 62 76 64 77 70 78 63 79 65 80 66 81 67 82 68 83 45 84 46 85
REMARK SMILES IDX 54 86 47 87 49 88 55 89 48 90 50 91 51 92 52 93 53 94
REMARK H PARENT 75 47 43 58
REMARK Flexibility Score: inf
ROOT
ATOM      1  C   UNL A   1      34.434  31.320  28.041  1.00  0.00     0.188 C 
ENDROOT
BRANCH   1   2
ATOM      2  O   UNL A   1      33.185  30.792  27.615  1.00  0.00    -0.376 OA
BRANCH   2   3
ATOM      3  C   UNL A   1      33.134  29.532  26.965  1.00  0.00     0.202 C 
BRANCH   3   4
ATOM      4  C   UNL A   1      33.178  29.450  25.426  1.00  0.00     0.261 C 
BRANCH   4   5
ATOM      5  O   UNL A   1      32.096  28.756  24.749  1.00  0.00    -0.461 OA
BRANCH   5   6
ATOM      6  C   UNL A   1      32.295  27.424  24.563  1.00  0.00     0.334 C 
ATOM      7  O   UNL A   1      33.279  26.843  25.008  1.00  0.00    -0.249 OA
BRANCH   6   8
ATOM      8  C   UNL A   1      31.272  26.685  23.672  1.00  0.00     0.160 C 
ATOM      9  C   UNL A   1      30.459  27.811  22.994  1.00  0.00     0.050 C 
BRANCH   8  10
ATOM     10  C   UNL A   1      30.205  25.773  24.382  1.00  0.00     0.039 C 
ATOM     11  C   UNL A   1      30.194  25.876  25.914  1.00  0.00     0.007 C 
ENDBRANCH   8  10
BRANCH   8  12
ATOM     12  N   UNL A   1      32.085  25.873  22.753  1.00  0.00    -0.212 N 
ATOM     13  N   UNL A   1      32.520  26.465  21.612  1.00  0.00    -0.044 NA
ATOM     14  C   UNL A   1      32.489  24.553  22.734  1.00  0.00     0.157 A 
ATOM     15  N   UNL A   1      33.251  25.565  20.985  1.00  0.00    -0.024 NA
ATOM     16  N   UNL A   1      33.261  24.390  21.673  1.00  0.00    -0.113 NA
BRANCH  14  17
ATOM     17  C   UNL A   1      32.163  23.456  23.692  1.00  0.00     0.125 C 
BRANCH  17  18
ATOM     18  C   UNL A   1      33.134  23.370  24.836  1.00  0.00     0.012 A 
ATOM     19  C   UNL A   1      34.501  23.582  24.810  1.00  0.00     0.016 A 
ATOM     20  S   UNL A   1      32.595  23.004  26.423  1.00  0.00    -0.148 S 
ATOM     21  C   UNL A   1      35.113  23.336  26.072  1.00  0.00     0.012 A 
ATOM     22  C   UNL A   1      34.193  22.968  27.027  1.00  0.00     0.065 A 
ENDBRANCH  17  18
ENDBRANCH  14  17
ENDBRANCH   8  12
ENDBRANCH   6   8
ENDBRANCH   5   6
ENDBRANCH   4   5
ENDBRANCH   3   4
ENDBRANCH   2   3
ENDBRANCH   1   2
BRANCH   1  23
ATOM     23  C   UNL A   1      34.455  32.300  29.218  1.00  0.00     0.188 C 
BRANCH  23  24
ATOM     24  O   UNL A   1      35.547  32.164  30.098  1.00  0.00    -0.376 OA
BRANCH  24  25
ATOM     25  C   UNL A   1      35.458  32.739  31.387  1.00  0.00     0.202 C 
BRANCH  25  26
ATOM     26  C   UNL A   1      36.682  32.710  32.317  1.00  0.00     0.261 C 
BRANCH  26  27
ATOM     27  O   UNL A   1      36.849  31.542  33.134  1.00  0.00    -0.460 OA
BRANCH  27  28
ATOM     28  C   UNL A   1      37.299  30.415  32.522  1.00  0.00     0.338 C 
ATOM     29  O   UNL A   1      36.694  29.373  32.392  1.00  0.00    -0.246 OA
BRANCH  28  30
ATOM     30  C   UNL A   1      38.558  30.772  31.816  1.00  0.00     0.060 A 
ATOM     31  C   UNL A   1      39.648  31.236  32.569  1.00  0.00     0.016 A 
ATOM     32  C   UNL A   1      38.680  30.605  30.437  1.00  0.00     0.016 A 
ATOM     33  C   UNL A   1      40.855  31.553  31.941  1.00  0.00     0.010 A 
ATOM     34  C   UNL A   1      39.879  30.953  29.805  1.00  0.00     0.010 A 
ATOM     35  C   UNL A   1      40.964  31.456  30.549  1.00  0.00    -0.014 A 
BRANCH  35  36
ATOM     36  C   UNL A   1      42.123  32.064  29.846  1.00  0.00     0.031 A 
ATOM     37  C   UNL A   1      43.302  31.183  29.527  1.00  0.00     0.074 A 
ATOM     38  C   UNL A   1      42.152  33.366  29.508  1.00  0.00     0.049 A 
ATOM     39  N   UNL A   1      44.460  31.495  29.009  1.00  0.00    -0.248 NA
ATOM     40  C   UNL A   1      43.148  29.752  29.839  1.00  0.00     0.031 C 
ATOM     41  C   UNL A   1      41.071  34.323  29.723  1.00  0.00     0.029 A 
ATOM     42  N   UNL A   1      43.155  34.111  28.935  1.00  0.00    -0.354 N 
ATOM     43  C   UNL A   1      45.185  30.311  28.963  1.00  0.00     0.074 A 
ATOM     44  C   UNL A   1      44.341  29.275  29.517  1.00  0.00     0.031 C 
ATOM     45  C   UNL A   1      41.483  35.542  29.328  1.00  0.00     0.029 A 
ATOM     46  C   UNL A   1      42.867  35.454  28.859  1.00  0.00     0.049 A 
ATOM     47  H   UNL A   1      43.999  33.722  28.611  1.00  0.00     0.167 HD
ATOM     48  C   UNL A   1      46.437  30.098  28.494  1.00  0.00     0.034 A 
ATOM     49  C   UNL A   1      43.641  36.495  28.486  1.00  0.00     0.034 A 
ATOM     50  C   UNL A   1      47.276  31.122  27.933  1.00  0.00     0.049 A 
ATOM     51  C   UNL A   1      45.053  36.241  28.014  1.00  0.00     0.074 A 
ATOM     52  C   UNL A   1      48.548  30.996  27.403  1.00  0.00     0.029 A 
ATOM     53  N   UNL A   1      46.938  32.463  27.846  1.00  0.00    -0.354 N 
ATOM     54  N   UNL A   1      45.694  35.104  27.888  1.00  0.00    -0.248 NA
ATOM     55  C   UNL A   1      45.838  37.415  27.601  1.00  0.00     0.031 C 
ATOM     56  C   UNL A   1      48.994  32.267  27.030  1.00  0.00     0.029 A 
ATOM     57  C   UNL A   1      47.982  33.178  27.284  1.00  0.00     0.049 A 
ATOM     58  H   UNL A   1      46.081  32.850  28.138  1.00  0.00     0.167 HD
ATOM     59  C   UNL A   1      46.936  35.421  27.345  1.00  0.00     0.074 A 
ATOM     60  C   UNL A   1      46.953  36.855  27.151  1.00  0.00     0.031 C 
ATOM     61  C   UNL A   1      47.974  34.599  27.043  1.00  0.00     0.034 A 
BRANCH  48  62
ATOM     62  C   UNL A   1      46.976  28.693  28.563  1.00  0.00     0.023 A 
ATOM     63  C   UNL A   1      47.633  28.249  29.728  1.00  0.00     0.012 A 
ATOM     64  C   UNL A   1      46.792  27.800  27.490  1.00  0.00     0.148 A 
ATOM     65  C   UNL A   1      48.134  26.950  29.809  1.00  0.00     0.002 A 
ATOM     66  C   UNL A   1      47.249  26.493  27.597  1.00  0.00     0.091 A 
ATOM     67  F   UNL A   1      46.183  28.248  26.383  1.00  0.00    -0.205 F 
ATOM     68  C   UNL A   1      47.932  26.071  28.749  1.00  0.00     0.022 A 
BRANCH  66  69
ATOM     69  S   UNL A   1      46.969  25.261  26.321  1.00  0.00     0.127 S 
ATOM     70  O   UNL A   1      47.255  24.020  27.040  1.00  0.00    -0.237 OA
ATOM     71  O   UNL A   1      45.556  25.468  26.002  1.00  0.00    -0.237 OA
ATOM     72  O   UNL A   1      47.890  25.581  25.240  1.00  0.00    -0.744 OA
ENDBRANCH  66  69
ENDBRANCH  48  62
BRANCH  49  73
ATOM     73  C   UNL A   1      43.098  37.884  28.530  1.00  0.00     0.023 A 
ATOM     74  C   UNL A   1      42.318  38.363  27.460  1.00  0.00     0.012 A 
ATOM     75  C   UNL A   1      43.363  38.735  29.621  1.00  0.00     0.148 A 
ATOM     76  C   UNL A   1      41.842  39.675  27.458  1.00  0.00     0.002 A 
ATOM     77  C   UNL A   1      42.835  40.021  29.640  1.00  0.00     0.091 A 
ATOM     78  F   UNL A   1      44.124  38.269  30.621  1.00  0.00    -0.205 F 
ATOM     79  C   UNL A   1      42.092  40.501  28.550  1.00  0.00     0.022 A 
BRANCH  77  80
ATOM     80  S   UNL A   1      43.003  41.117  31.053  1.00  0.00     0.127 S 
ATOM     81  O   UNL A   1      42.743  40.209  32.169  1.00  0.00    -0.237 OA
ATOM     82  O   UNL A   1      44.394  41.554  30.926  1.00  0.00    -0.237 OA
ATOM     83  O   UNL A   1      42.017  42.170  30.859  1.00  0.00    -0.744 OA
ENDBRANCH  77  80
ENDBRANCH  49  73
BRANCH  61  84
ATOM     84  C   UNL A   1      49.204  35.209  26.418  1.00  0.00     0.023 A 
ATOM     85  C   UNL A   1      49.246  35.456  25.031  1.00  0.00     0.012 A 
ATOM     86  C   UNL A   1      50.289  35.613  27.222  1.00  0.00     0.148 A 
ATOM     87  C   UNL A   1      50.361  36.062  24.451  1.00  0.00     0.002 A 
ATOM     88  C   UNL A   1      51.374  36.263  26.645  1.00  0.00     0.091 A 
ATOM     89  F   UNL A   1      50.239  35.359  28.538  1.00  0.00    -0.205 F 
ATOM     90  C   UNL A   1      51.417  36.476  25.257  1.00  0.00     0.022 A 
BRANCH  88  91
ATOM     91  S   UNL A   1      52.736  36.922  27.615  1.00  0.00     0.127 S 
ATOM     92  O   UNL A   1      53.576  37.523  26.580  1.00  0.00    -0.237 OA
ATOM     93  O   UNL A   1      52.060  37.883  28.485  1.00  0.00    -0.237 OA
ATOM     94  O   UNL A   1      53.323  35.785  28.310  1.00  0.00    -0.744 OA
ENDBRANCH  88  91
ENDBRANCH  61  84
ENDBRANCH  35  36
ENDBRANCH  28  30
ENDBRANCH  27  28
ENDBRANCH  26  27
ENDBRANCH  25  26
ENDBRANCH  24  25
ENDBRANCH  23  24
ENDBRANCH   1  23
TORSDOF 24
ENDMDL
