MODEL 1
REMARK VINA RESULT:     -10.8      0.000      0.000
REMARK SMILES Cc1nn(C)c(=O)c(C(=O)N2CCCC[C@H]2C(=O)OCCOCCOCCOC(=O)c2ccc(-c3c4nc(c(-c5cccc(S(=O)(=O)[O-])c5F)c5ccc([nH]5)c(-c5cccc(S(=O)(=O)[O-])c5F)c5nc(c(-c6cccc(S(=O)(=O)[O-])c6F)c6ccc3[nH]6)C=C5)C=C4)cc2)c1C
REMARK SMILES IDX 24 1 23 2 22 3 21 4 20 5 19 6 17 7 18 8 16 9 11 10 12 11
REMARK SMILES IDX 13 12 15 13 14 14 9 15 10 16 8 17 1 18 2 19 3 20 94 21 4 22
REMARK SMILES IDX 95 23 5 24 6 25 7 26 25 27 26 28 27 29 28 30 29 31 30 32
REMARK SMILES IDX 31 33 32 34 93 35 33 36 92 37 34 38 35 39 36 40 86 41 37 42
REMARK SMILES IDX 91 43 85 44 87 45 38 46 90 47 84 48 83 49 39 51 71 52 51 53
REMARK SMILES IDX 70 54 52 55 55 56 69 57 88 58 53 59 54 60 68 62 89 63 56 64
REMARK SMILES IDX 40 65 41 66 49 67 42 68 44 69 50 70 43 71 45 72 46 73 47 74
REMARK SMILES IDX 48 75 72 76 73 77 81 78 74 79 76 80 82 81 75 82 77 83 78 84
REMARK SMILES IDX 79 85 80 86 57 87 58 88 66 89 59 90 61 91 67 92 60 93 62 94
REMARK SMILES IDX 63 95 64 96 65 97
REMARK H PARENT 87 50 55 61
REMARK Flexibility Score: inf
ROOT
ATOM      1  C   UNL A   1      37.209  21.692  25.689  1.00  0.00     0.188 C 
ENDROOT
BRANCH   1   2
ATOM      2  C   UNL A   1      35.719  21.430  25.455  1.00  0.00     0.188 C 
BRANCH   2   3
ATOM      3  O   UNL A   1      34.862  21.605  26.580  1.00  0.00    -0.376 OA
BRANCH   3   4
ATOM      4  C   UNL A   1      34.428  22.919  26.917  1.00  0.00     0.202 C 
BRANCH   4   5
ATOM      5  C   UNL A   1      32.918  23.152  26.878  1.00  0.00     0.261 C 
BRANCH   5   6
ATOM      6  O   UNL A   1      32.597  24.508  26.508  1.00  0.00    -0.462 OA
BRANCH   6   7
ATOM      7  C   UNL A   1      31.341  24.726  26.036  1.00  0.00     0.328 C 
ATOM      8  O   UNL A   1      30.321  24.471  26.665  1.00  0.00    -0.250 OA
BRANCH   7   9
ATOM      9  C   UNL A   1      31.326  25.403  24.646  1.00  0.00     0.195 C 
ATOM     10  N   UNL A   1      32.635  25.712  24.018  1.00  0.00    -0.325 N 
ATOM     11  C   UNL A   1      33.453  24.547  23.684  1.00  0.00     0.121 C 
ATOM     12  C   UNL A   1      32.705  23.556  22.800  1.00  0.00     0.022 C 
ATOM     13  C   UNL A   1      30.540  24.468  23.700  1.00  0.00     0.037 C 
ATOM     14  C   UNL A   1      31.346  23.198  23.394  1.00  0.00     0.005 C 
BRANCH  10  15
ATOM     15  C   UNL A   1      32.852  26.865  23.264  1.00  0.00     0.260 C 
ATOM     16  O   UNL A   1      33.615  26.874  22.296  1.00  0.00    -0.269 OA
BRANCH  15  17
ATOM     17  C   UNL A   1      32.362  28.174  23.794  1.00  0.00     0.111 A 
ATOM     18  C   UNL A   1      29.507  30.649  23.587  1.00  0.00     0.069 C 
ATOM     19  C   UNL A   1      30.624  29.800  24.152  1.00  0.00     0.062 A 
ATOM     20  N   UNL A   1      31.064  30.167  25.313  1.00  0.00    -0.175 NA
ATOM     21  C   UNL A   1      31.165  28.642  23.382  1.00  0.00    -0.010 A 
ATOM     22  N   UNL A   1      32.174  29.545  25.805  1.00  0.00    -0.232 N 
ATOM     23  C   UNL A   1      30.276  27.967  22.380  1.00  0.00     0.047 C 
ATOM     24  C   UNL A   1      32.571  29.956  27.140  1.00  0.00     0.178 C 
ATOM     25  C   UNL A   1      32.983  28.713  25.040  1.00  0.00     0.279 A 
ATOM     26  O   UNL A   1      34.124  28.385  25.361  1.00  0.00    -0.267 OA
ENDBRANCH  15  17
ENDBRANCH  10  15
ENDBRANCH   7   9
ENDBRANCH   6   7
ENDBRANCH   5   6
ENDBRANCH   4   5
ENDBRANCH   3   4
ENDBRANCH   2   3
ENDBRANCH   1   2
BRANCH   1  27
ATOM     27  O   UNL A   1      38.121  20.990  24.848  1.00  0.00    -0.376 OA
BRANCH  27  28
ATOM     28  C   UNL A   1      38.371  19.622  25.173  1.00  0.00     0.202 C 
BRANCH  28  29
ATOM     29  C   UNL A   1      39.768  19.356  25.733  1.00  0.00     0.261 C 
BRANCH  29  30
ATOM     30  O   UNL A   1      39.953  20.013  26.995  1.00  0.00    -0.460 OA
BRANCH  30  31
ATOM     31  C   UNL A   1      41.233  20.289  27.345  1.00  0.00     0.338 C 
ATOM     32  O   UNL A   1      42.178  19.517  27.355  1.00  0.00    -0.246 OA
BRANCH  31  33
ATOM     33  C   UNL A   1      41.363  21.746  27.534  1.00  0.00     0.060 A 
ATOM     34  C   UNL A   1      40.771  22.604  26.595  1.00  0.00     0.016 A 
ATOM     35  C   UNL A   1      42.065  22.261  28.626  1.00  0.00     0.016 A 
ATOM     36  C   UNL A   1      40.896  23.986  26.740  1.00  0.00     0.010 A 
ATOM     37  C   UNL A   1      42.201  23.639  28.761  1.00  0.00     0.010 A 
ATOM     38  C   UNL A   1      41.638  24.505  27.809  1.00  0.00    -0.014 A 
BRANCH  38  39
ATOM     39  C   UNL A   1      41.971  25.943  27.889  1.00  0.00     0.031 A 
ATOM     40  C   UNL A   1      43.348  26.377  27.480  1.00  0.00     0.074 A 
ATOM     41  C   UNL A   1      41.098  26.819  28.414  1.00  0.00     0.049 A 
ATOM     42  N   UNL A   1      43.935  27.531  27.647  1.00  0.00    -0.248 NA
ATOM     43  C   UNL A   1      44.181  25.366  26.806  1.00  0.00     0.031 C 
ATOM     44  C   UNL A   1      39.734  26.506  28.831  1.00  0.00     0.029 A 
ATOM     45  N   UNL A   1      41.253  28.146  28.726  1.00  0.00    -0.354 N 
ATOM     46  C   UNL A   1      45.213  27.381  27.125  1.00  0.00     0.074 A 
ATOM     47  C   UNL A   1      45.320  26.022  26.640  1.00  0.00     0.031 C 
ATOM     48  C   UNL A   1      39.184  27.603  29.380  1.00  0.00     0.029 A 
ATOM     49  C   UNL A   1      40.172  28.681  29.386  1.00  0.00     0.049 A 
ATOM     50  H   UNL A   1      42.058  28.665  28.499  1.00  0.00     0.167 HD
ATOM     51  C   UNL A   1      46.204  28.298  27.048  1.00  0.00     0.034 A 
ATOM     52  C   UNL A   1      40.014  29.891  29.959  1.00  0.00     0.034 A 
ATOM     53  C   UNL A   1      46.086  29.648  27.525  1.00  0.00     0.049 A 
ATOM     54  C   UNL A   1      41.149  30.882  29.896  1.00  0.00     0.074 A 
ATOM     55  C   UNL A   1      47.025  30.662  27.478  1.00  0.00     0.029 A 
ATOM     56  N   UNL A   1      44.959  30.170  28.141  1.00  0.00    -0.354 N 
ATOM     57  N   UNL A   1      42.324  30.759  29.325  1.00  0.00    -0.248 NA
ATOM     58  C   UNL A   1      40.930  32.187  30.539  1.00  0.00     0.031 C 
ATOM     59  C   UNL A   1      46.468  31.797  28.077  1.00  0.00     0.029 A 
ATOM     60  C   UNL A   1      45.179  31.492  28.484  1.00  0.00     0.049 A 
ATOM     61  H   UNL A   1      44.126  29.674  28.310  1.00  0.00     0.167 HD
ATOM     62  C   UNL A   1      42.975  31.972  29.521  1.00  0.00     0.074 A 
ATOM     63  C   UNL A   1      42.052  32.828  30.240  1.00  0.00     0.031 C 
ATOM     64  C   UNL A   1      44.229  32.342  29.157  1.00  0.00     0.034 A 
BRANCH  51  65
ATOM     65  C   UNL A   1      47.489  27.881  26.387  1.00  0.00     0.023 A 
ATOM     66  C   UNL A   1      48.557  27.426  27.185  1.00  0.00     0.012 A 
ATOM     67  C   UNL A   1      47.624  27.885  24.985  1.00  0.00     0.148 A 
ATOM     68  C   UNL A   1      49.750  27.002  26.601  1.00  0.00     0.002 A 
ATOM     69  C   UNL A   1      48.802  27.424  24.408  1.00  0.00     0.091 A 
ATOM     70  F   UNL A   1      46.606  28.347  24.245  1.00  0.00    -0.205 F 
ATOM     71  C   UNL A   1      49.868  26.990  25.214  1.00  0.00     0.022 A 
BRANCH  69  72
ATOM     72  S   UNL A   1      49.029  27.307  22.630  1.00  0.00     0.127 S 
ATOM     73  O   UNL A   1      48.369  26.037  22.330  1.00  0.00    -0.237 OA
ATOM     74  O   UNL A   1      48.315  28.491  22.151  1.00  0.00    -0.237 OA
ATOM     75  O   UNL A   1      50.467  27.332  22.405  1.00  0.00    -0.744 OA
ENDBRANCH  69  72
ENDBRANCH  51  65
BRANCH  52  76
ATOM     76  C   UNL A   1      38.718  30.245  30.602  1.00  0.00     0.023 A 
ATOM     77  C   UNL A   1      38.467  29.807  31.917  1.00  0.00     0.012 A 
ATOM     78  C   UNL A   1      37.756  31.040  29.948  1.00  0.00     0.148 A 
ATOM     79  C   UNL A   1      37.276  30.138  32.563  1.00  0.00     0.002 A 
ATOM     80  C   UNL A   1      36.594  31.411  30.617  1.00  0.00     0.091 A 
ATOM     81  F   UNL A   1      38.003  31.430  28.690  1.00  0.00    -0.205 F 
ATOM     82  C   UNL A   1      36.346  30.950  31.919  1.00  0.00     0.022 A 
BRANCH  80  83
ATOM     83  S   UNL A   1      35.399  32.555  29.915  1.00  0.00     0.127 S 
ATOM     84  O   UNL A   1      34.375  32.595  30.957  1.00  0.00    -0.237 OA
ATOM     85  O   UNL A   1      36.192  33.778  29.787  1.00  0.00    -0.237 OA
ATOM     86  O   UNL A   1      34.991  31.969  28.647  1.00  0.00    -0.744 OA
ENDBRANCH  80  83
ENDBRANCH  52  76
BRANCH  64  87
ATOM     87  C   UNL A   1      44.686  33.730  29.522  1.00  0.00     0.023 A 
ATOM     88  C   UNL A   1      45.297  33.950  30.772  1.00  0.00     0.012 A 
ATOM     89  C   UNL A   1      44.609  34.787  28.593  1.00  0.00     0.148 A 
ATOM     90  C   UNL A   1      45.805  35.207  31.101  1.00  0.00     0.002 A 
ATOM     91  C   UNL A   1      45.158  36.024  28.911  1.00  0.00     0.091 A 
ATOM     92  F   UNL A   1      44.006  34.563  27.416  1.00  0.00    -0.205 F 
ATOM     93  C   UNL A   1      45.748  36.238  30.167  1.00  0.00     0.022 A 
BRANCH  91  94
ATOM     94  S   UNL A   1      45.216  37.375  27.727  1.00  0.00     0.127 S 
ATOM     95  O   UNL A   1      43.797  37.636  27.501  1.00  0.00    -0.237 OA
ATOM     96  O   UNL A   1      45.916  38.421  28.477  1.00  0.00    -0.237 OA
ATOM     97  O   UNL A   1      45.955  36.865  26.580  1.00  0.00    -0.744 OA
ENDBRANCH  91  94
ENDBRANCH  64  87
ENDBRANCH  38  39
ENDBRANCH  31  33
ENDBRANCH  30  31
ENDBRANCH  29  30
ENDBRANCH  28  29
ENDBRANCH  27  28
ENDBRANCH   1  27
TORSDOF 22
ENDMDL
MODEL 2
REMARK VINA RESULT:     -10.8      4.977      8.543
REMARK SMILES Cc1nn(C)c(=O)c(C(=O)N2CCCC[C@H]2C(=O)OCCOCCOCCOC(=O)c2ccc(-c3c4nc(c(-c5cccc(S(=O)(=O)[O-])c5F)c5ccc([nH]5)c(-c5cccc(S(=O)(=O)[O-])c5F)c5nc(c(-c6cccc(S(=O)(=O)[O-])c6F)c6ccc3[nH]6)C=C5)C=C4)cc2)c1C
REMARK SMILES IDX 24 1 23 2 22 3 21 4 20 5 19 6 17 7 18 8 16 9 11 10 12 11
REMARK SMILES IDX 13 12 15 13 14 14 9 15 10 16 8 17 1 18 2 19 3 20 94 21 4 22
REMARK SMILES IDX 95 23 5 24 6 25 7 26 25 27 26 28 27 29 28 30 29 31 30 32
REMARK SMILES IDX 31 33 32 34 93 35 33 36 92 37 34 38 35 39 36 40 86 41 37 42
REMARK SMILES IDX 91 43 85 44 87 45 38 46 90 47 84 48 83 49 39 51 71 52 51 53
REMARK SMILES IDX 70 54 52 55 55 56 69 57 88 58 53 59 54 60 68 62 89 63 56 64
REMARK SMILES IDX 40 65 41 66 49 67 42 68 44 69 50 70 43 71 45 72 46 73 47 74
REMARK SMILES IDX 48 75 72 76 73 77 81 78 74 79 76 80 82 81 75 82 77 83 78 84
REMARK SMILES IDX 79 85 80 86 57 87 58 88 66 89 59 90 61 91 67 92 60 93 62 94
REMARK SMILES IDX 63 95 64 96 65 97
REMARK H PARENT 87 50 55 61
REMARK Flexibility Score: inf
ROOT
ATOM      1  C   UNL A   1      30.807  29.790  24.607  1.00  0.00     0.188 C 
ENDROOT
BRANCH   1   2
ATOM      2  C   UNL A   1      30.091  29.265  23.361  1.00  0.00     0.188 C 
BRANCH   2   3
ATOM      3  O   UNL A   1      30.904  28.592  22.402  1.00  0.00    -0.376 OA
BRANCH   3   4
ATOM      4  C   UNL A   1      31.311  27.253  22.664  1.00  0.00     0.202 C 
BRANCH   4   5
ATOM      5  C   UNL A   1      30.305  26.387  23.421  1.00  0.00     0.261 C 
BRANCH   5   6
ATOM      6  O   UNL A   1      30.521  26.441  24.847  1.00  0.00    -0.462 OA
BRANCH   6   7
ATOM      7  C   UNL A   1      30.358  25.277  25.529  1.00  0.00     0.328 C 
ATOM      8  O   UNL A   1      29.622  25.153  26.500  1.00  0.00    -0.250 OA
BRANCH   7   9
ATOM      9  C   UNL A   1      31.140  24.097  24.909  1.00  0.00     0.195 C 
ATOM     10  N   UNL A   1      32.619  24.209  24.849  1.00  0.00    -0.325 N 
ATOM     11  C   UNL A   1      33.290  24.256  26.147  1.00  0.00     0.121 C 
ATOM     12  C   UNL A   1      32.922  23.067  27.026  1.00  0.00     0.022 C 
ATOM     13  C   UNL A   1      30.779  22.838  25.728  1.00  0.00     0.037 C 
ATOM     14  C   UNL A   1      31.408  22.898  27.126  1.00  0.00     0.005 C 
BRANCH  10  15
ATOM     15  C   UNL A   1      33.366  23.722  23.777  1.00  0.00     0.260 C 
ATOM     16  O   UNL A   1      33.258  24.193  22.643  1.00  0.00    -0.269 OA
BRANCH  15  17
ATOM     17  C   UNL A   1      34.111  22.437  23.945  1.00  0.00     0.111 A 
ATOM     18  C   UNL A   1      37.462  20.984  24.937  1.00  0.00     0.069 C 
ATOM     19  C   UNL A   1      35.966  21.155  24.787  1.00  0.00     0.062 A 
ATOM     20  N   UNL A   1      35.263  20.093  25.013  1.00  0.00    -0.175 NA
ATOM     21  C   UNL A   1      35.387  22.471  24.386  1.00  0.00    -0.010 A 
ATOM     22  N   UNL A   1      33.927  20.136  24.740  1.00  0.00    -0.232 N 
ATOM     23  C   UNL A   1      36.159  23.720  24.691  1.00  0.00     0.047 C 
ATOM     24  C   UNL A   1      33.187  18.934  25.081  1.00  0.00     0.178 C 
ATOM     25  C   UNL A   1      33.329  21.168  24.025  1.00  0.00     0.279 A 
ATOM     26  O   UNL A   1      32.212  21.091  23.518  1.00  0.00    -0.267 OA
ENDBRANCH  15  17
ENDBRANCH  10  15
ENDBRANCH   7   9
ENDBRANCH   6   7
ENDBRANCH   5   6
ENDBRANCH   4   5
ENDBRANCH   3   4
ENDBRANCH   2   3
ENDBRANCH   1   2
BRANCH   1  27
ATOM     27  O   UNL A   1      30.547  31.144  24.970  1.00  0.00    -0.376 OA
BRANCH  27  28
ATOM     28  C   UNL A   1      31.208  31.635  26.136  1.00  0.00     0.202 C 
BRANCH  28  29
ATOM     29  C   UNL A   1      32.024  30.581  26.885  1.00  0.00     0.261 C 
BRANCH  29  30
ATOM     30  O   UNL A   1      33.431  30.817  26.737  1.00  0.00    -0.460 OA
BRANCH  30  31
ATOM     31  C   UNL A   1      33.954  31.815  27.490  1.00  0.00     0.338 C 
ATOM     32  O   UNL A   1      33.398  32.841  27.845  1.00  0.00    -0.246 OA
BRANCH  31  33
ATOM     33  C   UNL A   1      35.270  31.379  27.996  1.00  0.00     0.060 A 
ATOM     34  C   UNL A   1      35.456  30.026  28.314  1.00  0.00     0.016 A 
ATOM     35  C   UNL A   1      36.309  32.298  28.158  1.00  0.00     0.016 A 
ATOM     36  C   UNL A   1      36.684  29.590  28.813  1.00  0.00     0.010 A 
ATOM     37  C   UNL A   1      37.528  31.865  28.669  1.00  0.00     0.010 A 
ATOM     38  C   UNL A   1      37.714  30.517  29.019  1.00  0.00    -0.014 A 
BRANCH  38  39
ATOM     39  C   UNL A   1      38.953  30.146  29.734  1.00  0.00     0.031 A 
ATOM     40  C   UNL A   1      39.828  29.083  29.137  1.00  0.00     0.074 A 
ATOM     41  C   UNL A   1      39.232  30.674  30.938  1.00  0.00     0.049 A 
ATOM     42  N   UNL A   1      40.842  28.455  29.665  1.00  0.00    -0.248 NA
ATOM     43  C   UNL A   1      39.501  28.662  27.763  1.00  0.00     0.031 C 
ATOM     44  C   UNL A   1      38.458  31.720  31.602  1.00  0.00     0.029 A 
ATOM     45  N   UNL A   1      40.224  30.364  31.834  1.00  0.00    -0.354 N 
ATOM     46  C   UNL A   1      41.261  27.544  28.703  1.00  0.00     0.074 A 
ATOM     47  C   UNL A   1      40.388  27.698  27.560  1.00  0.00     0.031 C 
ATOM     48  C   UNL A   1      38.981  31.941  32.821  1.00  0.00     0.029 A 
ATOM     49  C   UNL A   1      40.102  31.026  33.033  1.00  0.00     0.049 A 
ATOM     50  H   UNL A   1      40.950  29.730  31.639  1.00  0.00     0.167 HD
ATOM     51  C   UNL A   1      42.289  26.667  28.765  1.00  0.00     0.034 A 
ATOM     52  C   UNL A   1      40.796  30.883  34.180  1.00  0.00     0.034 A 
ATOM     53  C   UNL A   1      43.157  26.527  29.901  1.00  0.00     0.049 A 
ATOM     54  C   UNL A   1      41.911  29.869  34.237  1.00  0.00     0.074 A 
ATOM     55  C   UNL A   1      44.239  25.682  30.058  1.00  0.00     0.029 A 
ATOM     56  N   UNL A   1      43.037  27.251  31.078  1.00  0.00    -0.354 N 
ATOM     57  N   UNL A   1      42.353  29.073  33.293  1.00  0.00    -0.248 NA
ATOM     58  C   UNL A   1      42.635  29.747  35.512  1.00  0.00     0.031 C 
ATOM     59  C   UNL A   1      44.768  25.886  31.337  1.00  0.00     0.029 A 
ATOM     60  C   UNL A   1      44.023  26.869  31.970  1.00  0.00     0.049 A 
ATOM     61  H   UNL A   1      42.351  27.936  31.254  1.00  0.00     0.167 HD
ATOM     62  C   UNL A   1      43.418  28.372  33.850  1.00  0.00     0.074 A 
ATOM     63  C   UNL A   1      43.572  28.859  35.207  1.00  0.00     0.031 C 
ATOM     64  C   UNL A   1      44.188  27.400  33.299  1.00  0.00     0.034 A 
BRANCH  51  65
ATOM     65  C   UNL A   1      42.555  25.820  27.551  1.00  0.00     0.023 A 
ATOM     66  C   UNL A   1      43.266  26.373  26.467  1.00  0.00     0.012 A 
ATOM     67  C   UNL A   1      42.153  24.470  27.500  1.00  0.00     0.148 A 
ATOM     68  C   UNL A   1      43.556  25.603  25.341  1.00  0.00     0.002 A 
ATOM     69  C   UNL A   1      42.480  23.699  26.391  1.00  0.00     0.091 A 
ATOM     70  F   UNL A   1      41.454  23.972  28.530  1.00  0.00    -0.205 F 
ATOM     71  C   UNL A   1      43.173  24.265  25.308  1.00  0.00     0.022 A 
BRANCH  69  72
ATOM     72  S   UNL A   1      42.090  21.949  26.279  1.00  0.00     0.127 S 
ATOM     73  O   UNL A   1      42.432  21.483  27.622  1.00  0.00    -0.237 OA
ATOM     74  O   UNL A   1      40.656  21.972  25.990  1.00  0.00    -0.237 OA
ATOM     75  O   UNL A   1      42.918  21.419  25.205  1.00  0.00    -0.744 OA
ENDBRANCH  69  72
ENDBRANCH  51  65
BRANCH  52  76
ATOM     76  C   UNL A   1      40.483  31.750  35.350  1.00  0.00     0.023 A 
ATOM     77  C   UNL A   1      41.357  32.807  35.670  1.00  0.00     0.012 A 
ATOM     78  C   UNL A   1      39.316  31.568  36.119  1.00  0.00     0.148 A 
ATOM     79  C   UNL A   1      41.085  33.657  36.743  1.00  0.00     0.002 A 
ATOM     80  C   UNL A   1      39.024  32.450  37.154  1.00  0.00     0.091 A 
ATOM     81  F   UNL A   1      38.508  30.544  35.813  1.00  0.00    -0.205 F 
ATOM     82  C   UNL A   1      39.914  33.486  37.476  1.00  0.00     0.022 A 
BRANCH  80  83
ATOM     83  S   UNL A   1      37.480  32.386  38.071  1.00  0.00     0.127 S 
ATOM     84  O   UNL A   1      37.285  30.947  38.230  1.00  0.00    -0.237 OA
ATOM     85  O   UNL A   1      37.829  33.098  39.300  1.00  0.00    -0.237 OA
ATOM     86  O   UNL A   1      36.500  33.070  37.239  1.00  0.00    -0.744 OA
ENDBRANCH  80  83
ENDBRANCH  52  76
BRANCH  64  87
ATOM     87  C   UNL A   1      45.272  26.794  34.152  1.00  0.00     0.023 A 
ATOM     88  C   UNL A   1      46.532  27.420  34.217  1.00  0.00     0.012 A 
ATOM     89  C   UNL A   1      45.012  25.673  34.966  1.00  0.00     0.148 A 
ATOM     90  C   UNL A   1      47.525  26.928  35.063  1.00  0.00     0.002 A 
ATOM     91  C   UNL A   1      45.993  25.216  35.839  1.00  0.00     0.091 A 
ATOM     92  F   UNL A   1      43.814  25.078  34.876  1.00  0.00    -0.205 F 
ATOM     93  C   UNL A   1      47.251  25.836  35.883  1.00  0.00     0.022 A 
BRANCH  91  94
ATOM     94  S   UNL A   1      45.687  23.879  37.001  1.00  0.00     0.127 S 
ATOM     95  O   UNL A   1      47.034  23.593  37.489  1.00  0.00    -0.237 OA
ATOM     96  O   UNL A   1      44.805  24.512  37.985  1.00  0.00    -0.237 OA
ATOM     97  O   UNL A   1      45.057  22.818  36.227  1.00  0.00    -0.744 OA
ENDBRANCH  91  94
ENDBRANCH  64  87
ENDBRANCH  38  39
ENDBRANCH  31  33
ENDBRANCH  30  31
ENDBRANCH  29  30
ENDBRANCH  28  29
ENDBRANCH  27  28
ENDBRANCH   1  27
TORSDOF 22
ENDMDL
MODEL 3
REMARK VINA RESULT:     -10.6      5.021      7.844
REMARK SMILES Cc1nn(C)c(=O)c(C(=O)N2CCCC[C@H]2C(=O)OCCOCCOCCOC(=O)c2ccc(-c3c4nc(c(-c5cccc(S(=O)(=O)[O-])c5F)c5ccc([nH]5)c(-c5cccc(S(=O)(=O)[O-])c5F)c5nc(c(-c6cccc(S(=O)(=O)[O-])c6F)c6ccc3[nH]6)C=C5)C=C4)cc2)c1C
REMARK SMILES IDX 24 1 23 2 22 3 21 4 20 5 19 6 17 7 18 8 16 9 11 10 12 11
REMARK SMILES IDX 13 12 15 13 14 14 9 15 10 16 8 17 1 18 2 19 3 20 94 21 4 22
REMARK SMILES IDX 95 23 5 24 6 25 7 26 25 27 26 28 27 29 28 30 29 31 30 32
REMARK SMILES IDX 31 33 32 34 93 35 33 36 92 37 34 38 35 39 36 40 86 41 37 42
REMARK SMILES IDX 91 43 85 44 87 45 38 46 90 47 84 48 83 49 39 51 71 52 51 53
REMARK SMILES IDX 70 54 52 55 55 56 69 57 88 58 53 59 54 60 68 62 89 63 56 64
REMARK SMILES IDX 40 65 41 66 49 67 42 68 44 69 50 70 43 71 45 72 46 73 47 74
REMARK SMILES IDX 48 75 72 76 73 77 81 78 74 79 76 80 82 81 75 82 77 83 78 84
REMARK SMILES IDX 79 85 80 86 57 87 58 88 66 89 59 90 61 91 67 92 60 93 62 94
REMARK SMILES IDX 63 95 64 96 65 97
REMARK H PARENT 87 50 55 61
REMARK Flexibility Score: inf
ROOT
ATOM      1  C   UNL A   1      30.624  27.242  26.160  1.00  0.00     0.188 C 
ENDROOT
BRANCH   1   2
ATOM      2  C   UNL A   1      30.074  25.877  25.740  1.00  0.00     0.188 C 
BRANCH   2   3
ATOM      3  O   UNL A   1      30.957  25.042  24.994  1.00  0.00    -0.376 OA
BRANCH   3   4
ATOM      4  C   UNL A   1      30.458  24.367  23.845  1.00  0.00     0.202 C 
BRANCH   4   5
ATOM      5  C   UNL A   1      30.719  22.862  23.791  1.00  0.00     0.261 C 
BRANCH   5   6
ATOM      6  O   UNL A   1      31.184  22.355  25.059  1.00  0.00    -0.462 OA
BRANCH   6   7
ATOM      7  C   UNL A   1      32.122  21.372  25.012  1.00  0.00     0.328 C 
ATOM      8  O   UNL A   1      31.859  20.177  25.057  1.00  0.00    -0.250 OA
BRANCH   7   9
ATOM      9  C   UNL A   1      33.557  21.914  24.820  1.00  0.00     0.195 C 
ATOM     10  N   UNL A   1      33.783  23.361  25.060  1.00  0.00    -0.325 N 
ATOM     11  C   UNL A   1      33.567  23.803  26.437  1.00  0.00     0.121 C 
ATOM     12  C   UNL A   1      34.399  23.002  27.433  1.00  0.00     0.022 C 
ATOM     13  C   UNL A   1      34.471  21.113  25.773  1.00  0.00     0.037 C 
ATOM     14  C   UNL A   1      34.209  21.501  27.235  1.00  0.00     0.005 C 
BRANCH  10  15
ATOM     15  C   UNL A   1      34.665  24.120  24.291  1.00  0.00     0.260 C 
ATOM     16  O   UNL A   1      35.872  24.161  24.538  1.00  0.00    -0.269 OA
BRANCH  15  17
ATOM     17  C   UNL A   1      34.105  25.109  23.320  1.00  0.00     0.111 A 
ATOM     18  C   UNL A   1      32.513  25.432  19.902  1.00  0.00     0.069 C 
ATOM     19  C   UNL A   1      32.814  25.666  21.367  1.00  0.00     0.062 A 
ATOM     20  N   UNL A   1      32.366  26.778  21.853  1.00  0.00    -0.175 NA
ATOM     21  C   UNL A   1      33.595  24.665  22.152  1.00  0.00    -0.010 A 
ATOM     22  N   UNL A   1      32.740  27.123  23.119  1.00  0.00    -0.232 N 
ATOM     23  C   UNL A   1      33.578  23.232  21.710  1.00  0.00     0.047 C 
ATOM     24  C   UNL A   1      32.146  28.347  23.626  1.00  0.00     0.178 C 
ATOM     25  C   UNL A   1      33.747  26.470  23.820  1.00  0.00     0.279 A 
ATOM     26  O   UNL A   1      34.297  26.933  24.818  1.00  0.00    -0.267 OA
ENDBRANCH  15  17
ENDBRANCH  10  15
ENDBRANCH   7   9
ENDBRANCH   6   7
ENDBRANCH   5   6
ENDBRANCH   4   5
ENDBRANCH   3   4
ENDBRANCH   2   3
ENDBRANCH   1   2
BRANCH   1  27
ATOM     27  O   UNL A   1      31.210  27.323  27.457  1.00  0.00    -0.376 OA
BRANCH  27  28
ATOM     28  C   UNL A   1      32.264  28.271  27.628  1.00  0.00     0.202 C 
BRANCH  28  29
ATOM     29  C   UNL A   1      31.957  29.658  27.064  1.00  0.00     0.261 C 
BRANCH  29  30
ATOM     30  O   UNL A   1      33.144  30.284  26.556  1.00  0.00    -0.460 OA
BRANCH  30  31
ATOM     31  C   UNL A   1      33.595  31.361  27.245  1.00  0.00     0.338 C 
ATOM     32  O   UNL A   1      32.969  32.367  27.535  1.00  0.00    -0.246 OA
BRANCH  31  33
ATOM     33  C   UNL A   1      34.934  31.047  27.779  1.00  0.00     0.060 A 
ATOM     34  C   UNL A   1      35.253  29.710  28.058  1.00  0.00     0.016 A 
ATOM     35  C   UNL A   1      35.865  32.063  28.003  1.00  0.00     0.016 A 
ATOM     36  C   UNL A   1      36.506  29.388  28.582  1.00  0.00     0.010 A 
ATOM     37  C   UNL A   1      37.109  31.743  28.538  1.00  0.00     0.010 A 
ATOM     38  C   UNL A   1      37.426  30.410  28.850  1.00  0.00    -0.014 A 
BRANCH  38  39
ATOM     39  C   UNL A   1      38.677  30.145  29.592  1.00  0.00     0.031 A 
ATOM     40  C   UNL A   1      39.639  29.140  29.029  1.00  0.00     0.074 A 
ATOM     41  C   UNL A   1      38.895  30.714  30.789  1.00  0.00     0.049 A 
ATOM     42  N   UNL A   1      40.688  28.599  29.585  1.00  0.00    -0.248 NA
ATOM     43  C   UNL A   1      39.368  28.670  27.659  1.00  0.00     0.031 C 
ATOM     44  C   UNL A   1      38.034  31.711  31.421  1.00  0.00     0.029 A 
ATOM     45  N   UNL A   1      39.892  30.495  31.707  1.00  0.00    -0.354 N 
ATOM     46  C   UNL A   1      41.190  27.704  28.648  1.00  0.00     0.074 A 
ATOM     47  C   UNL A   1      40.327  27.772  27.488  1.00  0.00     0.031 C 
ATOM     48  C   UNL A   1      38.519  31.993  32.643  1.00  0.00     0.029 A 
ATOM     49  C   UNL A   1      39.700  31.169  32.890  1.00  0.00     0.049 A 
ATOM     50  H   UNL A   1      40.667  29.914  31.535  1.00  0.00     0.167 HD
ATOM     51  C   UNL A   1      42.279  26.908  28.742  1.00  0.00     0.034 A 
ATOM     52  C   UNL A   1      40.384  31.098  34.051  1.00  0.00     0.034 A 
ATOM     53  C   UNL A   1      43.134  26.854  29.895  1.00  0.00     0.049 A 
ATOM     54  C   UNL A   1      41.570  30.172  34.145  1.00  0.00     0.074 A 
ATOM     55  C   UNL A   1      44.274  26.095  30.085  1.00  0.00     0.029 A 
ATOM     56  N   UNL A   1      42.941  27.588  31.055  1.00  0.00    -0.354 N 
ATOM     57  N   UNL A   1      42.086  29.393  33.224  1.00  0.00    -0.248 NA
ATOM     58  C   UNL A   1      42.279  30.127  35.433  1.00  0.00     0.031 C 
ATOM     59  C   UNL A   1      44.764  26.361  31.368  1.00  0.00     0.029 A 
ATOM     60  C   UNL A   1      43.937  27.297  31.970  1.00  0.00     0.049 A 
ATOM     61  H   UNL A   1      42.203  28.223  31.207  1.00  0.00     0.167 HD
ATOM     62  C   UNL A   1      43.190  28.785  33.811  1.00  0.00     0.074 A 
ATOM     63  C   UNL A   1      43.284  29.306  35.160  1.00  0.00     0.031 C 
ATOM     64  C   UNL A   1      44.039  27.863  33.291  1.00  0.00     0.034 A 
BRANCH  51  65
ATOM     65  C   UNL A   1      42.627  26.061  27.550  1.00  0.00     0.023 A 
ATOM     66  C   UNL A   1      43.432  26.606  26.530  1.00  0.00     0.012 A 
ATOM     67  C   UNL A   1      42.209  24.718  27.460  1.00  0.00     0.148 A 
ATOM     68  C   UNL A   1      43.799  25.836  25.427  1.00  0.00     0.002 A 
ATOM     69  C   UNL A   1      42.611  23.946  26.376  1.00  0.00     0.091 A 
ATOM     70  F   UNL A   1      41.421  24.228  28.427  1.00  0.00    -0.205 F 
ATOM     71  C   UNL A   1      43.399  24.504  25.356  1.00  0.00     0.022 A 
BRANCH  69  72
ATOM     72  S   UNL A   1      42.203  22.203  26.225  1.00  0.00     0.127 S 
ATOM     73  O   UNL A   1      40.747  22.251  26.094  1.00  0.00    -0.237 OA
ATOM     74  O   UNL A   1      42.912  21.827  25.001  1.00  0.00    -0.237 OA
ATOM     75  O   UNL A   1      42.700  21.566  27.435  1.00  0.00    -0.744 OA
ENDBRANCH  69  72
ENDBRANCH  51  65
BRANCH  52  76
ATOM     76  C   UNL A   1      39.987  31.961  35.199  1.00  0.00     0.023 A 
ATOM     77  C   UNL A   1      40.471  33.282  35.260  1.00  0.00     0.012 A 
ATOM     78  C   UNL A   1      39.108  31.505  36.201  1.00  0.00     0.148 A 
ATOM     79  C   UNL A   1      40.102  34.128  36.306  1.00  0.00     0.002 A 
ATOM     80  C   UNL A   1      38.702  32.370  37.212  1.00  0.00     0.091 A 
ATOM     81  F   UNL A   1      38.674  30.239  36.138  1.00  0.00    -0.205 F 
ATOM     82  C   UNL A   1      39.209  33.677  37.274  1.00  0.00     0.022 A 
BRANCH  80  83
ATOM     83  S   UNL A   1      37.459  31.919  38.429  1.00  0.00     0.127 S 
ATOM     84  O   UNL A   1      38.164  32.168  39.684  1.00  0.00    -0.237 OA
ATOM     85  O   UNL A   1      36.385  32.866  38.128  1.00  0.00    -0.237 OA
ATOM     86  O   UNL A   1      37.127  30.528  38.154  1.00  0.00    -0.744 OA
ENDBRANCH  80  83
ENDBRANCH  52  76
BRANCH  64  87
ATOM     87  C   UNL A   1      45.151  27.355  34.172  1.00  0.00     0.023 A 
ATOM     88  C   UNL A   1      46.376  28.049  34.209  1.00  0.00     0.012 A 
ATOM     89  C   UNL A   1      44.947  26.261  35.038  1.00  0.00     0.148 A 
ATOM     90  C   UNL A   1      47.391  27.649  35.078  1.00  0.00     0.002 A 
ATOM     91  C   UNL A   1      45.947  25.898  35.933  1.00  0.00     0.091 A 
ATOM     92  F   UNL A   1      43.782  25.601  34.975  1.00  0.00    -0.205 F 
ATOM     93  C   UNL A   1      47.171  26.584  35.948  1.00  0.00     0.022 A 
BRANCH  91  94
ATOM     94  S   UNL A   1      45.708  24.603  37.156  1.00  0.00     0.127 S 
ATOM     95  O   UNL A   1      44.636  25.161  37.978  1.00  0.00    -0.237 OA
ATOM     96  O   UNL A   1      45.311  23.459  36.332  1.00  0.00    -0.237 OA
ATOM     97  O   UNL A   1      46.995  24.443  37.821  1.00  0.00    -0.744 OA
ENDBRANCH  91  94
ENDBRANCH  64  87
ENDBRANCH  38  39
ENDBRANCH  31  33
ENDBRANCH  30  31
ENDBRANCH  29  30
ENDBRANCH  28  29
ENDBRANCH  27  28
ENDBRANCH   1  27
TORSDOF 22
ENDMDL
