MODEL 1
REMARK VINA RESULT:     -10.6      0.000      0.000
REMARK SMILES O=C(Nc1c(F)cc(F)cc1F)N[C@H]1C=C[C@@H](C(=O)OCCOCCOCCOC(=O)c2ccc(-c3c4nc(c(-c5cccc(S(=O)(=O)[O-])c5F)c5ccc([nH]5)c(-c5cccc(S(=O)(=O)[O-])c5F)c5nc(c(-c6cccc(S(=O)(=O)[O-])c6F)c6ccc3[nH]6)C=C5)C=C4)cc2)C1
REMARK SMILES IDX 25 1 24 2 23 3 22 4 21 5 20 6 18 7 19 8 17 9 14 10 15 11
REMARK SMILES IDX 95 12 16 13 13 14 1 15 2 16 3 17 4 20 5 21 11 22 6 23 7 24
REMARK SMILES IDX 10 25 12 26 8 27 9 28 26 29 27 30 28 31 29 32 30 33 31 34
REMARK SMILES IDX 32 35 33 36 94 37 34 38 93 39 35 40 36 41 37 42 87 43 38 44
REMARK SMILES IDX 92 45 86 46 88 47 39 48 91 49 85 50 84 51 40 53 72 54 52 55
REMARK SMILES IDX 71 56 53 57 56 58 70 59 89 60 54 61 55 62 69 64 90 65 57 66
REMARK SMILES IDX 41 67 42 68 50 69 43 70 45 71 51 72 44 73 46 74 47 75 48 76
REMARK SMILES IDX 49 77 73 78 74 79 82 80 75 81 77 82 83 83 76 84 78 85 79 86
REMARK SMILES IDX 80 87 81 88 58 89 59 90 67 91 60 92 62 93 68 94 61 95 63 96
REMARK SMILES IDX 64 97 65 98 66 99
REMARK H PARENT 3 18 13 19 88 52 56 63
REMARK Flexibility Score: inf
ROOT
ATOM      1  C   UNL A   1      36.249  23.625  25.490  1.00  0.00     0.188 C 
ENDROOT
BRANCH   1   2
ATOM      2  C   UNL A   1      34.957  24.206  26.085  1.00  0.00     0.188 C 
BRANCH   2   3
ATOM      3  O   UNL A   1      34.384  25.348  25.465  1.00  0.00    -0.376 OA
BRANCH   3   4
ATOM      4  C   UNL A   1      33.128  25.826  25.937  1.00  0.00     0.202 C 
BRANCH   4   5
ATOM      5  C   UNL A   1      33.060  27.162  26.701  1.00  0.00     0.261 C 
BRANCH   5   6
ATOM      6  O   UNL A   1      34.008  28.162  26.266  1.00  0.00    -0.463 OA
BRANCH   6   7
ATOM      7  C   UNL A   1      33.478  29.311  25.769  1.00  0.00     0.312 C 
ATOM      8  O   UNL A   1      33.271  30.311  26.451  1.00  0.00    -0.252 OA
BRANCH   7   9
ATOM      9  C   UNL A   1      33.226  29.297  24.252  1.00  0.00     0.124 C 
ATOM     10  C   UNL A   1      32.665  27.721  22.425  1.00  0.00     0.107 C 
ATOM     11  C   UNL A   1      31.448  28.304  23.049  1.00  0.00    -0.006 C 
ATOM     12  C   UNL A   1      33.780  28.159  23.383  1.00  0.00     0.048 C 
ATOM     13  C   UNL A   1      31.748  29.176  24.017  1.00  0.00    -0.014 C 
BRANCH  10  14
ATOM     14  N   UNL A   1      32.552  26.289  22.402  1.00  0.00    -0.332 N 
ATOM     15  O   UNL A   1      32.702  26.004  20.153  1.00  0.00    -0.248 OA
ATOM     16  C   UNL A   1      32.616  25.530  21.284  1.00  0.00     0.319 C 
ATOM     17  N   UNL A   1      32.721  24.179  21.441  1.00  0.00    -0.303 N 
ATOM     18  H   UNL A   1      32.894  23.694  20.602  1.00  0.00     0.172 HD
ATOM     19  H   UNL A   1      32.420  25.826  23.262  1.00  0.00     0.165 HD
BRANCH  17  20
ATOM     20  C   UNL A   1      32.629  23.340  22.573  1.00  0.00     0.115 A 
ATOM     21  C   UNL A   1      33.666  22.562  23.097  1.00  0.00     0.152 A 
ATOM     22  C   UNL A   1      31.395  23.292  23.234  1.00  0.00     0.152 A 
ATOM     23  F   UNL A   1      34.906  22.629  22.593  1.00  0.00    -0.204 F 
ATOM     24  C   UNL A   1      33.470  21.714  24.183  1.00  0.00     0.081 A 
ATOM     25  C   UNL A   1      31.175  22.444  24.316  1.00  0.00     0.081 A 
ATOM     26  F   UNL A   1      30.377  24.049  22.795  1.00  0.00    -0.204 F 
ATOM     27  C   UNL A   1      32.218  21.652  24.773  1.00  0.00     0.129 A 
ATOM     28  F   UNL A   1      32.018  20.824  25.806  1.00  0.00    -0.207 F 
ENDBRANCH  17  20
ENDBRANCH  10  14
ENDBRANCH   7   9
ENDBRANCH   6   7
ENDBRANCH   5   6
ENDBRANCH   4   5
ENDBRANCH   3   4
ENDBRANCH   2   3
ENDBRANCH   1   2
BRANCH   1  29
ATOM     29  O   UNL A   1      36.479  22.260  25.744  1.00  0.00    -0.376 OA
BRANCH  29  30
ATOM     30  C   UNL A   1      37.114  21.469  24.755  1.00  0.00     0.202 C 
BRANCH  30  31
ATOM     31  C   UNL A   1      38.219  20.436  25.057  1.00  0.00     0.261 C 
BRANCH  31  32
ATOM     32  O   UNL A   1      38.802  20.423  26.366  1.00  0.00    -0.460 OA
BRANCH  32  33
ATOM     33  C   UNL A   1      40.146  20.556  26.445  1.00  0.00     0.338 C 
ATOM     34  O   UNL A   1      40.984  19.761  26.038  1.00  0.00    -0.246 OA
BRANCH  33  35
ATOM     35  C   UNL A   1      40.439  21.939  26.879  1.00  0.00     0.060 A 
ATOM     36  C   UNL A   1      39.808  23.009  26.225  1.00  0.00     0.016 A 
ATOM     37  C   UNL A   1      41.320  22.179  27.935  1.00  0.00     0.016 A 
ATOM     38  C   UNL A   1      40.075  24.323  26.610  1.00  0.00     0.010 A 
ATOM     39  C   UNL A   1      41.606  23.498  28.301  1.00  0.00     0.010 A 
ATOM     40  C   UNL A   1      41.009  24.575  27.620  1.00  0.00    -0.014 A 
BRANCH  40  41
ATOM     41  C   UNL A   1      41.511  25.955  27.839  1.00  0.00     0.031 A 
ATOM     42  C   UNL A   1      42.912  26.282  27.397  1.00  0.00     0.074 A 
ATOM     43  C   UNL A   1      40.753  26.895  28.430  1.00  0.00     0.049 A 
ATOM     44  N   UNL A   1      43.595  27.385  27.549  1.00  0.00    -0.248 NA
ATOM     45  C   UNL A   1      43.642  25.213  26.693  1.00  0.00     0.031 C 
ATOM     46  C   UNL A   1      39.378  26.712  28.889  1.00  0.00     0.029 A 
ATOM     47  N   UNL A   1      41.054  28.191  28.773  1.00  0.00    -0.354 N 
ATOM     48  C   UNL A   1      44.845  27.134  26.996  1.00  0.00     0.074 A 
ATOM     49  C   UNL A   1      44.829  25.772  26.511  1.00  0.00     0.031 C 
ATOM     50  C   UNL A   1      38.965  27.842  29.489  1.00  0.00     0.029 A 
ATOM     51  C   UNL A   1      40.056  28.817  29.484  1.00  0.00     0.049 A 
ATOM     52  H   UNL A   1      41.903  28.630  28.535  1.00  0.00     0.167 HD
ATOM     53  C   UNL A   1      45.909  27.964  26.893  1.00  0.00     0.034 A 
ATOM     54  C   UNL A   1      40.039  30.022  30.087  1.00  0.00     0.034 A 
ATOM     55  C   UNL A   1      45.920  29.322  27.366  1.00  0.00     0.049 A 
ATOM     56  C   UNL A   1      41.249  30.917  29.989  1.00  0.00     0.074 A 
ATOM     57  C   UNL A   1      46.935  30.258  27.268  1.00  0.00     0.029 A 
ATOM     58  N   UNL A   1      44.877  29.934  28.044  1.00  0.00    -0.354 N 
ATOM     59  N   UNL A   1      42.386  30.707  29.371  1.00  0.00    -0.248 NA
ATOM     60  C   UNL A   1      41.161  32.230  30.647  1.00  0.00     0.031 C 
ATOM     61  C   UNL A   1      46.521  31.422  27.921  1.00  0.00     0.029 A 
ATOM     62  C   UNL A   1      45.229  31.228  28.384  1.00  0.00     0.049 A 
ATOM     63  H   UNL A   1      44.013  29.509  28.252  1.00  0.00     0.167 HD
ATOM     64  C   UNL A   1      43.130  31.872  29.529  1.00  0.00     0.074 A 
ATOM     65  C   UNL A   1      42.307  32.792  30.287  1.00  0.00     0.031 C 
ATOM     66  C   UNL A   1      44.384  32.154  29.094  1.00  0.00     0.034 A 
BRANCH  53  67
ATOM     67  C   UNL A   1      47.152  27.427  26.236  1.00  0.00     0.023 A 
ATOM     68  C   UNL A   1      47.409  27.709  24.879  1.00  0.00     0.012 A 
ATOM     69  C   UNL A   1      48.092  26.684  26.978  1.00  0.00     0.148 A 
ATOM     70  C   UNL A   1      48.564  27.230  24.261  1.00  0.00     0.002 A 
ATOM     71  C   UNL A   1      49.263  26.252  26.368  1.00  0.00     0.091 A 
ATOM     72  F   UNL A   1      47.818  26.406  28.260  1.00  0.00    -0.205 F 
ATOM     73  C   UNL A   1      49.494  26.512  25.007  1.00  0.00     0.022 A 
BRANCH  71  74
ATOM     74  S   UNL A   1      50.560  25.391  27.262  1.00  0.00     0.127 S 
ATOM     75  O   UNL A   1      50.950  26.394  28.253  1.00  0.00    -0.237 OA
ATOM     76  O   UNL A   1      49.844  24.239  27.809  1.00  0.00    -0.237 OA
ATOM     77  O   UNL A   1      51.579  25.062  26.276  1.00  0.00    -0.744 OA
ENDBRANCH  71  74
ENDBRANCH  53  67
BRANCH  54  78
ATOM     78  C   UNL A   1      38.826  30.470  30.831  1.00  0.00     0.023 A 
ATOM     79  C   UNL A   1      38.729  30.234  32.215  1.00  0.00     0.012 A 
ATOM     80  C   UNL A   1      37.768  31.127  30.170  1.00  0.00     0.148 A 
ATOM     81  C   UNL A   1      37.586  30.611  32.923  1.00  0.00     0.002 A 
ATOM     82  C   UNL A   1      36.659  31.551  30.890  1.00  0.00     0.091 A 
ATOM     83  F   UNL A   1      37.873  31.328  28.849  1.00  0.00    -0.205 F 
ATOM     84  C   UNL A   1      36.556  31.277  32.263  1.00  0.00     0.022 A 
BRANCH  82  85
ATOM     85  S   UNL A   1      35.339  32.520  30.151  1.00  0.00     0.127 S 
ATOM     86  O   UNL A   1      34.912  31.654  29.055  1.00  0.00    -0.237 OA
ATOM     87  O   UNL A   1      34.390  32.625  31.260  1.00  0.00    -0.237 OA
ATOM     88  O   UNL A   1      35.949  33.781  29.757  1.00  0.00    -0.744 OA
ENDBRANCH  82  85
ENDBRANCH  54  78
BRANCH  66  89
ATOM     89  C   UNL A   1      44.935  33.530  29.371  1.00  0.00     0.023 A 
ATOM     90  C   UNL A   1      45.715  33.765  30.520  1.00  0.00     0.012 A 
ATOM     91  C   UNL A   1      44.739  34.577  28.446  1.00  0.00     0.148 A 
ATOM     92  C   UNL A   1      46.259  35.027  30.763  1.00  0.00     0.002 A 
ATOM     93  C   UNL A   1      45.328  35.815  28.666  1.00  0.00     0.091 A 
ATOM     94  F   UNL A   1      43.981  34.340  27.364  1.00  0.00    -0.205 F 
ATOM     95  C   UNL A   1      46.076  36.046  29.832  1.00  0.00     0.022 A 
BRANCH  93  96
ATOM     96  S   UNL A   1      45.232  37.157  27.475  1.00  0.00     0.127 S 
ATOM     97  O   UNL A   1      45.593  38.311  28.297  1.00  0.00    -0.237 OA
ATOM     98  O   UNL A   1      46.242  36.769  26.490  1.00  0.00    -0.237 OA
ATOM     99  O   UNL A   1      43.864  37.154  26.973  1.00  0.00    -0.744 OA
ENDBRANCH  93  96
ENDBRANCH  66  89
ENDBRANCH  40  41
ENDBRANCH  33  35
ENDBRANCH  32  33
ENDBRANCH  31  32
ENDBRANCH  30  31
ENDBRANCH  29  30
ENDBRANCH   1  29
TORSDOF 22
ENDMDL
MODEL 2
REMARK VINA RESULT:     -10.3      1.807      2.236
REMARK SMILES O=C(Nc1c(F)cc(F)cc1F)N[C@H]1C=C[C@@H](C(=O)OCCOCCOCCOC(=O)c2ccc(-c3c4nc(c(-c5cccc(S(=O)(=O)[O-])c5F)c5ccc([nH]5)c(-c5cccc(S(=O)(=O)[O-])c5F)c5nc(c(-c6cccc(S(=O)(=O)[O-])c6F)c6ccc3[nH]6)C=C5)C=C4)cc2)C1
REMARK SMILES IDX 25 1 24 2 23 3 22 4 21 5 20 6 18 7 19 8 17 9 14 10 15 11
REMARK SMILES IDX 95 12 16 13 13 14 1 15 2 16 3 17 4 20 5 21 11 22 6 23 7 24
REMARK SMILES IDX 10 25 12 26 8 27 9 28 26 29 27 30 28 31 29 32 30 33 31 34
REMARK SMILES IDX 32 35 33 36 94 37 34 38 93 39 35 40 36 41 37 42 87 43 38 44
REMARK SMILES IDX 92 45 86 46 88 47 39 48 91 49 85 50 84 51 40 53 72 54 52 55
REMARK SMILES IDX 71 56 53 57 56 58 70 59 89 60 54 61 55 62 69 64 90 65 57 66
REMARK SMILES IDX 41 67 42 68 50 69 43 70 45 71 51 72 44 73 46 74 47 75 48 76
REMARK SMILES IDX 49 77 73 78 74 79 82 80 75 81 77 82 83 83 76 84 78 85 79 86
REMARK SMILES IDX 80 87 81 88 58 89 59 90 67 91 60 92 62 93 68 94 61 95 63 96
REMARK SMILES IDX 64 97 65 98 66 99
REMARK H PARENT 3 18 13 19 88 52 56 63
REMARK Flexibility Score: inf
ROOT
ATOM      1  C   UNL A   1      36.476  23.732  25.229  1.00  0.00     0.188 C 
ENDROOT
BRANCH   1   2
ATOM      2  C   UNL A   1      35.309  24.360  26.007  1.00  0.00     0.188 C 
BRANCH   2   3
ATOM      3  O   UNL A   1      34.583  25.417  25.395  1.00  0.00    -0.376 OA
BRANCH   3   4
ATOM      4  C   UNL A   1      33.302  25.758  25.914  1.00  0.00     0.202 C 
BRANCH   4   5
ATOM      5  C   UNL A   1      33.091  27.130  26.582  1.00  0.00     0.261 C 
BRANCH   5   6
ATOM      6  O   UNL A   1      34.015  28.160  26.165  1.00  0.00    -0.463 OA
BRANCH   6   7
ATOM      7  C   UNL A   1      33.459  29.299  25.677  1.00  0.00     0.312 C 
ATOM      8  O   UNL A   1      33.309  30.319  26.345  1.00  0.00    -0.252 OA
BRANCH   7   9
ATOM      9  C   UNL A   1      33.097  29.247  24.184  1.00  0.00     0.124 C 
ATOM     10  C   UNL A   1      32.490  27.612  22.424  1.00  0.00     0.107 C 
ATOM     11  C   UNL A   1      31.292  28.139  23.130  1.00  0.00    -0.006 C 
ATOM     12  C   UNL A   1      33.647  28.126  23.290  1.00  0.00     0.048 C 
ATOM     13  C   UNL A   1      31.614  29.041  24.061  1.00  0.00    -0.014 C 
BRANCH  10  14
ATOM     14  N   UNL A   1      32.455  26.176  22.427  1.00  0.00    -0.332 N 
ATOM     15  O   UNL A   1      32.965  25.850  20.237  1.00  0.00    -0.248 OA
ATOM     16  C   UNL A   1      32.730  25.398  21.355  1.00  0.00     0.319 C 
ATOM     17  N   UNL A   1      32.879  24.058  21.567  1.00  0.00    -0.303 N 
ATOM     18  H   UNL A   1      33.203  23.565  20.779  1.00  0.00     0.172 HD
ATOM     19  H   UNL A   1      32.216  25.726  23.270  1.00  0.00     0.165 HD
BRANCH  17  20
ATOM     20  C   UNL A   1      32.657  23.240  22.697  1.00  0.00     0.115 A 
ATOM     21  C   UNL A   1      31.439  23.089  23.367  1.00  0.00     0.152 A 
ATOM     22  C   UNL A   1      33.750  22.510  23.181  1.00  0.00     0.152 A 
ATOM     23  F   UNL A   1      30.319  23.667  22.908  1.00  0.00    -0.204 F 
ATOM     24  C   UNL A   1      31.324  22.308  24.513  1.00  0.00     0.081 A 
ATOM     25  C   UNL A   1      33.659  21.731  24.331  1.00  0.00     0.081 A 
ATOM     26  F   UNL A   1      34.932  22.589  22.552  1.00  0.00    -0.204 F 
ATOM     27  C   UNL A   1      32.443  21.648  24.993  1.00  0.00     0.129 A 
ATOM     28  F   UNL A   1      32.343  20.911  26.106  1.00  0.00    -0.207 F 
ENDBRANCH  17  20
ENDBRANCH  10  14
ENDBRANCH   7   9
ENDBRANCH   6   7
ENDBRANCH   5   6
ENDBRANCH   4   5
ENDBRANCH   3   4
ENDBRANCH   2   3
ENDBRANCH   1   2
BRANCH   1  29
ATOM     29  O   UNL A   1      37.142  22.674  25.875  1.00  0.00    -0.376 OA
BRANCH  29  30
ATOM     30  C   UNL A   1      37.338  21.454  25.184  1.00  0.00     0.202 C 
BRANCH  30  31
ATOM     31  C   UNL A   1      38.578  20.553  25.361  1.00  0.00     0.261 C 
BRANCH  31  32
ATOM     32  O   UNL A   1      39.308  20.632  26.591  1.00  0.00    -0.460 OA
BRANCH  32  33
ATOM     33  C   UNL A   1      40.627  20.919  26.509  1.00  0.00     0.338 C 
ATOM     34  O   UNL A   1      41.492  20.238  25.973  1.00  0.00    -0.246 OA
BRANCH  33  35
ATOM     35  C   UNL A   1      40.814  22.317  26.956  1.00  0.00     0.060 A 
ATOM     36  C   UNL A   1      40.290  23.359  26.175  1.00  0.00     0.016 A 
ATOM     37  C   UNL A   1      41.488  22.598  28.145  1.00  0.00     0.016 A 
ATOM     38  C   UNL A   1      40.461  24.686  26.569  1.00  0.00     0.010 A 
ATOM     39  C   UNL A   1      41.681  23.930  28.524  1.00  0.00     0.010 A 
ATOM     40  C   UNL A   1      41.196  24.980  27.723  1.00  0.00    -0.014 A 
BRANCH  40  41
ATOM     41  C   UNL A   1      41.626  26.374  27.994  1.00  0.00     0.031 A 
ATOM     42  C   UNL A   1      43.032  26.769  27.631  1.00  0.00     0.074 A 
ATOM     43  C   UNL A   1      40.799  27.269  28.564  1.00  0.00     0.049 A 
ATOM     44  N   UNL A   1      43.658  27.897  27.840  1.00  0.00    -0.248 NA
ATOM     45  C   UNL A   1      43.842  25.748  26.944  1.00  0.00     0.031 C 
ATOM     46  C   UNL A   1      39.413  27.018  28.948  1.00  0.00     0.029 A 
ATOM     47  N   UNL A   1      41.026  28.568  28.948  1.00  0.00    -0.354 N 
ATOM     48  C   UNL A   1      44.944  27.711  27.347  1.00  0.00     0.074 A 
ATOM     49  C   UNL A   1      45.011  26.361  26.834  1.00  0.00     0.031 C 
ATOM     50  C   UNL A   1      38.921  28.116  29.548  1.00  0.00     0.029 A 
ATOM     51  C   UNL A   1      39.968  29.136  29.618  1.00  0.00     0.049 A 
ATOM     52  H   UNL A   1      41.866  29.048  28.762  1.00  0.00     0.167 HD
ATOM     53  C   UNL A   1      45.975  28.588  27.314  1.00  0.00     0.034 A 
ATOM     54  C   UNL A   1      39.868  30.326  30.244  1.00  0.00     0.034 A 
ATOM     55  C   UNL A   1      45.904  29.934  27.814  1.00  0.00     0.049 A 
ATOM     56  C   UNL A   1      41.042  31.272  30.225  1.00  0.00     0.074 A 
ATOM     57  C   UNL A   1      46.881  30.914  27.786  1.00  0.00     0.029 A 
ATOM     58  N   UNL A   1      44.802  30.486  28.449  1.00  0.00    -0.354 N 
ATOM     59  N   UNL A   1      42.217  31.125  29.662  1.00  0.00    -0.248 NA
ATOM     60  C   UNL A   1      40.865  32.566  30.903  1.00  0.00     0.031 C 
ATOM     61  C   UNL A   1      46.384  32.044  28.440  1.00  0.00     0.029 A 
ATOM     62  C   UNL A   1      45.081  31.786  28.832  1.00  0.00     0.049 A 
ATOM     63  H   UNL A   1      43.949  30.021  28.604  1.00  0.00     0.167 HD
ATOM     64  C   UNL A   1      42.901  32.316  29.881  1.00  0.00     0.074 A 
ATOM     65  C   UNL A   1      42.002  33.183  30.614  1.00  0.00     0.031 C 
ATOM     66  C   UNL A   1      44.162  32.660  29.516  1.00  0.00     0.034 A 
BRANCH  53  67
ATOM     67  C   UNL A   1      47.272  28.118  26.711  1.00  0.00     0.023 A 
ATOM     68  C   UNL A   1      48.345  27.749  27.548  1.00  0.00     0.012 A 
ATOM     69  C   UNL A   1      47.410  27.994  25.315  1.00  0.00     0.148 A 
ATOM     70  C   UNL A   1      49.547  27.298  27.004  1.00  0.00     0.002 A 
ATOM     71  C   UNL A   1      48.593  27.499  24.782  1.00  0.00     0.091 A 
ATOM     72  F   UNL A   1      46.388  28.372  24.535  1.00  0.00    -0.205 F 
ATOM     73  C   UNL A   1      49.667  27.163  25.624  1.00  0.00     0.022 A 
BRANCH  71  74
ATOM     74  S   UNL A   1      48.819  27.210  23.024  1.00  0.00     0.127 S 
ATOM     75  O   UNL A   1      50.276  27.218  22.909  1.00  0.00    -0.237 OA
ATOM     76  O   UNL A   1      48.199  25.897  22.848  1.00  0.00    -0.237 OA
ATOM     77  O   UNL A   1      48.135  28.301  22.346  1.00  0.00    -0.744 OA
ENDBRANCH  71  74
ENDBRANCH  53  67
BRANCH  54  78
ATOM     78  C   UNL A   1      38.601  30.706  30.933  1.00  0.00     0.023 A 
ATOM     79  C   UNL A   1      38.413  30.366  32.286  1.00  0.00     0.012 A 
ATOM     80  C   UNL A   1      37.582  31.401  30.252  1.00  0.00     0.148 A 
ATOM     81  C   UNL A   1      37.220  30.679  32.940  1.00  0.00     0.002 A 
ATOM     82  C   UNL A   1      36.420  31.760  30.923  1.00  0.00     0.091 A 
ATOM     83  F   UNL A   1      37.774  31.701  28.959  1.00  0.00    -0.205 F 
ATOM     84  C   UNL A   1      36.228  31.383  32.261  1.00  0.00     0.022 A 
BRANCH  82  85
ATOM     85  S   UNL A   1      35.141  32.769  30.168  1.00  0.00     0.127 S 
ATOM     86  O   UNL A   1      34.693  31.914  29.072  1.00  0.00    -0.237 OA
ATOM     87  O   UNL A   1      34.186  32.912  31.268  1.00  0.00    -0.237 OA
ATOM     88  O   UNL A   1      35.796  34.008  29.773  1.00  0.00    -0.744 OA
ENDBRANCH  82  85
ENDBRANCH  54  78
BRANCH  66  89
ATOM     89  C   UNL A   1      44.638  34.052  29.849  1.00  0.00     0.023 A 
ATOM     90  C   UNL A   1      44.439  35.108  28.939  1.00  0.00     0.012 A 
ATOM     91  C   UNL A   1      45.219  34.325  31.105  1.00  0.00     0.148 A 
ATOM     92  C   UNL A   1      44.844  36.405  29.256  1.00  0.00     0.002 A 
ATOM     93  C   UNL A   1      45.570  35.628  31.436  1.00  0.00     0.091 A 
ATOM     94  F   UNL A   1      45.415  33.305  31.954  1.00  0.00    -0.205 F 
ATOM     95  C   UNL A   1      45.397  36.666  30.507  1.00  0.00     0.022 A 
BRANCH  93  96
ATOM     96  S   UNL A   1      46.195  36.077  33.059  1.00  0.00     0.127 S 
ATOM     97  O   UNL A   1      46.745  37.409  32.808  1.00  0.00    -0.237 OA
ATOM     98  O   UNL A   1      44.980  36.061  33.874  1.00  0.00    -0.237 OA
ATOM     99  O   UNL A   1      47.174  35.056  33.411  1.00  0.00    -0.744 OA
ENDBRANCH  93  96
ENDBRANCH  66  89
ENDBRANCH  40  41
ENDBRANCH  33  35
ENDBRANCH  32  33
ENDBRANCH  31  32
ENDBRANCH  30  31
ENDBRANCH  29  30
ENDBRANCH   1  29
TORSDOF 22
ENDMDL
MODEL 3
REMARK VINA RESULT:      -9.9      5.392     11.682
REMARK SMILES O=C(Nc1c(F)cc(F)cc1F)N[C@H]1C=C[C@@H](C(=O)OCCOCCOCCOC(=O)c2ccc(-c3c4nc(c(-c5cccc(S(=O)(=O)[O-])c5F)c5ccc([nH]5)c(-c5cccc(S(=O)(=O)[O-])c5F)c5nc(c(-c6cccc(S(=O)(=O)[O-])c6F)c6ccc3[nH]6)C=C5)C=C4)cc2)C1
REMARK SMILES IDX 25 1 24 2 23 3 22 4 21 5 20 6 18 7 19 8 17 9 14 10 15 11
REMARK SMILES IDX 95 12 16 13 13 14 1 15 2 16 3 17 4 20 5 21 11 22 6 23 7 24
REMARK SMILES IDX 10 25 12 26 8 27 9 28 26 29 27 30 28 31 29 32 30 33 31 34
REMARK SMILES IDX 32 35 33 36 94 37 34 38 93 39 35 40 36 41 37 42 87 43 38 44
REMARK SMILES IDX 92 45 86 46 88 47 39 48 91 49 85 50 84 51 40 53 72 54 52 55
REMARK SMILES IDX 71 56 53 57 56 58 70 59 89 60 54 61 55 62 69 64 90 65 57 66
REMARK SMILES IDX 41 67 42 68 50 69 43 70 45 71 51 72 44 73 46 74 47 75 48 76
REMARK SMILES IDX 49 77 73 78 74 79 82 80 75 81 77 82 83 83 76 84 78 85 79 86
REMARK SMILES IDX 80 87 81 88 58 89 59 90 67 91 60 92 62 93 68 94 61 95 63 96
REMARK SMILES IDX 64 97 65 98 66 99
REMARK H PARENT 3 18 13 19 88 52 56 63
REMARK Flexibility Score: inf
ROOT
ATOM      1  C   UNL A   1      32.643  36.116  30.630  1.00  0.00     0.188 C 
ENDROOT
BRANCH   1   2
ATOM      2  C   UNL A   1      32.985  35.841  32.103  1.00  0.00     0.188 C 
BRANCH   2   3
ATOM      3  O   UNL A   1      32.826  34.518  32.595  1.00  0.00    -0.376 OA
BRANCH   3   4
ATOM      4  C   UNL A   1      33.918  33.903  33.272  1.00  0.00     0.202 C 
BRANCH   4   5
ATOM      5  C   UNL A   1      35.358  34.346  32.953  1.00  0.00     0.261 C 
BRANCH   5   6
ATOM      6  O   UNL A   1      36.393  33.519  33.533  1.00  0.00    -0.463 OA
BRANCH   6   7
ATOM      7  C   UNL A   1      37.571  33.476  32.857  1.00  0.00     0.312 C 
ATOM      8  O   UNL A   1      38.603  33.002  33.326  1.00  0.00    -0.252 OA
BRANCH   7   9
ATOM      9  C   UNL A   1      37.502  33.996  31.412  1.00  0.00     0.124 C 
ATOM     10  C   UNL A   1      38.989  34.547  29.509  1.00  0.00     0.107 C 
ATOM     11  C   UNL A   1      38.537  33.132  29.469  1.00  0.00    -0.006 C 
ATOM     12  C   UNL A   1      38.538  35.008  30.901  1.00  0.00     0.048 C 
ATOM     13  C   UNL A   1      37.713  32.838  30.479  1.00  0.00    -0.014 C 
BRANCH  10  14
ATOM     14  N   UNL A   1      40.421  34.596  29.401  1.00  0.00    -0.332 N 
ATOM     15  O   UNL A   1      40.906  34.336  31.606  1.00  0.00    -0.248 OA
ATOM     16  C   UNL A   1      41.277  34.450  30.439  1.00  0.00     0.319 C 
ATOM     17  N   UNL A   1      42.601  34.294  30.151  1.00  0.00    -0.303 N 
ATOM     18  H   UNL A   1      43.153  34.064  30.933  1.00  0.00     0.172 HD
ATOM     19  H   UNL A   1      40.808  34.745  28.508  1.00  0.00     0.165 HD
BRANCH  17  20
ATOM     20  C   UNL A   1      43.335  34.398  28.949  1.00  0.00     0.115 A 
ATOM     21  C   UNL A   1      43.784  33.326  28.173  1.00  0.00     0.152 A 
ATOM     22  C   UNL A   1      43.629  35.689  28.490  1.00  0.00     0.152 A 
ATOM     23  F   UNL A   1      43.457  32.062  28.481  1.00  0.00    -0.204 F 
ATOM     24  C   UNL A   1      44.557  33.519  27.032  1.00  0.00     0.081 A 
ATOM     25  C   UNL A   1      44.407  35.904  27.357  1.00  0.00     0.081 A 
ATOM     26  F   UNL A   1      43.188  36.754  29.177  1.00  0.00    -0.204 F 
ATOM     27  C   UNL A   1      44.874  34.810  26.643  1.00  0.00     0.129 A 
ATOM     28  F   UNL A   1      45.633  35.001  25.557  1.00  0.00    -0.207 F 
ENDBRANCH  17  20
ENDBRANCH  10  14
ENDBRANCH   7   9
ENDBRANCH   6   7
ENDBRANCH   5   6
ENDBRANCH   4   5
ENDBRANCH   3   4
ENDBRANCH   2   3
ENDBRANCH   1   2
BRANCH   1  29
ATOM     29  O   UNL A   1      32.659  34.996  29.780  1.00  0.00    -0.376 OA
BRANCH  29  30
ATOM     30  C   UNL A   1      33.886  34.576  29.210  1.00  0.00     0.202 C 
BRANCH  30  31
ATOM     31  C   UNL A   1      34.035  33.336  28.304  1.00  0.00     0.261 C 
BRANCH  31  32
ATOM     32  O   UNL A   1      35.019  32.353  28.649  1.00  0.00    -0.460 OA
BRANCH  32  33
ATOM     33  C   UNL A   1      34.876  31.120  28.113  1.00  0.00     0.338 C 
ATOM     34  O   UNL A   1      33.987  30.751  27.356  1.00  0.00    -0.246 OA
BRANCH  33  35
ATOM     35  C   UNL A   1      36.112  30.358  28.393  1.00  0.00     0.060 A 
ATOM     36  C   UNL A   1      36.234  29.678  29.615  1.00  0.00     0.016 A 
ATOM     37  C   UNL A   1      37.141  30.303  27.451  1.00  0.00     0.016 A 
ATOM     38  C   UNL A   1      37.394  28.960  29.907  1.00  0.00     0.010 A 
ATOM     39  C   UNL A   1      38.312  29.605  27.757  1.00  0.00     0.010 A 
ATOM     40  C   UNL A   1      38.457  28.957  28.998  1.00  0.00    -0.014 A 
BRANCH  40  41
ATOM     41  C   UNL A   1      39.787  28.447  29.413  1.00  0.00     0.031 A 
ATOM     42  C   UNL A   1      40.530  29.190  30.491  1.00  0.00     0.074 A 
ATOM     43  C   UNL A   1      40.336  27.361  28.840  1.00  0.00     0.049 A 
ATOM     44  N   UNL A   1      41.730  28.985  30.964  1.00  0.00    -0.248 NA
ATOM     45  C   UNL A   1      39.822  30.323  31.113  1.00  0.00     0.031 C 
ATOM     46  C   UNL A   1      39.715  26.546  27.800  1.00  0.00     0.029 A 
ATOM     47  N   UNL A   1      41.564  26.779  29.038  1.00  0.00    -0.354 N 
ATOM     48  C   UNL A   1      41.938  29.982  31.910  1.00  0.00     0.074 A 
ATOM     49  C   UNL A   1      40.742  30.795  31.940  1.00  0.00     0.031 C 
ATOM     50  C   UNL A   1      40.580  25.589  27.422  1.00  0.00     0.029 A 
ATOM     51  C   UNL A   1      41.827  25.743  28.172  1.00  0.00     0.049 A 
ATOM     52  H   UNL A   1      42.197  27.074  29.733  1.00  0.00     0.167 HD
ATOM     53  C   UNL A   1      43.022  30.197  32.692  1.00  0.00     0.034 A 
ATOM     54  C   UNL A   1      42.954  25.028  27.983  1.00  0.00     0.034 A 
ATOM     55  C   UNL A   1      44.205  29.381  32.671  1.00  0.00     0.049 A 
ATOM     56  C   UNL A   1      44.161  25.309  28.842  1.00  0.00     0.074 A 
ATOM     57  C   UNL A   1      45.339  29.491  33.457  1.00  0.00     0.029 A 
ATOM     58  N   UNL A   1      44.419  28.317  31.808  1.00  0.00    -0.354 N 
ATOM     59  N   UNL A   1      44.307  26.185  29.806  1.00  0.00    -0.248 NA
ATOM     60  C   UNL A   1      45.353  24.479  28.607  1.00  0.00     0.031 C 
ATOM     61  C   UNL A   1      46.254  28.519  33.042  1.00  0.00     0.029 A 
ATOM     62  C   UNL A   1      45.671  27.772  32.031  1.00  0.00     0.049 A 
ATOM     63  H   UNL A   1      43.774  27.996  31.137  1.00  0.00     0.167 HD
ATOM     64  C   UNL A   1      45.585  25.985  30.319  1.00  0.00     0.074 A 
ATOM     65  C   UNL A   1      46.167  24.892  29.569  1.00  0.00     0.031 C 
ATOM     66  C   UNL A   1      46.222  26.651  31.315  1.00  0.00     0.034 A 
BRANCH  53  67
ATOM     67  C   UNL A   1      42.975  31.362  33.645  1.00  0.00     0.023 A 
ATOM     68  C   UNL A   1      43.459  32.622  33.239  1.00  0.00     0.012 A 
ATOM     69  C   UNL A   1      42.405  31.219  34.925  1.00  0.00     0.148 A 
ATOM     70  C   UNL A   1      43.408  33.714  34.106  1.00  0.00     0.002 A 
ATOM     71  C   UNL A   1      42.315  32.322  35.765  1.00  0.00     0.091 A 
ATOM     72  F   UNL A   1      41.973  30.007  35.301  1.00  0.00    -0.205 F 
ATOM     73  C   UNL A   1      42.827  33.567  35.362  1.00  0.00     0.022 A 
BRANCH  71  74
ATOM     74  S   UNL A   1      41.511  32.255  37.369  1.00  0.00     0.127 S 
ATOM     75  O   UNL A   1      40.170  31.797  37.008  1.00  0.00    -0.237 OA
ATOM     76  O   UNL A   1      42.323  31.266  38.078  1.00  0.00    -0.237 OA
ATOM     77  O   UNL A   1      41.583  33.604  37.912  1.00  0.00    -0.744 OA
ENDBRANCH  71  74
ENDBRANCH  53  67
BRANCH  54  78
ATOM     78  C   UNL A   1      42.997  23.958  26.945  1.00  0.00     0.023 A 
ATOM     79  C   UNL A   1      43.686  24.183  25.738  1.00  0.00     0.012 A 
ATOM     80  C   UNL A   1      42.357  22.720  27.149  1.00  0.00     0.148 A 
ATOM     81  C   UNL A   1      43.707  23.210  24.738  1.00  0.00     0.002 A 
ATOM     82  C   UNL A   1      42.429  21.733  26.174  1.00  0.00     0.091 A 
ATOM     83  F   UNL A   1      41.693  22.531  28.298  1.00  0.00    -0.205 F 
ATOM     84  C   UNL A   1      43.087  21.982  24.959  1.00  0.00     0.022 A 
BRANCH  82  85
ATOM     85  S   UNL A   1      41.765  20.083  26.417  1.00  0.00     0.127 S 
ATOM     86  O   UNL A   1      42.353  19.355  25.295  1.00  0.00    -0.237 OA
ATOM     87  O   UNL A   1      42.308  19.733  27.730  1.00  0.00    -0.237 OA
ATOM     88  O   UNL A   1      40.317  20.230  26.383  1.00  0.00    -0.744 OA
ENDBRANCH  82  85
ENDBRANCH  54  78
BRANCH  66  89
ATOM     89  C   UNL A   1      47.606  26.188  31.700  1.00  0.00     0.023 A 
ATOM     90  C   UNL A   1      48.735  26.672  31.012  1.00  0.00     0.012 A 
ATOM     91  C   UNL A   1      47.787  25.326  32.802  1.00  0.00     0.148 A 
ATOM     92  C   UNL A   1      50.019  26.276  31.387  1.00  0.00     0.002 A 
ATOM     93  C   UNL A   1      49.071  24.979  33.205  1.00  0.00     0.091 A 
ATOM     94  F   UNL A   1      46.700  24.863  33.438  1.00  0.00    -0.205 F 
ATOM     95  C   UNL A   1      50.187  25.442  32.489  1.00  0.00     0.022 A 
BRANCH  93  96
ATOM     96  S   UNL A   1      49.390  23.992  34.672  1.00  0.00     0.127 S 
ATOM     97  O   UNL A   1      48.800  22.707  34.299  1.00  0.00    -0.237 OA
ATOM     98  O   UNL A   1      50.852  23.998  34.737  1.00  0.00    -0.237 OA
ATOM     99  O   UNL A   1      48.732  24.683  35.774  1.00  0.00    -0.744 OA
ENDBRANCH  93  96
ENDBRANCH  66  89
ENDBRANCH  40  41
ENDBRANCH  33  35
ENDBRANCH  32  33
ENDBRANCH  31  32
ENDBRANCH  30  31
ENDBRANCH  29  30
ENDBRANCH   1  29
TORSDOF 22
ENDMDL
