MODEL 1
REMARK VINA RESULT:      -9.9      0.000      0.000
REMARK SMILES COc1cccc([C@H]2CC(c3ccc(S(C)(=O)=O)cc3)=NN2c2ccc(C(=O)OCCOCCOCCOC(=O)c3ccc(-c4c5nc(c(-c6cccc(S(=O)(=O)[O-])c6F)c6ccc([nH]6)c(-c6cccc(S(=O)(=O)[O-])c6F)c6nc(c(-c7cccc(S(=O)(=O)[O-])c7F)c7ccc4[nH]7)C=C6)C=C5)cc3)cc2)c1
REMARK SMILES IDX 33 1 32 2 31 3 30 4 29 5 27 6 28 7 26 8 23 9 24 10 105 11
REMARK SMILES IDX 25 12 104 13 22 14 8 15 9 16 10 17 21 18 7 19 3 20 4 21
REMARK SMILES IDX 106 22 5 23 6 24 2 25 1 26 11 27 12 28 20 29 13 30 19 31
REMARK SMILES IDX 14 32 15 33 16 34 17 35 18 36 34 37 35 38 36 39 37 40 38 41
REMARK SMILES IDX 39 42 40 43 41 44 42 45 103 46 43 47 102 48 44 49 45 50
REMARK SMILES IDX 46 51 96 52 47 53 101 54 95 55 97 56 48 57 100 58 94 59
REMARK SMILES IDX 93 60 49 62 81 63 61 64 80 65 62 66 65 67 79 68 98 69 63 70
REMARK SMILES IDX 64 71 78 73 99 74 66 75 50 76 51 77 59 78 52 79 54 80 60 81
REMARK SMILES IDX 53 82 55 83 56 84 57 85 58 86 82 87 83 88 91 89 84 90 86 91
REMARK SMILES IDX 92 92 85 93 87 94 88 95 89 96 90 97 67 98 68 99 76 100
REMARK SMILES IDX 69 101 71 102 77 103 70 104 72 105 73 106 74 107 75 108
REMARK H PARENT 97 61 65 72
REMARK Flexibility Score: inf
ROOT
ATOM      1  C   UNL A   1      38.475  22.518  25.599  1.00  0.00     0.188 C 
ENDROOT
BRANCH   1   2
ATOM      2  O   UNL A   1      37.339  22.011  24.941  1.00  0.00    -0.376 OA
BRANCH   2   3
ATOM      3  C   UNL A   1      36.438  21.150  25.612  1.00  0.00     0.202 C 
BRANCH   3   4
ATOM      4  C   UNL A   1      35.172  20.502  25.013  1.00  0.00     0.261 C 
BRANCH   4   5
ATOM      5  O   UNL A   1      33.961  20.550  25.770  1.00  0.00    -0.460 OA
BRANCH   5   6
ATOM      6  C   UNL A   1      32.880  21.035  25.109  1.00  0.00     0.338 C 
ATOM      7  O   UNL A   1      31.933  20.394  24.688  1.00  0.00    -0.246 OA
BRANCH   6   8
ATOM      8  C   UNL A   1      32.929  22.513  25.091  1.00  0.00     0.060 A 
ATOM      9  C   UNL A   1      33.219  25.307  25.031  1.00  0.00     0.060 A 
ATOM     10  C   UNL A   1      33.422  24.547  23.873  1.00  0.00     0.029 A 
ATOM     11  C   UNL A   1      32.775  24.652  26.192  1.00  0.00     0.029 A 
ATOM     12  C   UNL A   1      33.313  23.154  23.908  1.00  0.00     0.018 A 
ATOM     13  C   UNL A   1      32.611  23.264  26.223  1.00  0.00     0.018 A 
BRANCH   9  14
ATOM     14  N   UNL A   1      33.566  26.658  25.073  1.00  0.00    -0.257 N 
ATOM     15  C   UNL A   1      33.040  27.599  24.076  1.00  0.00     0.144 C 
ATOM     16  C   UNL A   1      33.432  28.959  24.656  1.00  0.00     0.091 C 
ATOM     17  C   UNL A   1      33.995  28.532  25.983  1.00  0.00     0.071 C 
ATOM     18  N   UNL A   1      34.039  27.253  26.203  1.00  0.00    -0.176 NA
BRANCH  15  19
ATOM     19  C   UNL A   1      31.539  27.453  23.850  1.00  0.00    -0.019 A 
ATOM     20  C   UNL A   1      29.436  28.193  22.856  1.00  0.00     0.119 A 
ATOM     21  C   UNL A   1      28.756  27.207  23.571  1.00  0.00     0.046 A 
ATOM     22  C   UNL A   1      30.819  28.327  23.011  1.00  0.00     0.052 A 
ATOM     23  C   UNL A   1      29.449  26.338  24.410  1.00  0.00     0.004 A 
ATOM     24  C   UNL A   1      30.831  26.458  24.547  1.00  0.00     0.006 A 
BRANCH  20  25
ATOM     25  O   UNL A   1      28.644  29.000  22.088  1.00  0.00    -0.497 OA
ATOM     26  C   UNL A   1      27.540  29.601  22.753  1.00  0.00     0.278 C 
ENDBRANCH  20  25
ENDBRANCH  15  19
BRANCH  17  27
ATOM     27  C   UNL A   1      34.523  29.541  26.913  1.00  0.00    -0.002 A 
ATOM     28  C   UNL A   1      35.841  29.412  27.367  1.00  0.00     0.011 A 
ATOM     29  C   UNL A   1      33.744  30.639  27.286  1.00  0.00     0.011 A 
ATOM     30  C   UNL A   1      36.390  30.399  28.188  1.00  0.00     0.021 A 
ATOM     31  C   UNL A   1      34.284  31.615  28.128  1.00  0.00     0.021 A 
ATOM     32  C   UNL A   1      35.603  31.490  28.574  1.00  0.00     0.067 A 
BRANCH  32  33
ATOM     33  S   UNL A   1      36.319  32.755  29.602  1.00  0.00     0.175 S 
ATOM     34  C   UNL A   1      35.303  34.182  29.317  1.00  0.00     0.163 C 
ATOM     35  O   UNL A   1      36.136  32.323  30.976  1.00  0.00    -0.224 OA
ATOM     36  O   UNL A   1      37.646  33.038  29.088  1.00  0.00    -0.224 OA
ENDBRANCH  32  33
ENDBRANCH  17  27
ENDBRANCH   9  14
ENDBRANCH   6   8
ENDBRANCH   5   6
ENDBRANCH   4   5
ENDBRANCH   3   4
ENDBRANCH   2   3
ENDBRANCH   1   2
BRANCH   1  37
ATOM     37  C   UNL A   1      39.322  21.477  26.361  1.00  0.00     0.188 C 
BRANCH  37  38
ATOM     38  O   UNL A   1      40.720  21.393  26.138  1.00  0.00    -0.376 OA
BRANCH  38  39
ATOM     39  C   UNL A   1      41.476  22.576  25.939  1.00  0.00     0.202 C 
BRANCH  39  40
ATOM     40  C   UNL A   1      41.694  23.643  27.030  1.00  0.00     0.261 C 
BRANCH  40  41
ATOM     41  O   UNL A   1      40.874  24.815  26.974  1.00  0.00    -0.460 OA
BRANCH  41  42
ATOM     42  C   UNL A   1      41.365  25.834  26.229  1.00  0.00     0.338 C 
ATOM     43  O   UNL A   1      41.491  25.868  25.013  1.00  0.00    -0.246 OA
BRANCH  42  44
ATOM     44  C   UNL A   1      41.584  27.006  27.094  1.00  0.00     0.060 A 
ATOM     45  C   UNL A   1      40.961  28.217  26.761  1.00  0.00     0.016 A 
ATOM     46  C   UNL A   1      42.435  26.924  28.195  1.00  0.00     0.016 A 
ATOM     47  C   UNL A   1      41.203  29.359  27.521  1.00  0.00     0.010 A 
ATOM     48  C   UNL A   1      42.696  28.076  28.942  1.00  0.00     0.010 A 
ATOM     49  C   UNL A   1      42.106  29.304  28.590  1.00  0.00    -0.014 A 
BRANCH  49  50
ATOM     50  C   UNL A   1      42.562  30.559  29.234  1.00  0.00     0.031 A 
ATOM     51  C   UNL A   1      41.813  31.065  30.436  1.00  0.00     0.074 A 
ATOM     52  C   UNL A   1      43.615  31.243  28.754  1.00  0.00     0.049 A 
ATOM     53  N   UNL A   1      41.991  32.162  31.123  1.00  0.00    -0.248 NA
ATOM     54  C   UNL A   1      40.710  30.222  30.925  1.00  0.00     0.031 C 
ATOM     55  C   UNL A   1      44.428  30.849  27.604  1.00  0.00     0.029 A 
ATOM     56  N   UNL A   1      44.159  32.437  29.161  1.00  0.00    -0.354 N 
ATOM     57  C   UNL A   1      41.005  32.161  32.100  1.00  0.00     0.074 A 
ATOM     58  C   UNL A   1      40.224  30.957  31.914  1.00  0.00     0.031 C 
ATOM     59  C   UNL A   1      45.347  31.803  27.376  1.00  0.00     0.029 A 
ATOM     60  C   UNL A   1      45.169  32.885  28.342  1.00  0.00     0.049 A 
ATOM     61  H   UNL A   1      43.857  32.923  29.961  1.00  0.00     0.167 HD
ATOM     62  C   UNL A   1      40.774  33.075  33.073  1.00  0.00     0.034 A 
ATOM     63  C   UNL A   1      45.848  34.050  28.355  1.00  0.00     0.034 A 
ATOM     64  C   UNL A   1      41.557  34.265  33.261  1.00  0.00     0.049 A 
ATOM     65  C   UNL A   1      45.549  35.067  29.427  1.00  0.00     0.074 A 
ATOM     66  C   UNL A   1      41.432  35.229  34.247  1.00  0.00     0.029 A 
ATOM     67  N   UNL A   1      42.596  34.669  32.437  1.00  0.00    -0.354 N 
ATOM     68  N   UNL A   1      44.690  35.000  30.416  1.00  0.00    -0.248 NA
ATOM     69  C   UNL A   1      46.337  36.309  29.404  1.00  0.00     0.031 C 
ATOM     70  C   UNL A   1      42.371  36.234  33.996  1.00  0.00     0.029 A 
ATOM     71  C   UNL A   1      43.112  35.874  32.882  1.00  0.00     0.049 A 
ATOM     72  H   UNL A   1      42.919  34.170  31.652  1.00  0.00     0.167 HD
ATOM     73  C   UNL A   1      44.863  36.167  31.153  1.00  0.00     0.074 A 
ATOM     74  C   UNL A   1      45.921  36.915  30.507  1.00  0.00     0.031 C 
ATOM     75  C   UNL A   1      44.200  36.586  32.261  1.00  0.00     0.034 A 
BRANCH  62  76
ATOM     76  C   UNL A   1      39.629  32.817  34.017  1.00  0.00     0.023 A 
ATOM     77  C   UNL A   1      39.839  32.052  35.183  1.00  0.00     0.012 A 
ATOM     78  C   UNL A   1      38.358  33.376  33.776  1.00  0.00     0.148 A 
ATOM     79  C   UNL A   1      38.794  31.820  36.077  1.00  0.00     0.002 A 
ATOM     80  C   UNL A   1      37.335  33.179  34.696  1.00  0.00     0.091 A 
ATOM     81  F   UNL A   1      38.172  34.081  32.651  1.00  0.00    -0.205 F 
ATOM     82  C   UNL A   1      37.547  32.392  35.839  1.00  0.00     0.022 A 
BRANCH  80  83
ATOM     83  S   UNL A   1      35.718  33.941  34.523  1.00  0.00     0.127 S 
ATOM     84  O   UNL A   1      35.340  34.149  35.920  1.00  0.00    -0.237 OA
ATOM     85  O   UNL A   1      36.035  35.167  33.789  1.00  0.00    -0.237 OA
ATOM     86  O   UNL A   1      34.899  32.987  33.790  1.00  0.00    -0.744 OA
ENDBRANCH  80  83
ENDBRANCH  62  76
BRANCH  63  87
ATOM     87  C   UNL A   1      46.897  34.315  27.329  1.00  0.00     0.023 A 
ATOM     88  C   UNL A   1      46.575  35.062  26.180  1.00  0.00     0.012 A 
ATOM     89  C   UNL A   1      48.211  33.831  27.488  1.00  0.00     0.148 A 
ATOM     90  C   UNL A   1      47.531  35.292  25.190  1.00  0.00     0.002 A 
ATOM     91  C   UNL A   1      49.172  34.111  26.526  1.00  0.00     0.091 A 
ATOM     92  F   UNL A   1      48.492  33.110  28.582  1.00  0.00    -0.205 F 
ATOM     93  C   UNL A   1      48.831  34.826  25.367  1.00  0.00     0.022 A 
BRANCH  91  94
ATOM     94  S   UNL A   1      50.897  33.649  26.720  1.00  0.00     0.127 S 
ATOM     95  O   UNL A   1      51.433  33.930  25.391  1.00  0.00    -0.237 OA
ATOM     96  O   UNL A   1      51.336  34.570  27.769  1.00  0.00    -0.237 OA
ATOM     97  O   UNL A   1      50.889  32.247  27.113  1.00  0.00    -0.744 OA
ENDBRANCH  91  94
ENDBRANCH  63  87
BRANCH  75  98
ATOM     98  C   UNL A   1      44.629  37.888  32.889  1.00  0.00     0.023 A 
ATOM     99  C   UNL A   1      43.991  39.092  32.532  1.00  0.00     0.012 A 
ATOM    100  C   UNL A   1      45.617  37.902  33.896  1.00  0.00     0.148 A 
ATOM    101  C   UNL A   1      44.355  40.294  33.139  1.00  0.00     0.002 A 
ATOM    102  C   UNL A   1      45.935  39.094  34.534  1.00  0.00     0.091 A 
ATOM    103  F   UNL A   1      46.224  36.749  34.212  1.00  0.00    -0.205 F 
ATOM    104  C   UNL A   1      45.316  40.294  34.148  1.00  0.00     0.022 A 
BRANCH 102 105
ATOM    105  S   UNL A   1      47.086  39.173  35.912  1.00  0.00     0.127 S 
ATOM    106  O   UNL A   1      47.065  40.599  36.235  1.00  0.00    -0.237 OA
ATOM    107  O   UNL A   1      46.442  38.312  36.903  1.00  0.00    -0.237 OA
ATOM    108  O   UNL A   1      48.355  38.669  35.405  1.00  0.00    -0.744 OA
ENDBRANCH 102 105
ENDBRANCH  75  98
ENDBRANCH  49  50
ENDBRANCH  42  44
ENDBRANCH  41  42
ENDBRANCH  40  41
ENDBRANCH  39  40
ENDBRANCH  38  39
ENDBRANCH  37  38
ENDBRANCH   1  37
TORSDOF 25
ENDMDL
MODEL 2
REMARK VINA RESULT:      -9.5      5.364      9.246
REMARK SMILES COc1cccc([C@H]2CC(c3ccc(S(C)(=O)=O)cc3)=NN2c2ccc(C(=O)OCCOCCOCCOC(=O)c3ccc(-c4c5nc(c(-c6cccc(S(=O)(=O)[O-])c6F)c6ccc([nH]6)c(-c6cccc(S(=O)(=O)[O-])c6F)c6nc(c(-c7cccc(S(=O)(=O)[O-])c7F)c7ccc4[nH]7)C=C6)C=C5)cc3)cc2)c1
REMARK SMILES IDX 33 1 32 2 31 3 30 4 29 5 27 6 28 7 26 8 23 9 24 10 105 11
REMARK SMILES IDX 25 12 104 13 22 14 8 15 9 16 10 17 21 18 7 19 3 20 4 21
REMARK SMILES IDX 106 22 5 23 6 24 2 25 1 26 11 27 12 28 20 29 13 30 19 31
REMARK SMILES IDX 14 32 15 33 16 34 17 35 18 36 34 37 35 38 36 39 37 40 38 41
REMARK SMILES IDX 39 42 40 43 41 44 42 45 103 46 43 47 102 48 44 49 45 50
REMARK SMILES IDX 46 51 96 52 47 53 101 54 95 55 97 56 48 57 100 58 94 59
REMARK SMILES IDX 93 60 49 62 81 63 61 64 80 65 62 66 65 67 79 68 98 69 63 70
REMARK SMILES IDX 64 71 78 73 99 74 66 75 50 76 51 77 59 78 52 79 54 80 60 81
REMARK SMILES IDX 53 82 55 83 56 84 57 85 58 86 82 87 83 88 91 89 84 90 86 91
REMARK SMILES IDX 92 92 85 93 87 94 88 95 89 96 90 97 67 98 68 99 76 100
REMARK SMILES IDX 69 101 71 102 77 103 70 104 72 105 73 106 74 107 75 108
REMARK H PARENT 97 61 65 72
REMARK Flexibility Score: inf
ROOT
ATOM      1  C   UNL A   1      41.600  23.750  26.919  1.00  0.00     0.188 C 
ENDROOT
BRANCH   1   2
ATOM      2  O   UNL A   1      41.407  24.342  28.181  1.00  0.00    -0.376 OA
BRANCH   2   3
ATOM      3  C   UNL A   1      40.324  25.225  28.409  1.00  0.00     0.202 C 
BRANCH   3   4
ATOM      4  C   UNL A   1      40.360  26.764  28.305  1.00  0.00     0.261 C 
BRANCH   4   5
ATOM      5  O   UNL A   1      40.087  27.530  29.481  1.00  0.00    -0.460 OA
BRANCH   5   6
ATOM      6  C   UNL A   1      39.338  28.645  29.288  1.00  0.00     0.338 C 
ATOM      7  O   UNL A   1      38.705  28.937  28.289  1.00  0.00    -0.246 OA
BRANCH   6   8
ATOM      8  C   UNL A   1      39.270  29.422  30.545  1.00  0.00     0.060 A 
ATOM      9  C   UNL A   1      38.956  30.953  32.880  1.00  0.00     0.060 A 
ATOM     10  C   UNL A   1      38.220  29.775  32.698  1.00  0.00     0.029 A 
ATOM     11  C   UNL A   1      39.919  31.296  31.916  1.00  0.00     0.029 A 
ATOM     12  C   UNL A   1      38.348  29.031  31.522  1.00  0.00     0.018 A 
ATOM     13  C   UNL A   1      40.093  30.528  30.761  1.00  0.00     0.018 A 
BRANCH   9  14
ATOM     14  N   UNL A   1      38.658  31.831  33.922  1.00  0.00    -0.257 N 
ATOM     15  C   UNL A   1      38.073  33.150  33.649  1.00  0.00     0.144 C 
ATOM     16  C   UNL A   1      37.662  33.632  35.041  1.00  0.00     0.091 C 
ATOM     17  C   UNL A   1      37.966  32.402  35.851  1.00  0.00     0.071 C 
ATOM     18  N   UNL A   1      38.497  31.408  35.207  1.00  0.00    -0.176 NA
BRANCH  15  19
ATOM     19  C   UNL A   1      36.909  33.094  32.665  1.00  0.00    -0.019 A 
ATOM     20  C   UNL A   1      35.914  33.570  30.487  1.00  0.00     0.119 A 
ATOM     21  C   UNL A   1      34.693  33.074  30.942  1.00  0.00     0.046 A 
ATOM     22  C   UNL A   1      37.012  33.598  31.352  1.00  0.00     0.052 A 
ATOM     23  C   UNL A   1      34.569  32.578  32.237  1.00  0.00     0.004 A 
ATOM     24  C   UNL A   1      35.670  32.585  33.092  1.00  0.00     0.006 A 
BRANCH  20  25
ATOM     25  O   UNL A   1      35.903  34.053  29.208  1.00  0.00    -0.497 OA
ATOM     26  C   UNL A   1      34.679  34.634  28.775  1.00  0.00     0.278 C 
ENDBRANCH  20  25
ENDBRANCH  15  19
BRANCH  17  27
ATOM     27  C   UNL A   1      37.728  32.404  37.302  1.00  0.00    -0.002 A 
ATOM     28  C   UNL A   1      37.225  31.244  37.902  1.00  0.00     0.011 A 
ATOM     29  C   UNL A   1      38.059  33.521  38.074  1.00  0.00     0.011 A 
ATOM     30  C   UNL A   1      37.064  31.195  39.288  1.00  0.00     0.021 A 
ATOM     31  C   UNL A   1      37.875  33.482  39.458  1.00  0.00     0.021 A 
ATOM     32  C   UNL A   1      37.379  32.320  40.058  1.00  0.00     0.067 A 
BRANCH  32  33
ATOM     33  S   UNL A   1      37.193  32.240  41.826  1.00  0.00     0.175 S 
ATOM     34  C   UNL A   1      38.719  32.890  42.460  1.00  0.00     0.163 C 
ATOM     35  O   UNL A   1      36.121  33.156  42.171  1.00  0.00    -0.224 OA
ATOM     36  O   UNL A   1      37.114  30.839  42.195  1.00  0.00    -0.224 OA
ENDBRANCH  32  33
ENDBRANCH  17  27
ENDBRANCH   9  14
ENDBRANCH   6   8
ENDBRANCH   5   6
ENDBRANCH   4   5
ENDBRANCH   3   4
ENDBRANCH   2   3
ENDBRANCH   1   2
BRANCH   1  37
ATOM     37  C   UNL A   1      41.803  22.221  26.925  1.00  0.00     0.188 C 
BRANCH  37  38
ATOM     38  O   UNL A   1      42.844  21.637  26.160  1.00  0.00    -0.376 OA
BRANCH  38  39
ATOM     39  C   UNL A   1      43.431  22.363  25.093  1.00  0.00     0.202 C 
BRANCH  39  40
ATOM     40  C   UNL A   1      44.662  23.276  25.258  1.00  0.00     0.261 C 
BRANCH  40  41
ATOM     41  O   UNL A   1      44.535  24.633  24.820  1.00  0.00    -0.460 OA
BRANCH  41  42
ATOM     42  C   UNL A   1      45.602  25.429  25.070  1.00  0.00     0.338 C 
ATOM     43  O   UNL A   1      46.704  25.378  24.541  1.00  0.00    -0.246 OA
BRANCH  42  44
ATOM     44  C   UNL A   1      45.197  26.510  25.984  1.00  0.00     0.060 A 
ATOM     45  C   UNL A   1      46.176  27.133  26.770  1.00  0.00     0.016 A 
ATOM     46  C   UNL A   1      43.855  26.874  26.100  1.00  0.00     0.016 A 
ATOM     47  C   UNL A   1      45.813  28.112  27.693  1.00  0.00     0.010 A 
ATOM     48  C   UNL A   1      43.490  27.838  27.043  1.00  0.00     0.010 A 
ATOM     49  C   UNL A   1      44.463  28.439  27.864  1.00  0.00    -0.014 A 
BRANCH  49  50
ATOM     50  C   UNL A   1      44.048  29.281  29.011  1.00  0.00     0.031 A 
ATOM     51  C   UNL A   1      43.994  30.773  28.826  1.00  0.00     0.074 A 
ATOM     52  C   UNL A   1      43.739  28.734  30.199  1.00  0.00     0.049 A 
ATOM     53  N   UNL A   1      43.719  31.707  29.698  1.00  0.00    -0.248 NA
ATOM     54  C   UNL A   1      44.295  31.279  27.477  1.00  0.00     0.031 C 
ATOM     55  C   UNL A   1      43.742  27.302  30.498  1.00  0.00     0.029 A 
ATOM     56  N   UNL A   1      43.389  29.327  31.387  1.00  0.00    -0.354 N 
ATOM     57  C   UNL A   1      43.849  32.910  29.017  1.00  0.00     0.074 A 
ATOM     58  C   UNL A   1      44.234  32.590  27.659  1.00  0.00     0.031 C 
ATOM     59  C   UNL A   1      43.446  27.130  31.798  1.00  0.00     0.029 A 
ATOM     60  C   UNL A   1      43.260  28.436  32.427  1.00  0.00     0.049 A 
ATOM     61  H   UNL A   1      43.245  30.296  31.484  1.00  0.00     0.167 HD
ATOM     62  C   UNL A   1      43.655  34.169  29.475  1.00  0.00     0.034 A 
ATOM     63  C   UNL A   1      43.047  28.655  33.740  1.00  0.00     0.034 A 
ATOM     64  C   UNL A   1      43.262  34.484  30.822  1.00  0.00     0.049 A 
ATOM     65  C   UNL A   1      42.869  30.069  34.233  1.00  0.00     0.074 A 
ATOM     66  C   UNL A   1      42.995  35.726  31.371  1.00  0.00     0.029 A 
ATOM     67  N   UNL A   1      43.103  33.555  31.838  1.00  0.00    -0.354 N 
ATOM     68  N   UNL A   1      42.879  31.191  33.553  1.00  0.00    -0.248 NA
ATOM     69  C   UNL A   1      42.617  30.245  35.672  1.00  0.00     0.031 C 
ATOM     70  C   UNL A   1      42.710  35.551  32.729  1.00  0.00     0.029 A 
ATOM     71  C   UNL A   1      42.755  34.196  33.015  1.00  0.00     0.049 A 
ATOM     72  H   UNL A   1      43.219  32.582  31.737  1.00  0.00     0.167 HD
ATOM     73  C   UNL A   1      42.595  32.197  34.471  1.00  0.00     0.074 A 
ATOM     74  C   UNL A   1      42.401  31.551  35.752  1.00  0.00     0.031 C 
ATOM     75  C   UNL A   1      42.512  33.537  34.273  1.00  0.00     0.034 A 
BRANCH  62  76
ATOM     76  C   UNL A   1      43.857  35.305  28.507  1.00  0.00     0.023 A 
ATOM     77  C   UNL A   1      42.768  35.782  27.747  1.00  0.00     0.012 A 
ATOM     78  C   UNL A   1      45.111  35.935  28.389  1.00  0.00     0.148 A 
ATOM     79  C   UNL A   1      42.935  36.845  26.860  1.00  0.00     0.002 A 
ATOM     80  C   UNL A   1      45.256  37.024  27.538  1.00  0.00     0.091 A 
ATOM     81  F   UNL A   1      46.138  35.454  29.103  1.00  0.00    -0.205 F 
ATOM     82  C   UNL A   1      44.174  37.472  26.764  1.00  0.00     0.022 A 
BRANCH  80  83
ATOM     83  S   UNL A   1      46.788  37.952  27.405  1.00  0.00     0.127 S 
ATOM     84  O   UNL A   1      47.028  38.325  28.799  1.00  0.00    -0.237 OA
ATOM     85  O   UNL A   1      47.710  36.945  26.878  1.00  0.00    -0.237 OA
ATOM     86  O   UNL A   1      46.513  39.059  26.501  1.00  0.00    -0.744 OA
ENDBRANCH  80  83
ENDBRANCH  62  76
BRANCH  63  87
ATOM     87  C   UNL A   1      42.969  27.507  34.687  1.00  0.00     0.023 A 
ATOM     88  C   UNL A   1      41.735  26.863  34.901  1.00  0.00     0.012 A 
ATOM     89  C   UNL A   1      44.110  27.050  35.375  1.00  0.00     0.148 A 
ATOM     90  C   UNL A   1      41.630  25.809  35.809  1.00  0.00     0.002 A 
ATOM     91  C   UNL A   1      44.011  25.965  36.236  1.00  0.00     0.091 A 
ATOM     92  F   UNL A   1      45.272  27.686  35.169  1.00  0.00    -0.205 F 
ATOM     93  C   UNL A   1      42.768  25.354  36.469  1.00  0.00     0.022 A 
BRANCH  91  94
ATOM     94  S   UNL A   1      45.441  25.237  37.043  1.00  0.00     0.127 S 
ATOM     95  O   UNL A   1      46.353  25.045  35.919  1.00  0.00    -0.237 OA
ATOM     96  O   UNL A   1      45.828  26.296  37.976  1.00  0.00    -0.237 OA
ATOM     97  O   UNL A   1      44.959  24.019  37.679  1.00  0.00    -0.744 OA
ENDBRANCH  91  94
ENDBRANCH  63  87
BRANCH  75  98
ATOM     98  C   UNL A   1      42.141  34.402  35.452  1.00  0.00     0.023 A 
ATOM     99  C   UNL A   1      40.801  34.786  35.657  1.00  0.00     0.012 A 
ATOM    100  C   UNL A   1      43.118  34.768  36.401  1.00  0.00     0.148 A 
ATOM    101  C   UNL A   1      40.445  35.551  36.768  1.00  0.00     0.002 A 
ATOM    102  C   UNL A   1      42.746  35.484  37.533  1.00  0.00     0.091 A 
ATOM    103  F   UNL A   1      44.390  34.407  36.181  1.00  0.00    -0.205 F 
ATOM    104  C   UNL A   1      41.413  35.889  37.711  1.00  0.00     0.022 A 
BRANCH 102 105
ATOM    105  S   UNL A   1      43.904  35.876  38.849  1.00  0.00     0.127 S 
ATOM    106  O   UNL A   1      43.038  36.546  39.818  1.00  0.00    -0.237 OA
ATOM    107  O   UNL A   1      44.368  34.551  39.259  1.00  0.00    -0.237 OA
ATOM    108  O   UNL A   1      44.930  36.716  38.246  1.00  0.00    -0.744 OA
ENDBRANCH 102 105
ENDBRANCH  75  98
ENDBRANCH  49  50
ENDBRANCH  42  44
ENDBRANCH  41  42
ENDBRANCH  40  41
ENDBRANCH  39  40
ENDBRANCH  38  39
ENDBRANCH  37  38
ENDBRANCH   1  37
TORSDOF 25
ENDMDL
MODEL 3
REMARK VINA RESULT:      -9.5      1.631      7.330
REMARK SMILES COc1cccc([C@H]2CC(c3ccc(S(C)(=O)=O)cc3)=NN2c2ccc(C(=O)OCCOCCOCCOC(=O)c3ccc(-c4c5nc(c(-c6cccc(S(=O)(=O)[O-])c6F)c6ccc([nH]6)c(-c6cccc(S(=O)(=O)[O-])c6F)c6nc(c(-c7cccc(S(=O)(=O)[O-])c7F)c7ccc4[nH]7)C=C6)C=C5)cc3)cc2)c1
REMARK SMILES IDX 33 1 32 2 31 3 30 4 29 5 27 6 28 7 26 8 23 9 24 10 105 11
REMARK SMILES IDX 25 12 104 13 22 14 8 15 9 16 10 17 21 18 7 19 3 20 4 21
REMARK SMILES IDX 106 22 5 23 6 24 2 25 1 26 11 27 12 28 20 29 13 30 19 31
REMARK SMILES IDX 14 32 15 33 16 34 17 35 18 36 34 37 35 38 36 39 37 40 38 41
REMARK SMILES IDX 39 42 40 43 41 44 42 45 103 46 43 47 102 48 44 49 45 50
REMARK SMILES IDX 46 51 96 52 47 53 101 54 95 55 97 56 48 57 100 58 94 59
REMARK SMILES IDX 93 60 49 62 81 63 61 64 80 65 62 66 65 67 79 68 98 69 63 70
REMARK SMILES IDX 64 71 78 73 99 74 66 75 50 76 51 77 59 78 52 79 54 80 60 81
REMARK SMILES IDX 53 82 55 83 56 84 57 85 58 86 82 87 83 88 91 89 84 90 86 91
REMARK SMILES IDX 92 92 85 93 87 94 88 95 89 96 90 97 67 98 68 99 76 100
REMARK SMILES IDX 69 101 71 102 77 103 70 104 72 105 73 106 74 107 75 108
REMARK H PARENT 97 61 65 72
REMARK Flexibility Score: inf
ROOT
ATOM      1  C   UNL A   1      37.794  20.944  25.559  1.00  0.00     0.188 C 
ENDROOT
BRANCH   1   2
ATOM      2  O   UNL A   1      36.527  20.919  24.947  1.00  0.00    -0.376 OA
BRANCH   2   3
ATOM      3  C   UNL A   1      35.765  19.726  24.909  1.00  0.00     0.202 C 
BRANCH   3   4
ATOM      4  C   UNL A   1      34.235  19.623  24.742  1.00  0.00     0.261 C 
BRANCH   4   5
ATOM      5  O   UNL A   1      33.438  20.764  25.069  1.00  0.00    -0.460 OA
BRANCH   5   6
ATOM      6  C   UNL A   1      32.801  21.348  24.023  1.00  0.00     0.338 C 
ATOM      7  O   UNL A   1      32.180  20.785  23.138  1.00  0.00    -0.246 OA
BRANCH   6   8
ATOM      8  C   UNL A   1      32.834  22.819  24.178  1.00  0.00     0.060 A 
ATOM      9  C   UNL A   1      33.095  25.604  24.438  1.00  0.00     0.060 A 
ATOM     10  C   UNL A   1      33.257  24.989  23.190  1.00  0.00     0.029 A 
ATOM     11  C   UNL A   1      32.707  24.811  25.529  1.00  0.00     0.029 A 
ATOM     12  C   UNL A   1      33.162  23.600  23.064  1.00  0.00     0.018 A 
ATOM     13  C   UNL A   1      32.557  23.426  25.403  1.00  0.00     0.018 A 
BRANCH   9  14
ATOM     14  N   UNL A   1      33.430  26.945  24.625  1.00  0.00    -0.257 N 
ATOM     15  C   UNL A   1      32.873  27.987  23.753  1.00  0.00     0.144 C 
ATOM     16  C   UNL A   1      33.265  29.277  24.475  1.00  0.00     0.091 C 
ATOM     17  C   UNL A   1      33.862  28.709  25.732  1.00  0.00     0.071 C 
ATOM     18  N   UNL A   1      33.923  27.415  25.804  1.00  0.00    -0.176 NA
BRANCH  15  19
ATOM     19  C   UNL A   1      31.368  27.850  23.544  1.00  0.00    -0.019 A 
ATOM     20  C   UNL A   1      29.262  28.591  22.559  1.00  0.00     0.119 A 
ATOM     21  C   UNL A   1      28.581  27.623  23.297  1.00  0.00     0.046 A 
ATOM     22  C   UNL A   1      30.647  28.716  22.698  1.00  0.00     0.052 A 
ATOM     23  C   UNL A   1      29.275  26.762  24.143  1.00  0.00     0.004 A 
ATOM     24  C   UNL A   1      30.660  26.872  24.264  1.00  0.00     0.006 A 
BRANCH  20  25
ATOM     25  O   UNL A   1      28.469  29.393  21.786  1.00  0.00    -0.497 OA
ATOM     26  C   UNL A   1      28.981  30.690  21.508  1.00  0.00     0.278 C 
ENDBRANCH  20  25
ENDBRANCH  15  19
BRANCH  17  27
ATOM     27  C   UNL A   1      34.402  29.612  26.759  1.00  0.00    -0.002 A 
ATOM     28  C   UNL A   1      35.736  29.460  27.155  1.00  0.00     0.011 A 
ATOM     29  C   UNL A   1      33.616  30.643  27.283  1.00  0.00     0.011 A 
ATOM     30  C   UNL A   1      36.294  30.354  28.071  1.00  0.00     0.021 A 
ATOM     31  C   UNL A   1      34.165  31.523  28.218  1.00  0.00     0.021 A 
ATOM     32  C   UNL A   1      35.501  31.375  28.607  1.00  0.00     0.067 A 
BRANCH  32  33
ATOM     33  S   UNL A   1      36.227  32.524  29.756  1.00  0.00     0.175 S 
ATOM     34  C   UNL A   1      35.252  33.998  29.580  1.00  0.00     0.163 C 
ATOM     35  O   UNL A   1      36.005  31.978  31.082  1.00  0.00    -0.224 OA
ATOM     36  O   UNL A   1      37.570  32.816  29.292  1.00  0.00    -0.224 OA
ENDBRANCH  32  33
ENDBRANCH  17  27
ENDBRANCH   9  14
ENDBRANCH   6   8
ENDBRANCH   5   6
ENDBRANCH   4   5
ENDBRANCH   3   4
ENDBRANCH   2   3
ENDBRANCH   1   2
BRANCH   1  37
ATOM     37  C   UNL A   1      38.339  22.345  25.905  1.00  0.00     0.188 C 
BRANCH  37  38
ATOM     38  O   UNL A   1      39.683  22.504  26.328  1.00  0.00    -0.376 OA
BRANCH  38  39
ATOM     39  C   UNL A   1      40.112  23.744  26.866  1.00  0.00     0.202 C 
BRANCH  39  40
ATOM     40  C   UNL A   1      41.558  24.020  27.324  1.00  0.00     0.261 C 
BRANCH  40  41
ATOM     41  O   UNL A   1      41.905  25.378  27.614  1.00  0.00    -0.460 OA
BRANCH  41  42
ATOM     42  C   UNL A   1      42.884  25.907  26.842  1.00  0.00     0.338 C 
ATOM     43  O   UNL A   1      43.390  25.412  25.844  1.00  0.00    -0.246 OA
BRANCH  42  44
ATOM     44  C   UNL A   1      43.159  27.285  27.284  1.00  0.00     0.060 A 
ATOM     45  C   UNL A   1      44.182  27.503  28.217  1.00  0.00     0.016 A 
ATOM     46  C   UNL A   1      42.382  28.346  26.820  1.00  0.00     0.016 A 
ATOM     47  C   UNL A   1      44.420  28.786  28.706  1.00  0.00     0.010 A 
ATOM     48  C   UNL A   1      42.606  29.628  27.330  1.00  0.00     0.010 A 
ATOM     49  C   UNL A   1      43.605  29.848  28.296  1.00  0.00    -0.014 A 
BRANCH  49  50
ATOM     50  C   UNL A   1      43.683  31.151  28.998  1.00  0.00     0.031 A 
ATOM     51  C   UNL A   1      44.687  32.165  28.524  1.00  0.00     0.074 A 
ATOM     52  C   UNL A   1      42.887  31.424  30.047  1.00  0.00     0.049 A 
ATOM     53  N   UNL A   1      44.974  33.341  29.018  1.00  0.00    -0.248 NA
ATOM     54  C   UNL A   1      45.477  31.802  27.336  1.00  0.00     0.031 C 
ATOM     55  C   UNL A   1      41.867  30.528  30.591  1.00  0.00     0.029 A 
ATOM     56  N   UNL A   1      42.836  32.530  30.860  1.00  0.00    -0.354 N 
ATOM     57  C   UNL A   1      46.000  33.843  28.227  1.00  0.00     0.074 A 
ATOM     58  C   UNL A   1      46.291  32.841  27.224  1.00  0.00     0.031 C 
ATOM     59  C   UNL A   1      41.316  31.106  31.673  1.00  0.00     0.029 A 
ATOM     60  C   UNL A   1      41.961  32.395  31.912  1.00  0.00     0.049 A 
ATOM     61  H   UNL A   1      43.373  33.339  30.704  1.00  0.00     0.167 HD
ATOM     62  C   UNL A   1      46.636  35.034  28.319  1.00  0.00     0.034 A 
ATOM     63  C   UNL A   1      41.733  33.208  32.964  1.00  0.00     0.034 A 
ATOM     64  C   UNL A   1      46.339  36.031  29.311  1.00  0.00     0.049 A 
ATOM     65  C   UNL A   1      42.479  34.514  33.064  1.00  0.00     0.074 A 
ATOM     66  C   UNL A   1      46.896  37.289  29.458  1.00  0.00     0.029 A 
ATOM     67  N   UNL A   1      45.421  35.878  30.338  1.00  0.00    -0.354 N 
ATOM     68  N   UNL A   1      43.363  35.027  32.242  1.00  0.00    -0.248 NA
ATOM     69  C   UNL A   1      42.172  35.369  34.220  1.00  0.00     0.031 C 
ATOM     70  C   UNL A   1      46.341  37.881  30.597  1.00  0.00     0.029 A 
ATOM     71  C   UNL A   1      45.405  37.011  31.132  1.00  0.00     0.049 A 
ATOM     72  H   UNL A   1      44.862  35.079  30.480  1.00  0.00     0.167 HD
ATOM     73  C   UNL A   1      43.686  36.278  32.759  1.00  0.00     0.074 A 
ATOM     74  C   UNL A   1      42.889  36.452  33.956  1.00  0.00     0.031 C 
ATOM     75  C   UNL A   1      44.569  37.196  32.291  1.00  0.00     0.034 A 
BRANCH  62  76
ATOM     76  C   UNL A   1      47.717  35.329  27.313  1.00  0.00     0.023 A 
ATOM     77  C   UNL A   1      47.413  36.075  26.154  1.00  0.00     0.012 A 
ATOM     78  C   UNL A   1      49.044  34.915  27.539  1.00  0.00     0.148 A 
ATOM     79  C   UNL A   1      48.406  36.373  25.222  1.00  0.00     0.002 A 
ATOM     80  C   UNL A   1      50.037  35.257  26.628  1.00  0.00     0.091 A 
ATOM     81  F   UNL A   1      49.309  34.189  28.634  1.00  0.00    -0.205 F 
ATOM     82  C   UNL A   1      49.717  35.974  25.464  1.00  0.00     0.022 A 
BRANCH  80  83
ATOM     83  S   UNL A   1      51.769  34.863  26.890  1.00  0.00     0.127 S 
ATOM     84  O   UNL A   1      51.718  33.410  27.055  1.00  0.00    -0.237 OA
ATOM     85  O   UNL A   1      52.377  35.312  25.637  1.00  0.00    -0.237 OA
ATOM     86  O   UNL A   1      52.180  35.611  28.070  1.00  0.00    -0.744 OA
ENDBRANCH  80  83
ENDBRANCH  62  76
BRANCH  63  87
ATOM     87  C   UNL A   1      40.735  32.823  34.003  1.00  0.00     0.023 A 
ATOM     88  C   UNL A   1      41.138  32.035  35.098  1.00  0.00     0.012 A 
ATOM     89  C   UNL A   1      39.391  33.234  33.910  1.00  0.00     0.148 A 
ATOM     90  C   UNL A   1      40.215  31.634  36.064  1.00  0.00     0.002 A 
ATOM     91  C   UNL A   1      38.488  32.878  34.904  1.00  0.00     0.091 A 
ATOM     92  F   UNL A   1      39.024  33.971  32.852  1.00  0.00    -0.205 F 
ATOM     93  C   UNL A   1      38.893  32.062  35.972  1.00  0.00     0.022 A 
BRANCH  91  94
ATOM     94  S   UNL A   1      36.794  33.475  34.931  1.00  0.00     0.127 S 
ATOM     95  O   UNL A   1      36.934  34.797  34.327  1.00  0.00    -0.237 OA
ATOM     96  O   UNL A   1      36.115  32.484  34.096  1.00  0.00    -0.237 OA
ATOM     97  O   UNL A   1      36.393  33.461  36.331  1.00  0.00    -0.744 OA
ENDBRANCH  91  94
ENDBRANCH  63  87
BRANCH  75  98
ATOM     98  C   UNL A   1      44.688  38.503  33.035  1.00  0.00     0.023 A 
ATOM     99  C   UNL A   1      45.663  38.662  34.039  1.00  0.00     0.012 A 
ATOM    100  C   UNL A   1      43.878  39.601  32.678  1.00  0.00     0.148 A 
ATOM    101  C   UNL A   1      45.806  39.881  34.702  1.00  0.00     0.002 A 
ATOM    102  C   UNL A   1      44.063  40.827  33.305  1.00  0.00     0.091 A 
ATOM    103  F   UNL A   1      42.945  39.427  31.731  1.00  0.00    -0.205 F 
ATOM    104  C   UNL A   1      45.016  40.966  34.326  1.00  0.00     0.022 A 
BRANCH 102 105
ATOM    105  S   UNL A   1      43.163  42.304  32.819  1.00  0.00     0.127 S 
ATOM    106  O   UNL A   1      43.401  43.187  33.959  1.00  0.00    -0.237 OA
ATOM    107  O   UNL A   1      43.851  42.695  31.589  1.00  0.00    -0.237 OA
ATOM    108  O   UNL A   1      41.779  41.889  32.632  1.00  0.00    -0.744 OA
ENDBRANCH 102 105
ENDBRANCH  75  98
ENDBRANCH  49  50
ENDBRANCH  42  44
ENDBRANCH  41  42
ENDBRANCH  40  41
ENDBRANCH  39  40
ENDBRANCH  38  39
ENDBRANCH  37  38
ENDBRANCH   1  37
TORSDOF 25
ENDMDL
