MODEL 1
REMARK VINA RESULT:     -10.2      0.000      0.000
REMARK SMILES C[NH+](C)[C@@H]1CC[N@@H+](Cc2ccc(C(=O)OCCOCCOCCOC(=O)c3ccc(-c4c5nc(c(-c6cccc(S(=O)(=O)[O-])c6F)c6ccc([nH]6)c(-c6cccc(S(=O)(=O)[O-])c6F)c6nc(c(-c7cccc(S(=O)(=O)[O-])c7F)c7ccc4[nH]7)C=C6)C=C5)cc3)cn2)C1
REMARK SMILES IDX 19 1 18 2 17 3 16 4 15 5 13 6 14 7 12 8 9 9 10 10 91 11
REMARK SMILES IDX 11 12 90 13 8 14 7 15 4 16 5 17 92 18 6 19 2 21 1 22 3 23
REMARK SMILES IDX 20 25 21 26 22 27 23 28 24 29 25 30 26 31 27 32 28 33 89 34
REMARK SMILES IDX 29 35 88 36 30 37 31 38 32 39 82 40 33 41 87 42 81 43 83 44
REMARK SMILES IDX 34 45 86 46 80 47 79 48 35 50 67 51 47 52 66 53 48 54 51 55
REMARK SMILES IDX 65 56 84 57 49 58 50 59 64 61 85 62 52 63 36 64 37 65 45 66
REMARK SMILES IDX 38 67 40 68 46 69 39 70 41 71 42 72 43 73 44 74 68 75 69 76
REMARK SMILES IDX 77 77 70 78 72 79 78 80 71 81 73 82 74 83 75 84 76 85 53 86
REMARK SMILES IDX 54 87 62 88 55 89 57 90 63 91 56 92 58 93 59 94 60 95 61 96
REMARK H PARENT 7 20 2 24 83 49 51 60
REMARK Flexibility Score: inf
ROOT
ATOM      1  C   UNL A   1      34.822  24.670  25.260  1.00  0.00     0.188 C 
ENDROOT
BRANCH   1   2
ATOM      2  O   UNL A   1      33.668  25.295  25.788  1.00  0.00    -0.376 OA
BRANCH   2   3
ATOM      3  C   UNL A   1      33.411  26.672  25.548  1.00  0.00     0.202 C 
BRANCH   3   4
ATOM      4  C   UNL A   1      32.922  27.161  24.187  1.00  0.00     0.261 C 
BRANCH   4   5
ATOM      5  O   UNL A   1      31.663  26.586  23.818  1.00  0.00    -0.460 OA
BRANCH   5   6
ATOM      6  C   UNL A   1      31.696  25.874  22.669  1.00  0.00     0.339 C 
ATOM      7  O   UNL A   1      31.638  26.310  21.531  1.00  0.00    -0.246 OA
BRANCH   6   8
ATOM      8  C   UNL A   1      31.957  24.461  22.955  1.00  0.00     0.078 A 
ATOM      9  C   UNL A   1      32.492  21.963  23.916  1.00  0.00     0.095 A 
ATOM     10  C   UNL A   1      33.263  22.450  22.861  1.00  0.00     0.031 A 
ATOM     11  N   UNL A   1      31.375  22.599  24.356  1.00  0.00    -0.254 NA
ATOM     12  C   UNL A   1      33.003  23.734  22.385  1.00  0.00     0.019 A 
ATOM     13  C   UNL A   1      31.133  23.835  23.875  1.00  0.00     0.127 A 
BRANCH   9  14
ATOM     14  C   UNL A   1      33.030  20.859  24.811  1.00  0.00     0.319 C 
BRANCH  14  15
ATOM     15  N   UNL A   1      33.500  19.626  24.130  1.00  0.00    -0.325 N 
ATOM     16  C   UNL A   1      33.246  17.619  25.484  1.00  0.00     0.245 C 
ATOM     17  C   UNL A   1      32.057  17.718  24.519  1.00  0.00     0.132 C 
ATOM     18  C   UNL A   1      34.247  18.677  24.966  1.00  0.00     0.328 C 
ATOM     19  C   UNL A   1      32.421  18.826  23.532  1.00  0.00     0.269 C 
ATOM     20  H   UNL A   1      34.114  20.034  23.425  1.00  0.00     0.348 HD
BRANCH  16  21
ATOM     21  N   UNL A   1      33.862  16.301  25.736  1.00  0.00    -0.333 N 
ATOM     22  C   UNL A   1      32.954  15.211  25.372  1.00  0.00     0.332 C 
ATOM     23  C   UNL A   1      35.154  16.119  25.078  1.00  0.00     0.332 C 
ATOM     24  H   UNL A   1      34.039  16.273  26.740  1.00  0.00     0.348 HD
ENDBRANCH  16  21
ENDBRANCH  14  15
ENDBRANCH   9  14
ENDBRANCH   6   8
ENDBRANCH   5   6
ENDBRANCH   4   5
ENDBRANCH   3   4
ENDBRANCH   2   3
ENDBRANCH   1   2
BRANCH   1  25
ATOM     25  C   UNL A   1      35.647  23.699  26.130  1.00  0.00     0.188 C 
BRANCH  25  26
ATOM     26  O   UNL A   1      35.603  22.302  25.920  1.00  0.00    -0.376 OA
BRANCH  26  27
ATOM     27  C   UNL A   1      36.494  21.720  24.981  1.00  0.00     0.202 C 
BRANCH  27  28
ATOM     28  C   UNL A   1      37.550  20.688  25.397  1.00  0.00     0.261 C 
BRANCH  28  29
ATOM     29  O   UNL A   1      38.909  21.098  25.219  1.00  0.00    -0.460 OA
BRANCH  29  30
ATOM     30  C   UNL A   1      39.696  20.948  26.316  1.00  0.00     0.338 C 
ATOM     31  O   UNL A   1      40.215  19.920  26.715  1.00  0.00    -0.246 OA
BRANCH  30  32
ATOM     32  C   UNL A   1      40.010  22.273  26.880  1.00  0.00     0.060 A 
ATOM     33  C   UNL A   1      39.217  23.365  26.498  1.00  0.00     0.016 A 
ATOM     34  C   UNL A   1      41.109  22.449  27.720  1.00  0.00     0.016 A 
ATOM     35  C   UNL A   1      39.546  24.649  26.926  1.00  0.00     0.010 A 
ATOM     36  C   UNL A   1      41.451  23.740  28.128  1.00  0.00     0.010 A 
ATOM     37  C   UNL A   1      40.693  24.847  27.703  1.00  0.00    -0.014 A 
BRANCH  37  38
ATOM     38  C   UNL A   1      41.226  26.214  27.904  1.00  0.00     0.031 A 
ATOM     39  C   UNL A   1      42.620  26.510  27.422  1.00  0.00     0.074 A 
ATOM     40  C   UNL A   1      40.506  27.161  28.531  1.00  0.00     0.049 A 
ATOM     41  N   UNL A   1      43.333  27.595  27.566  1.00  0.00    -0.248 NA
ATOM     42  C   UNL A   1      43.302  25.432  26.685  1.00  0.00     0.031 C 
ATOM     43  C   UNL A   1      39.143  26.996  29.029  1.00  0.00     0.029 A 
ATOM     44  N   UNL A   1      40.844  28.442  28.885  1.00  0.00    -0.354 N 
ATOM     45  C   UNL A   1      44.557  27.322  26.968  1.00  0.00     0.074 A 
ATOM     46  C   UNL A   1      44.494  25.968  26.464  1.00  0.00     0.031 C 
ATOM     47  C   UNL A   1      38.773  28.124  29.661  1.00  0.00     0.029 A 
ATOM     48  C   UNL A   1      39.881  29.077  29.633  1.00  0.00     0.049 A 
ATOM     49  H   UNL A   1      41.696  28.867  28.627  1.00  0.00     0.167 HD
ATOM     50  C   UNL A   1      45.636  28.129  26.839  1.00  0.00     0.034 A 
ATOM     51  C   UNL A   1      39.907  30.278  30.246  1.00  0.00     0.034 A 
ATOM     52  C   UNL A   1      45.693  29.479  27.327  1.00  0.00     0.049 A 
ATOM     53  C   UNL A   1      41.131  31.149  30.111  1.00  0.00     0.074 A 
ATOM     54  C   UNL A   1      46.727  30.391  27.215  1.00  0.00     0.029 A 
ATOM     55  N   UNL A   1      44.677  30.108  28.028  1.00  0.00    -0.354 N 
ATOM     56  N   UNL A   1      42.240  30.921  29.447  1.00  0.00    -0.248 NA
ATOM     57  C   UNL A   1      41.097  32.457  30.783  1.00  0.00     0.031 C 
ATOM     58  C   UNL A   1      46.343  31.567  27.868  1.00  0.00     0.029 A 
ATOM     59  C   UNL A   1      45.060  31.395  28.363  1.00  0.00     0.049 A 
ATOM     60  H   UNL A   1      43.811  29.700  28.255  1.00  0.00     0.167 HD
ATOM     61  C   UNL A   1      43.012  32.071  29.584  1.00  0.00     0.074 A 
ATOM     62  C   UNL A   1      42.240  32.998  30.385  1.00  0.00     0.031 C 
ATOM     63  C   UNL A   1      44.252  32.331  29.101  1.00  0.00     0.034 A 
BRANCH  50  64
ATOM     64  C   UNL A   1      46.836  27.576  26.119  1.00  0.00     0.023 A 
ATOM     65  C   UNL A   1      46.976  27.792  24.733  1.00  0.00     0.012 A 
ATOM     66  C   UNL A   1      47.843  26.885  26.818  1.00  0.00     0.148 A 
ATOM     67  C   UNL A   1      48.086  27.301  24.047  1.00  0.00     0.002 A 
ATOM     68  C   UNL A   1      48.968  26.435  26.136  1.00  0.00     0.091 A 
ATOM     69  F   UNL A   1      47.678  26.666  28.130  1.00  0.00    -0.205 F 
ATOM     70  C   UNL A   1      49.086  26.632  24.750  1.00  0.00     0.022 A 
BRANCH  68  71
ATOM     71  S   UNL A   1      50.342  25.629  26.965  1.00  0.00     0.127 S 
ATOM     72  O   UNL A   1      51.246  25.362  25.846  1.00  0.00    -0.237 OA
ATOM     73  O   UNL A   1      50.802  26.672  27.883  1.00  0.00    -0.237 OA
ATOM     74  O   UNL A   1      49.784  24.452  27.615  1.00  0.00    -0.744 OA
ENDBRANCH  68  71
ENDBRANCH  50  64
BRANCH  51  75
ATOM     75  C   UNL A   1      38.722  30.749  31.016  1.00  0.00     0.023 A 
ATOM     76  C   UNL A   1      38.672  30.537  32.408  1.00  0.00     0.012 A 
ATOM     77  C   UNL A   1      37.651  31.409  30.384  1.00  0.00     0.148 A 
ATOM     78  C   UNL A   1      37.564  30.945  33.150  1.00  0.00     0.002 A 
ATOM     79  C   UNL A   1      36.572  31.860  31.137  1.00  0.00     0.091 A 
ATOM     80  F   UNL A   1      37.708  31.585  29.056  1.00  0.00    -0.205 F 
ATOM     81  C   UNL A   1      36.519  31.614  32.518  1.00  0.00     0.022 A 
BRANCH  79  82
ATOM     82  S   UNL A   1      35.239  32.833  30.428  1.00  0.00     0.127 S 
ATOM     83  O   UNL A   1      35.943  34.040  30.004  1.00  0.00    -0.237 OA
ATOM     84  O   UNL A   1      34.783  31.971  29.338  1.00  0.00    -0.237 OA
ATOM     85  O   UNL A   1      34.268  33.009  31.500  1.00  0.00    -0.744 OA
ENDBRANCH  79  82
ENDBRANCH  51  75
BRANCH  63  86
ATOM     86  C   UNL A   1      44.846  33.689  29.370  1.00  0.00     0.023 A 
ATOM     87  C   UNL A   1      45.529  33.932  30.577  1.00  0.00     0.012 A 
ATOM     88  C   UNL A   1      44.813  34.692  28.379  1.00  0.00     0.148 A 
ATOM     89  C   UNL A   1      46.148  35.161  30.806  1.00  0.00     0.002 A 
ATOM     90  C   UNL A   1      45.472  35.897  28.595  1.00  0.00     0.091 A 
ATOM     91  F   UNL A   1      44.143  34.448  27.244  1.00  0.00    -0.205 F 
ATOM     92  C   UNL A   1      46.131  36.137  29.811  1.00  0.00     0.022 A 
BRANCH  90  93
ATOM     93  S   UNL A   1      45.589  37.170  27.332  1.00  0.00     0.127 S 
ATOM     94  O   UNL A   1      44.220  37.682  27.299  1.00  0.00    -0.237 OA
ATOM     95  O   UNL A   1      46.570  38.090  27.906  1.00  0.00    -0.237 OA
ATOM     96  O   UNL A   1      46.033  36.494  26.121  1.00  0.00    -0.744 OA
ENDBRANCH  90  93
ENDBRANCH  63  86
ENDBRANCH  37  38
ENDBRANCH  30  32
ENDBRANCH  29  30
ENDBRANCH  28  29
ENDBRANCH  27  28
ENDBRANCH  26  27
ENDBRANCH  25  26
ENDBRANCH   1  25
TORSDOF 23
ENDMDL
MODEL 2
REMARK VINA RESULT:      -9.6      2.084      2.456
REMARK SMILES C[NH+](C)[C@@H]1CC[N@@H+](Cc2ccc(C(=O)OCCOCCOCCOC(=O)c3ccc(-c4c5nc(c(-c6cccc(S(=O)(=O)[O-])c6F)c6ccc([nH]6)c(-c6cccc(S(=O)(=O)[O-])c6F)c6nc(c(-c7cccc(S(=O)(=O)[O-])c7F)c7ccc4[nH]7)C=C6)C=C5)cc3)cn2)C1
REMARK SMILES IDX 19 1 18 2 17 3 16 4 15 5 13 6 14 7 12 8 9 9 10 10 91 11
REMARK SMILES IDX 11 12 90 13 8 14 7 15 4 16 5 17 92 18 6 19 2 21 1 22 3 23
REMARK SMILES IDX 20 25 21 26 22 27 23 28 24 29 25 30 26 31 27 32 28 33 89 34
REMARK SMILES IDX 29 35 88 36 30 37 31 38 32 39 82 40 33 41 87 42 81 43 83 44
REMARK SMILES IDX 34 45 86 46 80 47 79 48 35 50 67 51 47 52 66 53 48 54 51 55
REMARK SMILES IDX 65 56 84 57 49 58 50 59 64 61 85 62 52 63 36 64 37 65 45 66
REMARK SMILES IDX 38 67 40 68 46 69 39 70 41 71 42 72 43 73 44 74 68 75 69 76
REMARK SMILES IDX 77 77 70 78 72 79 78 80 71 81 73 82 74 83 75 84 76 85 53 86
REMARK SMILES IDX 54 87 62 88 55 89 57 90 63 91 56 92 58 93 59 94 60 95 61 96
REMARK H PARENT 7 20 2 24 83 49 51 60
REMARK Flexibility Score: inf
ROOT
ATOM      1  C   UNL A   1      34.453  24.829  24.616  1.00  0.00     0.188 C 
ENDROOT
BRANCH   1   2
ATOM      2  O   UNL A   1      34.312  26.135  25.142  1.00  0.00    -0.376 OA
BRANCH   2   3
ATOM      3  C   UNL A   1      33.446  27.079  24.527  1.00  0.00     0.202 C 
BRANCH   3   4
ATOM      4  C   UNL A   1      31.980  27.194  24.937  1.00  0.00     0.261 C 
BRANCH   4   5
ATOM      5  O   UNL A   1      31.711  26.553  26.190  1.00  0.00    -0.460 OA
BRANCH   5   6
ATOM      6  C   UNL A   1      30.733  25.620  26.133  1.00  0.00     0.339 C 
ATOM      7  O   UNL A   1      29.529  25.814  26.153  1.00  0.00    -0.246 OA
BRANCH   6   8
ATOM      8  C   UNL A   1      31.310  24.294  25.899  1.00  0.00     0.078 A 
ATOM      9  C   UNL A   1      31.959  21.691  25.390  1.00  0.00     0.095 A 
ATOM     10  C   UNL A   1      32.396  22.266  26.583  1.00  0.00     0.031 A 
ATOM     11  N   UNL A   1      31.389  22.421  24.396  1.00  0.00    -0.254 NA
ATOM     12  C   UNL A   1      32.046  23.589  26.852  1.00  0.00     0.019 A 
ATOM     13  C   UNL A   1      31.069  23.703  24.671  1.00  0.00     0.127 A 
BRANCH   9  14
ATOM     14  C   UNL A   1      31.831  20.182  25.269  1.00  0.00     0.319 C 
BRANCH  14  15
ATOM     15  N   UNL A   1      33.079  19.397  25.446  1.00  0.00    -0.325 N 
ATOM     16  C   UNL A   1      32.930  17.136  24.556  1.00  0.00     0.245 C 
ATOM     17  C   UNL A   1      33.622  18.031  23.519  1.00  0.00     0.132 C 
ATOM     18  C   UNL A   1      32.902  17.993  25.842  1.00  0.00     0.328 C 
ATOM     19  C   UNL A   1      33.925  19.341  24.245  1.00  0.00     0.269 C 
ATOM     20  H   UNL A   1      33.516  19.924  26.202  1.00  0.00     0.348 HD
BRANCH  16  21
ATOM     21  N   UNL A   1      33.434  15.765  24.775  1.00  0.00    -0.333 N 
ATOM     22  C   UNL A   1      34.769  15.778  25.376  1.00  0.00     0.332 C 
ATOM     23  C   UNL A   1      32.535  14.927  25.567  1.00  0.00     0.332 C 
ATOM     24  H   UNL A   1      33.484  15.344  23.848  1.00  0.00     0.348 HD
ENDBRANCH  16  21
ENDBRANCH  14  15
ENDBRANCH   9  14
ENDBRANCH   6   8
ENDBRANCH   5   6
ENDBRANCH   4   5
ENDBRANCH   3   4
ENDBRANCH   2   3
ENDBRANCH   1   2
BRANCH   1  25
ATOM     25  C   UNL A   1      35.788  24.072  24.763  1.00  0.00     0.188 C 
BRANCH  25  26
ATOM     26  O   UNL A   1      35.992  23.131  25.798  1.00  0.00    -0.376 OA
BRANCH  26  27
ATOM     27  C   UNL A   1      35.921  21.747  25.492  1.00  0.00     0.202 C 
BRANCH  27  28
ATOM     28  C   UNL A   1      37.170  20.856  25.473  1.00  0.00     0.261 C 
BRANCH  28  29
ATOM     29  O   UNL A   1      38.399  21.530  25.183  1.00  0.00    -0.460 OA
BRANCH  29  30
ATOM     30  C   UNL A   1      39.369  21.368  26.118  1.00  0.00     0.338 C 
ATOM     31  O   UNL A   1      39.979  20.345  26.378  1.00  0.00    -0.246 OA
BRANCH  30  32
ATOM     32  C   UNL A   1      39.742  22.683  26.672  1.00  0.00     0.060 A 
ATOM     33  C   UNL A   1      39.113  23.825  26.156  1.00  0.00     0.016 A 
ATOM     34  C   UNL A   1      40.742  22.793  27.637  1.00  0.00     0.016 A 
ATOM     35  C   UNL A   1      39.512  25.092  26.579  1.00  0.00     0.010 A 
ATOM     36  C   UNL A   1      41.157  24.064  28.041  1.00  0.00     0.010 A 
ATOM     37  C   UNL A   1      40.569  25.216  27.486  1.00  0.00    -0.014 A 
BRANCH  37  38
ATOM     38  C   UNL A   1      41.206  26.536  27.707  1.00  0.00     0.031 A 
ATOM     39  C   UNL A   1      42.615  26.734  27.218  1.00  0.00     0.074 A 
ATOM     40  C   UNL A   1      40.565  27.522  28.356  1.00  0.00     0.049 A 
ATOM     41  N   UNL A   1      43.410  27.759  27.375  1.00  0.00    -0.248 NA
ATOM     42  C   UNL A   1      43.209  25.620  26.457  1.00  0.00     0.031 C 
ATOM     43  C   UNL A   1      39.197  27.453  28.862  1.00  0.00     0.029 A 
ATOM     44  N   UNL A   1      41.002  28.768  28.729  1.00  0.00    -0.354 N 
ATOM     45  C   UNL A   1      44.606  27.404  26.762  1.00  0.00     0.074 A 
ATOM     46  C   UNL A   1      44.436  26.067  26.236  1.00  0.00     0.031 C 
ATOM     47  C   UNL A   1      38.918  28.594  29.517  1.00  0.00     0.029 A 
ATOM     48  C   UNL A   1      40.096  29.460  29.496  1.00  0.00     0.049 A 
ATOM     49  H   UNL A   1      41.882  29.132  28.472  1.00  0.00     0.167 HD
ATOM     50  C   UNL A   1      45.742  28.129  26.638  1.00  0.00     0.034 A 
ATOM     51  C   UNL A   1      40.217  30.645  30.129  1.00  0.00     0.034 A 
ATOM     52  C   UNL A   1      45.905  29.462  27.148  1.00  0.00     0.049 A 
ATOM     53  C   UNL A   1      41.503  31.423  29.999  1.00  0.00     0.074 A 
ATOM     54  C   UNL A   1      47.004  30.295  27.043  1.00  0.00     0.029 A 
ATOM     55  N   UNL A   1      44.944  30.154  27.869  1.00  0.00    -0.354 N 
ATOM     56  N   UNL A   1      42.586  31.123  29.322  1.00  0.00    -0.248 NA
ATOM     57  C   UNL A   1      41.572  32.717  30.693  1.00  0.00     0.031 C 
ATOM     58  C   UNL A   1      46.715  31.484  27.720  1.00  0.00     0.029 A 
ATOM     59  C   UNL A   1      45.426  31.401  28.223  1.00  0.00     0.049 A 
ATOM     60  H   UNL A   1      44.051  29.808  28.096  1.00  0.00     0.167 HD
ATOM     61  C   UNL A   1      43.444  32.209  29.472  1.00  0.00     0.074 A 
ATOM     62  C   UNL A   1      42.751  33.178  30.296  1.00  0.00     0.031 C 
ATOM     63  C   UNL A   1      44.697  32.382  28.984  1.00  0.00     0.034 A 
BRANCH  50  64
ATOM     64  C   UNL A   1      46.891  27.500  25.899  1.00  0.00     0.023 A 
ATOM     65  C   UNL A   1      47.692  26.537  26.547  1.00  0.00     0.012 A 
ATOM     66  C   UNL A   1      47.152  27.827  24.555  1.00  0.00     0.148 A 
ATOM     67  C   UNL A   1      48.754  25.931  25.878  1.00  0.00     0.002 A 
ATOM     68  C   UNL A   1      48.186  27.187  23.880  1.00  0.00     0.091 A 
ATOM     69  F   UNL A   1      46.397  28.765  23.965  1.00  0.00    -0.205 F 
ATOM     70  C   UNL A   1      48.994  26.248  24.543  1.00  0.00     0.022 A 
BRANCH  68  71
ATOM     71  S   UNL A   1      48.527  27.474  22.141  1.00  0.00     0.127 S 
ATOM     72  O   UNL A   1      49.775  28.233  22.206  1.00  0.00    -0.237 OA
ATOM     73  O   UNL A   1      48.669  26.111  21.626  1.00  0.00    -0.237 OA
ATOM     74  O   UNL A   1      47.378  28.201  21.621  1.00  0.00    -0.744 OA
ENDBRANCH  68  71
ENDBRANCH  50  64
BRANCH  51  75
ATOM     75  C   UNL A   1      39.076  31.191  30.918  1.00  0.00     0.023 A 
ATOM     76  C   UNL A   1      39.040  30.990  32.311  1.00  0.00     0.012 A 
ATOM     77  C   UNL A   1      38.036  31.911  30.300  1.00  0.00     0.148 A 
ATOM     78  C   UNL A   1      37.971  31.468  33.071  1.00  0.00     0.002 A 
ATOM     79  C   UNL A   1      37.000  32.430  31.070  1.00  0.00     0.091 A 
ATOM     80  F   UNL A   1      38.079  32.076  28.970  1.00  0.00    -0.205 F 
ATOM     81  C   UNL A   1      36.958  32.195  32.453  1.00  0.00     0.022 A 
BRANCH  79  82
ATOM     82  S   UNL A   1      35.715  33.477  30.378  1.00  0.00     0.127 S 
ATOM     83  O   UNL A   1      36.417  34.120  29.270  1.00  0.00    -0.237 OA
ATOM     84  O   UNL A   1      34.706  32.496  29.981  1.00  0.00    -0.237 OA
ATOM     85  O   UNL A   1      35.301  34.358  31.462  1.00  0.00    -0.744 OA
ENDBRANCH  79  82
ENDBRANCH  51  75
BRANCH  63  86
ATOM     86  C   UNL A   1      45.394  33.687  29.270  1.00  0.00     0.023 A 
ATOM     87  C   UNL A   1      45.243  34.774  28.387  1.00  0.00     0.012 A 
ATOM     88  C   UNL A   1      46.116  33.864  30.469  1.00  0.00     0.148 A 
ATOM     89  C   UNL A   1      45.821  36.010  28.680  1.00  0.00     0.002 A 
ATOM     90  C   UNL A   1      46.649  35.111  30.775  1.00  0.00     0.091 A 
ATOM     91  F   UNL A   1      46.263  32.813  31.287  1.00  0.00    -0.205 F 
ATOM     92  C   UNL A   1      46.511  36.181  29.878  1.00  0.00     0.022 A 
BRANCH  90  93
ATOM     93  S   UNL A   1      47.465  35.450  32.340  1.00  0.00     0.127 S 
ATOM     94  O   UNL A   1      48.643  34.588  32.253  1.00  0.00    -0.237 OA
ATOM     95  O   UNL A   1      47.748  36.882  32.240  1.00  0.00    -0.237 OA
ATOM     96  O   UNL A   1      46.506  35.096  33.378  1.00  0.00    -0.744 OA
ENDBRANCH  90  93
ENDBRANCH  63  86
ENDBRANCH  37  38
ENDBRANCH  30  32
ENDBRANCH  29  30
ENDBRANCH  28  29
ENDBRANCH  27  28
ENDBRANCH  26  27
ENDBRANCH  25  26
ENDBRANCH   1  25
TORSDOF 23
ENDMDL
MODEL 3
REMARK VINA RESULT:      -8.8      5.770     10.752
REMARK SMILES C[NH+](C)[C@@H]1CC[N@@H+](Cc2ccc(C(=O)OCCOCCOCCOC(=O)c3ccc(-c4c5nc(c(-c6cccc(S(=O)(=O)[O-])c6F)c6ccc([nH]6)c(-c6cccc(S(=O)(=O)[O-])c6F)c6nc(c(-c7cccc(S(=O)(=O)[O-])c7F)c7ccc4[nH]7)C=C6)C=C5)cc3)cn2)C1
REMARK SMILES IDX 19 1 18 2 17 3 16 4 15 5 13 6 14 7 12 8 9 9 10 10 91 11
REMARK SMILES IDX 11 12 90 13 8 14 7 15 4 16 5 17 92 18 6 19 2 21 1 22 3 23
REMARK SMILES IDX 20 25 21 26 22 27 23 28 24 29 25 30 26 31 27 32 28 33 89 34
REMARK SMILES IDX 29 35 88 36 30 37 31 38 32 39 82 40 33 41 87 42 81 43 83 44
REMARK SMILES IDX 34 45 86 46 80 47 79 48 35 50 67 51 47 52 66 53 48 54 51 55
REMARK SMILES IDX 65 56 84 57 49 58 50 59 64 61 85 62 52 63 36 64 37 65 45 66
REMARK SMILES IDX 38 67 40 68 46 69 39 70 41 71 42 72 43 73 44 74 68 75 69 76
REMARK SMILES IDX 77 77 70 78 72 79 78 80 71 81 73 82 74 83 75 84 76 85 53 86
REMARK SMILES IDX 54 87 62 88 55 89 57 90 63 91 56 92 58 93 59 94 60 95 61 96
REMARK H PARENT 7 20 2 24 83 49 51 60
REMARK Flexibility Score: inf
ROOT
ATOM      1  C   UNL A   1      31.461  30.063  25.486  1.00  0.00     0.188 C 
ENDROOT
BRANCH   1   2
ATOM      2  O   UNL A   1      31.003  30.234  24.158  1.00  0.00    -0.376 OA
BRANCH   2   3
ATOM      3  C   UNL A   1      29.619  30.141  23.847  1.00  0.00     0.202 C 
BRANCH   3   4
ATOM      4  C   UNL A   1      29.137  29.450  22.574  1.00  0.00     0.261 C 
BRANCH   4   5
ATOM      5  O   UNL A   1      30.065  28.466  22.101  1.00  0.00    -0.460 OA
BRANCH   5   6
ATOM      6  C   UNL A   1      30.127  27.352  22.865  1.00  0.00     0.339 C 
ATOM      7  O   UNL A   1      29.218  26.848  23.504  1.00  0.00    -0.246 OA
BRANCH   6   8
ATOM      8  C   UNL A   1      31.437  26.712  22.725  1.00  0.00     0.078 A 
ATOM      9  C   UNL A   1      33.684  25.163  22.666  1.00  0.00     0.095 A 
ATOM     10  C   UNL A   1      33.763  26.431  23.243  1.00  0.00     0.031 A 
ATOM     11  N   UNL A   1      32.594  24.746  21.972  1.00  0.00    -0.254 NA
ATOM     12  C   UNL A   1      32.609  27.212  23.292  1.00  0.00     0.019 A 
ATOM     13  C   UNL A   1      31.492  25.522  22.020  1.00  0.00     0.127 A 
BRANCH   9  14
ATOM     14  C   UNL A   1      34.691  24.089  23.039  1.00  0.00     0.319 C 
BRANCH  14  15
ATOM     15  N   UNL A   1      34.876  23.830  24.489  1.00  0.00    -0.325 N 
ATOM     16  C   UNL A   1      34.642  21.481  25.087  1.00  0.00     0.245 C 
ATOM     17  C   UNL A   1      36.134  21.807  24.939  1.00  0.00     0.132 C 
ATOM     18  C   UNL A   1      33.948  22.862  25.090  1.00  0.00     0.328 C 
ATOM     19  C   UNL A   1      36.213  23.330  24.841  1.00  0.00     0.269 C 
ATOM     20  H   UNL A   1      34.702  24.763  24.861  1.00  0.00     0.348 HD
BRANCH  16  21
ATOM     21  N   UNL A   1      34.202  20.600  26.187  1.00  0.00    -0.333 N 
ATOM     22  C   UNL A   1      33.842  21.374  27.377  1.00  0.00     0.332 C 
ATOM     23  C   UNL A   1      33.109  19.701  25.822  1.00  0.00     0.332 C 
ATOM     24  H   UNL A   1      35.007  20.010  26.399  1.00  0.00     0.348 HD
ENDBRANCH  16  21
ENDBRANCH  14  15
ENDBRANCH   9  14
ENDBRANCH   6   8
ENDBRANCH   5   6
ENDBRANCH   4   5
ENDBRANCH   3   4
ENDBRANCH   2   3
ENDBRANCH   1   2
BRANCH   1  25
ATOM     25  C   UNL A   1      32.925  29.656  25.756  1.00  0.00     0.188 C 
BRANCH  25  26
ATOM     26  O   UNL A   1      33.468  29.681  27.060  1.00  0.00    -0.376 OA
BRANCH  26  27
ATOM     27  C   UNL A   1      34.088  30.870  27.525  1.00  0.00     0.202 C 
BRANCH  27  28
ATOM     28  C   UNL A   1      33.272  32.095  27.955  1.00  0.00     0.261 C 
BRANCH  28  29
ATOM     29  O   UNL A   1      34.008  33.319  28.052  1.00  0.00    -0.460 OA
BRANCH  29  30
ATOM     30  C   UNL A   1      33.791  34.023  29.192  1.00  0.00     0.338 C 
ATOM     31  O   UNL A   1      32.822  34.714  29.458  1.00  0.00    -0.246 OA
BRANCH  30  32
ATOM     32  C   UNL A   1      34.826  33.683  30.185  1.00  0.00     0.060 A 
ATOM     33  C   UNL A   1      36.042  34.380  30.145  1.00  0.00     0.016 A 
ATOM     34  C   UNL A   1      34.626  32.650  31.100  1.00  0.00     0.016 A 
ATOM     35  C   UNL A   1      37.082  34.018  30.998  1.00  0.00     0.010 A 
ATOM     36  C   UNL A   1      35.678  32.272  31.937  1.00  0.00     0.010 A 
ATOM     37  C   UNL A   1      36.920  32.930  31.862  1.00  0.00    -0.014 A 
BRANCH  37  38
ATOM     38  C   UNL A   1      38.098  32.340  32.541  1.00  0.00     0.031 A 
ATOM     39  C   UNL A   1      38.420  32.806  33.935  1.00  0.00     0.074 A 
ATOM     40  C   UNL A   1      38.884  31.441  31.924  1.00  0.00     0.049 A 
ATOM     41  N   UNL A   1      39.443  32.509  34.692  1.00  0.00    -0.248 NA
ATOM     42  C   UNL A   1      37.462  33.740  34.553  1.00  0.00     0.031 C 
ATOM     43  C   UNL A   1      38.665  30.904  30.583  1.00  0.00     0.029 A 
ATOM     44  N   UNL A   1      40.048  30.848  32.341  1.00  0.00    -0.354 N 
ATOM     45  C   UNL A   1      39.270  33.241  35.860  1.00  0.00     0.074 A 
ATOM     46  C   UNL A   1      38.049  34.001  35.711  1.00  0.00     0.031 C 
ATOM     47  C   UNL A   1      39.687  30.089  30.270  1.00  0.00     0.029 A 
ATOM     48  C   UNL A   1      40.641  30.066  31.378  1.00  0.00     0.049 A 
ATOM     49  H   UNL A   1      40.423  30.970  33.244  1.00  0.00     0.167 HD
ATOM     50  C   UNL A   1      40.052  33.270  36.964  1.00  0.00     0.034 A 
ATOM     51  C   UNL A   1      41.830  29.431  31.384  1.00  0.00     0.034 A 
ATOM     52  C   UNL A   1      41.258  32.503  37.117  1.00  0.00     0.049 A 
ATOM     53  C   UNL A   1      42.697  29.500  32.617  1.00  0.00     0.074 A 
ATOM     54  C   UNL A   1      42.102  32.437  38.211  1.00  0.00     0.029 A 
ATOM     55  N   UNL A   1      41.796  31.678  36.143  1.00  0.00    -0.354 N 
ATOM     56  N   UNL A   1      42.467  30.107  33.757  1.00  0.00    -0.248 NA
ATOM     57  C   UNL A   1      43.974  28.772  32.576  1.00  0.00     0.031 C 
ATOM     58  C   UNL A   1      43.164  31.585  37.889  1.00  0.00     0.029 A 
ATOM     59  C   UNL A   1      42.965  31.102  36.605  1.00  0.00     0.049 A 
ATOM     60  H   UNL A   1      41.404  31.525  35.253  1.00  0.00     0.167 HD
ATOM     61  C   UNL A   1      43.546  29.796  34.581  1.00  0.00     0.074 A 
ATOM     62  C   UNL A   1      44.424  28.939  33.812  1.00  0.00     0.031 C 
ATOM     63  C   UNL A   1      43.792  30.194  35.853  1.00  0.00     0.034 A 
BRANCH  50  64
ATOM     64  C   UNL A   1      39.611  34.146  38.106  1.00  0.00     0.023 A 
ATOM     65  C   UNL A   1      39.885  35.529  38.067  1.00  0.00     0.012 A 
ATOM     66  C   UNL A   1      38.891  33.612  39.190  1.00  0.00     0.148 A 
ATOM     67  C   UNL A   1      39.474  36.362  39.107  1.00  0.00     0.002 A 
ATOM     68  C   UNL A   1      38.448  34.455  40.203  1.00  0.00     0.091 A 
ATOM     69  F   UNL A   1      38.666  32.291  39.221  1.00  0.00    -0.205 F 
ATOM     70  C   UNL A   1      38.748  35.827  40.168  1.00  0.00     0.022 A 
BRANCH  68  71
ATOM     71  S   UNL A   1      37.443  33.874  41.573  1.00  0.00     0.127 S 
ATOM     72  O   UNL A   1      37.077  35.132  42.225  1.00  0.00    -0.237 OA
ATOM     73  O   UNL A   1      36.340  33.203  40.883  1.00  0.00    -0.237 OA
ATOM     74  O   UNL A   1      38.298  32.991  42.351  1.00  0.00    -0.744 OA
ENDBRANCH  68  71
ENDBRANCH  50  64
BRANCH  51  75
ATOM     75  C   UNL A   1      42.261  28.640  30.197  1.00  0.00     0.023 A 
ATOM     76  C   UNL A   1      41.930  27.273  30.119  1.00  0.00     0.012 A 
ATOM     77  C   UNL A   1      42.986  29.232  29.145  1.00  0.00     0.148 A 
ATOM     78  C   UNL A   1      42.342  26.502  29.032  1.00  0.00     0.002 A 
ATOM     79  C   UNL A   1      43.348  28.470  28.039  1.00  0.00     0.091 A 
ATOM     80  F   UNL A   1      43.307  30.529  29.245  1.00  0.00    -0.205 F 
ATOM     81  C   UNL A   1      43.042  27.102  27.988  1.00  0.00     0.022 A 
BRANCH  79  82
ATOM     82  S   UNL A   1      44.147  29.183  26.597  1.00  0.00     0.127 S 
ATOM     83  O   UNL A   1      44.207  28.039  25.691  1.00  0.00    -0.237 OA
ATOM     84  O   UNL A   1      43.197  30.226  26.209  1.00  0.00    -0.237 OA
ATOM     85  O   UNL A   1      45.431  29.686  27.067  1.00  0.00    -0.744 OA
ENDBRANCH  79  82
ENDBRANCH  51  75
BRANCH  63  86
ATOM     86  C   UNL A   1      45.032  29.671  36.531  1.00  0.00     0.023 A 
ATOM     87  C   UNL A   1      46.237  30.396  36.450  1.00  0.00     0.012 A 
ATOM     88  C   UNL A   1      44.974  28.512  37.332  1.00  0.00     0.148 A 
ATOM     89  C   UNL A   1      47.372  29.962  37.136  1.00  0.00     0.002 A 
ATOM     90  C   UNL A   1      46.095  28.112  38.049  1.00  0.00     0.091 A 
ATOM     91  F   UNL A   1      43.823  27.827  37.382  1.00  0.00    -0.205 F 
ATOM     92  C   UNL A   1      47.297  28.830  37.944  1.00  0.00     0.022 A 
BRANCH  90  93
ATOM     93  S   UNL A   1      46.063  26.727  39.193  1.00  0.00     0.127 S 
ATOM     94  O   UNL A   1      47.376  26.834  39.828  1.00  0.00    -0.237 OA
ATOM     95  O   UNL A   1      44.936  27.066  40.063  1.00  0.00    -0.237 OA
ATOM     96  O   UNL A   1      45.857  25.538  38.378  1.00  0.00    -0.744 OA
ENDBRANCH  90  93
ENDBRANCH  63  86
ENDBRANCH  37  38
ENDBRANCH  30  32
ENDBRANCH  29  30
ENDBRANCH  28  29
ENDBRANCH  27  28
ENDBRANCH  26  27
ENDBRANCH  25  26
ENDBRANCH   1  25
TORSDOF 23
ENDMDL
