MODEL 1
REMARK VINA RESULT:      -8.6      0.000      0.000
REMARK SMILES O=C(C[C@H]1CN(S(=O)(=O)c2cc(F)cc(F)c2)CCO1)OCCOCCOCCOC(=O)c1ccc(-c2c3nc(c(-c4cccc(S(=O)(=O)[O-])c4F)c4ccc([nH]4)c(-c4cccc(S(=O)(=O)[O-])c4F)c4nc(c(-c5cccc(S(=O)(=O)[O-])c5F)c5ccc2[nH]5)C=C4)C=C3)cc1
REMARK SMILES IDX 25 1 24 2 23 3 22 4 21 5 2 6 1 7 3 8 4 9 5 10 20 11 6 12
REMARK SMILES IDX 19 13 18 14 7 15 8 16 9 17 10 18 11 19 17 20 12 21 15 22
REMARK SMILES IDX 13 23 14 24 16 25 26 26 27 27 28 28 29 29 30 30 31 31 32 32
REMARK SMILES IDX 33 33 34 34 95 35 35 36 94 37 36 38 37 39 38 40 88 41 39 42
REMARK SMILES IDX 93 43 87 44 89 45 40 46 92 47 86 48 85 49 41 51 73 52 53 53
REMARK SMILES IDX 72 54 54 55 57 56 71 57 90 58 55 59 56 60 70 62 91 63 58 64
REMARK SMILES IDX 42 65 43 66 51 67 44 68 46 69 52 70 45 71 47 72 48 73 49 74
REMARK SMILES IDX 50 75 74 76 75 77 83 78 76 79 78 80 84 81 77 82 79 83 80 84
REMARK SMILES IDX 81 85 82 86 59 87 60 88 68 89 61 90 63 91 69 92 62 93 64 94
REMARK SMILES IDX 65 95 66 96 67 97
REMARK H PARENT 89 50 57 61
REMARK Flexibility Score: inf
ROOT
ATOM      1  C   UNL A   1      40.439  20.418  26.820  1.00  0.00     0.188 C 
ENDROOT
BRANCH   1   2
ATOM      2  O   UNL A   1      41.648  20.092  26.151  1.00  0.00    -0.376 OA
BRANCH   2   3
ATOM      3  C   UNL A   1      41.900  18.725  25.881  1.00  0.00     0.202 C 
BRANCH   3   4
ATOM      4  C   UNL A   1      43.317  18.270  26.173  1.00  0.00     0.261 C 
BRANCH   4   5
ATOM      5  O   UNL A   1      44.336  18.525  25.169  1.00  0.00    -0.463 OA
BRANCH   5   6
ATOM      6  C   UNL A   1      45.590  19.007  25.255  1.00  0.00     0.308 C 
ATOM      7  O   UNL A   1      46.525  18.267  24.949  1.00  0.00    -0.252 OA
BRANCH   6   8
ATOM      8  C   UNL A   1      45.861  20.454  25.615  1.00  0.00     0.156 C 
BRANCH   8   9
ATOM      9  C   UNL A   1      44.770  21.517  25.359  1.00  0.00     0.144 C 
ATOM     10  C   UNL A   1      44.696  22.722  26.308  1.00  0.00     0.135 C 
ATOM     11  O   UNL A   1      44.831  22.040  24.015  1.00  0.00    -0.375 OA
ATOM     12  N   UNL A   1      46.037  23.338  26.295  1.00  0.00    -0.193 NA
ATOM     13  C   UNL A   1      45.972  22.868  23.797  1.00  0.00     0.177 C 
ATOM     14  C   UNL A   1      46.264  23.906  24.910  1.00  0.00     0.131 C 
BRANCH  12  15
ATOM     15  S   UNL A   1      46.532  24.358  27.553  1.00  0.00     0.243 S 
ATOM     16  O   UNL A   1      45.691  24.026  28.688  1.00  0.00    -0.207 OA
ATOM     17  O   UNL A   1      47.971  24.230  27.656  1.00  0.00    -0.207 OA
BRANCH  15  18
ATOM     18  C   UNL A   1      46.206  26.080  27.193  1.00  0.00     0.088 A 
ATOM     19  C   UNL A   1      44.944  26.669  27.179  1.00  0.00     0.061 A 
ATOM     20  C   UNL A   1      47.310  26.858  26.813  1.00  0.00     0.061 A 
ATOM     21  C   UNL A   1      44.782  27.976  26.720  1.00  0.00     0.127 A 
ATOM     22  C   UNL A   1      47.124  28.168  26.374  1.00  0.00     0.127 A 
ATOM     23  F   UNL A   1      43.549  28.498  26.666  1.00  0.00    -0.207 F 
ATOM     24  C   UNL A   1      45.860  28.732  26.302  1.00  0.00     0.078 A 
ATOM     25  F   UNL A   1      48.184  28.889  25.985  1.00  0.00    -0.207 F 
ENDBRANCH  15  18
ENDBRANCH  12  15
ENDBRANCH   8   9
ENDBRANCH   6   8
ENDBRANCH   5   6
ENDBRANCH   4   5
ENDBRANCH   3   4
ENDBRANCH   2   3
ENDBRANCH   1   2
BRANCH   1  26
ATOM     26  C   UNL A   1      39.552  21.453  26.091  1.00  0.00     0.188 C 
BRANCH  26  27
ATOM     27  O   UNL A   1      39.869  22.846  26.104  1.00  0.00    -0.376 OA
BRANCH  27  28
ATOM     28  C   UNL A   1      40.236  23.482  27.315  1.00  0.00     0.202 C 
BRANCH  28  29
ATOM     29  C   UNL A   1      39.297  24.596  27.794  1.00  0.00     0.261 C 
BRANCH  29  30
ATOM     30  O   UNL A   1      39.426  25.832  27.073  1.00  0.00    -0.460 OA
BRANCH  30  31
ATOM     31  C   UNL A   1      40.678  26.354  27.012  1.00  0.00     0.338 C 
ATOM     32  O   UNL A   1      41.570  26.019  26.250  1.00  0.00    -0.246 OA
BRANCH  31  33
ATOM     33  C   UNL A   1      40.772  27.543  27.902  1.00  0.00     0.060 A 
ATOM     34  C   UNL A   1      40.083  28.708  27.530  1.00  0.00     0.016 A 
ATOM     35  C   UNL A   1      41.500  27.522  29.096  1.00  0.00     0.016 A 
ATOM     36  C   UNL A   1      40.144  29.857  28.325  1.00  0.00     0.010 A 
ATOM     37  C   UNL A   1      41.581  28.681  29.879  1.00  0.00     0.010 A 
ATOM     38  C   UNL A   1      40.930  29.864  29.484  1.00  0.00    -0.014 A 
BRANCH  38  39
ATOM     39  C   UNL A   1      41.241  31.143  30.175  1.00  0.00     0.031 A 
ATOM     40  C   UNL A   1      42.560  31.807  29.879  1.00  0.00     0.074 A 
ATOM     41  C   UNL A   1      40.405  31.695  31.075  1.00  0.00     0.049 A 
ATOM     42  N   UNL A   1      43.101  32.861  30.433  1.00  0.00    -0.248 NA
ATOM     43  C   UNL A   1      43.381  31.196  28.820  1.00  0.00     0.031 C 
ATOM     44  C   UNL A   1      39.091  31.175  31.443  1.00  0.00     0.029 A 
ATOM     45  N   UNL A   1      40.566  32.802  31.876  1.00  0.00    -0.354 N 
ATOM     46  C   UNL A   1      44.338  33.017  29.820  1.00  0.00     0.074 A 
ATOM     47  C   UNL A   1      44.467  31.956  28.847  1.00  0.00     0.031 C 
ATOM     48  C   UNL A   1      38.587  31.932  32.436  1.00  0.00     0.029 A 
ATOM     49  C   UNL A   1      39.554  32.971  32.793  1.00  0.00     0.049 A 
ATOM     50  H   UNL A   1      41.333  33.414  31.800  1.00  0.00     0.167 HD
ATOM     51  C   UNL A   1      45.282  33.961  30.040  1.00  0.00     0.034 A 
ATOM     52  C   UNL A   1      39.440  33.835  33.823  1.00  0.00     0.034 A 
ATOM     53  C   UNL A   1      45.152  35.038  30.982  1.00  0.00     0.049 A 
ATOM     54  C   UNL A   1      40.531  34.850  34.075  1.00  0.00     0.074 A 
ATOM     55  C   UNL A   1      46.029  36.084  31.212  1.00  0.00     0.029 A 
ATOM     56  N   UNL A   1      44.097  35.198  31.863  1.00  0.00    -0.354 N 
ATOM     57  N   UNL A   1      41.626  35.077  33.390  1.00  0.00    -0.248 NA
ATOM     58  C   UNL A   1      40.361  35.742  35.235  1.00  0.00     0.031 C 
ATOM     59  C   UNL A   1      45.520  36.857  32.259  1.00  0.00     0.029 A 
ATOM     60  C   UNL A   1      44.314  36.307  32.662  1.00  0.00     0.049 A 
ATOM     61  H   UNL A   1      43.308  34.611  31.913  1.00  0.00     0.167 HD
ATOM     62  C   UNL A   1      42.255  36.150  34.018  1.00  0.00     0.074 A 
ATOM     63  C   UNL A   1      41.408  36.549  35.119  1.00  0.00     0.031 C 
ATOM     64  C   UNL A   1      43.442  36.737  33.721  1.00  0.00     0.034 A 
BRANCH  51  65
ATOM     65  C   UNL A   1      46.549  33.891  29.236  1.00  0.00     0.023 A 
ATOM     66  C   UNL A   1      47.623  33.106  29.695  1.00  0.00     0.012 A 
ATOM     67  C   UNL A   1      46.632  34.523  27.980  1.00  0.00     0.148 A 
ATOM     68  C   UNL A   1      48.772  32.960  28.918  1.00  0.00     0.002 A 
ATOM     69  C   UNL A   1      47.763  34.340  27.196  1.00  0.00     0.091 A 
ATOM     70  F   UNL A   1      45.603  35.283  27.578  1.00  0.00    -0.205 F 
ATOM     71  C   UNL A   1      48.836  33.565  27.665  1.00  0.00     0.022 A 
BRANCH  69  72
ATOM     72  S   UNL A   1      47.912  35.014  25.537  1.00  0.00     0.127 S 
ATOM     73  O   UNL A   1      47.922  36.452  25.804  1.00  0.00    -0.237 OA
ATOM     74  O   UNL A   1      49.195  34.465  25.099  1.00  0.00    -0.237 OA
ATOM     75  O   UNL A   1      46.755  34.529  24.797  1.00  0.00    -0.744 OA
ENDBRANCH  69  72
ENDBRANCH  51  65
BRANCH  52  76
ATOM     76  C   UNL A   1      38.251  33.784  34.725  1.00  0.00     0.023 A 
ATOM     77  C   UNL A   1      37.005  34.254  34.266  1.00  0.00     0.012 A 
ATOM     78  C   UNL A   1      38.357  33.306  36.045  1.00  0.00     0.148 A 
ATOM     79  C   UNL A   1      35.899  34.288  35.117  1.00  0.00     0.002 A 
ATOM     80  C   UNL A   1      37.236  33.283  36.867  1.00  0.00     0.091 A 
ATOM     81  F   UNL A   1      39.556  32.890  36.478  1.00  0.00    -0.205 F 
ATOM     82  C   UNL A   1      36.011  33.794  36.413  1.00  0.00     0.022 A 
BRANCH  80  83
ATOM     83  S   UNL A   1      37.266  32.530  38.498  1.00  0.00     0.127 S 
ATOM     84  O   UNL A   1      38.142  33.437  39.233  1.00  0.00    -0.237 OA
ATOM     85  O   UNL A   1      35.855  32.584  38.883  1.00  0.00    -0.237 OA
ATOM     86  O   UNL A   1      37.772  31.179  38.290  1.00  0.00    -0.744 OA
ENDBRANCH  80  83
ENDBRANCH  52  76
BRANCH  64  87
ATOM     87  C   UNL A   1      43.900  37.889  34.580  1.00  0.00     0.023 A 
ATOM     88  C   UNL A   1      44.687  37.636  35.720  1.00  0.00     0.012 A 
ATOM     89  C   UNL A   1      43.633  39.222  34.206  1.00  0.00     0.148 A 
ATOM     90  C   UNL A   1      45.180  38.688  36.491  1.00  0.00     0.002 A 
ATOM     91  C   UNL A   1      44.166  40.267  34.953  1.00  0.00     0.091 A 
ATOM     92  F   UNL A   1      42.872  39.443  33.125  1.00  0.00    -0.205 F 
ATOM     93  C   UNL A   1      44.930  40.002  36.101  1.00  0.00     0.022 A 
BRANCH  91  94
ATOM     94  S   UNL A   1      43.978  41.990  34.479  1.00  0.00     0.127 S 
ATOM     95  O   UNL A   1      42.545  42.067  34.200  1.00  0.00    -0.237 OA
ATOM     96  O   UNL A   1      44.402  42.693  35.689  1.00  0.00    -0.237 OA
ATOM     97  O   UNL A   1      44.847  42.188  33.327  1.00  0.00    -0.744 OA
ENDBRANCH  91  94
ENDBRANCH  64  87
ENDBRANCH  38  39
ENDBRANCH  31  33
ENDBRANCH  30  31
ENDBRANCH  29  30
ENDBRANCH  28  29
ENDBRANCH  27  28
ENDBRANCH  26  27
ENDBRANCH   1  26
TORSDOF 23
ENDMDL
MODEL 2
REMARK VINA RESULT:      -8.4      6.036      9.975
REMARK SMILES O=C(C[C@H]1CN(S(=O)(=O)c2cc(F)cc(F)c2)CCO1)OCCOCCOCCOC(=O)c1ccc(-c2c3nc(c(-c4cccc(S(=O)(=O)[O-])c4F)c4ccc([nH]4)c(-c4cccc(S(=O)(=O)[O-])c4F)c4nc(c(-c5cccc(S(=O)(=O)[O-])c5F)c5ccc2[nH]5)C=C4)C=C3)cc1
REMARK SMILES IDX 25 1 24 2 23 3 22 4 21 5 2 6 1 7 3 8 4 9 5 10 20 11 6 12
REMARK SMILES IDX 19 13 18 14 7 15 8 16 9 17 10 18 11 19 17 20 12 21 15 22
REMARK SMILES IDX 13 23 14 24 16 25 26 26 27 27 28 28 29 29 30 30 31 31 32 32
REMARK SMILES IDX 33 33 34 34 95 35 35 36 94 37 36 38 37 39 38 40 88 41 39 42
REMARK SMILES IDX 93 43 87 44 89 45 40 46 92 47 86 48 85 49 41 51 73 52 53 53
REMARK SMILES IDX 72 54 54 55 57 56 71 57 90 58 55 59 56 60 70 62 91 63 58 64
REMARK SMILES IDX 42 65 43 66 51 67 44 68 46 69 52 70 45 71 47 72 48 73 49 74
REMARK SMILES IDX 50 75 74 76 75 77 83 78 76 79 78 80 84 81 77 82 79 83 80 84
REMARK SMILES IDX 81 85 82 86 59 87 60 88 68 89 61 90 63 91 69 92 62 93 64 94
REMARK SMILES IDX 65 95 66 96 67 97
REMARK H PARENT 89 50 57 61
REMARK Flexibility Score: inf
ROOT
ATOM      1  C   UNL A   1      34.211  26.671  22.912  1.00  0.00     0.188 C 
ENDROOT
BRANCH   1   2
ATOM      2  O   UNL A   1      33.832  26.427  24.258  1.00  0.00    -0.376 OA
BRANCH   2   3
ATOM      3  C   UNL A   1      34.546  25.435  24.971  1.00  0.00     0.202 C 
BRANCH   3   4
ATOM      4  C   UNL A   1      33.762  24.763  26.082  1.00  0.00     0.261 C 
BRANCH   4   5
ATOM      5  O   UNL A   1      34.446  23.773  26.897  1.00  0.00    -0.463 OA
BRANCH   5   6
ATOM      6  C   UNL A   1      34.040  22.609  27.438  1.00  0.00     0.308 C 
ATOM      7  O   UNL A   1      34.527  22.260  28.513  1.00  0.00    -0.252 OA
BRANCH   6   8
ATOM      8  C   UNL A   1      32.934  21.785  26.810  1.00  0.00     0.156 C 
BRANCH   8   9
ATOM      9  C   UNL A   1      33.297  20.662  25.814  1.00  0.00     0.144 C 
ATOM     10  C   UNL A   1      32.783  20.778  24.371  1.00  0.00     0.135 C 
ATOM     11  O   UNL A   1      34.722  20.446  25.740  1.00  0.00    -0.375 OA
ATOM     12  N   UNL A   1      33.251  22.086  23.874  1.00  0.00    -0.193 NA
ATOM     13  C   UNL A   1      35.408  21.516  25.092  1.00  0.00     0.177 C 
ATOM     14  C   UNL A   1      34.760  22.025  23.780  1.00  0.00     0.131 C 
BRANCH  12  15
ATOM     15  S   UNL A   1      32.502  22.824  22.546  1.00  0.00     0.243 S 
ATOM     16  O   UNL A   1      33.574  23.400  21.755  1.00  0.00    -0.207 OA
ATOM     17  O   UNL A   1      31.618  21.838  21.959  1.00  0.00    -0.207 OA
BRANCH  15  18
ATOM     18  C   UNL A   1      31.466  24.199  23.034  1.00  0.00     0.088 A 
ATOM     19  C   UNL A   1      31.234  25.338  22.266  1.00  0.00     0.061 A 
ATOM     20  C   UNL A   1      30.926  24.145  24.327  1.00  0.00     0.061 A 
ATOM     21  C   UNL A   1      30.550  26.426  22.808  1.00  0.00     0.127 A 
ATOM     22  C   UNL A   1      30.231  25.240  24.842  1.00  0.00     0.127 A 
ATOM     23  F   UNL A   1      30.390  27.529  22.066  1.00  0.00    -0.207 F 
ATOM     24  C   UNL A   1      30.055  26.396  24.098  1.00  0.00     0.078 A 
ATOM     25  F   UNL A   1      29.748  25.185  26.089  1.00  0.00    -0.207 F 
ENDBRANCH  15  18
ENDBRANCH  12  15
ENDBRANCH   8   9
ENDBRANCH   6   8
ENDBRANCH   5   6
ENDBRANCH   4   5
ENDBRANCH   3   4
ENDBRANCH   2   3
ENDBRANCH   1   2
BRANCH   1  26
ATOM     26  C   UNL A   1      33.963  28.114  22.418  1.00  0.00     0.188 C 
BRANCH  26  27
ATOM     27  O   UNL A   1      32.980  28.952  23.029  1.00  0.00    -0.376 OA
BRANCH  27  28
ATOM     28  C   UNL A   1      33.111  29.332  24.387  1.00  0.00     0.202 C 
BRANCH  28  29
ATOM     29  C   UNL A   1      31.799  29.587  25.139  1.00  0.00     0.261 C 
BRANCH  29  30
ATOM     30  O   UNL A   1      31.963  29.878  26.536  1.00  0.00    -0.460 OA
BRANCH  30  31
ATOM     31  C   UNL A   1      32.464  31.105  26.831  1.00  0.00     0.338 C 
ATOM     32  O   UNL A   1      31.967  32.182  26.543  1.00  0.00    -0.246 OA
BRANCH  31  33
ATOM     33  C   UNL A   1      33.642  30.967  27.729  1.00  0.00     0.060 A 
ATOM     34  C   UNL A   1      34.165  32.126  28.322  1.00  0.00     0.016 A 
ATOM     35  C   UNL A   1      34.218  29.724  28.012  1.00  0.00     0.016 A 
ATOM     36  C   UNL A   1      35.277  32.054  29.167  1.00  0.00     0.010 A 
ATOM     37  C   UNL A   1      35.347  29.657  28.839  1.00  0.00     0.010 A 
ATOM     38  C   UNL A   1      35.902  30.823  29.398  1.00  0.00    -0.014 A 
BRANCH  38  39
ATOM     39  C   UNL A   1      37.239  30.766  30.045  1.00  0.00     0.031 A 
ATOM     40  C   UNL A   1      38.346  30.039  29.327  1.00  0.00     0.074 A 
ATOM     41  C   UNL A   1      37.473  31.304  31.257  1.00  0.00     0.049 A 
ATOM     42  N   UNL A   1      39.557  29.762  29.734  1.00  0.00    -0.248 NA
ATOM     43  C   UNL A   1      38.041  29.555  27.969  1.00  0.00     0.031 C 
ATOM     44  C   UNL A   1      36.505  32.052  32.055  1.00  0.00     0.029 A 
ATOM     45  N   UNL A   1      38.601  31.262  32.045  1.00  0.00    -0.354 N 
ATOM     46  C   UNL A   1      40.147  29.040  28.703  1.00  0.00     0.074 A 
ATOM     47  C   UNL A   1      39.164  28.927  27.647  1.00  0.00     0.031 C 
ATOM     48  C   UNL A   1      37.063  32.354  33.243  1.00  0.00     0.029 A 
ATOM     49  C   UNL A   1      38.415  31.797  33.300  1.00  0.00     0.049 A 
ATOM     50  H   UNL A   1      39.457  30.887  31.740  1.00  0.00     0.167 HD
ATOM     51  C   UNL A   1      41.394  28.522  28.634  1.00  0.00     0.034 A 
ATOM     52  C   UNL A   1      39.225  31.799  34.380  1.00  0.00     0.034 A 
ATOM     53  C   UNL A   1      42.389  28.654  29.662  1.00  0.00     0.049 A 
ATOM     54  C   UNL A   1      40.597  31.172  34.289  1.00  0.00     0.074 A 
ATOM     55  C   UNL A   1      43.704  28.226  29.641  1.00  0.00     0.029 A 
ATOM     56  N   UNL A   1      42.176  29.235  30.901  1.00  0.00    -0.354 N 
ATOM     57  N   UNL A   1      41.192  30.624  33.257  1.00  0.00    -0.248 NA
ATOM     58  C   UNL A   1      41.419  31.179  35.512  1.00  0.00     0.031 C 
ATOM     59  C   UNL A   1      44.278  28.516  30.882  1.00  0.00     0.029 A 
ATOM     60  C   UNL A   1      43.327  29.148  31.665  1.00  0.00     0.049 A 
ATOM     61  H   UNL A   1      41.332  29.649  31.194  1.00  0.00     0.167 HD
ATOM     62  C   UNL A   1      42.460  30.251  33.698  1.00  0.00     0.074 A 
ATOM     63  C   UNL A   1      42.561  30.660  35.081  1.00  0.00     0.031 C 
ATOM     64  C   UNL A   1      43.444  29.607  33.023  1.00  0.00     0.034 A 
BRANCH  51  65
ATOM     65  C   UNL A   1      41.776  27.768  27.392  1.00  0.00     0.023 A 
ATOM     66  C   UNL A   1      42.195  28.475  26.249  1.00  0.00     0.012 A 
ATOM     67  C   UNL A   1      41.813  26.361  27.395  1.00  0.00     0.148 A 
ATOM     68  C   UNL A   1      42.636  27.789  25.118  1.00  0.00     0.002 A 
ATOM     69  C   UNL A   1      42.290  25.686  26.279  1.00  0.00     0.091 A 
ATOM     70  F   UNL A   1      41.386  25.712  28.489  1.00  0.00    -0.205 F 
ATOM     71  C   UNL A   1      42.696  26.398  25.138  1.00  0.00     0.022 A 
BRANCH  69  72
ATOM     72  S   UNL A   1      42.477  23.900  26.232  1.00  0.00     0.127 S 
ATOM     73  O   UNL A   1      41.095  23.454  26.401  1.00  0.00    -0.237 OA
ATOM     74  O   UNL A   1      43.029  23.687  24.894  1.00  0.00    -0.237 OA
ATOM     75  O   UNL A   1      43.377  23.558  27.325  1.00  0.00    -0.744 OA
ENDBRANCH  69  72
ENDBRANCH  51  65
BRANCH  52  76
ATOM     76  C   UNL A   1      38.768  32.404  35.666  1.00  0.00     0.023 A 
ATOM     77  C   UNL A   1      38.966  33.778  35.903  1.00  0.00     0.012 A 
ATOM     78  C   UNL A   1      38.171  31.616  36.669  1.00  0.00     0.148 A 
ATOM     79  C   UNL A   1      38.618  34.347  37.128  1.00  0.00     0.002 A 
ATOM     80  C   UNL A   1      37.767  32.203  37.863  1.00  0.00     0.091 A 
ATOM     81  F   UNL A   1      38.016  30.304  36.443  1.00  0.00    -0.205 F 
ATOM     82  C   UNL A   1      38.010  33.563  38.105  1.00  0.00     0.022 A 
BRANCH  80  83
ATOM     83  S   UNL A   1      36.848  31.292  39.109  1.00  0.00     0.127 S 
ATOM     84  O   UNL A   1      37.841  31.146  40.170  1.00  0.00    -0.237 OA
ATOM     85  O   UNL A   1      35.751  32.213  39.411  1.00  0.00    -0.237 OA
ATOM     86  O   UNL A   1      36.425  30.061  38.454  1.00  0.00    -0.744 OA
ENDBRANCH  80  83
ENDBRANCH  52  76
BRANCH  64  87
ATOM     87  C   UNL A   1      44.731  29.311  33.751  1.00  0.00     0.023 A 
ATOM     88  C   UNL A   1      45.754  30.280  33.774  1.00  0.00     0.012 A 
ATOM     89  C   UNL A   1      44.890  28.121  34.489  1.00  0.00     0.148 A 
ATOM     90  C   UNL A   1      46.926  30.058  34.497  1.00  0.00     0.002 A 
ATOM     91  C   UNL A   1      46.041  27.926  35.245  1.00  0.00     0.091 A 
ATOM     92  F   UNL A   1      43.911  27.206  34.445  1.00  0.00    -0.205 F 
ATOM     93  C   UNL A   1      47.064  28.889  35.242  1.00  0.00     0.022 A 
BRANCH  91  94
ATOM     94  S   UNL A   1      46.270  26.496  36.309  1.00  0.00     0.127 S 
ATOM     95  O   UNL A   1      45.088  26.570  37.166  1.00  0.00    -0.237 OA
ATOM     96  O   UNL A   1      46.260  25.392  35.350  1.00  0.00    -0.237 OA
ATOM     97  O   UNL A   1      47.544  26.699  36.986  1.00  0.00    -0.744 OA
ENDBRANCH  91  94
ENDBRANCH  64  87
ENDBRANCH  38  39
ENDBRANCH  31  33
ENDBRANCH  30  31
ENDBRANCH  29  30
ENDBRANCH  28  29
ENDBRANCH  27  28
ENDBRANCH  26  27
ENDBRANCH   1  26
TORSDOF 23
ENDMDL
MODEL 3
REMARK VINA RESULT:      -8.4      4.239      9.441
REMARK SMILES O=C(C[C@H]1CN(S(=O)(=O)c2cc(F)cc(F)c2)CCO1)OCCOCCOCCOC(=O)c1ccc(-c2c3nc(c(-c4cccc(S(=O)(=O)[O-])c4F)c4ccc([nH]4)c(-c4cccc(S(=O)(=O)[O-])c4F)c4nc(c(-c5cccc(S(=O)(=O)[O-])c5F)c5ccc2[nH]5)C=C4)C=C3)cc1
REMARK SMILES IDX 25 1 24 2 23 3 22 4 21 5 2 6 1 7 3 8 4 9 5 10 20 11 6 12
REMARK SMILES IDX 19 13 18 14 7 15 8 16 9 17 10 18 11 19 17 20 12 21 15 22
REMARK SMILES IDX 13 23 14 24 16 25 26 26 27 27 28 28 29 29 30 30 31 31 32 32
REMARK SMILES IDX 33 33 34 34 95 35 35 36 94 37 36 38 37 39 38 40 88 41 39 42
REMARK SMILES IDX 93 43 87 44 89 45 40 46 92 47 86 48 85 49 41 51 73 52 53 53
REMARK SMILES IDX 72 54 54 55 57 56 71 57 90 58 55 59 56 60 70 62 91 63 58 64
REMARK SMILES IDX 42 65 43 66 51 67 44 68 46 69 52 70 45 71 47 72 48 73 49 74
REMARK SMILES IDX 50 75 74 76 75 77 83 78 76 79 78 80 84 81 77 82 79 83 80 84
REMARK SMILES IDX 81 85 82 86 59 87 60 88 68 89 61 90 63 91 69 92 62 93 64 94
REMARK SMILES IDX 65 95 66 96 67 97
REMARK H PARENT 89 50 57 61
REMARK Flexibility Score: inf
ROOT
ATOM      1  C   UNL A   1      42.435  23.881  26.624  1.00  0.00     0.188 C 
ENDROOT
BRANCH   1   2
ATOM      2  O   UNL A   1      41.056  23.558  26.533  1.00  0.00    -0.376 OA
BRANCH   2   3
ATOM      3  C   UNL A   1      40.128  24.485  27.064  1.00  0.00     0.202 C 
BRANCH   3   4
ATOM      4  C   UNL A   1      40.747  25.740  27.649  1.00  0.00     0.261 C 
BRANCH   4   5
ATOM      5  O   UNL A   1      39.869  26.858  27.946  1.00  0.00    -0.463 OA
BRANCH   5   6
ATOM      6  C   UNL A   1      39.898  28.154  27.580  1.00  0.00     0.308 C 
ATOM      7  O   UNL A   1      40.414  28.446  26.501  1.00  0.00    -0.252 OA
BRANCH   6   8
ATOM      8  C   UNL A   1      39.224  29.228  28.408  1.00  0.00     0.156 C 
BRANCH   8   9
ATOM      9  C   UNL A   1      40.084  30.140  29.312  1.00  0.00     0.144 C 
ATOM     10  C   UNL A   1      39.362  31.119  30.250  1.00  0.00     0.135 C 
ATOM     11  O   UNL A   1      41.007  29.381  30.121  1.00  0.00    -0.375 OA
ATOM     12  N   UNL A   1      38.437  30.303  31.061  1.00  0.00    -0.193 NA
ATOM     13  C   UNL A   1      40.356  28.638  31.150  1.00  0.00     0.177 C 
ATOM     14  C   UNL A   1      39.277  29.411  31.949  1.00  0.00     0.131 C 
BRANCH  12  15
ATOM     15  S   UNL A   1      37.116  31.016  31.844  1.00  0.00     0.243 S 
ATOM     16  O   UNL A   1      36.414  29.931  32.505  1.00  0.00    -0.207 OA
ATOM     17  O   UNL A   1      37.634  32.123  32.621  1.00  0.00    -0.207 OA
BRANCH  15  18
ATOM     18  C   UNL A   1      35.945  31.719  30.688  1.00  0.00     0.088 A 
ATOM     19  C   UNL A   1      35.732  31.264  29.389  1.00  0.00     0.061 A 
ATOM     20  C   UNL A   1      35.263  32.869  31.112  1.00  0.00     0.061 A 
ATOM     21  C   UNL A   1      34.922  31.987  28.514  1.00  0.00     0.127 A 
ATOM     22  C   UNL A   1      34.445  33.566  30.223  1.00  0.00     0.127 A 
ATOM     23  F   UNL A   1      34.779  31.555  27.253  1.00  0.00    -0.207 F 
ATOM     24  C   UNL A   1      34.284  33.146  28.912  1.00  0.00     0.078 A 
ATOM     25  F   UNL A   1      33.825  34.680  30.634  1.00  0.00    -0.207 F 
ENDBRANCH  15  18
ENDBRANCH  12  15
ENDBRANCH   8   9
ENDBRANCH   6   8
ENDBRANCH   5   6
ENDBRANCH   4   5
ENDBRANCH   3   4
ENDBRANCH   2   3
ENDBRANCH   1   2
BRANCH   1  26
ATOM     26  C   UNL A   1      43.398  22.716  26.301  1.00  0.00     0.188 C 
BRANCH  26  27
ATOM     27  O   UNL A   1      44.815  22.876  26.385  1.00  0.00    -0.376 OA
BRANCH  27  28
ATOM     28  C   UNL A   1      45.639  22.532  25.285  1.00  0.00     0.202 C 
BRANCH  28  29
ATOM     29  C   UNL A   1      46.390  23.694  24.624  1.00  0.00     0.261 C 
BRANCH  29  30
ATOM     30  O   UNL A   1      45.674  24.939  24.625  1.00  0.00    -0.460 OA
BRANCH  30  31
ATOM     31  C   UNL A   1      46.418  26.051  24.859  1.00  0.00     0.338 C 
ATOM     32  O   UNL A   1      47.235  26.552  24.104  1.00  0.00    -0.246 OA
BRANCH  31  33
ATOM     33  C   UNL A   1      45.970  26.701  26.121  1.00  0.00     0.060 A 
ATOM     34  C   UNL A   1      44.602  26.672  26.433  1.00  0.00     0.016 A 
ATOM     35  C   UNL A   1      46.868  27.311  27.002  1.00  0.00     0.016 A 
ATOM     36  C   UNL A   1      44.126  27.276  27.602  1.00  0.00     0.010 A 
ATOM     37  C   UNL A   1      46.387  27.936  28.159  1.00  0.00     0.010 A 
ATOM     38  C   UNL A   1      45.011  27.950  28.452  1.00  0.00    -0.014 A 
BRANCH  38  39
ATOM     39  C   UNL A   1      44.494  28.836  29.527  1.00  0.00     0.031 A 
ATOM     40  C   UNL A   1      44.192  28.222  30.870  1.00  0.00     0.074 A 
ATOM     41  C   UNL A   1      44.254  30.145  29.325  1.00  0.00     0.049 A 
ATOM     42  N   UNL A   1      43.635  28.762  31.922  1.00  0.00    -0.248 NA
ATOM     43  C   UNL A   1      44.562  26.807  31.044  1.00  0.00     0.031 C 
ATOM     44  C   UNL A   1      44.518  30.876  28.088  1.00  0.00     0.029 A 
ATOM     45  N   UNL A   1      43.689  31.084  30.158  1.00  0.00    -0.354 N 
ATOM     46  C   UNL A   1      43.553  27.747  32.869  1.00  0.00     0.074 A 
ATOM     47  C   UNL A   1      44.124  26.561  32.270  1.00  0.00     0.031 C 
ATOM     48  C   UNL A   1      44.067  32.137  28.225  1.00  0.00     0.029 A 
ATOM     49  C   UNL A   1      43.458  32.295  29.546  1.00  0.00     0.049 A 
ATOM     50  H   UNL A   1      43.473  30.906  31.101  1.00  0.00     0.167 HD
ATOM     51  C   UNL A   1      43.054  27.797  34.125  1.00  0.00     0.034 A 
ATOM     52  C   UNL A   1      42.797  33.387  29.985  1.00  0.00     0.034 A 
ATOM     53  C   UNL A   1      42.513  28.976  34.741  1.00  0.00     0.049 A 
ATOM     54  C   UNL A   1      42.209  33.398  31.378  1.00  0.00     0.074 A 
ATOM     55  C   UNL A   1      42.058  29.132  36.039  1.00  0.00     0.029 A 
ATOM     56  N   UNL A   1      42.332  30.191  34.103  1.00  0.00    -0.354 N 
ATOM     57  N   UNL A   1      42.273  32.479  32.311  1.00  0.00    -0.248 NA
ATOM     58  C   UNL A   1      41.473  34.607  31.784  1.00  0.00     0.031 C 
ATOM     59  C   UNL A   1      41.567  30.433  36.175  1.00  0.00     0.029 A 
ATOM     60  C   UNL A   1      41.742  31.094  34.970  1.00  0.00     0.049 A 
ATOM     61  H   UNL A   1      42.587  30.384  33.172  1.00  0.00     0.167 HD
ATOM     62  C   UNL A   1      41.612  33.011  33.417  1.00  0.00     0.074 A 
ATOM     63  C   UNL A   1      41.182  34.341  33.050  1.00  0.00     0.031 C 
ATOM     64  C   UNL A   1      41.365  32.437  34.621  1.00  0.00     0.034 A 
BRANCH  51  65
ATOM     65  C   UNL A   1      43.080  26.536  34.942  1.00  0.00     0.023 A 
ATOM     66  C   UNL A   1      41.944  25.704  34.975  1.00  0.00     0.012 A 
ATOM     67  C   UNL A   1      44.261  26.131  35.593  1.00  0.00     0.148 A 
ATOM     68  C   UNL A   1      41.981  24.488  35.656  1.00  0.00     0.002 A 
ATOM     69  C   UNL A   1      44.302  24.902  36.235  1.00  0.00     0.091 A 
ATOM     70  F   UNL A   1      45.320  26.954  35.565  1.00  0.00    -0.205 F 
ATOM     71  C   UNL A   1      43.162  24.082  36.274  1.00  0.00     0.022 A 
BRANCH  69  72
ATOM     72  S   UNL A   1      45.794  24.254  36.997  1.00  0.00     0.127 S 
ATOM     73  O   UNL A   1      45.297  23.031  37.626  1.00  0.00    -0.237 OA
ATOM     74  O   UNL A   1      46.659  24.036  35.837  1.00  0.00    -0.237 OA
ATOM     75  O   UNL A   1      46.256  25.281  37.920  1.00  0.00    -0.744 OA
ENDBRANCH  69  72
ENDBRANCH  51  65
BRANCH  52  76
ATOM     76  C   UNL A   1      42.630  34.577  29.099  1.00  0.00     0.023 A 
ATOM     77  C   UNL A   1      41.398  34.802  28.456  1.00  0.00     0.012 A 
ATOM     78  C   UNL A   1      43.696  35.466  28.865  1.00  0.00     0.148 A 
ATOM     79  C   UNL A   1      41.244  35.864  27.563  1.00  0.00     0.002 A 
ATOM     80  C   UNL A   1      43.517  36.559  28.024  1.00  0.00     0.091 A 
ATOM     81  F   UNL A   1      44.872  35.222  29.460  1.00  0.00    -0.205 F 
ATOM     82  C   UNL A   1      42.298  36.748  27.354  1.00  0.00     0.022 A 
BRANCH  80  83
ATOM     83  S   UNL A   1      44.779  37.819  27.818  1.00  0.00     0.127 S 
ATOM     84  O   UNL A   1      45.032  38.222  29.198  1.00  0.00    -0.237 OA
ATOM     85  O   UNL A   1      45.862  37.064  27.185  1.00  0.00    -0.237 OA
ATOM     86  O   UNL A   1      44.179  38.829  26.954  1.00  0.00    -0.744 OA
ENDBRANCH  80  83
ENDBRANCH  52  76
BRANCH  64  87
ATOM     87  C   UNL A   1      40.610  33.241  35.650  1.00  0.00     0.023 A 
ATOM     88  C   UNL A   1      39.214  33.089  35.762  1.00  0.00     0.012 A 
ATOM     89  C   UNL A   1      41.291  34.069  36.565  1.00  0.00     0.148 A 
ATOM     90  C   UNL A   1      38.503  33.770  36.750  1.00  0.00     0.002 A 
ATOM     91  C   UNL A   1      40.582  34.708  37.577  1.00  0.00     0.091 A 
ATOM     92  F   UNL A   1      42.617  34.210  36.436  1.00  0.00    -0.205 F 
ATOM     93  C   UNL A   1      39.186  34.568  37.665  1.00  0.00     0.022 A 
BRANCH  91  94
ATOM     94  S   UNL A   1      41.385  35.682  38.856  1.00  0.00     0.127 S 
ATOM     95  O   UNL A   1      40.247  36.091  39.677  1.00  0.00    -0.237 OA
ATOM     96  O   UNL A   1      42.269  34.700  39.484  1.00  0.00    -0.237 OA
ATOM     97  O   UNL A   1      42.074  36.763  38.165  1.00  0.00    -0.744 OA
ENDBRANCH  91  94
ENDBRANCH  64  87
ENDBRANCH  38  39
ENDBRANCH  31  33
ENDBRANCH  30  31
ENDBRANCH  29  30
ENDBRANCH  28  29
ENDBRANCH  27  28
ENDBRANCH  26  27
ENDBRANCH   1  26
TORSDOF 23
ENDMDL
