MODEL 1
REMARK VINA RESULT:     -10.3      0.000      0.000
REMARK SMILES CC(=O)n1cc2c3c(cccc31)C(=O)C[C@@H]2C(=O)OCCOCCOCCOC(=O)c1ccc(-c2c3nc(c(-c4cccc(S(=O)(=O)[O-])c4F)c4ccc([nH]4)c(-c4cccc(S(=O)(=O)[O-])c4F)c4nc(c(-c5cccc(S(=O)(=O)[O-])c5F)c5ccc2[nH]5)C=C4)C=C3)cc1
REMARK SMILES IDX 24 1 23 2 22 3 21 4 20 5 19 6 17 7 18 8 16 9 4 10 5 11 12 12
REMARK SMILES IDX 6 13 7 14 11 15 8 16 10 17 15 18 9 19 13 20 14 21 2 22 1 23
REMARK SMILES IDX 3 24 25 25 26 26 27 27 28 28 29 29 30 30 31 31 32 32 93 33
REMARK SMILES IDX 33 34 92 35 34 36 35 37 36 38 86 39 37 40 91 41 85 42 87 43
REMARK SMILES IDX 38 44 90 45 84 46 83 47 39 49 71 50 51 51 70 52 52 53 55 54
REMARK SMILES IDX 69 55 88 56 53 57 54 58 68 60 89 61 56 62 40 63 41 64 49 65
REMARK SMILES IDX 42 66 44 67 50 68 43 69 45 70 46 71 47 72 48 73 72 74 73 75
REMARK SMILES IDX 81 76 74 77 76 78 82 79 75 80 77 81 78 82 79 83 80 84 57 85
REMARK SMILES IDX 58 86 66 87 59 88 61 89 67 90 60 91 62 92 63 93 64 94 65 95
REMARK H PARENT 87 48 55 59
REMARK Flexibility Score: inf
ROOT
ATOM      1  C   UNL A   1      44.265  22.549  26.124  1.00  0.00     0.188 C 
ENDROOT
BRANCH   1   2
ATOM      2  C   UNL A   1      42.786  22.247  25.894  1.00  0.00     0.188 C 
BRANCH   2   3
ATOM      3  O   UNL A   1      42.208  21.245  26.729  1.00  0.00    -0.376 OA
BRANCH   3   4
ATOM      4  C   UNL A   1      40.864  21.444  27.156  1.00  0.00     0.202 C 
BRANCH   4   5
ATOM      5  C   UNL A   1      39.761  21.072  26.146  1.00  0.00     0.261 C 
BRANCH   5   6
ATOM      6  O   UNL A   1      38.595  21.921  26.149  1.00  0.00    -0.463 OA
BRANCH   6   7
ATOM      7  C   UNL A   1      37.574  21.495  25.371  1.00  0.00     0.314 C 
ATOM      8  O   UNL A   1      37.649  20.523  24.621  1.00  0.00    -0.252 OA
BRANCH   7   9
ATOM      9  C   UNL A   1      36.304  22.353  25.444  1.00  0.00     0.139 C 
ATOM     10  N   UNL A   1      33.788  19.748  24.626  1.00  0.00    -0.287 N 
ATOM     11  C   UNL A   1      34.950  20.136  25.273  1.00  0.00     0.100 A 
ATOM     12  C   UNL A   1      33.219  20.897  24.062  1.00  0.00     0.057 A 
ATOM     13  C   UNL A   1      35.176  21.468  25.049  1.00  0.00    -0.006 A 
ATOM     14  C   UNL A   1      34.074  21.952  24.349  1.00  0.00     0.015 A 
ATOM     15  C   UNL A   1      32.029  21.144  23.360  1.00  0.00     0.027 A 
ATOM     16  C   UNL A   1      33.798  23.262  23.974  1.00  0.00     0.027 A 
ATOM     17  C   UNL A   1      31.729  22.480  23.022  1.00  0.00     0.003 A 
ATOM     18  C   UNL A   1      36.261  23.701  24.670  1.00  0.00     0.101 C 
ATOM     19  C   UNL A   1      32.594  23.537  23.335  1.00  0.00     0.012 A 
ATOM     20  C   UNL A   1      34.845  24.245  24.344  1.00  0.00     0.164 C 
ATOM     21  O   UNL A   1      34.582  25.443  24.315  1.00  0.00    -0.294 OA
BRANCH  10  22
ATOM     22  C   UNL A   1      33.290  18.435  24.579  1.00  0.00     0.227 C 
ATOM     23  C   UNL A   1      34.010  17.529  23.616  1.00  0.00     0.115 C 
ATOM     24  O   UNL A   1      32.374  18.091  25.313  1.00  0.00    -0.274 OA
ENDBRANCH  10  22
ENDBRANCH   7   9
ENDBRANCH   6   7
ENDBRANCH   5   6
ENDBRANCH   4   5
ENDBRANCH   3   4
ENDBRANCH   2   3
ENDBRANCH   1   2
BRANCH   1  25
ATOM     25  O   UNL A   1      44.567  23.418  27.204  1.00  0.00    -0.376 OA
BRANCH  25  26
ATOM     26  C   UNL A   1      44.797  24.816  26.998  1.00  0.00     0.202 C 
BRANCH  26  27
ATOM     27  C   UNL A   1      43.720  25.903  27.174  1.00  0.00     0.261 C 
BRANCH  27  28
ATOM     28  O   UNL A   1      42.380  25.464  27.161  1.00  0.00    -0.460 OA
BRANCH  28  29
ATOM     29  C   UNL A   1      41.568  26.018  26.236  1.00  0.00     0.338 C 
ATOM     30  O   UNL A   1      41.545  25.797  25.049  1.00  0.00    -0.246 OA
BRANCH  29  31
ATOM     31  C   UNL A   1      40.620  26.869  26.984  1.00  0.00     0.060 A 
ATOM     32  C   UNL A   1      40.472  28.174  26.528  1.00  0.00     0.016 A 
ATOM     33  C   UNL A   1      40.140  26.446  28.232  1.00  0.00     0.016 A 
ATOM     34  C   UNL A   1      40.319  29.133  27.490  1.00  0.00     0.010 A 
ATOM     35  C   UNL A   1      40.006  27.395  29.195  1.00  0.00     0.010 A 
ATOM     36  C   UNL A   1      40.286  28.700  28.816  1.00  0.00    -0.014 A 
BRANCH  36  37
ATOM     37  C   UNL A   1      40.704  29.620  29.835  1.00  0.00     0.031 A 
ATOM     38  C   UNL A   1      39.584  30.428  30.326  1.00  0.00     0.074 A 
ATOM     39  C   UNL A   1      41.974  29.618  30.288  1.00  0.00     0.049 A 
ATOM     40  N   UNL A   1      39.283  31.627  29.954  1.00  0.00    -0.248 NA
ATOM     41  C   UNL A   1      38.534  29.742  31.094  1.00  0.00     0.031 C 
ATOM     42  C   UNL A   1      43.047  28.641  30.060  1.00  0.00     0.029 A 
ATOM     43  N   UNL A   1      42.537  30.466  31.176  1.00  0.00    -0.354 N 
ATOM     44  C   UNL A   1      38.137  31.923  30.671  1.00  0.00     0.074 A 
ATOM     45  C   UNL A   1      37.576  30.668  31.096  1.00  0.00     0.031 C 
ATOM     46  C   UNL A   1      44.008  28.815  30.999  1.00  0.00     0.029 A 
ATOM     47  C   UNL A   1      43.679  29.980  31.802  1.00  0.00     0.049 A 
ATOM     48  H   UNL A   1      42.169  31.359  31.365  1.00  0.00     0.167 HD
ATOM     49  C   UNL A   1      37.923  33.167  31.173  1.00  0.00     0.034 A 
ATOM     50  C   UNL A   1      44.198  30.467  32.961  1.00  0.00     0.034 A 
ATOM     51  C   UNL A   1      38.820  34.140  30.616  1.00  0.00     0.049 A 
ATOM     52  C   UNL A   1      43.634  31.837  33.125  1.00  0.00     0.074 A 
ATOM     53  C   UNL A   1      39.083  34.599  29.341  1.00  0.00     0.029 A 
ATOM     54  N   UNL A   1      39.919  34.464  31.376  1.00  0.00    -0.354 N 
ATOM     55  N   UNL A   1      43.887  32.823  32.307  1.00  0.00    -0.248 NA
ATOM     56  C   UNL A   1      42.415  31.971  33.911  1.00  0.00     0.031 C 
ATOM     57  C   UNL A   1      40.498  34.759  29.292  1.00  0.00     0.029 A 
ATOM     58  C   UNL A   1      41.015  34.451  30.552  1.00  0.00     0.049 A 
ATOM     59  H   UNL A   1      39.920  34.669  32.340  1.00  0.00     0.167 HD
ATOM     60  C   UNL A   1      42.665  33.466  32.149  1.00  0.00     0.074 A 
ATOM     61  C   UNL A   1      41.816  32.949  33.223  1.00  0.00     0.031 C 
ATOM     62  C   UNL A   1      42.352  34.112  30.988  1.00  0.00     0.034 A 
BRANCH  49  63
ATOM     63  C   UNL A   1      37.173  33.398  32.448  1.00  0.00     0.023 A 
ATOM     64  C   UNL A   1      36.010  34.183  32.396  1.00  0.00     0.012 A 
ATOM     65  C   UNL A   1      37.681  33.058  33.724  1.00  0.00     0.148 A 
ATOM     66  C   UNL A   1      35.370  34.596  33.568  1.00  0.00     0.002 A 
ATOM     67  C   UNL A   1      36.993  33.389  34.879  1.00  0.00     0.091 A 
ATOM     68  F   UNL A   1      38.907  32.530  33.832  1.00  0.00    -0.205 F 
ATOM     69  C   UNL A   1      35.845  34.178  34.808  1.00  0.00     0.022 A 
BRANCH  67  70
ATOM     70  S   UNL A   1      37.550  32.828  36.491  1.00  0.00     0.127 S 
ATOM     71  O   UNL A   1      38.781  33.595  36.657  1.00  0.00    -0.237 OA
ATOM     72  O   UNL A   1      36.440  33.238  37.351  1.00  0.00    -0.237 OA
ATOM     73  O   UNL A   1      37.702  31.383  36.364  1.00  0.00    -0.744 OA
ENDBRANCH  67  70
ENDBRANCH  49  63
BRANCH  50  74
ATOM     74  C   UNL A   1      44.797  29.738  34.116  1.00  0.00     0.023 A 
ATOM     75  C   UNL A   1      45.924  30.292  34.763  1.00  0.00     0.012 A 
ATOM     76  C   UNL A   1      44.109  28.697  34.780  1.00  0.00     0.148 A 
ATOM     77  C   UNL A   1      46.309  29.875  36.044  1.00  0.00     0.002 A 
ATOM     78  C   UNL A   1      44.502  28.278  36.050  1.00  0.00     0.091 A 
ATOM     79  F   UNL A   1      43.010  28.180  34.216  1.00  0.00    -0.205 F 
ATOM     80  C   UNL A   1      45.591  28.877  36.693  1.00  0.00     0.022 A 
BRANCH  78  81
ATOM     81  S   UNL A   1      43.612  26.999  36.952  1.00  0.00     0.127 S 
ATOM     82  O   UNL A   1      44.243  27.060  38.271  1.00  0.00    -0.237 OA
ATOM     83  O   UNL A   1      42.239  27.494  36.906  1.00  0.00    -0.237 OA
ATOM     84  O   UNL A   1      43.862  25.757  36.230  1.00  0.00    -0.744 OA
ENDBRANCH  78  81
ENDBRANCH  50  74
BRANCH  62  85
ATOM     85  C   UNL A   1      43.441  34.292  29.963  1.00  0.00     0.023 A 
ATOM     86  C   UNL A   1      44.403  35.322  30.051  1.00  0.00     0.012 A 
ATOM     87  C   UNL A   1      43.622  33.270  29.019  1.00  0.00     0.148 A 
ATOM     88  C   UNL A   1      45.524  35.327  29.213  1.00  0.00     0.002 A 
ATOM     89  C   UNL A   1      44.752  33.258  28.213  1.00  0.00     0.091 A 
ATOM     90  F   UNL A   1      42.702  32.295  28.968  1.00  0.00    -0.205 F 
ATOM     91  C   UNL A   1      45.706  34.287  28.304  1.00  0.00     0.022 A 
BRANCH  89  92
ATOM     92  S   UNL A   1      45.099  31.896  27.099  1.00  0.00     0.127 S 
ATOM     93  O   UNL A   1      45.286  30.784  28.028  1.00  0.00    -0.237 OA
ATOM     94  O   UNL A   1      43.875  31.830  26.301  1.00  0.00    -0.237 OA
ATOM     95  O   UNL A   1      46.286  32.281  26.346  1.00  0.00    -0.744 OA
ENDBRANCH  89  92
ENDBRANCH  62  85
ENDBRANCH  36  37
ENDBRANCH  29  31
ENDBRANCH  28  29
ENDBRANCH  27  28
ENDBRANCH  26  27
ENDBRANCH  25  26
ENDBRANCH   1  25
TORSDOF 21
ENDMDL
MODEL 2
REMARK VINA RESULT:     -10.2      2.749      7.799
REMARK SMILES CC(=O)n1cc2c3c(cccc31)C(=O)C[C@@H]2C(=O)OCCOCCOCCOC(=O)c1ccc(-c2c3nc(c(-c4cccc(S(=O)(=O)[O-])c4F)c4ccc([nH]4)c(-c4cccc(S(=O)(=O)[O-])c4F)c4nc(c(-c5cccc(S(=O)(=O)[O-])c5F)c5ccc2[nH]5)C=C4)C=C3)cc1
REMARK SMILES IDX 24 1 23 2 22 3 21 4 20 5 19 6 17 7 18 8 16 9 4 10 5 11 12 12
REMARK SMILES IDX 6 13 7 14 11 15 8 16 10 17 15 18 9 19 13 20 14 21 2 22 1 23
REMARK SMILES IDX 3 24 25 25 26 26 27 27 28 28 29 29 30 30 31 31 32 32 93 33
REMARK SMILES IDX 33 34 92 35 34 36 35 37 36 38 86 39 37 40 91 41 85 42 87 43
REMARK SMILES IDX 38 44 90 45 84 46 83 47 39 49 71 50 51 51 70 52 52 53 55 54
REMARK SMILES IDX 69 55 88 56 53 57 54 58 68 60 89 61 56 62 40 63 41 64 49 65
REMARK SMILES IDX 42 66 44 67 50 68 43 69 45 70 46 71 47 72 48 73 72 74 73 75
REMARK SMILES IDX 81 76 74 77 76 78 82 79 75 80 77 81 78 82 79 83 80 84 57 85
REMARK SMILES IDX 58 86 66 87 59 88 61 89 67 90 60 91 62 92 63 93 64 94 65 95
REMARK H PARENT 87 48 55 59
REMARK Flexibility Score: inf
ROOT
ATOM      1  C   UNL A   1      38.765  20.837  25.764  1.00  0.00     0.188 C 
ENDROOT
BRANCH   1   2
ATOM      2  C   UNL A   1      37.750  20.225  24.801  1.00  0.00     0.188 C 
BRANCH   2   3
ATOM      3  O   UNL A   1      36.376  20.363  25.162  1.00  0.00    -0.376 OA
BRANCH   3   4
ATOM      4  C   UNL A   1      35.789  21.653  25.021  1.00  0.00     0.202 C 
BRANCH   4   5
ATOM      5  C   UNL A   1      34.317  21.789  25.457  1.00  0.00     0.261 C 
BRANCH   5   6
ATOM      6  O   UNL A   1      33.840  23.138  25.645  1.00  0.00    -0.463 OA
BRANCH   6   7
ATOM      7  C   UNL A   1      34.755  24.106  25.412  1.00  0.00     0.314 C 
ATOM      8  O   UNL A   1      35.757  24.277  26.104  1.00  0.00    -0.252 OA
BRANCH   7   9
ATOM      9  C   UNL A   1      34.426  25.036  24.236  1.00  0.00     0.139 C 
ATOM     10  N   UNL A   1      32.337  27.528  26.027  1.00  0.00    -0.287 N 
ATOM     11  C   UNL A   1      33.439  26.690  25.988  1.00  0.00     0.100 A 
ATOM     12  C   UNL A   1      31.750  27.509  24.755  1.00  0.00     0.057 A 
ATOM     13  C   UNL A   1      33.501  26.073  24.767  1.00  0.00    -0.006 A 
ATOM     14  C   UNL A   1      32.491  26.624  23.985  1.00  0.00     0.015 A 
ATOM     15  C   UNL A   1      30.670  28.194  24.176  1.00  0.00     0.027 A 
ATOM     16  C   UNL A   1      32.213  26.387  22.643  1.00  0.00     0.027 A 
ATOM     17  C   UNL A   1      30.420  27.986  22.804  1.00  0.00     0.003 A 
ATOM     18  C   UNL A   1      33.885  24.420  22.916  1.00  0.00     0.101 C 
ATOM     19  C   UNL A   1      31.188  27.104  22.033  1.00  0.00     0.012 A 
ATOM     20  C   UNL A   1      33.096  25.387  21.996  1.00  0.00     0.164 C 
ATOM     21  O   UNL A   1      33.122  25.312  20.771  1.00  0.00    -0.294 OA
BRANCH  10  22
ATOM     22  C   UNL A   1      31.922  28.266  27.150  1.00  0.00     0.227 C 
ATOM     23  C   UNL A   1      32.438  29.679  27.192  1.00  0.00     0.115 C 
ATOM     24  O   UNL A   1      31.166  27.770  27.975  1.00  0.00    -0.274 OA
ENDBRANCH  10  22
ENDBRANCH   7   9
ENDBRANCH   6   7
ENDBRANCH   5   6
ENDBRANCH   4   5
ENDBRANCH   3   4
ENDBRANCH   2   3
ENDBRANCH   1   2
BRANCH   1  25
ATOM     25  O   UNL A   1      40.046  20.227  25.795  1.00  0.00    -0.376 OA
BRANCH  25  26
ATOM     26  C   UNL A   1      41.000  20.541  26.816  1.00  0.00     0.202 C 
BRANCH  26  27
ATOM     27  C   UNL A   1      42.209  21.472  26.609  1.00  0.00     0.261 C 
BRANCH  27  28
ATOM     28  O   UNL A   1      42.067  22.474  25.627  1.00  0.00    -0.460 OA
BRANCH  28  29
ATOM     29  C   UNL A   1      42.560  23.695  25.927  1.00  0.00     0.338 C 
ATOM     30  O   UNL A   1      43.622  24.162  25.595  1.00  0.00    -0.246 OA
BRANCH  29  31
ATOM     31  C   UNL A   1      41.483  24.401  26.651  1.00  0.00     0.060 A 
ATOM     32  C   UNL A   1      40.811  25.391  25.943  1.00  0.00     0.016 A 
ATOM     33  C   UNL A   1      41.369  24.258  28.041  1.00  0.00     0.016 A 
ATOM     34  C   UNL A   1      40.458  26.505  26.653  1.00  0.00     0.010 A 
ATOM     35  C   UNL A   1      41.037  25.369  28.750  1.00  0.00     0.010 A 
ATOM     36  C   UNL A   1      40.770  26.512  28.013  1.00  0.00    -0.014 A 
BRANCH  36  37
ATOM     37  C   UNL A   1      40.966  27.783  28.651  1.00  0.00     0.031 A 
ATOM     38  C   UNL A   1      42.172  28.456  28.158  1.00  0.00     0.074 A 
ATOM     39  C   UNL A   1      40.059  28.262  29.526  1.00  0.00     0.049 A 
ATOM     40  N   UNL A   1      43.331  28.463  28.725  1.00  0.00    -0.248 NA
ATOM     41  C   UNL A   1      42.166  28.931  26.767  1.00  0.00     0.031 C 
ATOM     42  C   UNL A   1      38.702  27.785  29.822  1.00  0.00     0.029 A 
ATOM     43  N   UNL A   1      40.138  29.392  30.264  1.00  0.00    -0.354 N 
ATOM     44  C   UNL A   1      44.125  29.191  27.855  1.00  0.00     0.074 A 
ATOM     45  C   UNL A   1      43.461  29.183  26.579  1.00  0.00     0.031 C 
ATOM     46  C   UNL A   1      38.017  28.769  30.454  1.00  0.00     0.029 A 
ATOM     47  C   UNL A   1      38.916  29.881  30.713  1.00  0.00     0.049 A 
ATOM     48  H   UNL A   1      40.993  29.834  30.469  1.00  0.00     0.167 HD
ATOM     49  C   UNL A   1      45.074  30.045  28.317  1.00  0.00     0.034 A 
ATOM     50  C   UNL A   1      38.697  31.153  31.139  1.00  0.00     0.034 A 
ATOM     51  C   UNL A   1      45.345  29.854  29.715  1.00  0.00     0.049 A 
ATOM     52  C   UNL A   1      40.035  31.712  31.484  1.00  0.00     0.074 A 
ATOM     53  C   UNL A   1      45.793  28.796  30.480  1.00  0.00     0.029 A 
ATOM     54  N   UNL A   1      44.722  30.720  30.582  1.00  0.00    -0.354 N 
ATOM     55  N   UNL A   1      40.781  31.252  32.451  1.00  0.00    -0.248 NA
ATOM     56  C   UNL A   1      40.740  32.452  30.446  1.00  0.00     0.031 C 
ATOM     57  C   UNL A   1      45.022  28.855  31.677  1.00  0.00     0.029 A 
ATOM     58  C   UNL A   1      44.193  29.977  31.606  1.00  0.00     0.049 A 
ATOM     59  H   UNL A   1      44.665  31.699  30.486  1.00  0.00     0.167 HD
ATOM     60  C   UNL A   1      42.069  31.253  31.928  1.00  0.00     0.074 A 
ATOM     61  C   UNL A   1      41.994  32.079  30.723  1.00  0.00     0.031 C 
ATOM     62  C   UNL A   1      42.997  30.339  32.335  1.00  0.00     0.034 A 
BRANCH  49  63
ATOM     63  C   UNL A   1      45.448  31.298  27.588  1.00  0.00     0.023 A 
ATOM     64  C   UNL A   1      46.786  31.459  27.195  1.00  0.00     0.012 A 
ATOM     65  C   UNL A   1      44.587  32.415  27.465  1.00  0.00     0.148 A 
ATOM     66  C   UNL A   1      47.242  32.677  26.683  1.00  0.00     0.002 A 
ATOM     67  C   UNL A   1      45.019  33.589  26.872  1.00  0.00     0.091 A 
ATOM     68  F   UNL A   1      43.382  32.393  28.048  1.00  0.00    -0.205 F 
ATOM     69  C   UNL A   1      46.355  33.733  26.497  1.00  0.00     0.022 A 
BRANCH  67  70
ATOM     70  S   UNL A   1      43.892  34.954  26.572  1.00  0.00     0.127 S 
ATOM     71  O   UNL A   1      43.114  34.965  27.808  1.00  0.00    -0.237 OA
ATOM     72  O   UNL A   1      44.816  36.075  26.408  1.00  0.00    -0.237 OA
ATOM     73  O   UNL A   1      43.168  34.596  25.358  1.00  0.00    -0.744 OA
ENDBRANCH  67  70
ENDBRANCH  49  63
BRANCH  50  74
ATOM     74  C   UNL A   1      37.527  32.047  30.904  1.00  0.00     0.023 A 
ATOM     75  C   UNL A   1      36.812  31.933  29.691  1.00  0.00     0.012 A 
ATOM     76  C   UNL A   1      36.920  32.774  31.954  1.00  0.00     0.148 A 
ATOM     77  C   UNL A   1      35.521  32.461  29.552  1.00  0.00     0.002 A 
ATOM     78  C   UNL A   1      35.640  33.306  31.807  1.00  0.00     0.091 A 
ATOM     79  F   UNL A   1      37.550  32.863  33.132  1.00  0.00    -0.205 F 
ATOM     80  C   UNL A   1      34.929  33.135  30.614  1.00  0.00     0.022 A 
BRANCH  78  81
ATOM     81  S   UNL A   1      34.810  34.181  33.144  1.00  0.00     0.127 S 
ATOM     82  O   UNL A   1      35.651  35.369  33.300  1.00  0.00    -0.237 OA
ATOM     83  O   UNL A   1      33.493  34.435  32.569  1.00  0.00    -0.237 OA
ATOM     84  O   UNL A   1      34.839  33.277  34.288  1.00  0.00    -0.744 OA
ENDBRANCH  78  81
ENDBRANCH  50  74
BRANCH  62  85
ATOM     85  C   UNL A   1      42.659  29.464  33.515  1.00  0.00     0.023 A 
ATOM     86  C   UNL A   1      41.818  28.335  33.406  1.00  0.00     0.012 A 
ATOM     87  C   UNL A   1      43.381  29.665  34.701  1.00  0.00     0.148 A 
ATOM     88  C   UNL A   1      41.704  27.425  34.462  1.00  0.00     0.002 A 
ATOM     89  C   UNL A   1      43.293  28.741  35.734  1.00  0.00     0.091 A 
ATOM     90  F   UNL A   1      44.185  30.736  34.772  1.00  0.00    -0.205 F 
ATOM     91  C   UNL A   1      42.453  27.620  35.621  1.00  0.00     0.022 A 
BRANCH  89  92
ATOM     92  S   UNL A   1      44.308  28.876  37.206  1.00  0.00     0.127 S 
ATOM     93  O   UNL A   1      45.654  28.951  36.641  1.00  0.00    -0.237 OA
ATOM     94  O   UNL A   1      43.823  30.121  37.803  1.00  0.00    -0.237 OA
ATOM     95  O   UNL A   1      44.033  27.684  37.999  1.00  0.00    -0.744 OA
ENDBRANCH  89  92
ENDBRANCH  62  85
ENDBRANCH  36  37
ENDBRANCH  29  31
ENDBRANCH  28  29
ENDBRANCH  27  28
ENDBRANCH  26  27
ENDBRANCH  25  26
ENDBRANCH   1  25
TORSDOF 21
ENDMDL
MODEL 3
REMARK VINA RESULT:      -9.7      3.347      5.075
REMARK SMILES CC(=O)n1cc2c3c(cccc31)C(=O)C[C@@H]2C(=O)OCCOCCOCCOC(=O)c1ccc(-c2c3nc(c(-c4cccc(S(=O)(=O)[O-])c4F)c4ccc([nH]4)c(-c4cccc(S(=O)(=O)[O-])c4F)c4nc(c(-c5cccc(S(=O)(=O)[O-])c5F)c5ccc2[nH]5)C=C4)C=C3)cc1
REMARK SMILES IDX 24 1 23 2 22 3 21 4 20 5 19 6 17 7 18 8 16 9 4 10 5 11 12 12
REMARK SMILES IDX 6 13 7 14 11 15 8 16 10 17 15 18 9 19 13 20 14 21 2 22 1 23
REMARK SMILES IDX 3 24 25 25 26 26 27 27 28 28 29 29 30 30 31 31 32 32 93 33
REMARK SMILES IDX 33 34 92 35 34 36 35 37 36 38 86 39 37 40 91 41 85 42 87 43
REMARK SMILES IDX 38 44 90 45 84 46 83 47 39 49 71 50 51 51 70 52 52 53 55 54
REMARK SMILES IDX 69 55 88 56 53 57 54 58 68 60 89 61 56 62 40 63 41 64 49 65
REMARK SMILES IDX 42 66 44 67 50 68 43 69 45 70 46 71 47 72 48 73 72 74 73 75
REMARK SMILES IDX 81 76 74 77 76 78 82 79 75 80 77 81 78 82 79 83 80 84 57 85
REMARK SMILES IDX 58 86 66 87 59 88 61 89 67 90 60 91 62 92 63 93 64 94 65 95
REMARK H PARENT 87 48 55 59
REMARK Flexibility Score: inf
ROOT
ATOM      1  C   UNL A   1      39.697  21.425  26.515  1.00  0.00     0.188 C 
ENDROOT
BRANCH   1   2
ATOM      2  C   UNL A   1      38.525  21.774  25.600  1.00  0.00     0.188 C 
BRANCH   2   3
ATOM      3  O   UNL A   1      37.299  21.091  25.855  1.00  0.00    -0.376 OA
BRANCH   3   4
ATOM      4  C   UNL A   1      36.330  21.075  24.812  1.00  0.00     0.202 C 
BRANCH   4   5
ATOM      5  C   UNL A   1      34.865  21.314  25.230  1.00  0.00     0.261 C 
BRANCH   5   6
ATOM      6  O   UNL A   1      34.178  22.372  24.532  1.00  0.00    -0.463 OA
BRANCH   6   7
ATOM      7  C   UNL A   1      34.546  23.625  24.885  1.00  0.00     0.314 C 
ATOM      8  O   UNL A   1      34.958  23.923  26.005  1.00  0.00    -0.252 OA
BRANCH   7   9
ATOM      9  C   UNL A   1      34.358  24.686  23.792  1.00  0.00     0.139 C 
ATOM     10  N   UNL A   1      33.103  27.476  25.896  1.00  0.00    -0.287 N 
ATOM     11  C   UNL A   1      33.958  26.402  25.709  1.00  0.00     0.100 A 
ATOM     12  C   UNL A   1      32.424  27.686  24.689  1.00  0.00     0.057 A 
ATOM     13  C   UNL A   1      33.764  25.875  24.460  1.00  0.00    -0.006 A 
ATOM     14  C   UNL A   1      32.858  26.705  23.808  1.00  0.00     0.015 A 
ATOM     15  C   UNL A   1      31.501  28.649  24.253  1.00  0.00     0.027 A 
ATOM     16  C   UNL A   1      32.418  26.637  22.491  1.00  0.00     0.027 A 
ATOM     17  C   UNL A   1      31.093  28.604  22.903  1.00  0.00     0.003 A 
ATOM     18  C   UNL A   1      33.573  24.311  22.505  1.00  0.00     0.101 C 
ATOM     19  C   UNL A   1      31.553  27.619  22.020  1.00  0.00     0.012 A 
ATOM     20  C   UNL A   1      32.970  25.501  21.713  1.00  0.00     0.164 C 
ATOM     21  O   UNL A   1      32.874  25.508  20.490  1.00  0.00    -0.294 OA
BRANCH  10  22
ATOM     22  C   UNL A   1      32.978  28.211  27.088  1.00  0.00     0.227 C 
ATOM     23  C   UNL A   1      31.593  28.213  27.677  1.00  0.00     0.115 C 
ATOM     24  O   UNL A   1      33.955  28.749  27.592  1.00  0.00    -0.274 OA
ENDBRANCH  10  22
ENDBRANCH   7   9
ENDBRANCH   6   7
ENDBRANCH   5   6
ENDBRANCH   4   5
ENDBRANCH   3   4
ENDBRANCH   2   3
ENDBRANCH   1   2
BRANCH   1  25
ATOM     25  O   UNL A   1      40.556  20.390  26.066  1.00  0.00    -0.376 OA
BRANCH  25  26
ATOM     26  C   UNL A   1      41.886  20.246  26.577  1.00  0.00     0.202 C 
BRANCH  26  27
ATOM     27  C   UNL A   1      43.132  20.882  25.931  1.00  0.00     0.261 C 
BRANCH  27  28
ATOM     28  O   UNL A   1      43.338  22.253  26.187  1.00  0.00    -0.460 OA
BRANCH  28  29
ATOM     29  C   UNL A   1      43.406  23.068  25.112  1.00  0.00     0.338 C 
ATOM     30  O   UNL A   1      43.835  22.806  24.015  1.00  0.00    -0.246 OA
BRANCH  29  31
ATOM     31  C   UNL A   1      42.735  24.323  25.511  1.00  0.00     0.060 A 
ATOM     32  C   UNL A   1      43.514  25.475  25.482  1.00  0.00     0.016 A 
ATOM     33  C   UNL A   1      41.485  24.272  26.144  1.00  0.00     0.016 A 
ATOM     34  C   UNL A   1      43.291  26.377  26.484  1.00  0.00     0.010 A 
ATOM     35  C   UNL A   1      41.269  25.157  27.153  1.00  0.00     0.010 A 
ATOM     36  C   UNL A   1      42.284  26.069  27.399  1.00  0.00    -0.014 A 
BRANCH  36  37
ATOM     37  C   UNL A   1      42.385  26.620  28.721  1.00  0.00     0.031 A 
ATOM     38  C   UNL A   1      41.328  27.602  28.980  1.00  0.00     0.074 A 
ATOM     39  C   UNL A   1      43.318  26.172  29.586  1.00  0.00     0.049 A 
ATOM     40  N   UNL A   1      41.436  28.885  28.889  1.00  0.00    -0.248 NA
ATOM     41  C   UNL A   1      39.947  27.107  29.074  1.00  0.00     0.031 C 
ATOM     42  C   UNL A   1      44.190  24.994  29.493  1.00  0.00     0.029 A 
ATOM     43  N   UNL A   1      43.591  26.640  30.824  1.00  0.00    -0.354 N 
ATOM     44  C   UNL A   1      40.167  29.350  29.189  1.00  0.00     0.074 A 
ATOM     45  C   UNL A   1      39.262  28.248  28.995  1.00  0.00     0.031 C 
ATOM     46  C   UNL A   1      44.673  24.705  30.727  1.00  0.00     0.029 A 
ATOM     47  C   UNL A   1      44.249  25.740  31.655  1.00  0.00     0.049 A 
ATOM     48  H   UNL A   1      43.344  27.547  31.116  1.00  0.00     0.167 HD
ATOM     49  C   UNL A   1      39.987  30.483  29.916  1.00  0.00     0.034 A 
ATOM     50  C   UNL A   1      44.301  25.828  33.010  1.00  0.00     0.034 A 
ATOM     51  C   UNL A   1      41.194  31.251  30.035  1.00  0.00     0.049 A 
ATOM     52  C   UNL A   1      43.978  27.244  33.347  1.00  0.00     0.074 A 
ATOM     53  C   UNL A   1      42.053  31.853  29.138  1.00  0.00     0.029 A 
ATOM     54  N   UNL A   1      41.903  31.099  31.204  1.00  0.00    -0.354 N 
ATOM     55  N   UNL A   1      44.728  28.256  33.004  1.00  0.00    -0.248 NA
ATOM     56  C   UNL A   1      42.587  27.564  33.634  1.00  0.00     0.031 C 
ATOM     57  C   UNL A   1      43.357  31.612  29.659  1.00  0.00     0.029 A 
ATOM     58  C   UNL A   1      43.223  30.935  30.873  1.00  0.00     0.049 A 
ATOM     59  H   UNL A   1      41.529  31.106  32.115  1.00  0.00     0.167 HD
ATOM     60  C   UNL A   1      43.828  29.237  32.603  1.00  0.00     0.074 A 
ATOM     61  C   UNL A   1      42.525  28.784  33.091  1.00  0.00     0.031 C 
ATOM     62  C   UNL A   1      44.161  30.154  31.650  1.00  0.00     0.034 A 
BRANCH  49  63
ATOM     63  C   UNL A   1      38.820  30.668  30.835  1.00  0.00     0.023 A 
ATOM     64  C   UNL A   1      38.761  29.878  31.994  1.00  0.00     0.012 A 
ATOM     65  C   UNL A   1      37.675  31.429  30.499  1.00  0.00     0.148 A 
ATOM     66  C   UNL A   1      37.616  29.861  32.794  1.00  0.00     0.002 A 
ATOM     67  C   UNL A   1      36.578  31.482  31.343  1.00  0.00     0.091 A 
ATOM     68  F   UNL A   1      37.586  31.998  29.290  1.00  0.00    -0.205 F 
ATOM     69  C   UNL A   1      36.535  30.681  32.484  1.00  0.00     0.022 A 
BRANCH  67  70
ATOM     70  S   UNL A   1      35.187  32.564  31.000  1.00  0.00     0.127 S 
ATOM     71  O   UNL A   1      34.348  32.339  32.173  1.00  0.00    -0.237 OA
ATOM     72  O   UNL A   1      35.835  33.874  30.941  1.00  0.00    -0.237 OA
ATOM     73  O   UNL A   1      34.649  32.107  29.725  1.00  0.00    -0.744 OA
ENDBRANCH  67  70
ENDBRANCH  49  63
BRANCH  50  74
ATOM     74  C   UNL A   1      44.209  24.752  34.039  1.00  0.00     0.023 A 
ATOM     75  C   UNL A   1      43.877  23.442  33.629  1.00  0.00     0.012 A 
ATOM     76  C   UNL A   1      44.737  24.916  35.340  1.00  0.00     0.148 A 
ATOM     77  C   UNL A   1      44.123  22.334  34.452  1.00  0.00     0.002 A 
ATOM     78  C   UNL A   1      44.971  23.812  36.159  1.00  0.00     0.091 A 
ATOM     79  F   UNL A   1      45.105  26.137  35.743  1.00  0.00    -0.205 F 
ATOM     80  C   UNL A   1      44.683  22.518  35.711  1.00  0.00     0.022 A 
BRANCH  78  81
ATOM     81  S   UNL A   1      45.702  23.976  37.796  1.00  0.00     0.127 S 
ATOM     82  O   UNL A   1      47.022  24.528  37.488  1.00  0.00    -0.237 OA
ATOM     83  O   UNL A   1      44.785  24.907  38.447  1.00  0.00    -0.237 OA
ATOM     84  O   UNL A   1      45.736  22.628  38.351  1.00  0.00    -0.744 OA
ENDBRANCH  78  81
ENDBRANCH  50  74
BRANCH  62  85
ATOM     85  C   UNL A   1      45.597  30.213  31.195  1.00  0.00     0.023 A 
ATOM     86  C   UNL A   1      46.603  30.868  31.939  1.00  0.00     0.012 A 
ATOM     87  C   UNL A   1      45.969  29.403  30.111  1.00  0.00     0.148 A 
ATOM     88  C   UNL A   1      47.953  30.715  31.605  1.00  0.00     0.002 A 
ATOM     89  C   UNL A   1      47.311  29.224  29.804  1.00  0.00     0.091 A 
ATOM     90  F   UNL A   1      44.995  28.779  29.432  1.00  0.00    -0.205 F 
ATOM     91  C   UNL A   1      48.308  29.880  30.547  1.00  0.00     0.022 A 
BRANCH  89  92
ATOM     92  S   UNL A   1      47.840  28.084  28.525  1.00  0.00     0.127 S 
ATOM     93  O   UNL A   1      47.229  26.831  28.963  1.00  0.00    -0.237 OA
ATOM     94  O   UNL A   1      47.244  28.669  27.323  1.00  0.00    -0.237 OA
ATOM     95  O   UNL A   1      49.298  28.104  28.542  1.00  0.00    -0.744 OA
ENDBRANCH  89  92
ENDBRANCH  62  85
ENDBRANCH  36  37
ENDBRANCH  29  31
ENDBRANCH  28  29
ENDBRANCH  27  28
ENDBRANCH  26  27
ENDBRANCH  25  26
ENDBRANCH   1  25
TORSDOF 21
ENDMDL
