MODEL 1
REMARK VINA RESULT:      -9.1      0.000      0.000
REMARK SMILES COc1ccc(NS(=O)(=O)c2ccc(NC(=O)[C@H]3CCCC[C@@H]3C(=O)OCCOCCOCCOC(=O)c3ccc(-c4c5nc(c(-c6cccc(S(=O)(=O)[O-])c6F)c6ccc([nH]6)c(-c6cccc(S(=O)(=O)[O-])c6F)c6nc(c(-c7cccc(S(=O)(=O)[O-])c7F)c7ccc4[nH]7)C=C6)C=C5)cc3)cc2)cc1
REMARK SMILES IDX 29 1 28 2 27 3 26 4 24 5 25 6 23 7 18 8 19 9 20 10 22 11
REMARK SMILES IDX 21 12 16 13 15 14 17 16 14 17 11 18 12 19 102 20 13 21
REMARK SMILES IDX 101 22 8 23 9 24 10 25 7 26 6 28 3 29 4 30 104 31 5 32
REMARK SMILES IDX 103 33 2 34 1 35 30 36 31 37 32 38 33 39 34 40 35 41 36 42
REMARK SMILES IDX 37 43 38 44 39 45 100 46 40 47 99 48 41 49 42 50 43 51 93 52
REMARK SMILES IDX 44 53 98 54 92 55 94 56 45 57 97 58 91 59 90 60 46 62 78 63
REMARK SMILES IDX 58 64 77 65 59 66 62 67 76 68 95 69 60 70 61 71 75 73 96 74
REMARK SMILES IDX 63 75 47 76 48 77 56 78 49 79 51 80 57 81 50 82 52 83 53 84
REMARK SMILES IDX 54 85 55 86 79 87 80 88 88 89 81 90 83 91 89 92 82 93 84 94
REMARK SMILES IDX 85 95 86 96 87 97 64 98 65 99 73 100 66 101 68 102 74 103
REMARK SMILES IDX 67 104 69 105 70 106 71 107 72 108
REMARK H PARENT 15 15 7 27 94 61 62 72
REMARK Flexibility Score: inf
ROOT
ATOM      1  O   UNL A   1      33.295  34.447  32.537  1.00  0.00    -0.376 OA
ENDROOT
BRANCH   1   2
ATOM      2  C   UNL A   1      33.636  35.320  31.485  1.00  0.00     0.202 C 
BRANCH   2   3
ATOM      3  C   UNL A   1      33.248  35.129  30.012  1.00  0.00     0.261 C 
BRANCH   3   4
ATOM      4  O   UNL A   1      34.247  34.735  29.068  1.00  0.00    -0.463 OA
BRANCH   4   5
ATOM      5  C   UNL A   1      33.955  33.705  28.224  1.00  0.00     0.309 C 
ATOM      6  O   UNL A   1      32.844  33.497  27.764  1.00  0.00    -0.252 OA
BRANCH   5   7
ATOM      7  C   UNL A   1      35.180  32.802  28.077  1.00  0.00     0.111 C 
ATOM      8  C   UNL A   1      35.116  31.341  28.511  1.00  0.00     0.093 C 
ATOM      9  C   UNL A   1      35.340  31.264  30.050  1.00  0.00     0.014 C 
ATOM     10  C   UNL A   1      36.562  32.038  30.560  1.00  0.00     0.001 C 
ATOM     11  C   UNL A   1      36.453  33.461  28.536  1.00  0.00     0.016 C 
ATOM     12  C   UNL A   1      36.612  33.460  30.034  1.00  0.00     0.001 C 
BRANCH   8  13
ATOM     13  C   UNL A   1      36.052  30.341  27.765  1.00  0.00     0.228 C 
ATOM     14  N   UNL A   1      35.660  29.362  26.887  1.00  0.00    -0.326 N 
ATOM     15  H   UNL A   1      36.402  28.815  26.542  1.00  0.00     0.169 HD
ATOM     16  O   UNL A   1      37.274  30.395  27.961  1.00  0.00    -0.274 OA
BRANCH  14  17
ATOM     17  C   UNL A   1      34.403  28.994  26.389  1.00  0.00     0.041 A 
ATOM     18  C   UNL A   1      32.286  27.534  25.295  1.00  0.00     0.087 A 
ATOM     19  C   UNL A   1      32.942  28.501  24.522  1.00  0.00     0.024 A 
ATOM     20  C   UNL A   1      32.533  27.484  26.671  1.00  0.00     0.024 A 
ATOM     21  C   UNL A   1      33.989  29.256  25.081  1.00  0.00     0.027 A 
ATOM     22  C   UNL A   1      33.595  28.212  27.219  1.00  0.00     0.027 A 
BRANCH  18  23
ATOM     23  S   UNL A   1      30.945  26.580  24.620  1.00  0.00     0.261 S 
ATOM     24  O   UNL A   1      29.916  26.540  25.644  1.00  0.00    -0.201 OA
ATOM     25  O   UNL A   1      31.512  25.336  24.140  1.00  0.00    -0.201 OA
BRANCH  23  26
ATOM     26  N   UNL A   1      30.167  27.313  23.318  1.00  0.00    -0.280 N 
ATOM     27  H   UNL A   1      30.182  26.798  22.478  1.00  0.00     0.180 HD
BRANCH  26  28
ATOM     28  C   UNL A   1      29.488  28.568  23.249  1.00  0.00     0.049 A 
ATOM     29  C   UNL A   1      28.285  31.127  23.344  1.00  0.00     0.119 A 
ATOM     30  C   UNL A   1      27.556  30.000  22.960  1.00  0.00     0.048 A 
ATOM     31  C   UNL A   1      29.568  30.952  23.838  1.00  0.00     0.048 A 
ATOM     32  C   UNL A   1      28.157  28.728  22.891  1.00  0.00     0.030 A 
ATOM     33  C   UNL A   1      30.150  29.676  23.811  1.00  0.00     0.030 A 
BRANCH  29  34
ATOM     34  O   UNL A   1      27.655  32.332  23.220  1.00  0.00    -0.497 OA
ATOM     35  C   UNL A   1      28.485  33.409  22.765  1.00  0.00     0.278 C 
ENDBRANCH  29  34
ENDBRANCH  26  28
ENDBRANCH  23  26
ENDBRANCH  18  23
ENDBRANCH  14  17
ENDBRANCH   8  13
ENDBRANCH   5   7
ENDBRANCH   4   5
ENDBRANCH   3   4
ENDBRANCH   2   3
ENDBRANCH   1   2
BRANCH   1  36
ATOM     36  C   UNL A   1      34.116  33.367  32.897  1.00  0.00     0.188 C 
BRANCH  36  37
ATOM     37  C   UNL A   1      35.335  33.706  33.780  1.00  0.00     0.188 C 
BRANCH  37  38
ATOM     38  O   UNL A   1      35.183  33.945  35.168  1.00  0.00    -0.376 OA
BRANCH  38  39
ATOM     39  C   UNL A   1      36.292  33.764  36.024  1.00  0.00     0.202 C 
BRANCH  39  40
ATOM     40  C   UNL A   1      37.554  33.069  35.488  1.00  0.00     0.261 C 
BRANCH  40  41
ATOM     41  O   UNL A   1      37.756  31.710  35.918  1.00  0.00    -0.460 OA
BRANCH  41  42
ATOM     42  C   UNL A   1      38.398  30.889  35.048  1.00  0.00     0.338 C 
ATOM     43  O   UNL A   1      38.075  29.741  34.763  1.00  0.00    -0.246 OA
BRANCH  42  44
ATOM     44  C   UNL A   1      39.456  31.623  34.309  1.00  0.00     0.060 A 
ATOM     45  C   UNL A   1      39.110  32.245  33.098  1.00  0.00     0.016 A 
ATOM     46  C   UNL A   1      40.775  31.681  34.763  1.00  0.00     0.016 A 
ATOM     47  C   UNL A   1      40.083  32.894  32.331  1.00  0.00     0.010 A 
ATOM     48  C   UNL A   1      41.753  32.318  33.979  1.00  0.00     0.010 A 
ATOM     49  C   UNL A   1      41.419  32.908  32.747  1.00  0.00    -0.014 A 
BRANCH  49  50
ATOM     50  C   UNL A   1      42.479  33.362  31.805  1.00  0.00     0.031 A 
ATOM     51  C   UNL A   1      43.033  32.369  30.817  1.00  0.00     0.074 A 
ATOM     52  C   UNL A   1      42.943  34.627  31.799  1.00  0.00     0.049 A 
ATOM     53  N   UNL A   1      43.993  32.513  29.941  1.00  0.00    -0.248 NA
ATOM     54  C   UNL A   1      42.413  31.034  30.817  1.00  0.00     0.031 C 
ATOM     55  C   UNL A   1      42.471  35.707  32.659  1.00  0.00     0.029 A 
ATOM     56  N   UNL A   1      43.940  35.206  31.047  1.00  0.00    -0.354 N 
ATOM     57  C   UNL A   1      44.115  31.282  29.308  1.00  0.00     0.074 A 
ATOM     58  C   UNL A   1      43.129  30.403  29.899  1.00  0.00     0.031 C 
ATOM     59  C   UNL A   1      43.202  36.811  32.413  1.00  0.00     0.029 A 
ATOM     60  C   UNL A   1      44.216  36.506  31.403  1.00  0.00     0.049 A 
ATOM     61  H   UNL A   1      44.411  34.735  30.321  1.00  0.00     0.167 HD
ATOM     62  C   UNL A   1      44.967  30.910  28.322  1.00  0.00     0.034 A 
ATOM     63  C   UNL A   1      45.195  37.340  30.992  1.00  0.00     0.034 A 
ATOM     64  C   UNL A   1      45.951  31.774  27.727  1.00  0.00     0.049 A 
ATOM     65  C   UNL A   1      46.177  36.883  29.937  1.00  0.00     0.074 A 
ATOM     66  C   UNL A   1      46.841  31.485  26.707  1.00  0.00     0.029 A 
ATOM     67  N   UNL A   1      46.192  33.083  28.109  1.00  0.00    -0.354 N 
ATOM     68  N   UNL A   1      46.225  35.745  29.287  1.00  0.00    -0.248 NA
ATOM     69  C   UNL A   1      47.227  37.836  29.541  1.00  0.00     0.031 C 
ATOM     70  C   UNL A   1      47.651  32.607  26.503  1.00  0.00     0.029 A 
ATOM     71  C   UNL A   1      47.231  33.611  27.359  1.00  0.00     0.049 A 
ATOM     72  H   UNL A   1      45.698  33.568  28.809  1.00  0.00     0.167 HD
ATOM     73  C   UNL A   1      47.276  35.863  28.381  1.00  0.00     0.074 A 
ATOM     74  C   UNL A   1      47.830  37.187  28.554  1.00  0.00     0.031 C 
ATOM     75  C   UNL A   1      47.745  34.950  27.494  1.00  0.00     0.034 A 
BRANCH  62  76
ATOM     76  C   UNL A   1      44.883  29.489  27.831  1.00  0.00     0.023 A 
ATOM     77  C   UNL A   1      45.801  28.527  28.295  1.00  0.00     0.012 A 
ATOM     78  C   UNL A   1      43.862  29.102  26.942  1.00  0.00     0.148 A 
ATOM     79  C   UNL A   1      45.727  27.207  27.852  1.00  0.00     0.002 A 
ATOM     80  C   UNL A   1      43.765  27.775  26.543  1.00  0.00     0.091 A 
ATOM     81  F   UNL A   1      43.012  30.038  26.497  1.00  0.00    -0.205 F 
ATOM     82  C   UNL A   1      44.704  26.830  26.986  1.00  0.00     0.022 A 
BRANCH  80  83
ATOM     83  S   UNL A   1      42.437  27.174  25.494  1.00  0.00     0.127 S 
ATOM     84  O   UNL A   1      41.255  27.581  26.253  1.00  0.00    -0.237 OA
ATOM     85  O   UNL A   1      42.658  27.929  24.260  1.00  0.00    -0.237 OA
ATOM     86  O   UNL A   1      42.636  25.737  25.374  1.00  0.00    -0.744 OA
ENDBRANCH  80  83
ENDBRANCH  62  76
BRANCH  63  87
ATOM     87  C   UNL A   1      45.315  38.709  31.578  1.00  0.00     0.023 A 
ATOM     88  C   UNL A   1      46.176  38.934  32.670  1.00  0.00     0.012 A 
ATOM     89  C   UNL A   1      44.558  39.784  31.071  1.00  0.00     0.148 A 
ATOM     90  C   UNL A   1      46.253  40.193  33.269  1.00  0.00     0.002 A 
ATOM     91  C   UNL A   1      44.687  41.049  31.631  1.00  0.00     0.091 A 
ATOM     92  F   UNL A   1      43.728  39.548  30.046  1.00  0.00    -0.205 F 
ATOM     93  C   UNL A   1      45.516  41.251  32.745  1.00  0.00     0.022 A 
BRANCH  91  94
ATOM     94  S   UNL A   1      43.877  42.498  30.946  1.00  0.00     0.127 S 
ATOM     95  O   UNL A   1      42.466  42.137  31.058  1.00  0.00    -0.237 OA
ATOM     96  O   UNL A   1      44.321  43.548  31.863  1.00  0.00    -0.237 OA
ATOM     97  O   UNL A   1      44.385  42.632  29.587  1.00  0.00    -0.744 OA
ENDBRANCH  91  94
ENDBRANCH  63  87
BRANCH  75  98
ATOM     98  C   UNL A   1      48.883  35.355  26.587  1.00  0.00     0.023 A 
ATOM     99  C   UNL A   1      48.622  36.017  25.371  1.00  0.00     0.012 A 
ATOM    100  C   UNL A   1      50.221  35.151  26.987  1.00  0.00     0.148 A 
ATOM    101  C   UNL A   1      49.672  36.439  24.554  1.00  0.00     0.002 A 
ATOM    102  C   UNL A   1      51.260  35.621  26.193  1.00  0.00     0.091 A 
ATOM    103  F   UNL A   1      50.452  34.507  28.140  1.00  0.00    -0.205 F 
ATOM    104  C   UNL A   1      50.988  36.253  24.969  1.00  0.00     0.022 A 
BRANCH 102 105
ATOM    105  S   UNL A   1      52.983  35.516  26.693  1.00  0.00     0.127 S 
ATOM    106  O   UNL A   1      52.930  36.045  28.055  1.00  0.00    -0.237 OA
ATOM    107  O   UNL A   1      53.244  34.079  26.607  1.00  0.00    -0.237 OA
ATOM    108  O   UNL A   1      53.730  36.326  25.739  1.00  0.00    -0.744 OA
ENDBRANCH 102 105
ENDBRANCH  75  98
ENDBRANCH  49  50
ENDBRANCH  42  44
ENDBRANCH  41  42
ENDBRANCH  40  41
ENDBRANCH  39  40
ENDBRANCH  38  39
ENDBRANCH  37  38
ENDBRANCH  36  37
ENDBRANCH   1  36
TORSDOF 26
ENDMDL
MODEL 2
REMARK VINA RESULT:      -8.8      4.981      9.502
REMARK SMILES COc1ccc(NS(=O)(=O)c2ccc(NC(=O)[C@H]3CCCC[C@@H]3C(=O)OCCOCCOCCOC(=O)c3ccc(-c4c5nc(c(-c6cccc(S(=O)(=O)[O-])c6F)c6ccc([nH]6)c(-c6cccc(S(=O)(=O)[O-])c6F)c6nc(c(-c7cccc(S(=O)(=O)[O-])c7F)c7ccc4[nH]7)C=C6)C=C5)cc3)cc2)cc1
REMARK SMILES IDX 29 1 28 2 27 3 26 4 24 5 25 6 23 7 18 8 19 9 20 10 22 11
REMARK SMILES IDX 21 12 16 13 15 14 17 16 14 17 11 18 12 19 102 20 13 21
REMARK SMILES IDX 101 22 8 23 9 24 10 25 7 26 6 28 3 29 4 30 104 31 5 32
REMARK SMILES IDX 103 33 2 34 1 35 30 36 31 37 32 38 33 39 34 40 35 41 36 42
REMARK SMILES IDX 37 43 38 44 39 45 100 46 40 47 99 48 41 49 42 50 43 51 93 52
REMARK SMILES IDX 44 53 98 54 92 55 94 56 45 57 97 58 91 59 90 60 46 62 78 63
REMARK SMILES IDX 58 64 77 65 59 66 62 67 76 68 95 69 60 70 61 71 75 73 96 74
REMARK SMILES IDX 63 75 47 76 48 77 56 78 49 79 51 80 57 81 50 82 52 83 53 84
REMARK SMILES IDX 54 85 55 86 79 87 80 88 88 89 81 90 83 91 89 92 82 93 84 94
REMARK SMILES IDX 85 95 86 96 87 97 64 98 65 99 73 100 66 101 68 102 74 103
REMARK SMILES IDX 67 104 69 105 70 106 71 107 72 108
REMARK H PARENT 15 15 7 27 94 61 62 72
REMARK Flexibility Score: inf
ROOT
ATOM      1  O   UNL A   1      38.400  21.790  26.345  1.00  0.00    -0.376 OA
ENDROOT
BRANCH   1   2
ATOM      2  C   UNL A   1      38.504  23.114  25.874  1.00  0.00     0.202 C 
BRANCH   2   3
ATOM      3  C   UNL A   1      37.338  23.964  25.350  1.00  0.00     0.261 C 
BRANCH   3   4
ATOM      4  O   UNL A   1      36.123  23.323  24.955  1.00  0.00    -0.463 OA
BRANCH   4   5
ATOM      5  C   UNL A   1      34.986  24.074  24.928  1.00  0.00     0.309 C 
ATOM      6  O   UNL A   1      34.957  25.272  25.159  1.00  0.00    -0.252 OA
BRANCH   5   7
ATOM      7  C   UNL A   1      33.777  23.162  24.716  1.00  0.00     0.111 C 
ATOM      8  C   UNL A   1      32.830  22.857  25.873  1.00  0.00     0.093 C 
ATOM      9  C   UNL A   1      33.443  21.714  26.735  1.00  0.00     0.014 C 
ATOM     10  C   UNL A   1      33.909  20.488  25.939  1.00  0.00     0.001 C 
ATOM     11  C   UNL A   1      34.109  21.923  23.929  1.00  0.00     0.016 C 
ATOM     12  C   UNL A   1      34.784  20.860  24.757  1.00  0.00     0.001 C 
BRANCH   8  13
ATOM     13  C   UNL A   1      31.348  22.540  25.508  1.00  0.00     0.228 C 
ATOM     14  N   UNL A   1      30.372  23.456  25.206  1.00  0.00    -0.326 N 
ATOM     15  H   UNL A   1      29.490  23.055  25.029  1.00  0.00     0.169 HD
ATOM     16  O   UNL A   1      30.970  21.360  25.483  1.00  0.00    -0.274 OA
BRANCH  14  17
ATOM     17  C   UNL A   1      30.393  24.853  25.104  1.00  0.00     0.041 A 
ATOM     18  C   UNL A   1      31.249  27.498  24.807  1.00  0.00     0.087 A 
ATOM     19  C   UNL A   1      30.857  27.025  26.067  1.00  0.00     0.024 A 
ATOM     20  C   UNL A   1      30.975  26.719  23.677  1.00  0.00     0.024 A 
ATOM     21  C   UNL A   1      30.399  25.703  26.212  1.00  0.00     0.027 A 
ATOM     22  C   UNL A   1      30.550  25.394  23.825  1.00  0.00     0.027 A 
BRANCH  18  23
ATOM     23  S   UNL A   1      31.811  29.170  24.592  1.00  0.00     0.261 S 
ATOM     24  O   UNL A   1      30.693  29.908  24.032  1.00  0.00    -0.201 OA
ATOM     25  O   UNL A   1      33.056  29.106  23.853  1.00  0.00    -0.201 OA
BRANCH  23  26
ATOM     26  N   UNL A   1      32.126  29.981  26.035  1.00  0.00    -0.280 N 
ATOM     27  H   UNL A   1      31.340  30.387  26.467  1.00  0.00     0.180 HD
BRANCH  26  28
ATOM     28  C   UNL A   1      33.362  30.166  26.727  1.00  0.00     0.049 A 
ATOM     29  C   UNL A   1      35.795  30.260  28.168  1.00  0.00     0.119 A 
ATOM     30  C   UNL A   1      34.899  31.330  28.193  1.00  0.00     0.048 A 
ATOM     31  C   UNL A   1      35.403  29.079  27.559  1.00  0.00     0.048 A 
ATOM     32  C   UNL A   1      33.697  31.296  27.460  1.00  0.00     0.030 A 
ATOM     33  C   UNL A   1      34.184  29.031  26.866  1.00  0.00     0.030 A 
BRANCH  29  34
ATOM     34  O   UNL A   1      37.001  30.460  28.777  1.00  0.00    -0.497 OA
ATOM     35  C   UNL A   1      38.116  29.815  28.147  1.00  0.00     0.278 C 
ENDBRANCH  29  34
ENDBRANCH  26  28
ENDBRANCH  23  26
ENDBRANCH  18  23
ENDBRANCH  14  17
ENDBRANCH   8  13
ENDBRANCH   5   7
ENDBRANCH   4   5
ENDBRANCH   3   4
ENDBRANCH   2   3
ENDBRANCH   1   2
BRANCH   1  36
ATOM     36  C   UNL A   1      38.987  20.714  25.661  1.00  0.00     0.188 C 
BRANCH  36  37
ATOM     37  C   UNL A   1      40.390  20.289  26.141  1.00  0.00     0.188 C 
BRANCH  37  38
ATOM     38  O   UNL A   1      41.557  20.828  25.545  1.00  0.00    -0.376 OA
BRANCH  38  39
ATOM     39  C   UNL A   1      42.750  20.890  26.298  1.00  0.00     0.202 C 
BRANCH  39  40
ATOM     40  C   UNL A   1      43.035  22.130  27.161  1.00  0.00     0.261 C 
BRANCH  40  41
ATOM     41  O   UNL A   1      43.905  23.118  26.577  1.00  0.00    -0.460 OA
BRANCH  41  42
ATOM     42  C   UNL A   1      45.220  22.791  26.493  1.00  0.00     0.338 C 
ATOM     43  O   UNL A   1      45.683  21.656  26.449  1.00  0.00    -0.246 OA
BRANCH  42  44
ATOM     44  C   UNL A   1      46.052  23.998  26.257  1.00  0.00     0.060 A 
ATOM     45  C   UNL A   1      46.886  24.442  27.295  1.00  0.00     0.016 A 
ATOM     46  C   UNL A   1      46.001  24.712  25.058  1.00  0.00     0.016 A 
ATOM     47  C   UNL A   1      47.642  25.611  27.148  1.00  0.00     0.010 A 
ATOM     48  C   UNL A   1      46.748  25.895  24.921  1.00  0.00     0.010 A 
ATOM     49  C   UNL A   1      47.554  26.366  25.973  1.00  0.00    -0.014 A 
BRANCH  49  50
ATOM     50  C   UNL A   1      48.147  27.731  25.929  1.00  0.00     0.031 A 
ATOM     51  C   UNL A   1      49.567  27.882  25.449  1.00  0.00     0.074 A 
ATOM     52  C   UNL A   1      47.452  28.829  26.288  1.00  0.00     0.049 A 
ATOM     53  N   UNL A   1      50.312  28.954  25.376  1.00  0.00    -0.248 NA
ATOM     54  C   UNL A   1      50.230  26.653  24.984  1.00  0.00     0.031 C 
ATOM     55  C   UNL A   1      46.060  28.846  26.725  1.00  0.00     0.029 A 
ATOM     56  N   UNL A   1      47.844  30.146  26.360  1.00  0.00    -0.354 N 
ATOM     57  C   UNL A   1      51.541  28.527  24.889  1.00  0.00     0.074 A 
ATOM     58  C   UNL A   1      51.440  27.099  24.681  1.00  0.00     0.031 C 
ATOM     59  C   UNL A   1      45.722  30.107  27.054  1.00  0.00     0.029 A 
ATOM     60  C   UNL A   1      46.884  30.981  26.885  1.00  0.00     0.049 A 
ATOM     61  H   UNL A   1      48.728  30.463  26.062  1.00  0.00     0.167 HD
ATOM     62  C   UNL A   1      52.655  29.253  24.633  1.00  0.00     0.034 A 
ATOM     63  C   UNL A   1      46.945  32.286  27.226  1.00  0.00     0.034 A 
ATOM     64  C   UNL A   1      52.767  30.672  24.835  1.00  0.00     0.049 A 
ATOM     65  C   UNL A   1      48.221  33.063  26.993  1.00  0.00     0.074 A 
ATOM     66  C   UNL A   1      53.854  31.492  24.581  1.00  0.00     0.029 A 
ATOM     67  N   UNL A   1      51.772  31.480  25.359  1.00  0.00    -0.354 N 
ATOM     68  N   UNL A   1      49.347  32.664  26.450  1.00  0.00    -0.248 NA
ATOM     69  C   UNL A   1      48.226  34.479  27.396  1.00  0.00     0.031 C 
ATOM     70  C   UNL A   1      53.529  32.789  24.994  1.00  0.00     0.029 A 
ATOM     71  C   UNL A   1      52.224  32.786  25.455  1.00  0.00     0.049 A 
ATOM     72  H   UNL A   1      50.874  31.173  25.622  1.00  0.00     0.167 HD
ATOM     73  C   UNL A   1      50.173  33.785  26.410  1.00  0.00     0.074 A 
ATOM     74  C   UNL A   1      49.414  34.883  26.967  1.00  0.00     0.031 C 
ATOM     75  C   UNL A   1      51.448  33.890  25.959  1.00  0.00     0.034 A 
BRANCH  62  76
ATOM     76  C   UNL A   1      53.861  28.515  24.116  1.00  0.00     0.023 A 
ATOM     77  C   UNL A   1      54.812  27.997  25.017  1.00  0.00     0.012 A 
ATOM     78  C   UNL A   1      54.026  28.297  22.734  1.00  0.00     0.148 A 
ATOM     79  C   UNL A   1      55.928  27.306  24.549  1.00  0.00     0.002 A 
ATOM     80  C   UNL A   1      55.115  27.566  22.278  1.00  0.00     0.091 A 
ATOM     81  F   UNL A   1      53.121  28.817  21.893  1.00  0.00    -0.205 F 
ATOM     82  C   UNL A   1      56.074  27.081  23.183  1.00  0.00     0.022 A 
BRANCH  80  83
ATOM     83  S   UNL A   1      55.348  27.156  20.546  1.00  0.00     0.127 S 
ATOM     84  O   UNL A   1      54.070  26.525  20.217  1.00  0.00    -0.237 OA
ATOM     85  O   UNL A   1      55.550  28.474  19.944  1.00  0.00    -0.237 OA
ATOM     86  O   UNL A   1      56.508  26.276  20.491  1.00  0.00    -0.744 OA
ENDBRANCH  80  83
ENDBRANCH  62  76
BRANCH  63  87
ATOM     87  C   UNL A   1      45.761  32.962  27.836  1.00  0.00     0.023 A 
ATOM     88  C   UNL A   1      45.452  32.749  29.194  1.00  0.00     0.012 A 
ATOM     89  C   UNL A   1      44.927  33.797  27.066  1.00  0.00     0.148 A 
ATOM     90  C   UNL A   1      44.315  33.325  29.765  1.00  0.00     0.002 A 
ATOM     91  C   UNL A   1      43.832  34.417  27.657  1.00  0.00     0.091 A 
ATOM     92  F   UNL A   1      45.223  33.972  25.772  1.00  0.00    -0.205 F 
ATOM     93  C   UNL A   1      43.510  34.164  28.999  1.00  0.00     0.022 A 
BRANCH  91  94
ATOM     94  S   UNL A   1      42.813  35.613  26.787  1.00  0.00     0.127 S 
ATOM     95  O   UNL A   1      41.632  35.684  27.644  1.00  0.00    -0.237 OA
ATOM     96  O   UNL A   1      43.666  36.803  26.811  1.00  0.00    -0.237 OA
ATOM     97  O   UNL A   1      42.593  35.058  25.459  1.00  0.00    -0.744 OA
ENDBRANCH  91  94
ENDBRANCH  63  87
BRANCH  75  98
ATOM     98  C   UNL A   1      52.106  35.250  25.989  1.00  0.00     0.023 A 
ATOM     99  C   UNL A   1      51.977  36.125  24.893  1.00  0.00     0.012 A 
ATOM    100  C   UNL A   1      52.782  35.690  27.146  1.00  0.00     0.148 A 
ATOM    101  C   UNL A   1      52.540  37.402  24.935  1.00  0.00     0.002 A 
ATOM    102  C   UNL A   1      53.294  36.981  27.200  1.00  0.00     0.091 A 
ATOM    103  F   UNL A   1      52.907  34.840  28.175  1.00  0.00    -0.205 F 
ATOM    104  C   UNL A   1      53.186  37.835  26.090  1.00  0.00     0.022 A 
BRANCH 102 105
ATOM    105  S   UNL A   1      54.052  37.659  28.681  1.00  0.00     0.127 S 
ATOM    106  O   UNL A   1      54.754  38.826  28.149  1.00  0.00    -0.237 OA
ATOM    107  O   UNL A   1      52.888  37.974  29.510  1.00  0.00    -0.237 OA
ATOM    108  O   UNL A   1      54.908  36.607  29.214  1.00  0.00    -0.744 OA
ENDBRANCH 102 105
ENDBRANCH  75  98
ENDBRANCH  49  50
ENDBRANCH  42  44
ENDBRANCH  41  42
ENDBRANCH  40  41
ENDBRANCH  39  40
ENDBRANCH  38  39
ENDBRANCH  37  38
ENDBRANCH  36  37
ENDBRANCH   1  36
TORSDOF 26
ENDMDL
MODEL 3
REMARK VINA RESULT:      -8.7      1.636      2.971
REMARK SMILES COc1ccc(NS(=O)(=O)c2ccc(NC(=O)[C@H]3CCCC[C@@H]3C(=O)OCCOCCOCCOC(=O)c3ccc(-c4c5nc(c(-c6cccc(S(=O)(=O)[O-])c6F)c6ccc([nH]6)c(-c6cccc(S(=O)(=O)[O-])c6F)c6nc(c(-c7cccc(S(=O)(=O)[O-])c7F)c7ccc4[nH]7)C=C6)C=C5)cc3)cc2)cc1
REMARK SMILES IDX 29 1 28 2 27 3 26 4 24 5 25 6 23 7 18 8 19 9 20 10 22 11
REMARK SMILES IDX 21 12 16 13 15 14 17 16 14 17 11 18 12 19 102 20 13 21
REMARK SMILES IDX 101 22 8 23 9 24 10 25 7 26 6 28 3 29 4 30 104 31 5 32
REMARK SMILES IDX 103 33 2 34 1 35 30 36 31 37 32 38 33 39 34 40 35 41 36 42
REMARK SMILES IDX 37 43 38 44 39 45 100 46 40 47 99 48 41 49 42 50 43 51 93 52
REMARK SMILES IDX 44 53 98 54 92 55 94 56 45 57 97 58 91 59 90 60 46 62 78 63
REMARK SMILES IDX 58 64 77 65 59 66 62 67 76 68 95 69 60 70 61 71 75 73 96 74
REMARK SMILES IDX 63 75 47 76 48 77 56 78 49 79 51 80 57 81 50 82 52 83 53 84
REMARK SMILES IDX 54 85 55 86 79 87 80 88 88 89 81 90 83 91 89 92 82 93 84 94
REMARK SMILES IDX 85 95 86 96 87 97 64 98 65 99 73 100 66 101 68 102 74 103
REMARK SMILES IDX 67 104 69 105 70 106 71 107 72 108
REMARK H PARENT 15 15 7 27 94 61 62 72
REMARK Flexibility Score: inf
ROOT
ATOM      1  O   UNL A   1      33.230  34.444  32.772  1.00  0.00    -0.376 OA
ENDROOT
BRANCH   1   2
ATOM      2  C   UNL A   1      33.473  35.444  31.809  1.00  0.00     0.202 C 
BRANCH   2   3
ATOM      3  C   UNL A   1      33.090  35.358  30.326  1.00  0.00     0.261 C 
BRANCH   3   4
ATOM      4  O   UNL A   1      34.098  35.066  29.355  1.00  0.00    -0.463 OA
BRANCH   4   5
ATOM      5  C   UNL A   1      33.846  34.076  28.453  1.00  0.00     0.309 C 
ATOM      6  O   UNL A   1      32.744  33.850  27.982  1.00  0.00    -0.252 OA
BRANCH   5   7
ATOM      7  C   UNL A   1      35.106  33.232  28.257  1.00  0.00     0.111 C 
ATOM      8  C   UNL A   1      35.091  31.740  28.577  1.00  0.00     0.093 C 
ATOM      9  C   UNL A   1      35.298  31.553  30.109  1.00  0.00     0.014 C 
ATOM     10  C   UNL A   1      36.484  32.330  30.696  1.00  0.00     0.001 C 
ATOM     11  C   UNL A   1      36.347  33.899  28.785  1.00  0.00     0.016 C 
ATOM     12  C   UNL A   1      36.487  33.789  30.281  1.00  0.00     0.001 C 
BRANCH   8  13
ATOM     13  C   UNL A   1      36.073  30.835  27.772  1.00  0.00     0.228 C 
ATOM     14  N   UNL A   1      35.729  29.782  26.962  1.00  0.00    -0.326 N 
ATOM     15  H   UNL A   1      36.499  29.318  26.562  1.00  0.00     0.169 HD
ATOM     16  O   UNL A   1      37.291  31.047  27.848  1.00  0.00    -0.274 OA
BRANCH  14  17
ATOM     17  C   UNL A   1      34.488  29.243  26.598  1.00  0.00     0.041 A 
ATOM     18  C   UNL A   1      32.414  27.456  26.031  1.00  0.00     0.087 A 
ATOM     19  C   UNL A   1      33.077  28.114  24.987  1.00  0.00     0.024 A 
ATOM     20  C   UNL A   1      32.630  27.884  27.346  1.00  0.00     0.024 A 
ATOM     21  C   UNL A   1      34.102  29.035  25.272  1.00  0.00     0.027 A 
ATOM     22  C   UNL A   1      33.670  28.775  27.631  1.00  0.00     0.027 A 
BRANCH  18  23
ATOM     23  S   UNL A   1      31.101  26.305  25.699  1.00  0.00     0.261 S 
ATOM     24  O   UNL A   1      30.614  26.613  24.366  1.00  0.00    -0.201 OA
ATOM     25  O   UNL A   1      30.184  26.376  26.819  1.00  0.00    -0.201 OA
BRANCH  23  26
ATOM     26  N   UNL A   1      31.607  24.704  25.566  1.00  0.00    -0.280 N 
ATOM     27  H   UNL A   1      30.884  24.035  25.573  1.00  0.00     0.180 HD
BRANCH  26  28
ATOM     28  C   UNL A   1      32.927  24.171  25.444  1.00  0.00     0.049 A 
ATOM     29  C   UNL A   1      35.562  23.142  25.481  1.00  0.00     0.119 A 
ATOM     30  C   UNL A   1      35.127  23.975  24.450  1.00  0.00     0.048 A 
ATOM     31  C   UNL A   1      34.736  22.956  26.579  1.00  0.00     0.048 A 
ATOM     32  C   UNL A   1      33.809  24.472  24.417  1.00  0.00     0.030 A 
ATOM     33  C   UNL A   1      33.439  23.490  26.565  1.00  0.00     0.030 A 
BRANCH  29  34
ATOM     34  O   UNL A   1      36.800  22.585  25.334  1.00  0.00    -0.497 OA
ATOM     35  C   UNL A   1      37.877  23.330  25.918  1.00  0.00     0.278 C 
ENDBRANCH  29  34
ENDBRANCH  26  28
ENDBRANCH  23  26
ENDBRANCH  18  23
ENDBRANCH  14  17
ENDBRANCH   8  13
ENDBRANCH   5   7
ENDBRANCH   4   5
ENDBRANCH   3   4
ENDBRANCH   2   3
ENDBRANCH   1   2
BRANCH   1  36
ATOM     36  C   UNL A   1      34.151  33.414  33.019  1.00  0.00     0.188 C 
BRANCH  36  37
ATOM     37  C   UNL A   1      35.365  33.785  33.896  1.00  0.00     0.188 C 
BRANCH  37  38
ATOM     38  O   UNL A   1      35.217  33.994  35.289  1.00  0.00    -0.376 OA
BRANCH  38  39
ATOM     39  C   UNL A   1      36.338  33.826  36.134  1.00  0.00     0.202 C 
BRANCH  39  40
ATOM     40  C   UNL A   1      37.597  33.134  35.588  1.00  0.00     0.261 C 
BRANCH  40  41
ATOM     41  O   UNL A   1      37.811  31.778  36.023  1.00  0.00    -0.460 OA
BRANCH  41  42
ATOM     42  C   UNL A   1      38.459  30.960  35.156  1.00  0.00     0.338 C 
ATOM     43  O   UNL A   1      38.141  29.810  34.870  1.00  0.00    -0.246 OA
BRANCH  42  44
ATOM     44  C   UNL A   1      39.516  31.698  34.419  1.00  0.00     0.060 A 
ATOM     45  C   UNL A   1      39.168  32.331  33.215  1.00  0.00     0.016 A 
ATOM     46  C   UNL A   1      40.837  31.749  34.869  1.00  0.00     0.016 A 
ATOM     47  C   UNL A   1      40.139  32.985  32.450  1.00  0.00     0.010 A 
ATOM     48  C   UNL A   1      41.814  32.390  34.088  1.00  0.00     0.010 A 
ATOM     49  C   UNL A   1      41.477  32.992  32.861  1.00  0.00    -0.014 A 
BRANCH  49  50
ATOM     50  C   UNL A   1      42.535  33.451  31.920  1.00  0.00     0.031 A 
ATOM     51  C   UNL A   1      43.082  32.466  30.921  1.00  0.00     0.074 A 
ATOM     52  C   UNL A   1      43.002  34.715  31.924  1.00  0.00     0.049 A 
ATOM     53  N   UNL A   1      44.039  32.616  30.043  1.00  0.00    -0.248 NA
ATOM     54  C   UNL A   1      42.458  31.133  30.911  1.00  0.00     0.031 C 
ATOM     55  C   UNL A   1      42.536  35.789  32.796  1.00  0.00     0.029 A 
ATOM     56  N   UNL A   1      43.998  35.298  31.174  1.00  0.00    -0.354 N 
ATOM     57  C   UNL A   1      44.156  31.391  29.398  1.00  0.00     0.074 A 
ATOM     58  C   UNL A   1      43.169  30.509  29.984  1.00  0.00     0.031 C 
ATOM     59  C   UNL A   1      43.269  36.893  32.557  1.00  0.00     0.029 A 
ATOM     60  C   UNL A   1      44.279  36.594  31.541  1.00  0.00     0.049 A 
ATOM     61  H   UNL A   1      44.465  34.833  30.442  1.00  0.00     0.167 HD
ATOM     62  C   UNL A   1      45.002  31.026  28.405  1.00  0.00     0.034 A 
ATOM     63  C   UNL A   1      45.259  37.430  31.134  1.00  0.00     0.034 A 
ATOM     64  C   UNL A   1      45.986  31.892  27.815  1.00  0.00     0.049 A 
ATOM     65  C   UNL A   1      46.236  36.979  30.072  1.00  0.00     0.074 A 
ATOM     66  C   UNL A   1      46.872  31.611  26.789  1.00  0.00     0.029 A 
ATOM     67  N   UNL A   1      46.233  33.197  28.208  1.00  0.00    -0.354 N 
ATOM     68  N   UNL A   1      46.277  35.847  29.411  1.00  0.00    -0.248 NA
ATOM     69  C   UNL A   1      47.287  37.933  29.680  1.00  0.00     0.031 C 
ATOM     70  C   UNL A   1      47.684  32.732  26.592  1.00  0.00     0.029 A 
ATOM     71  C   UNL A   1      47.270  33.729  27.459  1.00  0.00     0.049 A 
ATOM     72  H   UNL A   1      45.743  33.677  28.914  1.00  0.00     0.167 HD
ATOM     73  C   UNL A   1      47.326  35.971  28.502  1.00  0.00     0.074 A 
ATOM     74  C   UNL A   1      47.884  37.292  28.685  1.00  0.00     0.031 C 
ATOM     75  C   UNL A   1      47.789  35.065  27.604  1.00  0.00     0.034 A 
BRANCH  62  76
ATOM     76  C   UNL A   1      44.912  29.610  27.901  1.00  0.00     0.023 A 
ATOM     77  C   UNL A   1      45.834  28.642  28.347  1.00  0.00     0.012 A 
ATOM     78  C   UNL A   1      43.883  29.231  27.018  1.00  0.00     0.148 A 
ATOM     79  C   UNL A   1      45.755  27.327  27.892  1.00  0.00     0.002 A 
ATOM     80  C   UNL A   1      43.781  27.909  26.607  1.00  0.00     0.091 A 
ATOM     81  F   UNL A   1      43.029  30.172  26.590  1.00  0.00    -0.205 F 
ATOM     82  C   UNL A   1      44.724  26.959  27.032  1.00  0.00     0.022 A 
BRANCH  80  83
ATOM     83  S   UNL A   1      42.443  27.319  25.565  1.00  0.00     0.127 S 
ATOM     84  O   UNL A   1      42.552  28.213  24.412  1.00  0.00    -0.237 OA
ATOM     85  O   UNL A   1      42.844  25.937  25.305  1.00  0.00    -0.237 OA
ATOM     86  O   UNL A   1      41.225  27.463  26.350  1.00  0.00    -0.744 OA
ENDBRANCH  80  83
ENDBRANCH  62  76
BRANCH  63  87
ATOM     87  C   UNL A   1      45.385  38.793  31.733  1.00  0.00     0.023 A 
ATOM     88  C   UNL A   1      46.253  39.005  32.821  1.00  0.00     0.012 A 
ATOM     89  C   UNL A   1      44.626  39.874  31.240  1.00  0.00     0.148 A 
ATOM     90  C   UNL A   1      46.337  40.259  33.432  1.00  0.00     0.002 A 
ATOM     91  C   UNL A   1      44.761  41.133  31.812  1.00  0.00     0.091 A 
ATOM     92  F   UNL A   1      43.789  39.649  30.219  1.00  0.00    -0.205 F 
ATOM     93  C   UNL A   1      45.598  41.323  32.923  1.00  0.00     0.022 A 
BRANCH  91  94
ATOM     94  S   UNL A   1      43.949  42.590  31.146  1.00  0.00     0.127 S 
ATOM     95  O   UNL A   1      42.719  42.025  30.597  1.00  0.00    -0.237 OA
ATOM     96  O   UNL A   1      43.771  43.406  32.347  1.00  0.00    -0.237 OA
ATOM     97  O   UNL A   1      44.874  43.150  30.170  1.00  0.00    -0.744 OA
ENDBRANCH  91  94
ENDBRANCH  63  87
BRANCH  75  98
ATOM     98  C   UNL A   1      48.925  35.475  26.697  1.00  0.00     0.023 A 
ATOM     99  C   UNL A   1      48.658  36.100  25.463  1.00  0.00     0.012 A 
ATOM    100  C   UNL A   1      50.263  35.315  27.113  1.00  0.00     0.148 A 
ATOM    101  C   UNL A   1      49.705  36.527  24.644  1.00  0.00     0.002 A 
ATOM    102  C   UNL A   1      51.298  35.791  26.316  1.00  0.00     0.091 A 
ATOM    103  F   UNL A   1      50.500  34.706  28.284  1.00  0.00    -0.205 F 
ATOM    104  C   UNL A   1      51.022  36.384  25.074  1.00  0.00     0.022 A 
BRANCH 102 105
ATOM    105  S   UNL A   1      53.018  35.741  26.833  1.00  0.00     0.127 S 
ATOM    106  O   UNL A   1      53.510  34.563  26.121  1.00  0.00    -0.237 OA
ATOM    107  O   UNL A   1      53.530  37.016  26.329  1.00  0.00    -0.237 OA
ATOM    108  O   UNL A   1      52.999  35.628  28.286  1.00  0.00    -0.744 OA
ENDBRANCH 102 105
ENDBRANCH  75  98
ENDBRANCH  49  50
ENDBRANCH  42  44
ENDBRANCH  41  42
ENDBRANCH  40  41
ENDBRANCH  39  40
ENDBRANCH  38  39
ENDBRANCH  37  38
ENDBRANCH  36  37
ENDBRANCH   1  36
TORSDOF 26
ENDMDL
