MODEL 1
REMARK VINA RESULT:      -9.1      0.000      0.000
REMARK SMILES CN(CC(=O)NCC(=O)OCCOCCOCCOC(=O)c1ccc(-c2c3nc(c(-c4cccc(S(=O)(=O)[O-])c4F)c4ccc([nH]4)c(-c4cccc(S(=O)(=O)[O-])c4F)c4nc(c(-c5cccc(S(=O)(=O)[O-])c5F)c5ccc2[nH]5)C=C4)C=C3)cc1)c1ncccn1
REMARK SMILES IDX 14 1 13 2 12 3 11 4 10 5 8 6 9 7 7 8 6 9 4 10 5 11 3 13 2 14
REMARK SMILES IDX 1 15 85 16 86 17 90 18 87 19 89 20 88 21 15 22 16 23 17 24
REMARK SMILES IDX 18 25 19 26 20 27 21 28 22 29 23 30 84 31 24 32 83 33 25 34
REMARK SMILES IDX 26 35 27 36 77 37 28 38 82 39 76 40 78 41 29 42 81 43 75 44
REMARK SMILES IDX 74 45 30 47 62 48 42 49 61 50 43 51 46 52 60 53 79 54 44 55
REMARK SMILES IDX 45 56 59 58 80 59 47 60 31 61 32 62 40 63 33 64 35 65 41 66
REMARK SMILES IDX 34 67 36 68 37 69 38 70 39 71 63 72 64 73 72 74 65 75 67 76
REMARK SMILES IDX 73 77 66 78 68 79 69 80 70 81 71 82 48 83 49 84 57 85 50 86
REMARK SMILES IDX 52 87 58 88 51 89 53 90 54 91 55 92 56 93
REMARK H PARENT 6 12 78 46 46 57
REMARK Flexibility Score: inf
ROOT
ATOM      1  C   UNL A   1      32.310  28.657  25.516  1.00  0.00     0.188 C 
ENDROOT
BRANCH   1   2
ATOM      2  O   UNL A   1      32.383  27.328  25.009  1.00  0.00    -0.376 OA
BRANCH   2   3
ATOM      3  C   UNL A   1      33.561  26.917  24.321  1.00  0.00     0.202 C 
BRANCH   3   4
ATOM      4  C   UNL A   1      33.558  26.897  22.781  1.00  0.00     0.261 C 
BRANCH   4   5
ATOM      5  O   UNL A   1      32.641  25.953  22.190  1.00  0.00    -0.462 OA
BRANCH   5   6
ATOM      6  C   UNL A   1      32.855  24.640  22.460  1.00  0.00     0.325 C 
ATOM      7  O   UNL A   1      33.908  24.052  22.224  1.00  0.00    -0.250 OA
BRANCH   6   8
ATOM      8  C   UNL A   1      31.732  23.955  23.266  1.00  0.00     0.238 C 
BRANCH   8   9
ATOM      9  N   UNL A   1      31.176  24.481  24.507  1.00  0.00    -0.344 N 
ATOM     10  C   UNL A   1      31.008  23.835  25.697  1.00  0.00     0.240 C 
ATOM     11  O   UNL A   1      30.739  24.508  26.696  1.00  0.00    -0.273 OA
ATOM     12  H   UNL A   1      30.885  25.421  24.483  1.00  0.00     0.164 HD
BRANCH  10  13
ATOM     13  C   UNL A   1      31.283  22.334  25.788  1.00  0.00     0.219 C 
BRANCH  13  14
ATOM     14  N   UNL A   1      32.702  21.994  25.817  1.00  0.00    -0.335 N 
ATOM     15  C   UNL A   1      33.597  22.647  26.742  1.00  0.00     0.147 C 
BRANCH  14  16
ATOM     16  C   UNL A   1      33.072  20.772  25.293  1.00  0.00     0.225 A 
ATOM     17  N   UNL A   1      34.378  20.500  25.170  1.00  0.00    -0.221 NA
ATOM     18  N   UNL A   1      32.118  19.889  24.952  1.00  0.00    -0.221 NA
ATOM     19  C   UNL A   1      34.737  19.273  24.753  1.00  0.00     0.117 A 
ATOM     20  C   UNL A   1      32.520  18.693  24.480  1.00  0.00     0.117 A 
ATOM     21  C   UNL A   1      33.833  18.317  24.374  1.00  0.00     0.040 A 
ENDBRANCH  14  16
ENDBRANCH  13  14
ENDBRANCH  10  13
ENDBRANCH   8   9
ENDBRANCH   6   8
ENDBRANCH   5   6
ENDBRANCH   4   5
ENDBRANCH   3   4
ENDBRANCH   2   3
ENDBRANCH   1   2
BRANCH   1  22
ATOM     22  C   UNL A   1      33.181  29.027  26.731  1.00  0.00     0.188 C 
BRANCH  22  23
ATOM     23  O   UNL A   1      33.760  30.307  26.658  1.00  0.00    -0.376 OA
BRANCH  23  24
ATOM     24  C   UNL A   1      32.929  31.444  26.722  1.00  0.00     0.202 C 
BRANCH  24  25
ATOM     25  C   UNL A   1      32.959  32.392  27.935  1.00  0.00     0.261 C 
BRANCH  25  26
ATOM     26  O   UNL A   1      33.116  33.795  27.683  1.00  0.00    -0.460 OA
BRANCH  26  27
ATOM     27  C   UNL A   1      33.288  34.603  28.754  1.00  0.00     0.338 C 
ATOM     28  O   UNL A   1      32.529  35.485  29.134  1.00  0.00    -0.246 OA
BRANCH  27  29
ATOM     29  C   UNL A   1      34.437  34.084  29.527  1.00  0.00     0.060 A 
ATOM     30  C   UNL A   1      35.740  34.306  29.056  1.00  0.00     0.016 A 
ATOM     31  C   UNL A   1      34.227  33.396  30.724  1.00  0.00     0.016 A 
ATOM     32  C   UNL A   1      36.838  33.819  29.770  1.00  0.00     0.010 A 
ATOM     33  C   UNL A   1      35.325  32.886  31.422  1.00  0.00     0.010 A 
ATOM     34  C   UNL A   1      36.632  33.066  30.933  1.00  0.00    -0.014 A 
BRANCH  34  35
ATOM     35  C   UNL A   1      37.746  32.287  31.528  1.00  0.00     0.031 A 
ATOM     36  C   UNL A   1      38.321  32.762  32.836  1.00  0.00     0.074 A 
ATOM     37  C   UNL A   1      38.263  31.206  30.917  1.00  0.00     0.049 A 
ATOM     38  N   UNL A   1      39.361  32.326  33.495  1.00  0.00    -0.248 NA
ATOM     39  C   UNL A   1      37.629  33.892  33.481  1.00  0.00     0.031 C 
ATOM     40  C   UNL A   1      37.784  30.631  29.662  1.00  0.00     0.029 A 
ATOM     41  N   UNL A   1      39.336  30.420  31.262  1.00  0.00    -0.354 N 
ATOM     42  C   UNL A   1      39.473  33.150  34.609  1.00  0.00     0.074 A 
ATOM     43  C   UNL A   1      38.400  34.116  34.533  1.00  0.00     0.031 C 
ATOM     44  C   UNL A   1      38.584  29.605  29.321  1.00  0.00     0.029 A 
ATOM     45  C   UNL A   1      39.650  29.475  30.315  1.00  0.00     0.049 A 
ATOM     46  H   UNL A   1      39.831  30.524  32.107  1.00  0.00     0.167 HD
ATOM     47  C   UNL A   1      40.382  33.103  35.610  1.00  0.00     0.034 A 
ATOM     48  C   UNL A   1      40.698  28.628  30.241  1.00  0.00     0.034 A 
ATOM     49  C   UNL A   1      41.443  32.136  35.690  1.00  0.00     0.049 A 
ATOM     50  C   UNL A   1      41.726  28.624  31.347  1.00  0.00     0.074 A 
ATOM     51  C   UNL A   1      42.392  31.983  36.683  1.00  0.00     0.029 A 
ATOM     52  N   UNL A   1      41.706  31.170  34.731  1.00  0.00    -0.354 N 
ATOM     53  N   UNL A   1      41.767  29.344  32.442  1.00  0.00    -0.248 NA
ATOM     54  C   UNL A   1      42.837  27.668  31.221  1.00  0.00     0.031 C 
ATOM     55  C   UNL A   1      43.253  30.948  36.307  1.00  0.00     0.029 A 
ATOM     56  C   UNL A   1      42.810  30.424  35.104  1.00  0.00     0.049 A 
ATOM     57  H   UNL A   1      41.183  31.034  33.908  1.00  0.00     0.167 HD
ATOM     58  C   UNL A   1      42.876  28.897  33.155  1.00  0.00     0.074 A 
ATOM     59  C   UNL A   1      43.472  27.834  32.373  1.00  0.00     0.031 C 
ATOM     60  C   UNL A   1      43.360  29.329  34.345  1.00  0.00     0.034 A 
BRANCH  47  61
ATOM     61  C   UNL A   1      40.265  34.127  36.709  1.00  0.00     0.023 A 
ATOM     62  C   UNL A   1      40.678  35.455  36.477  1.00  0.00     0.012 A 
ATOM     63  C   UNL A   1      39.705  33.784  37.955  1.00  0.00     0.148 A 
ATOM     64  C   UNL A   1      40.568  36.417  37.481  1.00  0.00     0.002 A 
ATOM     65  C   UNL A   1      39.551  34.759  38.932  1.00  0.00     0.091 A 
ATOM     66  F   UNL A   1      39.340  32.511  38.163  1.00  0.00    -0.205 F 
ATOM     67  C   UNL A   1      39.995  36.072  38.702  1.00  0.00     0.022 A 
BRANCH  65  68
ATOM     68  S   UNL A   1      38.751  34.435  40.506  1.00  0.00     0.127 S 
ATOM     69  O   UNL A   1      37.577  33.671  40.090  1.00  0.00    -0.237 OA
ATOM     70  O   UNL A   1      39.769  33.655  41.211  1.00  0.00    -0.237 OA
ATOM     71  O   UNL A   1      38.470  35.739  41.092  1.00  0.00    -0.744 OA
ENDBRANCH  65  68
ENDBRANCH  47  61
BRANCH  48  72
ATOM     72  C   UNL A   1      40.832  27.694  29.086  1.00  0.00     0.023 A 
ATOM     73  C   UNL A   1      40.099  26.491  29.075  1.00  0.00     0.012 A 
ATOM     74  C   UNL A   1      41.688  27.984  28.006  1.00  0.00     0.148 A 
ATOM     75  C   UNL A   1      40.243  25.578  28.031  1.00  0.00     0.002 A 
ATOM     76  C   UNL A   1      41.785  27.096  26.940  1.00  0.00     0.091 A 
ATOM     77  F   UNL A   1      42.391  29.125  28.041  1.00  0.00    -0.205 F 
ATOM     78  C   UNL A   1      41.077  25.884  26.959  1.00  0.00     0.022 A 
BRANCH  76  79
ATOM     79  S   UNL A   1      42.741  27.457  25.464  1.00  0.00     0.127 S 
ATOM     80  O   UNL A   1      44.090  27.594  26.008  1.00  0.00    -0.237 OA
ATOM     81  O   UNL A   1      42.519  26.254  24.662  1.00  0.00    -0.237 OA
ATOM     82  O   UNL A   1      42.163  28.671  24.905  1.00  0.00    -0.744 OA
ENDBRANCH  76  79
ENDBRANCH  48  72
BRANCH  60  83
ATOM     83  C   UNL A   1      44.557  28.618  34.925  1.00  0.00     0.023 A 
ATOM     84  C   UNL A   1      45.858  29.106  34.688  1.00  0.00     0.012 A 
ATOM     85  C   UNL A   1      44.381  27.510  35.777  1.00  0.00     0.148 A 
ATOM     86  C   UNL A   1      46.965  28.481  35.264  1.00  0.00     0.002 A 
ATOM     87  C   UNL A   1      45.482  26.925  36.391  1.00  0.00     0.091 A 
ATOM     88  F   UNL A   1      43.136  27.051  35.978  1.00  0.00    -0.205 F 
ATOM     89  C   UNL A   1      46.776  27.401  36.124  1.00  0.00     0.022 A 
BRANCH  87  90
ATOM     90  S   UNL A   1      45.327  25.597  37.590  1.00  0.00     0.127 S 
ATOM     91  O   UNL A   1      46.076  24.522  36.941  1.00  0.00    -0.237 OA
ATOM     92  O   UNL A   1      45.980  26.169  38.768  1.00  0.00    -0.237 OA
ATOM     93  O   UNL A   1      43.900  25.356  37.745  1.00  0.00    -0.744 OA
ENDBRANCH  87  90
ENDBRANCH  60  83
ENDBRANCH  34  35
ENDBRANCH  27  29
ENDBRANCH  26  27
ENDBRANCH  25  26
ENDBRANCH  24  25
ENDBRANCH  23  24
ENDBRANCH  22  23
ENDBRANCH   1  22
TORSDOF 24
ENDMDL
MODEL 2
REMARK VINA RESULT:      -8.8      5.684     10.499
REMARK SMILES CN(CC(=O)NCC(=O)OCCOCCOCCOC(=O)c1ccc(-c2c3nc(c(-c4cccc(S(=O)(=O)[O-])c4F)c4ccc([nH]4)c(-c4cccc(S(=O)(=O)[O-])c4F)c4nc(c(-c5cccc(S(=O)(=O)[O-])c5F)c5ccc2[nH]5)C=C4)C=C3)cc1)c1ncccn1
REMARK SMILES IDX 14 1 13 2 12 3 11 4 10 5 8 6 9 7 7 8 6 9 4 10 5 11 3 13 2 14
REMARK SMILES IDX 1 15 85 16 86 17 90 18 87 19 89 20 88 21 15 22 16 23 17 24
REMARK SMILES IDX 18 25 19 26 20 27 21 28 22 29 23 30 84 31 24 32 83 33 25 34
REMARK SMILES IDX 26 35 27 36 77 37 28 38 82 39 76 40 78 41 29 42 81 43 75 44
REMARK SMILES IDX 74 45 30 47 62 48 42 49 61 50 43 51 46 52 60 53 79 54 44 55
REMARK SMILES IDX 45 56 59 58 80 59 47 60 31 61 32 62 40 63 33 64 35 65 41 66
REMARK SMILES IDX 34 67 36 68 37 69 38 70 39 71 63 72 64 73 72 74 65 75 67 76
REMARK SMILES IDX 73 77 66 78 68 79 69 80 70 81 71 82 48 83 49 84 57 85 50 86
REMARK SMILES IDX 52 87 58 88 51 89 53 90 54 91 55 92 56 93
REMARK H PARENT 6 12 78 46 46 57
REMARK Flexibility Score: inf
ROOT
ATOM      1  C   UNL A   1      40.578  21.032  27.195  1.00  0.00     0.188 C 
ENDROOT
BRANCH   1   2
ATOM      2  O   UNL A   1      40.034  21.767  26.104  1.00  0.00    -0.376 OA
BRANCH   2   3
ATOM      3  C   UNL A   1      39.138  22.841  26.376  1.00  0.00     0.202 C 
BRANCH   3   4
ATOM      4  C   UNL A   1      37.680  22.739  25.891  1.00  0.00     0.261 C 
BRANCH   4   5
ATOM      5  O   UNL A   1      37.468  21.819  24.799  1.00  0.00    -0.462 OA
BRANCH   5   6
ATOM      6  C   UNL A   1      36.597  20.801  25.018  1.00  0.00     0.325 C 
ATOM      7  O   UNL A   1      36.880  19.613  24.884  1.00  0.00    -0.250 OA
BRANCH   6   8
ATOM      8  C   UNL A   1      35.248  21.227  25.632  1.00  0.00     0.238 C 
BRANCH   8   9
ATOM      9  N   UNL A   1      34.361  22.226  25.050  1.00  0.00    -0.344 N 
ATOM     10  C   UNL A   1      33.008  22.158  24.882  1.00  0.00     0.240 C 
ATOM     11  O   UNL A   1      32.402  23.193  24.586  1.00  0.00    -0.273 OA
ATOM     12  H   UNL A   1      34.792  23.055  24.738  1.00  0.00     0.164 HD
BRANCH  10  13
ATOM     13  C   UNL A   1      32.272  20.855  25.188  1.00  0.00     0.219 C 
BRANCH  13  14
ATOM     14  N   UNL A   1      32.210  19.932  24.060  1.00  0.00    -0.335 N 
ATOM     15  C   UNL A   1      32.220  20.425  22.703  1.00  0.00     0.147 C 
BRANCH  14  16
ATOM     16  C   UNL A   1      32.588  18.624  24.289  1.00  0.00     0.225 A 
ATOM     17  N   UNL A   1      33.195  17.953  23.300  1.00  0.00    -0.221 NA
ATOM     18  N   UNL A   1      32.363  18.079  25.496  1.00  0.00    -0.221 NA
ATOM     19  C   UNL A   1      33.650  16.715  23.556  1.00  0.00     0.117 A 
ATOM     20  C   UNL A   1      32.780  16.813  25.692  1.00  0.00     0.117 A 
ATOM     21  C   UNL A   1      33.456  16.079  24.753  1.00  0.00     0.040 A 
ENDBRANCH  14  16
ENDBRANCH  13  14
ENDBRANCH  10  13
ENDBRANCH   8   9
ENDBRANCH   6   8
ENDBRANCH   5   6
ENDBRANCH   4   5
ENDBRANCH   3   4
ENDBRANCH   2   3
ENDBRANCH   1   2
BRANCH   1  22
ATOM     22  C   UNL A   1      41.953  20.362  27.015  1.00  0.00     0.188 C 
BRANCH  22  23
ATOM     23  O   UNL A   1      42.479  20.465  25.715  1.00  0.00    -0.376 OA
BRANCH  23  24
ATOM     24  C   UNL A   1      43.626  21.255  25.495  1.00  0.00     0.202 C 
BRANCH  24  25
ATOM     25  C   UNL A   1      43.704  22.712  25.988  1.00  0.00     0.261 C 
BRANCH  25  26
ATOM     26  O   UNL A   1      45.005  23.280  26.189  1.00  0.00    -0.460 OA
BRANCH  26  27
ATOM     27  C   UNL A   1      45.342  24.347  25.429  1.00  0.00     0.338 C 
ATOM     28  O   UNL A   1      45.749  24.324  24.275  1.00  0.00    -0.246 OA
BRANCH  27  29
ATOM     29  C   UNL A   1      44.911  25.565  26.149  1.00  0.00     0.060 A 
ATOM     30  C   UNL A   1      44.342  26.626  25.428  1.00  0.00     0.016 A 
ATOM     31  C   UNL A   1      45.052  25.650  27.535  1.00  0.00     0.016 A 
ATOM     32  C   UNL A   1      43.934  27.787  26.090  1.00  0.00     0.010 A 
ATOM     33  C   UNL A   1      44.668  26.822  28.192  1.00  0.00     0.010 A 
ATOM     34  C   UNL A   1      44.137  27.908  27.470  1.00  0.00    -0.014 A 
BRANCH  34  35
ATOM     35  C   UNL A   1      44.002  29.228  28.135  1.00  0.00     0.031 A 
ATOM     36  C   UNL A   1      45.217  30.114  28.199  1.00  0.00     0.074 A 
ATOM     37  C   UNL A   1      42.848  29.623  28.701  1.00  0.00     0.049 A 
ATOM     38  N   UNL A   1      45.385  31.252  28.818  1.00  0.00    -0.248 NA
ATOM     39  C   UNL A   1      46.407  29.644  27.468  1.00  0.00     0.031 C 
ATOM     40  C   UNL A   1      41.596  28.870  28.690  1.00  0.00     0.029 A 
ATOM     41  N   UNL A   1      42.557  30.752  29.428  1.00  0.00    -0.354 N 
ATOM     42  C   UNL A   1      46.708  31.615  28.587  1.00  0.00     0.074 A 
ATOM     43  C   UNL A   1      47.298  30.573  27.777  1.00  0.00     0.031 C 
ATOM     44  C   UNL A   1      40.680  29.540  29.412  1.00  0.00     0.029 A 
ATOM     45  C   UNL A   1      41.291  30.749  29.963  1.00  0.00     0.049 A 
ATOM     46  H   UNL A   1      43.195  31.492  29.554  1.00  0.00     0.167 HD
ATOM     47  C   UNL A   1      47.369  32.718  29.004  1.00  0.00     0.034 A 
ATOM     48  C   UNL A   1      40.707  31.606  30.827  1.00  0.00     0.034 A 
ATOM     49  C   UNL A   1      46.778  33.758  29.802  1.00  0.00     0.049 A 
ATOM     50  C   UNL A   1      41.479  32.807  31.316  1.00  0.00     0.074 A 
ATOM     51  C   UNL A   1      47.356  34.934  30.244  1.00  0.00     0.029 A 
ATOM     52  N   UNL A   1      45.482  33.739  30.292  1.00  0.00    -0.354 N 
ATOM     53  N   UNL A   1      42.697  33.187  31.013  1.00  0.00    -0.248 NA
ATOM     54  C   UNL A   1      40.785  33.714  32.242  1.00  0.00     0.031 C 
ATOM     55  C   UNL A   1      46.419  35.608  31.034  1.00  0.00     0.029 A 
ATOM     56  C   UNL A   1      45.244  34.876  31.041  1.00  0.00     0.049 A 
ATOM     57  H   UNL A   1      44.827  33.022  30.128  1.00  0.00     0.167 HD
ATOM     58  C   UNL A   1      42.897  34.397  31.673  1.00  0.00     0.074 A 
ATOM     59  C   UNL A   1      41.669  34.693  32.381  1.00  0.00     0.031 C 
ATOM     60  C   UNL A   1      43.997  35.188  31.694  1.00  0.00     0.034 A 
BRANCH  47  61
ATOM     61  C   UNL A   1      48.812  32.862  28.599  1.00  0.00     0.023 A 
ATOM     62  C   UNL A   1      49.834  32.470  29.488  1.00  0.00     0.012 A 
ATOM     63  C   UNL A   1      49.156  33.344  27.320  1.00  0.00     0.148 A 
ATOM     64  C   UNL A   1      51.175  32.588  29.124  1.00  0.00     0.002 A 
ATOM     65  C   UNL A   1      50.491  33.411  26.946  1.00  0.00     0.091 A 
ATOM     66  F   UNL A   1      48.171  33.733  26.498  1.00  0.00    -0.205 F 
ATOM     67  C   UNL A   1      51.502  33.047  27.851  1.00  0.00     0.022 A 
BRANCH  65  68
ATOM     68  S   UNL A   1      51.014  33.910  25.303  1.00  0.00     0.127 S 
ATOM     69  O   UNL A   1      49.841  34.642  24.829  1.00  0.00    -0.237 OA
ATOM     70  O   UNL A   1      52.178  34.747  25.593  1.00  0.00    -0.237 OA
ATOM     71  O   UNL A   1      51.312  32.680  24.582  1.00  0.00    -0.744 OA
ENDBRANCH  65  68
ENDBRANCH  47  61
BRANCH  48  72
ATOM     72  C   UNL A   1      39.305  31.376  31.282  1.00  0.00     0.023 A 
ATOM     73  C   UNL A   1      39.061  30.536  32.387  1.00  0.00     0.012 A 
ATOM     74  C   UNL A   1      38.214  31.974  30.622  1.00  0.00     0.148 A 
ATOM     75  C   UNL A   1      37.757  30.266  32.803  1.00  0.00     0.002 A 
ATOM     76  C   UNL A   1      36.920  31.747  31.076  1.00  0.00     0.091 A 
ATOM     77  F   UNL A   1      38.464  32.757  29.563  1.00  0.00    -0.205 F 
ATOM     78  C   UNL A   1      36.687  30.878  32.154  1.00  0.00     0.022 A 
BRANCH  76  79
ATOM     79  S   UNL A   1      35.490  32.581  30.381  1.00  0.00     0.127 S 
ATOM     80  O   UNL A   1      35.996  33.939  30.198  1.00  0.00    -0.237 OA
ATOM     81  O   UNL A   1      35.278  31.830  29.143  1.00  0.00    -0.237 OA
ATOM     82  O   UNL A   1      34.428  32.434  31.366  1.00  0.00    -0.744 OA
ENDBRANCH  76  79
ENDBRANCH  48  72
BRANCH  60  83
ATOM     83  C   UNL A   1      43.919  36.491  32.451  1.00  0.00     0.023 A 
ATOM     84  C   UNL A   1      44.159  36.523  33.839  1.00  0.00     0.012 A 
ATOM     85  C   UNL A   1      43.690  37.700  31.762  1.00  0.00     0.148 A 
ATOM     86  C   UNL A   1      44.137  37.733  34.534  1.00  0.00     0.002 A 
ATOM     87  C   UNL A   1      43.724  38.906  32.450  1.00  0.00     0.091 A 
ATOM     88  F   UNL A   1      43.449  37.647  30.443  1.00  0.00    -0.205 F 
ATOM     89  C   UNL A   1      43.933  38.923  33.838  1.00  0.00     0.022 A 
BRANCH  87  90
ATOM     90  S   UNL A   1      43.573  40.494  31.623  1.00  0.00     0.127 S 
ATOM     91  O   UNL A   1      42.182  40.845  31.905  1.00  0.00    -0.237 OA
ATOM     92  O   UNL A   1      44.562  41.306  32.334  1.00  0.00    -0.237 OA
ATOM     93  O   UNL A   1      43.883  40.251  30.221  1.00  0.00    -0.744 OA
ENDBRANCH  87  90
ENDBRANCH  60  83
ENDBRANCH  34  35
ENDBRANCH  27  29
ENDBRANCH  26  27
ENDBRANCH  25  26
ENDBRANCH  24  25
ENDBRANCH  23  24
ENDBRANCH  22  23
ENDBRANCH   1  22
TORSDOF 24
ENDMDL
MODEL 3
REMARK VINA RESULT:      -8.7      1.651      7.771
REMARK SMILES CN(CC(=O)NCC(=O)OCCOCCOCCOC(=O)c1ccc(-c2c3nc(c(-c4cccc(S(=O)(=O)[O-])c4F)c4ccc([nH]4)c(-c4cccc(S(=O)(=O)[O-])c4F)c4nc(c(-c5cccc(S(=O)(=O)[O-])c5F)c5ccc2[nH]5)C=C4)C=C3)cc1)c1ncccn1
REMARK SMILES IDX 14 1 13 2 12 3 11 4 10 5 8 6 9 7 7 8 6 9 4 10 5 11 3 13 2 14
REMARK SMILES IDX 1 15 85 16 86 17 90 18 87 19 89 20 88 21 15 22 16 23 17 24
REMARK SMILES IDX 18 25 19 26 20 27 21 28 22 29 23 30 84 31 24 32 83 33 25 34
REMARK SMILES IDX 26 35 27 36 77 37 28 38 82 39 76 40 78 41 29 42 81 43 75 44
REMARK SMILES IDX 74 45 30 47 62 48 42 49 61 50 43 51 46 52 60 53 79 54 44 55
REMARK SMILES IDX 45 56 59 58 80 59 47 60 31 61 32 62 40 63 33 64 35 65 41 66
REMARK SMILES IDX 34 67 36 68 37 69 38 70 39 71 63 72 64 73 72 74 65 75 67 76
REMARK SMILES IDX 73 77 66 78 68 79 69 80 70 81 71 82 48 83 49 84 57 85 50 86
REMARK SMILES IDX 52 87 58 88 51 89 53 90 54 91 55 92 56 93
REMARK H PARENT 6 12 78 46 46 57
REMARK Flexibility Score: inf
ROOT
ATOM      1  C   UNL A   1      31.095  28.200  25.877  1.00  0.00     0.188 C 
ENDROOT
BRANCH   1   2
ATOM      2  O   UNL A   1      31.288  27.183  26.855  1.00  0.00    -0.376 OA
BRANCH   2   3
ATOM      3  C   UNL A   1      31.929  25.970  26.469  1.00  0.00     0.202 C 
BRANCH   3   4
ATOM      4  C   UNL A   1      31.079  24.697  26.299  1.00  0.00     0.261 C 
BRANCH   4   5
ATOM      5  O   UNL A   1      30.712  24.391  24.938  1.00  0.00    -0.462 OA
BRANCH   5   6
ATOM      6  C   UNL A   1      31.435  23.427  24.311  1.00  0.00     0.325 C 
ATOM      7  O   UNL A   1      31.198  23.017  23.178  1.00  0.00    -0.250 OA
BRANCH   6   8
ATOM      8  C   UNL A   1      32.713  22.992  25.057  1.00  0.00     0.238 C 
BRANCH   8   9
ATOM      9  N   UNL A   1      34.061  23.404  24.684  1.00  0.00    -0.344 N 
ATOM     10  C   UNL A   1      35.232  22.732  24.878  1.00  0.00     0.240 C 
ATOM     11  O   UNL A   1      36.241  23.130  24.287  1.00  0.00    -0.273 OA
ATOM     12  H   UNL A   1      34.134  24.277  24.235  1.00  0.00     0.164 HD
BRANCH  10  13
ATOM     13  C   UNL A   1      35.240  21.445  25.703  1.00  0.00     0.219 C 
BRANCH  13  14
ATOM     14  N   UNL A   1      35.655  20.264  24.952  1.00  0.00    -0.335 N 
ATOM     15  C   UNL A   1      37.038  19.851  24.936  1.00  0.00     0.147 C 
BRANCH  14  16
ATOM     16  C   UNL A   1      34.685  19.331  24.650  1.00  0.00     0.225 A 
ATOM     17  N   UNL A   1      35.066  18.067  24.417  1.00  0.00    -0.221 NA
ATOM     18  N   UNL A   1      33.396  19.710  24.627  1.00  0.00    -0.221 NA
ATOM     19  C   UNL A   1      34.112  17.141  24.221  1.00  0.00     0.117 A 
ATOM     20  C   UNL A   1      32.476  18.762  24.365  1.00  0.00     0.117 A 
ATOM     21  C   UNL A   1      32.777  17.439  24.170  1.00  0.00     0.040 A 
ENDBRANCH  14  16
ENDBRANCH  13  14
ENDBRANCH  10  13
ENDBRANCH   8   9
ENDBRANCH   6   8
ENDBRANCH   5   6
ENDBRANCH   4   5
ENDBRANCH   3   4
ENDBRANCH   2   3
ENDBRANCH   1   2
BRANCH   1  22
ATOM     22  C   UNL A   1      32.054  29.405  25.873  1.00  0.00     0.188 C 
BRANCH  22  23
ATOM     23  O   UNL A   1      32.600  29.712  27.133  1.00  0.00    -0.376 OA
BRANCH  23  24
ATOM     24  C   UNL A   1      33.924  30.188  27.213  1.00  0.00     0.202 C 
BRANCH  24  25
ATOM     25  C   UNL A   1      34.229  31.661  27.542  1.00  0.00     0.261 C 
BRANCH  25  26
ATOM     26  O   UNL A   1      33.119  32.539  27.772  1.00  0.00    -0.460 OA
BRANCH  26  27
ATOM     27  C   UNL A   1      33.379  33.733  28.351  1.00  0.00     0.338 C 
ATOM     28  O   UNL A   1      32.693  34.744  28.283  1.00  0.00    -0.246 OA
BRANCH  27  29
ATOM     29  C   UNL A   1      34.517  33.544  29.277  1.00  0.00     0.060 A 
ATOM     30  C   UNL A   1      35.721  34.224  29.036  1.00  0.00     0.016 A 
ATOM     31  C   UNL A   1      34.388  32.711  30.390  1.00  0.00     0.016 A 
ATOM     32  C   UNL A   1      36.809  34.053  29.897  1.00  0.00     0.010 A 
ATOM     33  C   UNL A   1      35.485  32.521  31.235  1.00  0.00     0.010 A 
ATOM     34  C   UNL A   1      36.709  33.165  30.975  1.00  0.00    -0.014 A 
BRANCH  34  35
ATOM     35  C   UNL A   1      37.926  32.736  31.708  1.00  0.00     0.031 A 
ATOM     36  C   UNL A   1      38.850  31.758  31.032  1.00  0.00     0.074 A 
ATOM     37  C   UNL A   1      38.196  33.169  32.952  1.00  0.00     0.049 A 
ATOM     38  N   UNL A   1      39.905  31.149  31.502  1.00  0.00    -0.248 NA
ATOM     39  C   UNL A   1      38.529  31.416  29.635  1.00  0.00     0.031 C 
ATOM     40  C   UNL A   1      37.396  34.130  33.708  1.00  0.00     0.029 A 
ATOM     41  N   UNL A   1      39.209  32.822  33.813  1.00  0.00    -0.354 N 
ATOM     42  C   UNL A   1      40.352  30.324  30.477  1.00  0.00     0.074 A 
ATOM     43  C   UNL A   1      39.449  30.504  29.362  1.00  0.00     0.031 C 
ATOM     44  C   UNL A   1      37.928  34.268  34.936  1.00  0.00     0.029 A 
ATOM     45  C   UNL A   1      39.083  33.379  35.063  1.00  0.00     0.049 A 
ATOM     46  H   UNL A   1      39.954  32.230  33.558  1.00  0.00     0.167 HD
ATOM     47  C   UNL A   1      41.422  29.496  30.460  1.00  0.00     0.034 A 
ATOM     48  C   UNL A   1      39.796  33.168  36.189  1.00  0.00     0.034 A 
ATOM     49  C   UNL A   1      42.325  29.324  31.566  1.00  0.00     0.049 A 
ATOM     50  C   UNL A   1      40.958  32.204  36.160  1.00  0.00     0.074 A 
ATOM     51  C   UNL A   1      43.459  28.536  31.633  1.00  0.00     0.029 A 
ATOM     52  N   UNL A   1      42.187  29.935  32.802  1.00  0.00    -0.354 N 
ATOM     53  N   UNL A   1      41.427  31.502  35.156  1.00  0.00    -0.248 NA
ATOM     54  C   UNL A   1      41.708  32.028  37.412  1.00  0.00     0.031 C 
ATOM     55  C   UNL A   1      43.986  28.641  32.924  1.00  0.00     0.029 A 
ATOM     56  C   UNL A   1      43.208  29.534  33.644  1.00  0.00     0.049 A 
ATOM     57  H   UNL A   1      41.469  30.564  33.044  1.00  0.00     0.167 HD
ATOM     58  C   UNL A   1      42.550  30.840  35.643  1.00  0.00     0.074 A 
ATOM     59  C   UNL A   1      42.699  31.234  37.028  1.00  0.00     0.031 C 
ATOM     60  C   UNL A   1      43.380  29.979  35.004  1.00  0.00     0.034 A 
BRANCH  47  61
ATOM     61  C   UNL A   1      41.679  28.712  29.200  1.00  0.00     0.023 A 
ATOM     62  C   UNL A   1      42.559  29.222  28.223  1.00  0.00     0.012 A 
ATOM     63  C   UNL A   1      41.085  27.450  29.004  1.00  0.00     0.148 A 
ATOM     64  C   UNL A   1      42.815  28.505  27.055  1.00  0.00     0.002 A 
ATOM     65  C   UNL A   1      41.384  26.718  27.862  1.00  0.00     0.091 A 
ATOM     66  F   UNL A   1      40.234  26.993  29.933  1.00  0.00    -0.205 F 
ATOM     67  C   UNL A   1      42.238  27.250  26.880  1.00  0.00     0.022 A 
BRANCH  65  68
ATOM     68  S   UNL A   1      40.758  25.060  27.581  1.00  0.00     0.127 S 
ATOM     69  O   UNL A   1      39.315  25.266  27.692  1.00  0.00    -0.237 OA
ATOM     70  O   UNL A   1      41.231  24.780  26.226  1.00  0.00    -0.237 OA
ATOM     71  O   UNL A   1      41.349  24.224  28.618  1.00  0.00    -0.744 OA
ENDBRANCH  65  68
ENDBRANCH  47  61
BRANCH  48  72
ATOM     72  C   UNL A   1      39.449  33.891  37.447  1.00  0.00     0.023 A 
ATOM     73  C   UNL A   1      39.914  35.206  37.644  1.00  0.00     0.012 A 
ATOM     74  C   UNL A   1      38.674  33.281  38.452  1.00  0.00     0.148 A 
ATOM     75  C   UNL A   1      39.645  35.887  38.832  1.00  0.00     0.002 A 
ATOM     76  C   UNL A   1      38.361  33.984  39.609  1.00  0.00     0.091 A 
ATOM     77  F   UNL A   1      38.254  32.023  38.254  1.00  0.00    -0.205 F 
ATOM     78  C   UNL A   1      38.861  35.280  39.810  1.00  0.00     0.022 A 
BRANCH  76  79
ATOM     79  S   UNL A   1      37.263  33.331  40.871  1.00  0.00     0.127 S 
ATOM     80  O   UNL A   1      37.037  34.507  41.708  1.00  0.00    -0.237 OA
ATOM     81  O   UNL A   1      36.110  32.911  40.075  1.00  0.00    -0.237 OA
ATOM     82  O   UNL A   1      37.991  32.240  41.503  1.00  0.00    -0.744 OA
ENDBRANCH  76  79
ENDBRANCH  48  72
BRANCH  60  83
ATOM     83  C   UNL A   1      44.571  29.447  35.761  1.00  0.00     0.023 A 
ATOM     84  C   UNL A   1      45.786  30.161  35.768  1.00  0.00     0.012 A 
ATOM     85  C   UNL A   1      44.455  28.275  36.535  1.00  0.00     0.148 A 
ATOM     86  C   UNL A   1      46.875  29.699  36.508  1.00  0.00     0.002 A 
ATOM     87  C   UNL A   1      45.525  27.850  37.312  1.00  0.00     0.091 A 
ATOM     88  F   UNL A   1      43.296  27.601  36.503  1.00  0.00    -0.205 F 
ATOM     89  C   UNL A   1      46.740  28.553  37.289  1.00  0.00     0.022 A 
BRANCH  87  90
ATOM     90  S   UNL A   1      45.412  26.445  38.426  1.00  0.00     0.127 S 
ATOM     91  O   UNL A   1      45.558  25.321  37.502  1.00  0.00    -0.237 OA
ATOM     92  O   UNL A   1      46.558  26.659  39.310  1.00  0.00    -0.237 OA
ATOM     93  O   UNL A   1      44.115  26.550  39.079  1.00  0.00    -0.744 OA
ENDBRANCH  87  90
ENDBRANCH  60  83
ENDBRANCH  34  35
ENDBRANCH  27  29
ENDBRANCH  26  27
ENDBRANCH  25  26
ENDBRANCH  24  25
ENDBRANCH  23  24
ENDBRANCH  22  23
ENDBRANCH   1  22
TORSDOF 24
ENDMDL
