MODEL 1
REMARK VINA RESULT:     -10.8      0.000      0.000
REMARK SMILES Cc1ccc(C(=O)OCCOCCOCCOC(=O)c2ccc(-c3c4nc(c(-c5cccc(S(=O)(=O)[O-])c5F)c5ccc([nH]5)c(-c5cccc(S(=O)(=O)[O-])c5F)c5nc(c(-c6cccc(S(=O)(=O)[O-])c6F)c6ccc3[nH]6)C=C5)C=C4)cc2)cc1N1C(=O)/C(=C/c2ccc([N+](=O)[O-])cc2)SC1=S
REMARK SMILES IDX 12 1 11 2 10 3 9 4 8 5 6 6 7 7 5 8 1 9 2 10 3 11 84 12 4 13
REMARK SMILES IDX 83 14 85 15 86 16 100 17 87 18 88 19 99 20 101 21 89 22
REMARK SMILES IDX 90 23 91 24 98 25 92 26 97 27 93 28 94 29 95 30 96 31 13 32
REMARK SMILES IDX 14 33 15 34 16 35 17 36 18 37 19 38 20 39 21 40 82 41 22 42
REMARK SMILES IDX 81 43 23 44 24 45 25 46 75 47 26 48 80 49 74 50 76 51 27 52
REMARK SMILES IDX 79 53 73 54 72 55 28 57 60 58 40 59 59 60 41 61 44 62 58 63
REMARK SMILES IDX 77 64 42 65 43 66 57 68 78 69 45 70 29 71 30 72 38 73 31 74
REMARK SMILES IDX 33 75 39 76 32 77 34 78 35 79 36 80 37 81 61 82 62 83 70 84
REMARK SMILES IDX 63 85 65 86 71 87 64 88 66 89 67 90 68 91 69 92 46 93 47 94
REMARK SMILES IDX 55 95 48 96 50 97 56 98 49 99 51 100 52 101 53 102 54 103
REMARK H PARENT 76 56 44 67
REMARK Flexibility Score: inf
ROOT
ATOM      1  C   UNL A   1      38.219  21.507  25.699  1.00  0.00     0.188 C 
ENDROOT
BRANCH   1   2
ATOM      2  O   UNL A   1      37.059  22.301  25.919  1.00  0.00    -0.376 OA
BRANCH   2   3
ATOM      3  C   UNL A   1      36.985  23.441  25.050  1.00  0.00     0.202 C 
BRANCH   3   4
ATOM      4  C   UNL A   1      35.540  24.087  24.826  1.00  0.00     0.261 C 
BRANCH   4   5
ATOM      5  O   UNL A   1      34.649  23.956  23.603  1.00  0.00    -0.460 OA
BRANCH   5   6
ATOM      6  C   UNL A   1      33.876  25.041  23.367  1.00  0.00     0.338 C 
ATOM      7  O   UNL A   1      33.693  25.252  22.196  1.00  0.00    -0.246 OA
BRANCH   6   8
ATOM      8  C   UNL A   1      33.209  26.069  24.371  1.00  0.00     0.062 A 
ATOM      9  C   UNL A   1      31.565  27.978  28.001  1.00  0.00     0.046 C 
ATOM     10  C   UNL A   1      32.137  27.375  26.751  1.00  0.00    -0.027 A 
ATOM     11  C   UNL A   1      31.518  26.268  26.282  1.00  0.00     0.006 A 
ATOM     12  C   UNL A   1      33.186  27.890  25.951  1.00  0.00     0.054 A 
ATOM     13  C   UNL A   1      32.039  25.701  25.130  1.00  0.00     0.016 A 
ATOM     14  C   UNL A   1      33.765  27.232  24.803  1.00  0.00     0.042 A 
BRANCH  12  15
ATOM     15  N   UNL A   1      33.384  29.268  25.998  1.00  0.00    -0.261 N 
ATOM     16  C   UNL A   1      34.495  29.660  26.738  1.00  0.00     0.270 C 
ATOM     17  C   UNL A   1      32.403  30.202  25.753  1.00  0.00     0.152 C 
ATOM     18  O   UNL A   1      35.545  29.073  26.962  1.00  0.00    -0.268 OA
ATOM     19  C   UNL A   1      34.167  30.940  27.352  1.00  0.00     0.081 C 
ATOM     20  S   UNL A   1      32.882  31.714  26.513  1.00  0.00    -0.054 SA
ATOM     21  S   UNL A   1      30.990  30.022  24.878  1.00  0.00    -0.051 S 
ATOM     22  C   UNL A   1      34.740  31.238  28.520  1.00  0.00     0.029 C 
BRANCH  22  23
ATOM     23  C   UNL A   1      34.438  32.483  29.179  1.00  0.00    -0.024 A 
ATOM     24  C   UNL A   1      34.698  32.666  30.539  1.00  0.00     0.015 A 
ATOM     25  C   UNL A   1      33.753  33.439  28.427  1.00  0.00     0.015 A 
ATOM     26  C   UNL A   1      34.257  33.831  31.159  1.00  0.00     0.086 A 
ATOM     27  C   UNL A   1      33.305  34.596  29.039  1.00  0.00     0.086 A 
ATOM     28  C   UNL A   1      33.561  34.788  30.403  1.00  0.00     0.269 A 
BRANCH  28  29
ATOM     29  N   UNL A   1      33.083  36.015  31.039  1.00  0.00     0.062 N 
ATOM     30  O   UNL A   1      32.782  35.969  32.240  1.00  0.00    -0.258 OA
ATOM     31  O   UNL A   1      33.001  37.034  30.336  1.00  0.00    -0.258 OA
ENDBRANCH  28  29
ENDBRANCH  22  23
ENDBRANCH  12  15
ENDBRANCH   6   8
ENDBRANCH   5   6
ENDBRANCH   4   5
ENDBRANCH   3   4
ENDBRANCH   2   3
ENDBRANCH   1   2
BRANCH   1  32
ATOM     32  C   UNL A   1      39.379  22.119  26.483  1.00  0.00     0.188 C 
BRANCH  32  33
ATOM     33  O   UNL A   1      40.196  21.219  27.244  1.00  0.00    -0.376 OA
BRANCH  33  34
ATOM     34  C   UNL A   1      41.605  21.420  27.175  1.00  0.00     0.202 C 
BRANCH  34  35
ATOM     35  C   UNL A   1      42.290  21.280  25.792  1.00  0.00     0.261 C 
BRANCH  35  36
ATOM     36  O   UNL A   1      43.701  21.034  25.877  1.00  0.00    -0.460 OA
BRANCH  36  37
ATOM     37  C   UNL A   1      44.484  21.450  24.833  1.00  0.00     0.338 C 
ATOM     38  O   UNL A   1      44.569  20.903  23.748  1.00  0.00    -0.246 OA
BRANCH  37  39
ATOM     39  C   UNL A   1      45.407  22.476  25.400  1.00  0.00     0.060 A 
ATOM     40  C   UNL A   1      45.652  22.601  26.756  1.00  0.00     0.016 A 
ATOM     41  C   UNL A   1      45.775  23.537  24.635  1.00  0.00     0.016 A 
ATOM     42  C   UNL A   1      45.904  23.885  27.350  1.00  0.00     0.010 A 
ATOM     43  C   UNL A   1      45.899  24.782  25.275  1.00  0.00     0.010 A 
ATOM     44  C   UNL A   1      45.777  25.091  26.653  1.00  0.00    -0.014 A 
BRANCH  44  45
ATOM     45  C   UNL A   1      45.169  26.464  27.412  1.00  0.00     0.031 A 
ATOM     46  C   UNL A   1      43.726  27.369  27.481  1.00  0.00     0.074 A 
ATOM     47  C   UNL A   1      46.020  26.911  28.359  1.00  0.00     0.049 A 
ATOM     48  N   UNL A   1      43.620  28.686  27.554  1.00  0.00    -0.248 NA
ATOM     49  C   UNL A   1      42.294  26.902  27.396  1.00  0.00     0.031 C 
ATOM     50  C   UNL A   1      45.763  27.856  29.429  1.00  0.00     0.029 A 
ATOM     51  N   UNL A   1      47.390  26.697  28.433  1.00  0.00    -0.354 N 
ATOM     52  C   UNL A   1      42.230  28.946  27.723  1.00  0.00     0.074 A 
ATOM     53  C   UNL A   1      41.557  27.936  27.004  1.00  0.00     0.031 C 
ATOM     54  C   UNL A   1      46.942  28.331  29.863  1.00  0.00     0.029 A 
ATOM     55  C   UNL A   1      47.974  27.839  28.968  1.00  0.00     0.049 A 
ATOM     56  H   UNL A   1      47.865  25.880  28.154  1.00  0.00     0.167 HD
ATOM     57  C   UNL A   1      41.697  29.621  28.795  1.00  0.00     0.034 A 
ATOM     58  C   UNL A   1      48.771  28.598  28.153  1.00  0.00     0.034 A 
ATOM     59  C   UNL A   1      42.726  30.448  29.366  1.00  0.00     0.049 A 
ATOM     60  C   UNL A   1      48.202  29.987  27.878  1.00  0.00     0.074 A 
ATOM     61  C   UNL A   1      43.444  30.471  30.538  1.00  0.00     0.029 A 
ATOM     62  N   UNL A   1      43.358  31.301  28.490  1.00  0.00    -0.354 N 
ATOM     63  N   UNL A   1      47.164  30.511  28.483  1.00  0.00    -0.248 NA
ATOM     64  C   UNL A   1      48.757  30.904  26.883  1.00  0.00     0.031 C 
ATOM     65  C   UNL A   1      44.667  31.158  30.247  1.00  0.00     0.029 A 
ATOM     66  C   UNL A   1      44.631  31.596  28.930  1.00  0.00     0.049 A 
ATOM     67  H   UNL A   1      42.956  31.651  27.663  1.00  0.00     0.167 HD
ATOM     68  C   UNL A   1      46.770  31.651  27.820  1.00  0.00     0.074 A 
ATOM     69  C   UNL A   1      47.880  31.922  26.925  1.00  0.00     0.031 C 
ATOM     70  C   UNL A   1      45.529  32.222  27.962  1.00  0.00     0.034 A 
BRANCH  57  71
ATOM     71  C   UNL A   1      40.285  29.461  29.438  1.00  0.00     0.023 A 
ATOM     72  C   UNL A   1      39.183  29.728  28.592  1.00  0.00     0.012 A 
ATOM     73  C   UNL A   1      39.935  29.188  30.801  1.00  0.00     0.148 A 
ATOM     74  C   UNL A   1      37.851  29.739  29.046  1.00  0.00     0.002 A 
ATOM     75  C   UNL A   1      38.595  29.117  31.235  1.00  0.00     0.091 A 
ATOM     76  F   UNL A   1      40.881  29.095  31.740  1.00  0.00    -0.205 F 
ATOM     77  C   UNL A   1      37.552  29.417  30.361  1.00  0.00     0.022 A 
BRANCH  75  78
ATOM     78  S   UNL A   1      38.114  28.647  32.920  1.00  0.00     0.127 S 
ATOM     79  O   UNL A   1      39.064  29.401  33.736  1.00  0.00    -0.237 OA
ATOM     80  O   UNL A   1      36.733  29.124  33.000  1.00  0.00    -0.237 OA
ATOM     81  O   UNL A   1      38.254  27.197  32.995  1.00  0.00    -0.744 OA
ENDBRANCH  75  78
ENDBRANCH  57  71
BRANCH  58  82
ATOM     82  C   UNL A   1      49.688  27.758  27.285  1.00  0.00     0.023 A 
ATOM     83  C   UNL A   1      49.053  27.106  26.190  1.00  0.00     0.012 A 
ATOM     84  C   UNL A   1      51.097  27.829  27.265  1.00  0.00     0.148 A 
ATOM     85  C   UNL A   1      49.764  26.649  25.077  1.00  0.00     0.002 A 
ATOM     86  C   UNL A   1      51.811  27.361  26.143  1.00  0.00     0.091 A 
ATOM     87  F   UNL A   1      51.729  28.442  28.274  1.00  0.00    -0.205 F 
ATOM     88  C   UNL A   1      51.143  26.784  25.050  1.00  0.00     0.022 A 
BRANCH  86  89
ATOM     89  S   UNL A   1      53.576  27.710  25.906  1.00  0.00     0.127 S 
ATOM     90  O   UNL A   1      54.185  26.848  26.915  1.00  0.00    -0.237 OA
ATOM     91  O   UNL A   1      53.809  27.288  24.523  1.00  0.00    -0.237 OA
ATOM     92  O   UNL A   1      53.706  29.145  26.117  1.00  0.00    -0.744 OA
ENDBRANCH  86  89
ENDBRANCH  58  82
BRANCH  70  93
ATOM     93  C   UNL A   1      44.945  33.317  27.055  1.00  0.00     0.023 A 
ATOM     94  C   UNL A   1      44.474  33.053  25.756  1.00  0.00     0.012 A 
ATOM     95  C   UNL A   1      44.624  34.598  27.588  1.00  0.00     0.148 A 
ATOM     96  C   UNL A   1      43.771  34.013  25.011  1.00  0.00     0.002 A 
ATOM     97  C   UNL A   1      43.792  35.483  26.904  1.00  0.00     0.091 A 
ATOM     98  F   UNL A   1      45.092  34.954  28.796  1.00  0.00    -0.205 F 
ATOM     99  C   UNL A   1      43.398  35.215  25.596  1.00  0.00     0.022 A 
BRANCH  97 100
ATOM    100  S   UNL A   1      43.019  36.846  27.795  1.00  0.00     0.127 S 
ATOM    101  O   UNL A   1      42.335  36.165  28.889  1.00  0.00    -0.237 OA
ATOM    102  O   UNL A   1      44.164  37.661  28.209  1.00  0.00    -0.237 OA
ATOM    103  O   UNL A   1      42.175  37.479  26.788  1.00  0.00    -0.744 OA
ENDBRANCH  97 100
ENDBRANCH  70  93
ENDBRANCH  44  45
ENDBRANCH  37  39
ENDBRANCH  36  37
ENDBRANCH  35  36
ENDBRANCH  34  35
ENDBRANCH  33  34
ENDBRANCH  32  33
ENDBRANCH   1  32
TORSDOF 23
ENDMDL
MODEL 2
REMARK VINA RESULT:      -9.8      4.560     10.477
REMARK SMILES Cc1ccc(C(=O)OCCOCCOCCOC(=O)c2ccc(-c3c4nc(c(-c5cccc(S(=O)(=O)[O-])c5F)c5ccc([nH]5)c(-c5cccc(S(=O)(=O)[O-])c5F)c5nc(c(-c6cccc(S(=O)(=O)[O-])c6F)c6ccc3[nH]6)C=C5)C=C4)cc2)cc1N1C(=O)/C(=C/c2ccc([N+](=O)[O-])cc2)SC1=S
REMARK SMILES IDX 12 1 11 2 10 3 9 4 8 5 6 6 7 7 5 8 1 9 2 10 3 11 84 12 4 13
REMARK SMILES IDX 83 14 85 15 86 16 100 17 87 18 88 19 99 20 101 21 89 22
REMARK SMILES IDX 90 23 91 24 98 25 92 26 97 27 93 28 94 29 95 30 96 31 13 32
REMARK SMILES IDX 14 33 15 34 16 35 17 36 18 37 19 38 20 39 21 40 82 41 22 42
REMARK SMILES IDX 81 43 23 44 24 45 25 46 75 47 26 48 80 49 74 50 76 51 27 52
REMARK SMILES IDX 79 53 73 54 72 55 28 57 60 58 40 59 59 60 41 61 44 62 58 63
REMARK SMILES IDX 77 64 42 65 43 66 57 68 78 69 45 70 29 71 30 72 38 73 31 74
REMARK SMILES IDX 33 75 39 76 32 77 34 78 35 79 36 80 37 81 61 82 62 83 70 84
REMARK SMILES IDX 63 85 65 86 71 87 64 88 66 89 67 90 68 91 69 92 46 93 47 94
REMARK SMILES IDX 55 95 48 96 50 97 56 98 49 99 51 100 52 101 53 102 54 103
REMARK H PARENT 76 56 44 67
REMARK Flexibility Score: inf
ROOT
ATOM      1  C   UNL A   1      39.429  30.784  31.457  1.00  0.00     0.188 C 
ENDROOT
BRANCH   1   2
ATOM      2  O   UNL A   1      38.252  31.276  30.827  1.00  0.00    -0.376 OA
BRANCH   2   3
ATOM      3  C   UNL A   1      38.284  31.146  29.397  1.00  0.00     0.202 C 
BRANCH   3   4
ATOM      4  C   UNL A   1      36.931  31.475  28.611  1.00  0.00     0.261 C 
BRANCH   4   5
ATOM      5  O   UNL A   1      35.576  30.814  28.788  1.00  0.00    -0.460 OA
BRANCH   5   6
ATOM      6  C   UNL A   1      35.333  29.815  27.910  1.00  0.00     0.338 C 
ATOM      7  O   UNL A   1      36.283  29.098  27.725  1.00  0.00    -0.246 OA
BRANCH   6   8
ATOM      8  C   UNL A   1      34.027  29.463  27.084  1.00  0.00     0.062 A 
ATOM      9  C   UNL A   1      30.664  29.608  24.222  1.00  0.00     0.046 C 
ATOM     10  C   UNL A   1      31.806  29.509  25.191  1.00  0.00    -0.027 A 
ATOM     11  C   UNL A   1      31.857  30.455  26.156  1.00  0.00     0.006 A 
ATOM     12  C   UNL A   1      32.777  28.481  25.271  1.00  0.00     0.054 A 
ATOM     13  C   UNL A   1      32.909  30.374  27.054  1.00  0.00     0.016 A 
ATOM     14  C   UNL A   1      33.912  28.469  26.164  1.00  0.00     0.042 A 
BRANCH  12  15
ATOM     15  N   UNL A   1      32.400  27.231  24.786  1.00  0.00    -0.261 N 
ATOM     16  C   UNL A   1      31.922  26.361  25.760  1.00  0.00     0.270 C 
ATOM     17  C   UNL A   1      32.833  26.698  23.593  1.00  0.00     0.152 C 
ATOM     18  O   UNL A   1      31.358  26.592  26.821  1.00  0.00    -0.268 OA
ATOM     19  C   UNL A   1      32.313  25.016  25.358  1.00  0.00     0.081 C 
ATOM     20  S   UNL A   1      32.649  24.950  23.673  1.00  0.00    -0.054 SA
ATOM     21  S   UNL A   1      33.421  27.498  22.248  1.00  0.00    -0.051 S 
ATOM     22  C   UNL A   1      32.530  24.115  26.318  1.00  0.00     0.029 C 
BRANCH  22  23
ATOM     23  C   UNL A   1      32.936  22.774  25.977  1.00  0.00    -0.024 A 
ATOM     24  C   UNL A   1      34.285  22.420  25.912  1.00  0.00     0.015 A 
ATOM     25  C   UNL A   1      31.925  21.895  25.586  1.00  0.00     0.015 A 
ATOM     26  C   UNL A   1      34.628  21.157  25.439  1.00  0.00     0.086 A 
ATOM     27  C   UNL A   1      32.259  20.640  25.108  1.00  0.00     0.086 A 
ATOM     28  C   UNL A   1      33.610  20.276  25.040  1.00  0.00     0.269 A 
BRANCH  28  29
ATOM     29  N   UNL A   1      33.952  18.947  24.533  1.00  0.00     0.062 N 
ATOM     30  O   UNL A   1      33.034  18.234  24.104  1.00  0.00    -0.258 OA
ATOM     31  O   UNL A   1      35.144  18.608  24.566  1.00  0.00    -0.258 OA
ENDBRANCH  28  29
ENDBRANCH  22  23
ENDBRANCH  12  15
ENDBRANCH   6   8
ENDBRANCH   5   6
ENDBRANCH   4   5
ENDBRANCH   3   4
ENDBRANCH   2   3
ENDBRANCH   1   2
BRANCH   1  32
ATOM     32  C   UNL A   1      39.025  30.085  32.755  1.00  0.00     0.188 C 
BRANCH  32  33
ATOM     33  O   UNL A   1      39.791  30.398  33.927  1.00  0.00    -0.376 OA
BRANCH  33  34
ATOM     34  C   UNL A   1      39.447  31.598  34.614  1.00  0.00     0.202 C 
BRANCH  34  35
ATOM     35  C   UNL A   1      40.223  32.889  34.248  1.00  0.00     0.261 C 
BRANCH  35  36
ATOM     36  O   UNL A   1      41.313  33.170  35.137  1.00  0.00    -0.460 OA
BRANCH  36  37
ATOM     37  C   UNL A   1      41.436  34.449  35.611  1.00  0.00     0.338 C 
ATOM     38  O   UNL A   1      40.603  35.042  36.272  1.00  0.00    -0.246 OA
BRANCH  37  39
ATOM     39  C   UNL A   1      42.610  35.036  34.902  1.00  0.00     0.060 A 
ATOM     40  C   UNL A   1      42.494  36.043  33.960  1.00  0.00     0.016 A 
ATOM     41  C   UNL A   1      43.794  34.370  34.908  1.00  0.00     0.016 A 
ATOM     42  C   UNL A   1      43.386  36.115  32.836  1.00  0.00     0.010 A 
ATOM     43  C   UNL A   1      44.560  34.403  33.730  1.00  0.00     0.010 A 
ATOM     44  C   UNL A   1      44.317  35.118  32.531  1.00  0.00    -0.014 A 
BRANCH  44  45
ATOM     45  C   UNL A   1      44.646  34.706  30.932  1.00  0.00     0.031 A 
ATOM     46  C   UNL A   1      45.425  33.472  30.051  1.00  0.00     0.074 A 
ATOM     47  C   UNL A   1      43.979  35.510  30.078  1.00  0.00     0.049 A 
ATOM     48  N   UNL A   1      46.153  33.620  28.957  1.00  0.00    -0.248 NA
ATOM     49  C   UNL A   1      45.526  31.996  30.349  1.00  0.00     0.031 C 
ATOM     50  C   UNL A   1      43.740  35.319  28.661  1.00  0.00     0.029 A 
ATOM     51  N   UNL A   1      43.504  36.792  30.321  1.00  0.00    -0.354 N 
ATOM     52  C   UNL A   1      46.468  32.298  28.529  1.00  0.00     0.074 A 
ATOM     53  C   UNL A   1      46.591  31.530  29.706  1.00  0.00     0.031 C 
ATOM     54  C   UNL A   1      43.423  36.508  28.123  1.00  0.00     0.029 A 
ATOM     55  C   UNL A   1      43.622  37.522  29.144  1.00  0.00     0.049 A 
ATOM     56  H   UNL A   1      43.149  37.126  31.176  1.00  0.00     0.167 HD
ATOM     57  C   UNL A   1      46.130  31.785  27.300  1.00  0.00     0.034 A 
ATOM     58  C   UNL A   1      44.532  38.544  29.107  1.00  0.00     0.034 A 
ATOM     59  C   UNL A   1      45.941  32.882  26.388  1.00  0.00     0.049 A 
ATOM     60  C   UNL A   1      45.675  38.297  28.126  1.00  0.00     0.074 A 
ATOM     61  C   UNL A   1      44.879  33.446  25.721  1.00  0.00     0.029 A 
ATOM     62  N   UNL A   1      46.989  33.769  26.299  1.00  0.00    -0.354 N 
ATOM     63  N   UNL A   1      45.725  37.318  27.255  1.00  0.00    -0.248 NA
ATOM     64  C   UNL A   1      46.871  39.136  28.051  1.00  0.00     0.031 C 
ATOM     65  C   UNL A   1      45.246  34.806  25.460  1.00  0.00     0.029 A 
ATOM     66  C   UNL A   1      46.543  35.014  25.909  1.00  0.00     0.049 A 
ATOM     67  H   UNL A   1      47.929  33.545  26.489  1.00  0.00     0.167 HD
ATOM     68  C   UNL A   1      46.991  37.238  26.722  1.00  0.00     0.074 A 
ATOM     69  C   UNL A   1      47.615  38.477  27.146  1.00  0.00     0.031 C 
ATOM     70  C   UNL A   1      47.476  36.126  26.078  1.00  0.00     0.034 A 
BRANCH  57  71
ATOM     71  C   UNL A   1      45.832  30.303  26.915  1.00  0.00     0.023 A 
ATOM     72  C   UNL A   1      46.961  29.474  26.719  1.00  0.00     0.012 A 
ATOM     73  C   UNL A   1      44.578  29.677  26.620  1.00  0.00     0.148 A 
ATOM     74  C   UNL A   1      46.870  28.146  26.260  1.00  0.00     0.002 A 
ATOM     75  C   UNL A   1      44.483  28.322  26.240  1.00  0.00     0.091 A 
ATOM     76  F   UNL A   1      43.451  30.395  26.590  1.00  0.00    -0.205 F 
ATOM     77  C   UNL A   1      45.632  27.562  26.037  1.00  0.00     0.022 A 
BRANCH  75  78
ATOM     78  S   UNL A   1      42.904  27.465  25.985  1.00  0.00     0.127 S 
ATOM     79  O   UNL A   1      42.490  27.959  24.673  1.00  0.00    -0.237 OA
ATOM     80  O   UNL A   1      43.301  26.057  26.006  1.00  0.00    -0.237 OA
ATOM     81  O   UNL A   1      42.041  27.861  27.093  1.00  0.00    -0.744 OA
ENDBRANCH  75  78
ENDBRANCH  57  71
BRANCH  58  82
ATOM     82  C   UNL A   1      44.532  39.374  30.375  1.00  0.00     0.023 A 
ATOM     83  C   UNL A   1      43.350  40.135  30.599  1.00  0.00     0.012 A 
ATOM     84  C   UNL A   1      45.410  39.210  31.468  1.00  0.00     0.148 A 
ATOM     85  C   UNL A   1      42.995  40.613  31.863  1.00  0.00     0.002 A 
ATOM     86  C   UNL A   1      45.052  39.700  32.741  1.00  0.00     0.091 A 
ATOM     87  F   UNL A   1      46.528  38.493  31.298  1.00  0.00    -0.205 F 
ATOM     88  C   UNL A   1      43.843  40.388  32.937  1.00  0.00     0.022 A 
BRANCH  86  89
ATOM     89  S   UNL A   1      45.966  39.248  34.242  1.00  0.00     0.127 S 
ATOM     90  O   UNL A   1      47.312  39.710  33.918  1.00  0.00    -0.237 OA
ATOM     91  O   UNL A   1      45.289  40.027  35.282  1.00  0.00    -0.237 OA
ATOM     92  O   UNL A   1      45.789  37.809  34.370  1.00  0.00    -0.744 OA
ENDBRANCH  86  89
ENDBRANCH  58  82
BRANCH  70  93
ATOM     93  C   UNL A   1      48.948  35.881  25.712  1.00  0.00     0.023 A 
ATOM     94  C   UNL A   1      49.488  36.235  24.463  1.00  0.00     0.012 A 
ATOM     95  C   UNL A   1      49.887  35.513  26.718  1.00  0.00     0.148 A 
ATOM     96  C   UNL A   1      50.867  36.184  24.207  1.00  0.00     0.002 A 
ATOM     97  C   UNL A   1      51.261  35.617  26.503  1.00  0.00     0.091 A 
ATOM     98  F   UNL A   1      49.451  35.098  27.918  1.00  0.00    -0.205 F 
ATOM     99  C   UNL A   1      51.758  35.909  25.236  1.00  0.00     0.022 A 
BRANCH  97 100
ATOM    100  S   UNL A   1      52.384  35.626  27.913  1.00  0.00     0.127 S 
ATOM    101  O   UNL A   1      53.652  36.019  27.308  1.00  0.00    -0.237 OA
ATOM    102  O   UNL A   1      51.795  36.634  28.797  1.00  0.00    -0.237 OA
ATOM    103  O   UNL A   1      52.299  34.264  28.427  1.00  0.00    -0.744 OA
ENDBRANCH  97 100
ENDBRANCH  70  93
ENDBRANCH  44  45
ENDBRANCH  37  39
ENDBRANCH  36  37
ENDBRANCH  35  36
ENDBRANCH  34  35
ENDBRANCH  33  34
ENDBRANCH  32  33
ENDBRANCH   1  32
TORSDOF 23
ENDMDL
MODEL 3
REMARK VINA RESULT:      -9.6      9.409     14.749
REMARK SMILES Cc1ccc(C(=O)OCCOCCOCCOC(=O)c2ccc(-c3c4nc(c(-c5cccc(S(=O)(=O)[O-])c5F)c5ccc([nH]5)c(-c5cccc(S(=O)(=O)[O-])c5F)c5nc(c(-c6cccc(S(=O)(=O)[O-])c6F)c6ccc3[nH]6)C=C5)C=C4)cc2)cc1N1C(=O)/C(=C/c2ccc([N+](=O)[O-])cc2)SC1=S
REMARK SMILES IDX 12 1 11 2 10 3 9 4 8 5 6 6 7 7 5 8 1 9 2 10 3 11 84 12 4 13
REMARK SMILES IDX 83 14 85 15 86 16 100 17 87 18 88 19 99 20 101 21 89 22
REMARK SMILES IDX 90 23 91 24 98 25 92 26 97 27 93 28 94 29 95 30 96 31 13 32
REMARK SMILES IDX 14 33 15 34 16 35 17 36 18 37 19 38 20 39 21 40 82 41 22 42
REMARK SMILES IDX 81 43 23 44 24 45 25 46 75 47 26 48 80 49 74 50 76 51 27 52
REMARK SMILES IDX 79 53 73 54 72 55 28 57 60 58 40 59 59 60 41 61 44 62 58 63
REMARK SMILES IDX 77 64 42 65 43 66 57 68 78 69 45 70 29 71 30 72 38 73 31 74
REMARK SMILES IDX 33 75 39 76 32 77 34 78 35 79 36 80 37 81 61 82 62 83 70 84
REMARK SMILES IDX 63 85 65 86 71 87 64 88 66 89 67 90 68 91 69 92 46 93 47 94
REMARK SMILES IDX 55 95 48 96 50 97 56 98 49 99 51 100 52 101 53 102 54 103
REMARK H PARENT 76 56 44 67
REMARK Flexibility Score: inf
ROOT
ATOM      1  C   UNL A   1      40.343  29.351  30.137  1.00  0.00     0.188 C 
ENDROOT
BRANCH   1   2
ATOM      2  O   UNL A   1      39.045  29.892  30.356  1.00  0.00    -0.376 OA
BRANCH   2   3
ATOM      3  C   UNL A   1      38.332  30.152  29.137  1.00  0.00     0.202 C 
BRANCH   3   4
ATOM      4  C   UNL A   1      36.810  29.667  29.072  1.00  0.00     0.261 C 
BRANCH   4   5
ATOM      5  O   UNL A   1      36.069  29.110  27.869  1.00  0.00    -0.460 OA
BRANCH   5   6
ATOM      6  C   UNL A   1      34.935  29.782  27.563  1.00  0.00     0.338 C 
ATOM      7  O   UNL A   1      34.892  30.888  28.038  1.00  0.00    -0.246 OA
BRANCH   6   8
ATOM      8  C   UNL A   1      33.671  29.339  26.716  1.00  0.00     0.062 A 
ATOM      9  C   UNL A   1      30.371  29.237  23.780  1.00  0.00     0.046 C 
ATOM     10  C   UNL A   1      31.495  29.221  24.775  1.00  0.00    -0.027 A 
ATOM     11  C   UNL A   1      31.468  30.184  25.724  1.00  0.00     0.006 A 
ATOM     12  C   UNL A   1      32.523  28.255  24.894  1.00  0.00     0.054 A 
ATOM     13  C   UNL A   1      32.502  30.182  26.646  1.00  0.00     0.016 A 
ATOM     14  C   UNL A   1      33.637  28.325  25.811  1.00  0.00     0.042 A 
BRANCH  12  15
ATOM     15  N   UNL A   1      32.232  26.977  24.423  1.00  0.00    -0.261 N 
ATOM     16  C   UNL A   1      31.744  26.108  25.393  1.00  0.00     0.270 C 
ATOM     17  C   UNL A   1      32.753  26.437  23.270  1.00  0.00     0.152 C 
ATOM     18  O   UNL A   1      31.114  26.337  26.417  1.00  0.00    -0.268 OA
ATOM     19  C   UNL A   1      32.219  24.774  25.049  1.00  0.00     0.081 C 
ATOM     20  S   UNL A   1      32.648  24.685  23.386  1.00  0.00    -0.054 SA
ATOM     21  S   UNL A   1      33.375  27.232  21.937  1.00  0.00    -0.051 S 
ATOM     22  C   UNL A   1      32.426  23.908  26.042  1.00  0.00     0.029 C 
BRANCH  22  23
ATOM     23  C   UNL A   1      32.913  22.581  25.758  1.00  0.00    -0.024 A 
ATOM     24  C   UNL A   1      34.281  22.309  25.696  1.00  0.00     0.015 A 
ATOM     25  C   UNL A   1      31.956  21.623  25.418  1.00  0.00     0.015 A 
ATOM     26  C   UNL A   1      34.698  21.049  25.278  1.00  0.00     0.086 A 
ATOM     27  C   UNL A   1      32.364  20.372  24.995  1.00  0.00     0.086 A 
ATOM     28  C   UNL A   1      33.735  20.088  24.929  1.00  0.00     0.269 A 
BRANCH  28  29
ATOM     29  N   UNL A   1      34.155  18.761  24.480  1.00  0.00     0.062 N 
ATOM     30  O   UNL A   1      35.337  18.435  24.654  1.00  0.00    -0.258 OA
ATOM     31  O   UNL A   1      33.301  18.039  23.945  1.00  0.00    -0.258 OA
ENDBRANCH  28  29
ENDBRANCH  22  23
ENDBRANCH  12  15
ENDBRANCH   6   8
ENDBRANCH   5   6
ENDBRANCH   4   5
ENDBRANCH   3   4
ENDBRANCH   2   3
ENDBRANCH   1   2
BRANCH   1  32
ATOM     32  C   UNL A   1      41.102  29.367  31.463  1.00  0.00     0.188 C 
BRANCH  32  33
ATOM     33  O   UNL A   1      41.176  28.129  32.184  1.00  0.00    -0.376 OA
BRANCH  33  34
ATOM     34  C   UNL A   1      41.089  28.209  33.604  1.00  0.00     0.202 C 
BRANCH  34  35
ATOM     35  C   UNL A   1      42.395  28.037  34.421  1.00  0.00     0.261 C 
BRANCH  35  36
ATOM     36  O   UNL A   1      43.279  29.163  34.327  1.00  0.00    -0.460 OA
BRANCH  36  37
ATOM     37  C   UNL A   1      44.088  29.429  35.399  1.00  0.00     0.338 C 
ATOM     38  O   UNL A   1      44.672  28.598  36.070  1.00  0.00    -0.246 OA
BRANCH  37  39
ATOM     39  C   UNL A   1      43.847  30.860  35.746  1.00  0.00     0.060 A 
ATOM     40  C   UNL A   1      44.613  31.551  36.669  1.00  0.00     0.016 A 
ATOM     41  C   UNL A   1      42.659  31.434  35.420  1.00  0.00     0.016 A 
ATOM     42  C   UNL A   1      44.034  32.570  37.500  1.00  0.00     0.010 A 
ATOM     43  C   UNL A   1      42.108  32.345  36.338  1.00  0.00     0.010 A 
ATOM     44  C   UNL A   1      42.662  32.833  37.547  1.00  0.00    -0.014 A 
BRANCH  44  45
ATOM     45  C   UNL A   1      41.915  33.249  38.997  1.00  0.00     0.031 A 
ATOM     46  C   UNL A   1      42.171  33.085  40.675  1.00  0.00     0.074 A 
ATOM     47  C   UNL A   1      40.875  34.083  38.785  1.00  0.00     0.049 A 
ATOM     48  N   UNL A   1      41.252  32.854  41.597  1.00  0.00    -0.248 NA
ATOM     49  C   UNL A   1      43.463  33.086  41.454  1.00  0.00     0.031 C 
ATOM     50  C   UNL A   1      40.167  34.904  39.748  1.00  0.00     0.029 A 
ATOM     51  N   UNL A   1      40.131  34.226  37.622  1.00  0.00    -0.354 N 
ATOM     52  C   UNL A   1      41.936  32.937  42.844  1.00  0.00     0.074 A 
ATOM     53  C   UNL A   1      43.240  32.457  42.602  1.00  0.00     0.031 C 
ATOM     54  C   UNL A   1      38.977  35.238  39.223  1.00  0.00     0.029 A 
ATOM     55  C   UNL A   1      38.816  34.495  37.985  1.00  0.00     0.049 A 
ATOM     56  H   UNL A   1      40.473  34.149  36.701  1.00  0.00     0.167 HD
ATOM     57  C   UNL A   1      41.607  33.818  43.847  1.00  0.00     0.034 A 
ATOM     58  C   UNL A   1      37.868  33.541  37.727  1.00  0.00     0.034 A 
ATOM     59  C   UNL A   1      40.231  34.201  43.679  1.00  0.00     0.049 A 
ATOM     60  C   UNL A   1      37.252  32.947  38.992  1.00  0.00     0.074 A 
ATOM     61  C   UNL A   1      39.555  35.349  43.336  1.00  0.00     0.029 A 
ATOM     62  N   UNL A   1      39.330  33.164  43.596  1.00  0.00    -0.354 N 
ATOM     63  N   UNL A   1      37.440  33.400  40.207  1.00  0.00    -0.248 NA
ATOM     64  C   UNL A   1      36.373  31.779  38.989  1.00  0.00     0.031 C 
ATOM     65  C   UNL A   1      38.298  34.928  42.794  1.00  0.00     0.029 A 
ATOM     66  C   UNL A   1      38.211  33.546  42.886  1.00  0.00     0.049 A 
ATOM     67  H   UNL A   1      39.467  32.272  43.989  1.00  0.00     0.167 HD
ATOM     68  C   UNL A   1      36.959  32.487  41.119  1.00  0.00     0.074 A 
ATOM     69  C   UNL A   1      36.182  31.573  40.304  1.00  0.00     0.031 C 
ATOM     70  C   UNL A   1      37.320  32.475  42.444  1.00  0.00     0.034 A 
BRANCH  57  71
ATOM     71  C   UNL A   1      42.539  34.457  44.921  1.00  0.00     0.023 A 
ATOM     72  C   UNL A   1      42.299  34.072  46.261  1.00  0.00     0.012 A 
ATOM     73  C   UNL A   1      43.541  35.470  44.765  1.00  0.00     0.148 A 
ATOM     74  C   UNL A   1      42.974  34.640  47.357  1.00  0.00     0.002 A 
ATOM     75  C   UNL A   1      44.275  35.978  45.857  1.00  0.00     0.091 A 
ATOM     76  F   UNL A   1      43.741  36.051  43.578  1.00  0.00    -0.205 F 
ATOM     77  C   UNL A   1      43.974  35.580  47.158  1.00  0.00     0.022 A 
BRANCH  75  78
ATOM     78  S   UNL A   1      45.637  37.163  45.680  1.00  0.00     0.127 S 
ATOM     79  O   UNL A   1      44.938  38.380  45.269  1.00  0.00    -0.237 OA
ATOM     80  O   UNL A   1      46.193  37.211  47.032  1.00  0.00    -0.237 OA
ATOM     81  O   UNL A   1      46.539  36.603  44.680  1.00  0.00    -0.744 OA
ENDBRANCH  75  78
ENDBRANCH  57  71
BRANCH  58  82
ATOM     82  C   UNL A   1      38.036  32.904  36.362  1.00  0.00     0.023 A 
ATOM     83  C   UNL A   1      38.661  31.625  36.366  1.00  0.00     0.012 A 
ATOM     84  C   UNL A   1      37.361  33.289  35.184  1.00  0.00     0.148 A 
ATOM     85  C   UNL A   1      38.532  30.725  35.304  1.00  0.00     0.002 A 
ATOM     86  C   UNL A   1      37.239  32.380  34.112  1.00  0.00     0.091 A 
ATOM     87  F   UNL A   1      36.754  34.481  35.146  1.00  0.00    -0.205 F 
ATOM     88  C   UNL A   1      37.813  31.100  34.180  1.00  0.00     0.022 A 
BRANCH  86  89
ATOM     89  S   UNL A   1      36.122  32.681  32.714  1.00  0.00     0.127 S 
ATOM     90  O   UNL A   1      36.728  33.860  32.101  1.00  0.00    -0.237 OA
ATOM     91  O   UNL A   1      36.249  31.453  31.926  1.00  0.00    -0.237 OA
ATOM     92  O   UNL A   1      34.810  32.867  33.315  1.00  0.00    -0.744 OA
ENDBRANCH  86  89
ENDBRANCH  58  82
BRANCH  70  93
ATOM     93  C   UNL A   1      37.036  31.333  43.432  1.00  0.00     0.023 A 
ATOM     94  C   UNL A   1      37.939  30.275  43.648  1.00  0.00     0.012 A 
ATOM     95  C   UNL A   1      35.957  31.432  44.356  1.00  0.00     0.148 A 
ATOM     96  C   UNL A   1      37.761  29.346  44.684  1.00  0.00     0.002 A 
ATOM     97  C   UNL A   1      35.877  30.601  45.473  1.00  0.00     0.091 A 
ATOM     98  F   UNL A   1      35.014  32.373  44.183  1.00  0.00    -0.205 F 
ATOM     99  C   UNL A   1      36.751  29.527  45.618  1.00  0.00     0.022 A 
BRANCH  97 100
ATOM    100  S   UNL A   1      34.813  31.064  46.852  1.00  0.00     0.127 S 
ATOM    101  O   UNL A   1      33.476  30.920  46.285  1.00  0.00    -0.237 OA
ATOM    102  O   UNL A   1      35.148  30.071  47.875  1.00  0.00    -0.237 OA
ATOM    103  O   UNL A   1      35.244  32.419  47.177  1.00  0.00    -0.744 OA
ENDBRANCH  97 100
ENDBRANCH  70  93
ENDBRANCH  44  45
ENDBRANCH  37  39
ENDBRANCH  36  37
ENDBRANCH  35  36
ENDBRANCH  34  35
ENDBRANCH  33  34
ENDBRANCH  32  33
ENDBRANCH   1  32
TORSDOF 23
ENDMDL
