MODEL 1
REMARK VINA RESULT:      -9.8      0.000      0.000
REMARK SMILES O=C(OCCOCCOCCOC(=O)[C@@H]([NH2+]Cc1ccc([N+](=O)[O-])c(F)c1)C1CC1)c1ccc(-c2c3nc(c(-c4cccc(S(=O)(=O)[O-])c4F)c4ccc([nH]4)c(-c4cccc(S(=O)(=O)[O-])c4F)c4nc(c(-c5cccc(S(=O)(=O)[O-])c5F)c5ccc2[nH]5)C=C4)C=C3)cc1
REMARK SMILES IDX 8 1 7 2 6 3 5 4 4 5 3 6 2 7 1 8 31 9 32 10 93 11 33 12 92 13
REMARK SMILES IDX 34 14 35 15 36 16 86 17 37 18 91 19 85 20 87 21 38 22 90 23
REMARK SMILES IDX 84 24 83 25 39 27 71 28 51 29 70 30 52 31 55 32 69 33 88 34
REMARK SMILES IDX 53 35 54 36 68 38 89 39 56 40 40 41 41 42 49 43 42 44 44 45
REMARK SMILES IDX 50 46 43 47 45 48 46 49 47 50 48 51 72 52 73 53 81 54 74 55
REMARK SMILES IDX 76 56 82 57 75 58 77 59 78 60 79 61 80 62 57 63 58 64 66 65
REMARK SMILES IDX 59 66 61 67 67 68 60 69 62 70 63 71 64 72 65 73 9 74 10 75
REMARK SMILES IDX 11 76 12 77 13 78 14 79 15 80 16 81 17 84 18 85 19 86 27 87
REMARK SMILES IDX 20 88 25 89 21 90 26 91 22 92 23 93 24 94 28 95 29 96 30 97
REMARK H PARENT 87 26 55 37 16 82 16 83
REMARK Flexibility Score: inf
ROOT
ATOM      1  C   UNL A   1      34.864  20.574  24.715  1.00  0.00     0.188 C 
ENDROOT
BRANCH   1   2
ATOM      2  C   UNL A   1      36.110  21.153  25.382  1.00  0.00     0.188 C 
BRANCH   2   3
ATOM      3  O   UNL A   1      37.288  21.059  24.577  1.00  0.00    -0.376 OA
BRANCH   3   4
ATOM      4  C   UNL A   1      37.989  19.816  24.715  1.00  0.00     0.202 C 
BRANCH   4   5
ATOM      5  C   UNL A   1      38.827  19.657  26.000  1.00  0.00     0.261 C 
BRANCH   5   6
ATOM      6  O   UNL A   1      40.191  19.266  25.758  1.00  0.00    -0.460 OA
BRANCH   6   7
ATOM      7  C   UNL A   1      41.335  19.898  26.129  1.00  0.00     0.338 C 
ATOM      8  O   UNL A   1      42.386  19.259  26.101  1.00  0.00    -0.246 OA
BRANCH   7   9
ATOM      9  C   UNL A   1      41.395  21.319  26.592  1.00  0.00     0.060 A 
ATOM     10  C   UNL A   1      40.948  22.417  25.861  1.00  0.00     0.016 A 
ATOM     11  C   UNL A   1      41.918  21.564  27.875  1.00  0.00     0.016 A 
ATOM     12  C   UNL A   1      41.140  23.715  26.294  1.00  0.00     0.010 A 
ATOM     13  C   UNL A   1      42.066  22.872  28.352  1.00  0.00     0.010 A 
ATOM     14  C   UNL A   1      41.733  23.952  27.524  1.00  0.00    -0.014 A 
BRANCH  14  15
ATOM     15  C   UNL A   1      42.181  25.330  27.788  1.00  0.00     0.031 A 
ATOM     16  C   UNL A   1      43.512  25.735  27.233  1.00  0.00     0.074 A 
ATOM     17  C   UNL A   1      41.344  26.230  28.338  1.00  0.00     0.049 A 
ATOM     18  N   UNL A   1      44.100  26.895  27.279  1.00  0.00    -0.248 NA
ATOM     19  C   UNL A   1      44.262  24.711  26.478  1.00  0.00     0.031 C 
ATOM     20  C   UNL A   1      39.959  25.966  28.724  1.00  0.00     0.029 A 
ATOM     21  N   UNL A   1      41.522  27.548  28.657  1.00  0.00    -0.354 N 
ATOM     22  C   UNL A   1      45.288  26.737  26.581  1.00  0.00     0.074 A 
ATOM     23  C   UNL A   1      45.359  25.367  26.136  1.00  0.00     0.031 C 
ATOM     24  C   UNL A   1      39.437  27.054  29.306  1.00  0.00     0.029 A 
ATOM     25  C   UNL A   1      40.448  28.100  29.318  1.00  0.00     0.049 A 
ATOM     26  H   UNL A   1      42.337  28.053  28.436  1.00  0.00     0.167 HD
ATOM     27  C   UNL A   1      46.224  27.670  26.315  1.00  0.00     0.034 A 
ATOM     28  C   UNL A   1      40.304  29.313  29.879  1.00  0.00     0.034 A 
ATOM     29  C   UNL A   1      46.112  29.030  26.749  1.00  0.00     0.049 A 
ATOM     30  C   UNL A   1      41.417  30.300  29.678  1.00  0.00     0.074 A 
ATOM     31  C   UNL A   1      47.006  30.065  26.563  1.00  0.00     0.029 A 
ATOM     32  N   UNL A   1      45.039  29.538  27.469  1.00  0.00    -0.354 N 
ATOM     33  N   UNL A   1      42.524  30.146  28.991  1.00  0.00    -0.248 NA
ATOM     34  C   UNL A   1      41.256  31.627  30.280  1.00  0.00     0.031 C 
ATOM     35  C   UNL A   1      46.493  31.190  27.211  1.00  0.00     0.029 A 
ATOM     36  C   UNL A   1      45.260  30.868  27.762  1.00  0.00     0.049 A 
ATOM     37  H   UNL A   1      44.241  29.026  27.731  1.00  0.00     0.167 HD
ATOM     38  C   UNL A   1      43.180  31.367  29.048  1.00  0.00     0.074 A 
ATOM     39  C   UNL A   1      42.336  32.253  29.828  1.00  0.00     0.031 C 
ATOM     40  C   UNL A   1      44.372  31.721  28.512  1.00  0.00     0.034 A 
BRANCH  27  41
ATOM     41  C   UNL A   1      47.439  27.242  25.545  1.00  0.00     0.023 A 
ATOM     42  C   UNL A   1      48.407  26.414  26.146  1.00  0.00     0.012 A 
ATOM     43  C   UNL A   1      47.602  27.643  24.205  1.00  0.00     0.148 A 
ATOM     44  C   UNL A   1      49.530  26.005  25.428  1.00  0.00     0.002 A 
ATOM     45  C   UNL A   1      48.698  27.194  23.483  1.00  0.00     0.091 A 
ATOM     46  F   UNL A   1      46.683  28.459  23.669  1.00  0.00    -0.205 F 
ATOM     47  C   UNL A   1      49.669  26.384  24.094  1.00  0.00     0.022 A 
BRANCH  45  48
ATOM     48  S   UNL A   1      48.928  27.572  21.743  1.00  0.00     0.127 S 
ATOM     49  O   UNL A   1      49.980  26.623  21.373  1.00  0.00    -0.237 OA
ATOM     50  O   UNL A   1      47.608  27.261  21.191  1.00  0.00    -0.237 OA
ATOM     51  O   UNL A   1      49.309  28.971  21.678  1.00  0.00    -0.744 OA
ENDBRANCH  45  48
ENDBRANCH  27  41
BRANCH  28  52
ATOM     52  C   UNL A   1      39.064  29.640  30.637  1.00  0.00     0.023 A 
ATOM     53  C   UNL A   1      38.917  29.223  31.972  1.00  0.00     0.012 A 
ATOM     54  C   UNL A   1      38.050  30.426  30.049  1.00  0.00     0.148 A 
ATOM     55  C   UNL A   1      37.773  29.562  32.701  1.00  0.00     0.002 A 
ATOM     56  C   UNL A   1      36.940  30.805  30.796  1.00  0.00     0.091 A 
ATOM     57  F   UNL A   1      38.201  30.807  28.773  1.00  0.00    -0.205 F 
ATOM     58  C   UNL A   1      36.791  30.360  32.117  1.00  0.00     0.022 A 
BRANCH  56  59
ATOM     59  S   UNL A   1      35.702  31.945  30.167  1.00  0.00     0.127 S 
ATOM     60  O   UNL A   1      36.512  33.116  29.844  1.00  0.00    -0.237 OA
ATOM     61  O   UNL A   1      35.181  31.215  29.011  1.00  0.00    -0.237 OA
ATOM     62  O   UNL A   1      34.740  32.114  31.248  1.00  0.00    -0.744 OA
ENDBRANCH  56  59
ENDBRANCH  28  52
BRANCH  40  63
ATOM     63  C   UNL A   1      44.845  33.127  28.741  1.00  0.00     0.023 A 
ATOM     64  C   UNL A   1      44.443  34.144  27.855  1.00  0.00     0.012 A 
ATOM     65  C   UNL A   1      45.541  33.455  29.920  1.00  0.00     0.148 A 
ATOM     66  C   UNL A   1      44.734  35.475  28.140  1.00  0.00     0.002 A 
ATOM     67  C   UNL A   1      45.774  34.787  30.225  1.00  0.00     0.091 A 
ATOM     68  F   UNL A   1      45.920  32.459  30.736  1.00  0.00    -0.205 F 
ATOM     69  C   UNL A   1      45.381  35.797  29.332  1.00  0.00     0.022 A 
BRANCH  67  70
ATOM     70  S   UNL A   1      46.483  35.304  31.791  1.00  0.00     0.127 S 
ATOM     71  O   UNL A   1      46.202  34.146  32.639  1.00  0.00    -0.237 OA
ATOM     72  O   UNL A   1      47.893  35.481  31.444  1.00  0.00    -0.237 OA
ATOM     73  O   UNL A   1      45.789  36.528  32.167  1.00  0.00    -0.744 OA
ENDBRANCH  67  70
ENDBRANCH  40  63
ENDBRANCH  14  15
ENDBRANCH   7   9
ENDBRANCH   6   7
ENDBRANCH   5   6
ENDBRANCH   4   5
ENDBRANCH   3   4
ENDBRANCH   2   3
ENDBRANCH   1   2
BRANCH   1  74
ATOM     74  O   UNL A   1      33.668  20.568  25.487  1.00  0.00    -0.376 OA
BRANCH  74  75
ATOM     75  C   UNL A   1      33.605  21.462  26.590  1.00  0.00     0.202 C 
BRANCH  75  76
ATOM     76  C   UNL A   1      32.600  22.624  26.543  1.00  0.00     0.261 C 
BRANCH  76  77
ATOM     77  O   UNL A   1      33.101  23.934  26.859  1.00  0.00    -0.459 OA
BRANCH  77  78
ATOM     78  C   UNL A   1      33.559  24.650  25.787  1.00  0.00     0.365 C 
ATOM     79  O   UNL A   1      34.685  25.140  25.729  1.00  0.00    -0.245 OA
BRANCH  78  80
ATOM     80  C   UNL A   1      32.496  24.874  24.669  1.00  0.00     0.296 C 
BRANCH  80  81
ATOM     81  N   UNL A   1      31.721  26.116  24.862  1.00  0.00    -0.331 N 
ATOM     82  H   UNL A   1      31.933  26.484  25.789  1.00  0.00     0.347 HD
ATOM     83  H   UNL A   1      30.738  25.868  24.749  1.00  0.00     0.347 HD
BRANCH  81  84
ATOM     84  C   UNL A   1      32.006  27.168  23.874  1.00  0.00     0.298 C 
BRANCH  84  85
ATOM     85  C   UNL A   1      30.909  28.182  23.648  1.00  0.00     0.010 A 
ATOM     86  C   UNL A   1      29.797  27.873  22.854  1.00  0.00     0.017 A 
ATOM     87  C   UNL A   1      30.965  29.437  24.278  1.00  0.00     0.056 A 
ATOM     88  C   UNL A   1      28.782  28.814  22.660  1.00  0.00     0.089 A 
ATOM     89  C   UNL A   1      29.962  30.382  24.079  1.00  0.00     0.201 A 
ATOM     90  C   UNL A   1      28.876  30.079  23.265  1.00  0.00     0.304 A 
ATOM     91  F   UNL A   1      30.088  31.566  24.694  1.00  0.00    -0.199 F 
BRANCH  90  92
ATOM     92  N   UNL A   1      27.830  31.069  23.021  1.00  0.00     0.065 N 
ATOM     93  O   UNL A   1      27.852  31.662  21.930  1.00  0.00    -0.258 OA
ATOM     94  O   UNL A   1      26.989  31.290  23.901  1.00  0.00    -0.258 OA
ENDBRANCH  90  92
ENDBRANCH  84  85
ENDBRANCH  81  84
ENDBRANCH  80  81
BRANCH  80  95
ATOM     95  C   UNL A   1      33.229  24.843  23.351  1.00  0.00     0.059 C 
ATOM     96  C   UNL A   1      33.642  23.479  22.842  1.00  0.00     0.011 C 
ATOM     97  C   UNL A   1      32.724  24.329  22.022  1.00  0.00     0.011 C 
ENDBRANCH  80  95
ENDBRANCH  78  80
ENDBRANCH  77  78
ENDBRANCH  76  77
ENDBRANCH  75  76
ENDBRANCH  74  75
ENDBRANCH   1  74
TORSDOF 25
ENDMDL
MODEL 2
REMARK VINA RESULT:      -9.7      1.687      2.074
REMARK SMILES O=C(OCCOCCOCCOC(=O)[C@@H]([NH2+]Cc1ccc([N+](=O)[O-])c(F)c1)C1CC1)c1ccc(-c2c3nc(c(-c4cccc(S(=O)(=O)[O-])c4F)c4ccc([nH]4)c(-c4cccc(S(=O)(=O)[O-])c4F)c4nc(c(-c5cccc(S(=O)(=O)[O-])c5F)c5ccc2[nH]5)C=C4)C=C3)cc1
REMARK SMILES IDX 8 1 7 2 6 3 5 4 4 5 3 6 2 7 1 8 31 9 32 10 93 11 33 12 92 13
REMARK SMILES IDX 34 14 35 15 36 16 86 17 37 18 91 19 85 20 87 21 38 22 90 23
REMARK SMILES IDX 84 24 83 25 39 27 71 28 51 29 70 30 52 31 55 32 69 33 88 34
REMARK SMILES IDX 53 35 54 36 68 38 89 39 56 40 40 41 41 42 49 43 42 44 44 45
REMARK SMILES IDX 50 46 43 47 45 48 46 49 47 50 48 51 72 52 73 53 81 54 74 55
REMARK SMILES IDX 76 56 82 57 75 58 77 59 78 60 79 61 80 62 57 63 58 64 66 65
REMARK SMILES IDX 59 66 61 67 67 68 60 69 62 70 63 71 64 72 65 73 9 74 10 75
REMARK SMILES IDX 11 76 12 77 13 78 14 79 15 80 16 81 17 84 18 85 19 86 27 87
REMARK SMILES IDX 20 88 25 89 21 90 26 91 22 92 23 93 24 94 28 95 29 96 30 97
REMARK H PARENT 87 26 55 37 16 82 16 83
REMARK Flexibility Score: inf
ROOT
ATOM      1  C   UNL A   1      35.388  20.982  24.966  1.00  0.00     0.188 C 
ENDROOT
BRANCH   1   2
ATOM      2  C   UNL A   1      36.605  21.661  25.591  1.00  0.00     0.188 C 
BRANCH   2   3
ATOM      3  O   UNL A   1      37.835  21.356  24.929  1.00  0.00    -0.376 OA
BRANCH   3   4
ATOM      4  C   UNL A   1      38.054  19.953  24.727  1.00  0.00     0.202 C 
BRANCH   4   5
ATOM      5  C   UNL A   1      38.969  19.260  25.756  1.00  0.00     0.261 C 
BRANCH   5   6
ATOM      6  O   UNL A   1      40.371  19.363  25.447  1.00  0.00    -0.460 OA
BRANCH   6   7
ATOM      7  C   UNL A   1      41.374  19.873  26.208  1.00  0.00     0.338 C 
ATOM      8  O   UNL A   1      42.290  19.122  26.540  1.00  0.00    -0.246 OA
BRANCH   7   9
ATOM      9  C   UNL A   1      41.424  21.289  26.689  1.00  0.00     0.060 A 
ATOM     10  C   UNL A   1      41.025  22.399  25.948  1.00  0.00     0.016 A 
ATOM     11  C   UNL A   1      41.883  21.515  28.000  1.00  0.00     0.016 A 
ATOM     12  C   UNL A   1      41.208  23.689  26.404  1.00  0.00     0.010 A 
ATOM     13  C   UNL A   1      42.019  22.816  28.498  1.00  0.00     0.010 A 
ATOM     14  C   UNL A   1      41.739  23.908  27.666  1.00  0.00    -0.014 A 
BRANCH  14  15
ATOM     15  C   UNL A   1      42.186  25.278  27.967  1.00  0.00     0.031 A 
ATOM     16  C   UNL A   1      43.552  25.672  27.493  1.00  0.00     0.074 A 
ATOM     17  C   UNL A   1      41.329  26.183  28.475  1.00  0.00     0.049 A 
ATOM     18  N   UNL A   1      44.149  26.826  27.584  1.00  0.00    -0.248 NA
ATOM     19  C   UNL A   1      44.333  24.646  26.774  1.00  0.00     0.031 C 
ATOM     20  C   UNL A   1      39.921  25.932  28.779  1.00  0.00     0.029 A 
ATOM     21  N   UNL A   1      41.502  27.497  28.816  1.00  0.00    -0.354 N 
ATOM     22  C   UNL A   1      45.373  26.659  26.954  1.00  0.00     0.074 A 
ATOM     23  C   UNL A   1      45.454  25.292  26.501  1.00  0.00     0.031 C 
ATOM     24  C   UNL A   1      39.378  27.022  29.339  1.00  0.00     0.029 A 
ATOM     25  C   UNL A   1      40.398  28.055  29.419  1.00  0.00     0.049 A 
ATOM     26  H   UNL A   1      42.335  27.994  28.646  1.00  0.00     0.167 HD
ATOM     27  C   UNL A   1      46.334  27.583  26.750  1.00  0.00     0.034 A 
ATOM     28  C   UNL A   1      40.236  29.266  29.981  1.00  0.00     0.034 A 
ATOM     29  C   UNL A   1      46.212  28.941  27.189  1.00  0.00     0.049 A 
ATOM     30  C   UNL A   1      41.369  30.241  29.853  1.00  0.00     0.074 A 
ATOM     31  C   UNL A   1      47.126  29.967  27.064  1.00  0.00     0.029 A 
ATOM     32  N   UNL A   1      45.105  29.455  27.850  1.00  0.00    -0.354 N 
ATOM     33  N   UNL A   1      42.513  30.081  29.230  1.00  0.00    -0.248 NA
ATOM     34  C   UNL A   1      41.188  31.566  30.456  1.00  0.00     0.031 C 
ATOM     35  C   UNL A   1      46.589  31.093  27.691  1.00  0.00     0.029 A 
ATOM     36  C   UNL A   1      45.323  30.780  28.168  1.00  0.00     0.049 A 
ATOM     37  H   UNL A   1      44.287  28.950  28.061  1.00  0.00     0.167 HD
ATOM     38  C   UNL A   1      43.177  31.293  29.335  1.00  0.00     0.074 A 
ATOM     39  C   UNL A   1      42.300  32.183  30.072  1.00  0.00     0.031 C 
ATOM     40  C   UNL A   1      44.403  31.638  28.872  1.00  0.00     0.034 A 
BRANCH  27  41
ATOM     41  C   UNL A   1      47.586  27.148  26.048  1.00  0.00     0.023 A 
ATOM     42  C   UNL A   1      48.564  26.402  26.735  1.00  0.00     0.012 A 
ATOM     43  C   UNL A   1      47.776  27.458  24.688  1.00  0.00     0.148 A 
ATOM     44  C   UNL A   1      49.723  25.985  26.080  1.00  0.00     0.002 A 
ATOM     45  C   UNL A   1      48.909  27.000  24.032  1.00  0.00     0.091 A 
ATOM     46  F   UNL A   1      46.846  28.198  24.069  1.00  0.00    -0.205 F 
ATOM     47  C   UNL A   1      49.890  26.273  24.727  1.00  0.00     0.022 A 
BRANCH  45  48
ATOM     48  S   UNL A   1      49.180  27.262  22.276  1.00  0.00     0.127 S 
ATOM     49  O   UNL A   1      50.638  27.155  22.185  1.00  0.00    -0.237 OA
ATOM     50  O   UNL A   1      48.451  26.135  21.689  1.00  0.00    -0.237 OA
ATOM     51  O   UNL A   1      48.637  28.573  21.971  1.00  0.00    -0.744 OA
ENDBRANCH  45  48
ENDBRANCH  27  41
BRANCH  28  52
ATOM     52  C   UNL A   1      38.958  29.601  30.669  1.00  0.00     0.023 A 
ATOM     53  C   UNL A   1      38.671  29.064  31.937  1.00  0.00     0.012 A 
ATOM     54  C   UNL A   1      38.048  30.511  30.089  1.00  0.00     0.148 A 
ATOM     55  C   UNL A   1      37.492  29.407  32.604  1.00  0.00     0.002 A 
ATOM     56  C   UNL A   1      36.903  30.890  30.782  1.00  0.00     0.091 A 
ATOM     57  F   UNL A   1      38.331  31.007  28.876  1.00  0.00    -0.205 F 
ATOM     58  C   UNL A   1      36.615  30.326  32.033  1.00  0.00     0.022 A 
BRANCH  56  59
ATOM     59  S   UNL A   1      35.796  32.171  30.180  1.00  0.00     0.127 S 
ATOM     60  O   UNL A   1      34.785  32.210  31.233  1.00  0.00    -0.237 OA
ATOM     61  O   UNL A   1      36.683  33.334  30.129  1.00  0.00    -0.237 OA
ATOM     62  O   UNL A   1      35.339  31.712  28.875  1.00  0.00    -0.744 OA
ENDBRANCH  56  59
ENDBRANCH  28  52
BRANCH  40  63
ATOM     63  C   UNL A   1      44.877  33.036  29.140  1.00  0.00     0.023 A 
ATOM     64  C   UNL A   1      45.657  33.294  30.283  1.00  0.00     0.012 A 
ATOM     65  C   UNL A   1      44.689  34.043  28.176  1.00  0.00     0.148 A 
ATOM     66  C   UNL A   1      46.242  34.543  30.464  1.00  0.00     0.002 A 
ATOM     67  C   UNL A   1      45.324  35.266  28.334  1.00  0.00     0.091 A 
ATOM     68  F   UNL A   1      43.929  33.768  27.104  1.00  0.00    -0.205 F 
ATOM     69  C   UNL A   1      46.092  35.521  29.481  1.00  0.00     0.022 A 
BRANCH  67  70
ATOM     70  S   UNL A   1      45.294  36.535  27.065  1.00  0.00     0.127 S 
ATOM     71  O   UNL A   1      45.993  35.871  25.966  1.00  0.00    -0.237 OA
ATOM     72  O   UNL A   1      43.858  36.721  26.854  1.00  0.00    -0.237 OA
ATOM     73  O   UNL A   1      45.981  37.688  27.628  1.00  0.00    -0.744 OA
ENDBRANCH  67  70
ENDBRANCH  40  63
ENDBRANCH  14  15
ENDBRANCH   7   9
ENDBRANCH   6   7
ENDBRANCH   5   6
ENDBRANCH   4   5
ENDBRANCH   3   4
ENDBRANCH   2   3
ENDBRANCH   1   2
BRANCH   1  74
ATOM     74  O   UNL A   1      34.287  20.720  25.829  1.00  0.00    -0.376 OA
BRANCH  74  75
ATOM     75  C   UNL A   1      33.321  21.752  25.978  1.00  0.00     0.202 C 
BRANCH  75  76
ATOM     76  C   UNL A   1      31.830  21.381  25.940  1.00  0.00     0.261 C 
BRANCH  76  77
ATOM     77  O   UNL A   1      30.921  22.376  25.440  1.00  0.00    -0.459 OA
BRANCH  77  78
ATOM     78  C   UNL A   1      31.494  23.585  25.148  1.00  0.00     0.365 C 
ATOM     79  O   UNL A   1      32.095  24.267  25.974  1.00  0.00    -0.245 OA
BRANCH  78  80
ATOM     80  C   UNL A   1      31.242  24.072  23.688  1.00  0.00     0.296 C 
BRANCH  80  81
ATOM     81  N   UNL A   1      30.289  25.199  23.623  1.00  0.00    -0.331 N 
ATOM     82  H   UNL A   1      30.011  25.438  24.574  1.00  0.00     0.347 HD
ATOM     83  H   UNL A   1      29.507  24.887  23.048  1.00  0.00     0.347 HD
BRANCH  81  84
ATOM     84  C   UNL A   1      30.826  26.410  22.982  1.00  0.00     0.298 C 
BRANCH  84  85
ATOM     85  C   UNL A   1      31.096  27.582  23.897  1.00  0.00     0.010 A 
ATOM     86  C   UNL A   1      31.998  27.467  24.964  1.00  0.00     0.017 A 
ATOM     87  C   UNL A   1      30.484  28.823  23.657  1.00  0.00     0.056 A 
ATOM     88  C   UNL A   1      32.250  28.560  25.798  1.00  0.00     0.089 A 
ATOM     89  C   UNL A   1      30.723  29.912  24.492  1.00  0.00     0.201 A 
ATOM     90  C   UNL A   1      31.596  29.782  25.567  1.00  0.00     0.304 A 
ATOM     91  F   UNL A   1      30.091  31.061  24.217  1.00  0.00    -0.199 F 
BRANCH  90  92
ATOM     92  N   UNL A   1      31.835  30.905  26.470  1.00  0.00     0.065 N 
ATOM     93  O   UNL A   1      30.861  31.619  26.759  1.00  0.00    -0.258 OA
ATOM     94  O   UNL A   1      32.981  31.111  26.890  1.00  0.00    -0.258 OA
ENDBRANCH  90  92
ENDBRANCH  84  85
ENDBRANCH  81  84
ENDBRANCH  80  81
BRANCH  80  95
ATOM     95  C   UNL A   1      32.588  24.412  23.099  1.00  0.00     0.059 C 
ATOM     96  C   UNL A   1      33.375  23.261  22.510  1.00  0.00     0.011 C 
ATOM     97  C   UNL A   1      32.986  24.415  21.640  1.00  0.00     0.011 C 
ENDBRANCH  80  95
ENDBRANCH  78  80
ENDBRANCH  77  78
ENDBRANCH  76  77
ENDBRANCH  75  76
ENDBRANCH  74  75
ENDBRANCH   1  74
TORSDOF 25
ENDMDL
MODEL 3
REMARK VINA RESULT:      -9.6      2.854      8.474
REMARK SMILES O=C(OCCOCCOCCOC(=O)[C@@H]([NH2+]Cc1ccc([N+](=O)[O-])c(F)c1)C1CC1)c1ccc(-c2c3nc(c(-c4cccc(S(=O)(=O)[O-])c4F)c4ccc([nH]4)c(-c4cccc(S(=O)(=O)[O-])c4F)c4nc(c(-c5cccc(S(=O)(=O)[O-])c5F)c5ccc2[nH]5)C=C4)C=C3)cc1
REMARK SMILES IDX 8 1 7 2 6 3 5 4 4 5 3 6 2 7 1 8 31 9 32 10 93 11 33 12 92 13
REMARK SMILES IDX 34 14 35 15 36 16 86 17 37 18 91 19 85 20 87 21 38 22 90 23
REMARK SMILES IDX 84 24 83 25 39 27 71 28 51 29 70 30 52 31 55 32 69 33 88 34
REMARK SMILES IDX 53 35 54 36 68 38 89 39 56 40 40 41 41 42 49 43 42 44 44 45
REMARK SMILES IDX 50 46 43 47 45 48 46 49 47 50 48 51 72 52 73 53 81 54 74 55
REMARK SMILES IDX 76 56 82 57 75 58 77 59 78 60 79 61 80 62 57 63 58 64 66 65
REMARK SMILES IDX 59 66 61 67 67 68 60 69 62 70 63 71 64 72 65 73 9 74 10 75
REMARK SMILES IDX 11 76 12 77 13 78 14 79 15 80 16 81 17 84 18 85 19 86 27 87
REMARK SMILES IDX 20 88 25 89 21 90 26 91 22 92 23 93 24 94 28 95 29 96 30 97
REMARK H PARENT 87 26 55 37 16 82 16 83
REMARK Flexibility Score: inf
ROOT
ATOM      1  C   UNL A   1      33.760  23.350  24.123  1.00  0.00     0.188 C 
ENDROOT
BRANCH   1   2
ATOM      2  C   UNL A   1      34.348  23.260  25.530  1.00  0.00     0.188 C 
BRANCH   2   3
ATOM      3  O   UNL A   1      35.749  23.543  25.586  1.00  0.00    -0.376 OA
BRANCH   3   4
ATOM      4  C   UNL A   1      36.552  22.653  24.799  1.00  0.00     0.202 C 
BRANCH   4   5
ATOM      5  C   UNL A   1      37.203  21.482  25.562  1.00  0.00     0.261 C 
BRANCH   5   6
ATOM      6  O   UNL A   1      38.640  21.462  25.477  1.00  0.00    -0.460 OA
BRANCH   6   7
ATOM      7  C   UNL A   1      39.553  21.687  26.457  1.00  0.00     0.338 C 
ATOM      8  O   UNL A   1      39.993  20.717  27.074  1.00  0.00    -0.246 OA
BRANCH   7   9
ATOM      9  C   UNL A   1      40.041  23.044  26.853  1.00  0.00     0.060 A 
ATOM     10  C   UNL A   1      39.694  24.234  26.217  1.00  0.00     0.016 A 
ATOM     11  C   UNL A   1      40.894  23.130  27.968  1.00  0.00     0.016 A 
ATOM     12  C   UNL A   1      40.272  25.442  26.555  1.00  0.00     0.010 A 
ATOM     13  C   UNL A   1      41.443  24.357  28.360  1.00  0.00     0.010 A 
ATOM     14  C   UNL A   1      41.177  25.506  27.603  1.00  0.00    -0.014 A 
BRANCH  14  15
ATOM     15  C   UNL A   1      41.974  26.739  27.715  1.00  0.00     0.031 A 
ATOM     16  C   UNL A   1      41.363  27.884  28.464  1.00  0.00     0.074 A 
ATOM     17  C   UNL A   1      43.263  26.761  27.326  1.00  0.00     0.049 A 
ATOM     18  N   UNL A   1      41.877  29.046  28.746  1.00  0.00    -0.248 NA
ATOM     19  C   UNL A   1      40.008  27.676  29.015  1.00  0.00     0.031 C 
ATOM     20  C   UNL A   1      43.994  25.623  26.769  1.00  0.00     0.029 A 
ATOM     21  N   UNL A   1      44.194  27.763  27.346  1.00  0.00    -0.354 N 
ATOM     22  C   UNL A   1      40.910  29.709  29.486  1.00  0.00     0.074 A 
ATOM     23  C   UNL A   1      39.765  28.839  29.597  1.00  0.00     0.031 C 
ATOM     24  C   UNL A   1      45.229  26.007  26.420  1.00  0.00     0.029 A 
ATOM     25  C   UNL A   1      45.383  27.416  26.745  1.00  0.00     0.049 A 
ATOM     26  H   UNL A   1      44.030  28.645  27.751  1.00  0.00     0.167 HD
ATOM     27  C   UNL A   1      40.989  30.933  30.048  1.00  0.00     0.034 A 
ATOM     28  C   UNL A   1      46.470  28.162  26.480  1.00  0.00     0.034 A 
ATOM     29  C   UNL A   1      42.151  31.763  29.943  1.00  0.00     0.049 A 
ATOM     30  C   UNL A   1      46.486  29.567  27.005  1.00  0.00     0.074 A 
ATOM     31  C   UNL A   1      42.345  33.032  30.446  1.00  0.00     0.029 A 
ATOM     32  N   UNL A   1      43.314  31.403  29.275  1.00  0.00    -0.354 N 
ATOM     33  N   UNL A   1      45.575  30.174  27.729  1.00  0.00    -0.248 NA
ATOM     34  C   UNL A   1      47.677  30.376  26.726  1.00  0.00     0.031 C 
ATOM     35  C   UNL A   1      43.612  33.460  30.044  1.00  0.00     0.029 A 
ATOM     36  C   UNL A   1      44.223  32.440  29.326  1.00  0.00     0.049 A 
ATOM     37  H   UNL A   1      43.466  30.539  28.830  1.00  0.00     0.167 HD
ATOM     38  C   UNL A   1      46.094  31.426  28.022  1.00  0.00     0.074 A 
ATOM     39  C   UNL A   1      47.406  31.484  27.406  1.00  0.00     0.031 C 
ATOM     40  C   UNL A   1      45.535  32.438  28.728  1.00  0.00     0.034 A 
BRANCH  27  41
ATOM     41  C   UNL A   1      39.790  31.438  30.796  1.00  0.00     0.023 A 
ATOM     42  C   UNL A   1      38.711  32.019  30.101  1.00  0.00     0.012 A 
ATOM     43  C   UNL A   1      39.726  31.307  32.196  1.00  0.00     0.148 A 
ATOM     44  C   UNL A   1      37.591  32.477  30.793  1.00  0.00     0.002 A 
ATOM     45  C   UNL A   1      38.588  31.723  32.872  1.00  0.00     0.091 A 
ATOM     46  F   UNL A   1      40.781  30.782  32.835  1.00  0.00    -0.205 F 
ATOM     47  C   UNL A   1      37.524  32.318  32.176  1.00  0.00     0.022 A 
BRANCH  45  48
ATOM     48  S   UNL A   1      38.381  31.498  34.642  1.00  0.00     0.127 S 
ATOM     49  O   UNL A   1      39.445  32.353  35.172  1.00  0.00    -0.237 OA
ATOM     50  O   UNL A   1      37.026  32.013  34.852  1.00  0.00    -0.237 OA
ATOM     51  O   UNL A   1      38.547  30.078  34.894  1.00  0.00    -0.744 OA
ENDBRANCH  45  48
ENDBRANCH  27  41
BRANCH  28  52
ATOM     52  C   UNL A   1      47.607  27.573  25.717  1.00  0.00     0.023 A 
ATOM     53  C   UNL A   1      47.640  27.657  24.314  1.00  0.00     0.012 A 
ATOM     54  C   UNL A   1      48.695  26.982  26.394  1.00  0.00     0.148 A 
ATOM     55  C   UNL A   1      48.723  27.143  23.596  1.00  0.00     0.002 A 
ATOM     56  C   UNL A   1      49.794  26.520  25.678  1.00  0.00     0.091 A 
ATOM     57  F   UNL A   1      48.644  26.900  27.731  1.00  0.00    -0.205 F 
ATOM     58  C   UNL A   1      49.803  26.585  24.277  1.00  0.00     0.022 A 
BRANCH  56  59
ATOM     59  S   UNL A   1      51.282  25.919  26.484  1.00  0.00     0.127 S 
ATOM     60  O   UNL A   1      51.712  27.096  27.233  1.00  0.00    -0.237 OA
ATOM     61  O   UNL A   1      50.760  24.822  27.300  1.00  0.00    -0.237 OA
ATOM     62  O   UNL A   1      52.166  25.491  25.407  1.00  0.00    -0.744 OA
ENDBRANCH  56  59
ENDBRANCH  28  52
BRANCH  40  63
ATOM     63  C   UNL A   1      46.333  33.700  28.882  1.00  0.00     0.023 A 
ATOM     64  C   UNL A   1      47.202  33.837  29.980  1.00  0.00     0.012 A 
ATOM     65  C   UNL A   1      46.340  34.661  27.855  1.00  0.00     0.148 A 
ATOM     66  C   UNL A   1      48.069  34.923  30.055  1.00  0.00     0.002 A 
ATOM     67  C   UNL A   1      47.248  35.707  27.907  1.00  0.00     0.091 A 
ATOM     68  F   UNL A   1      45.489  34.506  26.829  1.00  0.00    -0.205 F 
ATOM     69  C   UNL A   1      48.105  35.846  29.010  1.00  0.00     0.022 A 
BRANCH  67  70
ATOM     70  S   UNL A   1      47.455  36.867  26.554  1.00  0.00     0.127 S 
ATOM     71  O   UNL A   1      46.148  37.521  26.521  1.00  0.00    -0.237 OA
ATOM     72  O   UNL A   1      48.549  37.710  27.039  1.00  0.00    -0.237 OA
ATOM     73  O   UNL A   1      47.776  36.068  25.379  1.00  0.00    -0.744 OA
ENDBRANCH  67  70
ENDBRANCH  40  63
ENDBRANCH  14  15
ENDBRANCH   7   9
ENDBRANCH   6   7
ENDBRANCH   5   6
ENDBRANCH   4   5
ENDBRANCH   3   4
ENDBRANCH   2   3
ENDBRANCH   1   2
BRANCH   1  74
ATOM     74  O   UNL A   1      32.769  24.348  23.905  1.00  0.00    -0.376 OA
BRANCH  74  75
ATOM     75  C   UNL A   1      33.225  25.654  23.581  1.00  0.00     0.202 C 
BRANCH  75  76
ATOM     76  C   UNL A   1      33.094  26.144  22.130  1.00  0.00     0.261 C 
BRANCH  76  77
ATOM     77  O   UNL A   1      32.023  27.060  21.844  1.00  0.00    -0.459 OA
BRANCH  77  78
ATOM     78  C   UNL A   1      32.021  28.199  22.603  1.00  0.00     0.365 C 
ATOM     79  O   UNL A   1      32.976  28.969  22.673  1.00  0.00    -0.245 OA
BRANCH  78  80
ATOM     80  C   UNL A   1      30.727  28.395  23.451  1.00  0.00     0.296 C 
BRANCH  80  81
ATOM     81  N   UNL A   1      30.981  28.309  24.903  1.00  0.00    -0.331 N 
ATOM     82  H   UNL A   1      31.747  27.653  25.055  1.00  0.00     0.347 HD
ATOM     83  H   UNL A   1      30.108  28.006  25.335  1.00  0.00     0.347 HD
BRANCH  81  84
ATOM     84  C   UNL A   1      31.341  29.589  25.533  1.00  0.00     0.298 C 
BRANCH  84  85
ATOM     85  C   UNL A   1      32.665  29.623  26.259  1.00  0.00     0.010 A 
ATOM     86  C   UNL A   1      33.543  28.532  26.203  1.00  0.00     0.017 A 
ATOM     87  C   UNL A   1      33.058  30.775  26.960  1.00  0.00     0.056 A 
ATOM     88  C   UNL A   1      34.772  28.578  26.870  1.00  0.00     0.089 A 
ATOM     89  C   UNL A   1      34.277  30.821  27.634  1.00  0.00     0.201 A 
ATOM     90  C   UNL A   1      35.129  29.723  27.600  1.00  0.00     0.304 A 
ATOM     91  F   UNL A   1      34.580  31.944  28.299  1.00  0.00    -0.199 F 
BRANCH  90  92
ATOM     92  N   UNL A   1      36.397  29.743  28.326  1.00  0.00     0.065 N 
ATOM     93  O   UNL A   1      37.411  30.073  27.690  1.00  0.00    -0.258 OA
ATOM     94  O   UNL A   1      36.415  29.419  29.520  1.00  0.00    -0.258 OA
ENDBRANCH  90  92
ENDBRANCH  84  85
ENDBRANCH  81  84
ENDBRANCH  80  81
BRANCH  80  95
ATOM     95  C   UNL A   1      30.130  29.719  23.042  1.00  0.00     0.059 C 
ATOM     96  C   UNL A   1      29.261  29.710  21.803  1.00  0.00     0.011 C 
ATOM     97  C   UNL A   1      28.679  30.141  23.112  1.00  0.00     0.011 C 
ENDBRANCH  80  95
ENDBRANCH  78  80
ENDBRANCH  77  78
ENDBRANCH  76  77
ENDBRANCH  75  76
ENDBRANCH  74  75
ENDBRANCH   1  74
TORSDOF 25
ENDMDL
