MODEL 1
REMARK VINA RESULT:     -10.8      0.000      0.000
REMARK SMILES O=C(OCCOCCOCCOC(=O)c1ccc(-c2c3nc(c(-c4cccc(S(=O)(=O)[O-])c4F)c4ccc([nH]4)c(-c4cccc(S(=O)(=O)[O-])c4F)c4nc(c(-c5cccc(S(=O)(=O)[O-])c5F)c5ccc2[nH]5)C=C4)C=C3)cc1)c1ccc(/C=C/c2ccc3cccc(O)c3n2)cc1
REMARK SMILES IDX 7 1 6 2 5 3 4 4 3 5 2 6 1 7 78 8 79 9 96 10 80 11 95 12
REMARK SMILES IDX 81 13 82 14 83 15 84 16 85 17 94 18 86 19 93 20 87 21 91 22
REMARK SMILES IDX 88 23 90 24 89 25 92 26 8 28 9 29 10 30 11 31 12 32 13 33
REMARK SMILES IDX 14 34 15 35 16 36 77 37 17 38 76 39 18 40 19 41 20 42 70 43
REMARK SMILES IDX 21 44 75 45 69 46 71 47 22 48 74 49 68 50 67 51 23 53 55 54
REMARK SMILES IDX 35 55 54 56 36 57 39 58 53 59 72 60 37 61 38 62 52 64 73 65
REMARK SMILES IDX 40 66 24 67 25 68 33 69 26 70 28 71 34 72 27 73 29 74 30 75
REMARK SMILES IDX 31 76 32 77 56 78 57 79 65 80 58 81 60 82 66 83 59 84 61 85
REMARK SMILES IDX 62 86 63 87 64 88 41 89 42 90 50 91 43 92 45 93 51 94 44 95
REMARK SMILES IDX 46 96 47 97 48 98 49 99
REMARK H PARENT 92 27 71 52 39 63
REMARK Flexibility Score: inf
ROOT
ATOM      1  C   UNL A   1      33.390  35.875  28.781  1.00  0.00     0.188 C 
ENDROOT
BRANCH   1   2
ATOM      2  O   UNL A   1      33.909  34.562  28.612  1.00  0.00    -0.376 OA
BRANCH   2   3
ATOM      3  C   UNL A   1      35.270  34.375  28.246  1.00  0.00     0.202 C 
BRANCH   3   4
ATOM      4  C   UNL A   1      35.778  32.973  27.932  1.00  0.00     0.261 C 
BRANCH   4   5
ATOM      5  O   UNL A   1      35.043  31.864  28.471  1.00  0.00    -0.460 OA
BRANCH   5   6
ATOM      6  C   UNL A   1      34.889  30.577  28.113  1.00  0.00     0.338 C 
ATOM      7  O   UNL A   1      35.644  29.751  28.629  1.00  0.00    -0.246 OA
BRANCH   6   8
ATOM      8  C   UNL A   1      33.890  30.058  27.139  1.00  0.00     0.060 A 
ATOM      9  C   UNL A   1      32.659  30.641  26.831  1.00  0.00     0.016 A 
ATOM     10  C   UNL A   1      34.343  29.036  26.303  1.00  0.00     0.016 A 
ATOM     11  C   UNL A   1      31.879  30.219  25.743  1.00  0.00     0.009 A 
ATOM     12  C   UNL A   1      33.587  28.634  25.198  1.00  0.00     0.009 A 
ATOM     13  C   UNL A   1      32.349  29.229  24.895  1.00  0.00    -0.026 A 
BRANCH  13  14
ATOM     14  C   UNL A   1      31.607  28.715  23.731  1.00  0.00     0.010 C 
ATOM     15  C   UNL A   1      30.305  28.360  23.711  1.00  0.00     0.029 C 
BRANCH  15  16
ATOM     16  C   UNL A   1      30.096  26.928  23.304  1.00  0.00     0.064 A 
ATOM     17  C   UNL A   1      29.349  26.302  24.306  1.00  0.00     0.029 A 
ATOM     18  N   UNL A   1      31.083  26.300  22.628  1.00  0.00    -0.245 NA
ATOM     19  C   UNL A   1      30.053  25.656  25.320  1.00  0.00     0.013 A 
ATOM     20  C   UNL A   1      31.565  25.144  23.177  1.00  0.00     0.113 A 
ATOM     21  C   UNL A   1      31.140  24.913  24.890  1.00  0.00     0.004 A 
ATOM     22  C   UNL A   1      32.619  23.833  22.393  1.00  0.00     0.141 A 
ATOM     23  C   UNL A   1      31.715  23.467  25.811  1.00  0.00     0.010 A 
ATOM     24  C   UNL A   1      33.198  22.387  23.283  1.00  0.00     0.048 A 
ATOM     25  C   UNL A   1      32.636  22.145  24.988  1.00  0.00     0.005 A 
BRANCH  22  26
ATOM     26  O   UNL A   1      33.084  24.023  21.114  1.00  0.00    -0.506 OA
ATOM     27  H   UNL A   1      33.987  24.230  20.969  1.00  0.00     0.293 HD
ENDBRANCH  22  26
ENDBRANCH  15  16
ENDBRANCH  13  14
ENDBRANCH   6   8
ENDBRANCH   5   6
ENDBRANCH   4   5
ENDBRANCH   3   4
ENDBRANCH   2   3
ENDBRANCH   1   2
BRANCH   1  28
ATOM     28  C   UNL A   1      32.698  36.046  30.136  1.00  0.00     0.188 C 
BRANCH  28  29
ATOM     29  O   UNL A   1      32.909  37.281  30.810  1.00  0.00    -0.376 OA
BRANCH  29  30
ATOM     30  C   UNL A   1      33.285  37.210  32.181  1.00  0.00     0.202 C 
BRANCH  30  31
ATOM     31  C   UNL A   1      33.121  35.876  32.941  1.00  0.00     0.261 C 
BRANCH  31  32
ATOM     32  O   UNL A   1      34.312  35.136  33.270  1.00  0.00    -0.460 OA
BRANCH  32  33
ATOM     33  C   UNL A   1      34.209  33.793  33.110  1.00  0.00     0.338 C 
ATOM     34  O   UNL A   1      33.211  33.111  33.290  1.00  0.00    -0.246 OA
BRANCH  33  35
ATOM     35  C   UNL A   1      35.490  33.190  32.696  1.00  0.00     0.060 A 
ATOM     36  C   UNL A   1      36.174  32.320  33.552  1.00  0.00     0.016 A 
ATOM     37  C   UNL A   1      36.122  33.685  31.554  1.00  0.00     0.016 A 
ATOM     38  C   UNL A   1      37.515  31.997  33.298  1.00  0.00     0.010 A 
ATOM     39  C   UNL A   1      37.453  33.336  31.291  1.00  0.00     0.010 A 
ATOM     40  C   UNL A   1      38.182  32.525  32.182  1.00  0.00    -0.014 A 
BRANCH  40  41
ATOM     41  C   UNL A   1      39.646  32.329  31.954  1.00  0.00     0.031 A 
ATOM     42  C   UNL A   1      40.634  33.354  32.434  1.00  0.00     0.074 A 
ATOM     43  C   UNL A   1      40.141  31.271  31.287  1.00  0.00     0.049 A 
ATOM     44  N   UNL A   1      41.895  33.498  32.115  1.00  0.00    -0.248 NA
ATOM     45  C   UNL A   1      40.142  34.320  33.423  1.00  0.00     0.031 C 
ATOM     46  C   UNL A   1      39.374  30.116  30.855  1.00  0.00     0.029 A 
ATOM     47  N   UNL A   1      41.407  31.043  30.788  1.00  0.00    -0.354 N 
ATOM     48  C   UNL A   1      42.351  34.580  32.852  1.00  0.00     0.074 A 
ATOM     49  C   UNL A   1      41.217  35.071  33.613  1.00  0.00     0.031 C 
ATOM     50  C   UNL A   1      40.139  29.357  30.057  1.00  0.00     0.029 A 
ATOM     51  C   UNL A   1      41.434  30.007  29.888  1.00  0.00     0.049 A 
ATOM     52  H   UNL A   1      42.201  31.563  31.050  1.00  0.00     0.167 HD
ATOM     53  C   UNL A   1      43.598  35.107  32.909  1.00  0.00     0.034 A 
ATOM     54  C   UNL A   1      42.337  29.666  28.946  1.00  0.00     0.034 A 
ATOM     55  C   UNL A   1      44.730  34.638  32.151  1.00  0.00     0.049 A 
ATOM     56  C   UNL A   1      43.620  30.420  28.795  1.00  0.00     0.074 A 
ATOM     57  C   UNL A   1      46.041  35.083  32.202  1.00  0.00     0.029 A 
ATOM     58  N   UNL A   1      44.685  33.659  31.172  1.00  0.00    -0.354 N 
ATOM     59  N   UNL A   1      44.060  31.427  29.505  1.00  0.00    -0.248 NA
ATOM     60  C   UNL A   1      44.546  29.972  27.744  1.00  0.00     0.031 C 
ATOM     61  C   UNL A   1      46.771  34.425  31.205  1.00  0.00     0.029 A 
ATOM     62  C   UNL A   1      45.933  33.510  30.587  1.00  0.00     0.049 A 
ATOM     63  H   UNL A   1      43.883  33.143  30.928  1.00  0.00     0.167 HD
ATOM     64  C   UNL A   1      45.347  31.680  29.046  1.00  0.00     0.074 A 
ATOM     65  C   UNL A   1      45.596  30.755  27.960  1.00  0.00     0.031 C 
ATOM     66  C   UNL A   1      46.239  32.576  29.532  1.00  0.00     0.034 A 
BRANCH  53  67
ATOM     67  C   UNL A   1      43.793  36.292  33.815  1.00  0.00     0.023 A 
ATOM     68  C   UNL A   1      44.089  36.103  35.181  1.00  0.00     0.012 A 
ATOM     69  C   UNL A   1      43.687  37.597  33.302  1.00  0.00     0.148 A 
ATOM     70  C   UNL A   1      44.207  37.198  36.035  1.00  0.00     0.002 A 
ATOM     71  C   UNL A   1      43.865  38.683  34.147  1.00  0.00     0.091 A 
ATOM     72  F   UNL A   1      43.391  37.753  32.003  1.00  0.00    -0.205 F 
ATOM     73  C   UNL A   1      44.103  38.487  35.517  1.00  0.00     0.022 A 
BRANCH  71  74
ATOM     74  S   UNL A   1      43.837  40.375  33.553  1.00  0.00     0.127 S 
ATOM     75  O   UNL A   1      43.981  41.127  34.798  1.00  0.00    -0.237 OA
ATOM     76  O   UNL A   1      45.009  40.412  32.678  1.00  0.00    -0.237 OA
ATOM     77  O   UNL A   1      42.563  40.540  32.866  1.00  0.00    -0.744 OA
ENDBRANCH  71  74
ENDBRANCH  53  67
BRANCH  54  78
ATOM     78  C   UNL A   1      41.945  28.612  27.966  1.00  0.00     0.023 A 
ATOM     79  C   UNL A   1      41.277  28.982  26.817  1.00  0.00     0.012 A 
ATOM     80  C   UNL A   1      42.299  27.237  28.258  1.00  0.00     0.148 A 
ATOM     81  C   UNL A   1      41.068  28.012  25.872  1.00  0.00     0.002 A 
ATOM     82  C   UNL A   1      42.084  25.945  27.369  1.00  0.00     0.091 A 
ATOM     83  F   UNL A   1      42.776  27.243  29.523  1.00  0.00    -0.205 F 
ATOM     84  C   UNL A   1      41.500  26.663  26.075  1.00  0.00     0.022 A 
BRANCH  82  85
ATOM     85  S   UNL A   1      42.113  23.442  27.940  1.00  0.00     0.127 S 
ATOM     86  O   UNL A   1      40.772  22.786  27.850  1.00  0.00    -0.237 OA
ATOM     87  O   UNL A   1      43.002  22.639  27.041  1.00  0.00    -0.237 OA
ATOM     88  O   UNL A   1      42.595  23.170  29.321  1.00  0.00    -0.744 OA
ENDBRANCH  82  85
ENDBRANCH  54  78
BRANCH  66  89
ATOM     89  C   UNL A   1      47.653  32.528  29.017  1.00  0.00     0.023 A 
ATOM     90  C   UNL A   1      48.590  31.603  29.511  1.00  0.00     0.012 A 
ATOM     91  C   UNL A   1      48.024  33.384  27.956  1.00  0.00     0.148 A 
ATOM     92  C   UNL A   1      49.876  31.541  28.968  1.00  0.00     0.002 A 
ATOM     93  C   UNL A   1      49.284  33.279  27.385  1.00  0.00     0.091 A 
ATOM     94  F   UNL A   1      47.126  34.279  27.517  1.00  0.00    -0.205 F 
ATOM     95  C   UNL A   1      50.219  32.367  27.898  1.00  0.00     0.022 A 
BRANCH  93  96
ATOM     96  S   UNL A   1      49.773  34.238  25.945  1.00  0.00     0.127 S 
ATOM     97  O   UNL A   1      48.538  34.252  25.162  1.00  0.00    -0.237 OA
ATOM     98  O   UNL A   1      50.134  35.524  26.541  1.00  0.00    -0.237 OA
ATOM     99  O   UNL A   1      50.882  33.517  25.334  1.00  0.00    -0.744 OA
ENDBRANCH  93  96
ENDBRANCH  66  89
ENDBRANCH  40  41
ENDBRANCH  33  35
ENDBRANCH  32  33
ENDBRANCH  31  32
ENDBRANCH  30  31
ENDBRANCH  29  30
ENDBRANCH  28  29
ENDBRANCH   1  28
TORSDOF 23
ENDMDL
MODEL 2
REMARK VINA RESULT:     -10.0      3.081      7.727
REMARK SMILES O=C(OCCOCCOCCOC(=O)c1ccc(-c2c3nc(c(-c4cccc(S(=O)(=O)[O-])c4F)c4ccc([nH]4)c(-c4cccc(S(=O)(=O)[O-])c4F)c4nc(c(-c5cccc(S(=O)(=O)[O-])c5F)c5ccc2[nH]5)C=C4)C=C3)cc1)c1ccc(/C=C/c2ccc3cccc(O)c3n2)cc1
REMARK SMILES IDX 7 1 6 2 5 3 4 4 3 5 2 6 1 7 78 8 79 9 96 10 80 11 95 12
REMARK SMILES IDX 81 13 82 14 83 15 84 16 85 17 94 18 86 19 93 20 87 21 91 22
REMARK SMILES IDX 88 23 90 24 89 25 92 26 8 28 9 29 10 30 11 31 12 32 13 33
REMARK SMILES IDX 14 34 15 35 16 36 77 37 17 38 76 39 18 40 19 41 20 42 70 43
REMARK SMILES IDX 21 44 75 45 69 46 71 47 22 48 74 49 68 50 67 51 23 53 55 54
REMARK SMILES IDX 35 55 54 56 36 57 39 58 53 59 72 60 37 61 38 62 52 64 73 65
REMARK SMILES IDX 40 66 24 67 25 68 33 69 26 70 28 71 34 72 27 73 29 74 30 75
REMARK SMILES IDX 31 76 32 77 56 78 57 79 65 80 58 81 60 82 66 83 59 84 61 85
REMARK SMILES IDX 62 86 63 87 64 88 41 89 42 90 50 91 43 92 45 93 51 94 44 95
REMARK SMILES IDX 46 96 47 97 48 98 49 99
REMARK H PARENT 92 27 71 52 39 63
REMARK Flexibility Score: inf
ROOT
ATOM      1  C   UNL A   1      33.541  35.969  29.341  1.00  0.00     0.188 C 
ENDROOT
BRANCH   1   2
ATOM      2  O   UNL A   1      32.621  35.263  28.519  1.00  0.00    -0.376 OA
BRANCH   2   3
ATOM      3  C   UNL A   1      32.979  34.002  27.969  1.00  0.00     0.202 C 
BRANCH   3   4
ATOM      4  C   UNL A   1      34.277  33.333  28.404  1.00  0.00     0.261 C 
BRANCH   4   5
ATOM      5  O   UNL A   1      34.269  31.905  28.557  1.00  0.00    -0.460 OA
BRANCH   5   6
ATOM      6  C   UNL A   1      34.602  30.874  27.762  1.00  0.00     0.338 C 
ATOM      7  O   UNL A   1      35.799  30.603  27.654  1.00  0.00    -0.246 OA
BRANCH   6   8
ATOM      8  C   UNL A   1      33.650  30.029  26.988  1.00  0.00     0.060 A 
ATOM      9  C   UNL A   1      32.580  30.487  26.216  1.00  0.00     0.016 A 
ATOM     10  C   UNL A   1      34.020  28.690  26.842  1.00  0.00     0.016 A 
ATOM     11  C   UNL A   1      31.874  29.650  25.340  1.00  0.00     0.009 A 
ATOM     12  C   UNL A   1      33.341  27.859  25.945  1.00  0.00     0.009 A 
ATOM     13  C   UNL A   1      32.266  28.332  25.171  1.00  0.00    -0.026 A 
BRANCH  13  14
ATOM     14  C   UNL A   1      31.590  27.374  24.280  1.00  0.00     0.010 C 
ATOM     15  C   UNL A   1      30.306  26.970  24.374  1.00  0.00     0.029 C 
BRANCH  15  16
ATOM     16  C   UNL A   1      30.172  25.482  24.543  1.00  0.00     0.064 A 
ATOM     17  C   UNL A   1      30.092  25.211  25.911  1.00  0.00     0.029 A 
ATOM     18  N   UNL A   1      30.820  24.675  23.675  1.00  0.00    -0.245 NA
ATOM     19  C   UNL A   1      31.282  24.935  26.580  1.00  0.00     0.013 A 
ATOM     20  C   UNL A   1      31.686  23.763  24.213  1.00  0.00     0.113 A 
ATOM     21  C   UNL A   1      32.151  24.099  25.899  1.00  0.00     0.004 A 
ATOM     22  C   UNL A   1      32.456  22.275  23.415  1.00  0.00     0.141 A 
ATOM     23  C   UNL A   1      33.318  23.036  26.778  1.00  0.00     0.010 A 
ATOM     24  C   UNL A   1      33.613  21.201  24.268  1.00  0.00     0.048 A 
ATOM     25  C   UNL A   1      33.956  21.524  26.017  1.00  0.00     0.005 A 
BRANCH  22  26
ATOM     26  O   UNL A   1      32.234  22.041  22.080  1.00  0.00    -0.506 OA
ATOM     27  H   UNL A   1      31.933  21.200  21.794  1.00  0.00     0.293 HD
ENDBRANCH  22  26
ENDBRANCH  15  16
ENDBRANCH  13  14
ENDBRANCH   6   8
ENDBRANCH   5   6
ENDBRANCH   4   5
ENDBRANCH   3   4
ENDBRANCH   2   3
ENDBRANCH   1   2
BRANCH   1  28
ATOM     28  C   UNL A   1      33.008  36.159  30.764  1.00  0.00     0.188 C 
BRANCH  28  29
ATOM     29  O   UNL A   1      32.894  34.989  31.566  1.00  0.00    -0.376 OA
BRANCH  29  30
ATOM     30  C   UNL A   1      34.075  34.540  32.222  1.00  0.00     0.202 C 
BRANCH  30  31
ATOM     31  C   UNL A   1      34.368  33.026  32.297  1.00  0.00     0.261 C 
BRANCH  31  32
ATOM     32  O   UNL A   1      35.571  32.540  31.669  1.00  0.00    -0.460 OA
BRANCH  32  33
ATOM     33  C   UNL A   1      36.646  32.456  32.490  1.00  0.00     0.338 C 
ATOM     34  O   UNL A   1      36.656  32.046  33.642  1.00  0.00    -0.246 OA
BRANCH  33  35
ATOM     35  C   UNL A   1      37.874  32.952  31.840  1.00  0.00     0.060 A 
ATOM     36  C   UNL A   1      37.910  33.156  30.456  1.00  0.00     0.016 A 
ATOM     37  C   UNL A   1      39.057  32.979  32.580  1.00  0.00     0.016 A 
ATOM     38  C   UNL A   1      39.141  33.324  29.804  1.00  0.00     0.010 A 
ATOM     39  C   UNL A   1      40.281  33.175  31.927  1.00  0.00     0.010 A 
ATOM     40  C   UNL A   1      40.345  33.304  30.526  1.00  0.00    -0.014 A 
BRANCH  40  41
ATOM     41  C   UNL A   1      41.682  33.329  29.858  1.00  0.00     0.031 A 
ATOM     42  C   UNL A   1      42.535  32.093  29.820  1.00  0.00     0.074 A 
ATOM     43  C   UNL A   1      42.197  34.443  29.308  1.00  0.00     0.049 A 
ATOM     44  N   UNL A   1      43.804  31.975  29.527  1.00  0.00    -0.248 NA
ATOM     45  C   UNL A   1      41.859  30.825  30.120  1.00  0.00     0.031 C 
ATOM     46  C   UNL A   1      41.488  35.698  29.131  1.00  0.00     0.029 A 
ATOM     47  N   UNL A   1      43.476  34.710  28.867  1.00  0.00    -0.354 N 
ATOM     48  C   UNL A   1      44.091  30.622  29.619  1.00  0.00     0.074 A 
ATOM     49  C   UNL A   1      42.862  29.965  30.024  1.00  0.00     0.031 C 
ATOM     50  C   UNL A   1      42.358  36.638  28.735  1.00  0.00     0.029 A 
ATOM     51  C   UNL A   1      43.693  36.054  28.681  1.00  0.00     0.049 A 
ATOM     52  H   UNL A   1      44.156  34.017  28.703  1.00  0.00     0.167 HD
ATOM     53  C   UNL A   1      45.259  29.980  29.372  1.00  0.00     0.034 A 
ATOM     54  C   UNL A   1      44.832  36.770  28.588  1.00  0.00     0.034 A 
ATOM     55  C   UNL A   1      46.489  30.620  28.981  1.00  0.00     0.049 A 
ATOM     56  C   UNL A   1      46.170  36.100  28.598  1.00  0.00     0.074 A 
ATOM     57  C   UNL A   1      47.698  30.028  28.653  1.00  0.00     0.029 A 
ATOM     58  N   UNL A   1      46.689  31.988  28.911  1.00  0.00    -0.354 N 
ATOM     59  N   UNL A   1      46.439  34.822  28.663  1.00  0.00    -0.248 NA
ATOM     60  C   UNL A   1      47.356  36.962  28.485  1.00  0.00     0.031 C 
ATOM     61  C   UNL A   1      48.646  31.039  28.457  1.00  0.00     0.029 A 
ATOM     62  C   UNL A   1      48.008  32.261  28.582  1.00  0.00     0.049 A 
ATOM     63  H   UNL A   1      45.995  32.668  29.072  1.00  0.00     0.167 HD
ATOM     64  C   UNL A   1      47.817  34.717  28.513  1.00  0.00     0.074 A 
ATOM     65  C   UNL A   1      48.333  36.066  28.408  1.00  0.00     0.031 C 
ATOM     66  C   UNL A   1      48.557  33.586  28.426  1.00  0.00     0.034 A 
BRANCH  53  67
ATOM     67  C   UNL A   1      45.262  28.487  29.555  1.00  0.00     0.023 A 
ATOM     68  C   UNL A   1      45.553  27.924  30.814  1.00  0.00     0.012 A 
ATOM     69  C   UNL A   1      44.968  27.642  28.469  1.00  0.00     0.148 A 
ATOM     70  C   UNL A   1      45.619  26.540  30.971  1.00  0.00     0.002 A 
ATOM     71  C   UNL A   1      44.978  26.267  28.647  1.00  0.00     0.091 A 
ATOM     72  F   UNL A   1      44.708  28.199  27.276  1.00  0.00    -0.205 F 
ATOM     73  C   UNL A   1      45.324  25.713  29.891  1.00  0.00     0.022 A 
BRANCH  71  74
ATOM     74  S   UNL A   1      44.525  25.126  27.338  1.00  0.00     0.127 S 
ATOM     75  O   UNL A   1      45.448  25.516  26.275  1.00  0.00    -0.237 OA
ATOM     76  O   UNL A   1      44.811  23.828  27.951  1.00  0.00    -0.237 OA
ATOM     77  O   UNL A   1      43.115  25.368  27.064  1.00  0.00    -0.744 OA
ENDBRANCH  71  74
ENDBRANCH  53  67
BRANCH  54  78
ATOM     78  C   UNL A   1      44.716  38.256  28.626  1.00  0.00     0.023 A 
ATOM     79  C   UNL A   1      44.575  38.885  29.845  1.00  0.00     0.012 A 
ATOM     80  C   UNL A   1      44.772  38.983  27.372  1.00  0.00     0.148 A 
ATOM     81  C   UNL A   1      44.625  40.254  29.857  1.00  0.00     0.002 A 
ATOM     82  C   UNL A   1      44.758  40.546  27.129  1.00  0.00     0.091 A 
ATOM     83  F   UNL A   1      44.737  38.041  26.402  1.00  0.00    -0.205 F 
ATOM     84  C   UNL A   1      44.788  41.007  28.651  1.00  0.00     0.022 A 
BRANCH  82  85
ATOM     85  S   UNL A   1      44.278  41.954  25.035  1.00  0.00     0.127 S 
ATOM     86  O   UNL A   1      43.003  41.593  24.343  1.00  0.00    -0.237 OA
ATOM     87  O   UNL A   1      44.168  43.420  25.319  1.00  0.00    -0.237 OA
ATOM     88  O   UNL A   1      45.339  41.828  23.999  1.00  0.00    -0.744 OA
ENDBRANCH  82  85
ENDBRANCH  54  78
BRANCH  66  89
ATOM     89  C   UNL A   1      50.010  33.710  28.049  1.00  0.00     0.023 A 
ATOM     90  C   UNL A   1      51.023  33.781  29.023  1.00  0.00     0.012 A 
ATOM     91  C   UNL A   1      50.368  33.675  26.684  1.00  0.00     0.148 A 
ATOM     92  C   UNL A   1      52.367  33.831  28.642  1.00  0.00     0.002 A 
ATOM     93  C   UNL A   1      51.705  33.670  26.314  1.00  0.00     0.091 A 
ATOM     94  F   UNL A   1      49.387  33.636  25.770  1.00  0.00    -0.205 F 
ATOM     95  C   UNL A   1      52.709  33.761  27.292  1.00  0.00     0.022 A 
BRANCH  93  96
ATOM     96  S   UNL A   1      52.234  33.488  24.606  1.00  0.00     0.127 S 
ATOM     97  O   UNL A   1      51.798  34.755  24.021  1.00  0.00    -0.237 OA
ATOM     98  O   UNL A   1      53.683  33.346  24.746  1.00  0.00    -0.237 OA
ATOM     99  O   UNL A   1      51.553  32.306  24.093  1.00  0.00    -0.744 OA
ENDBRANCH  93  96
ENDBRANCH  66  89
ENDBRANCH  40  41
ENDBRANCH  33  35
ENDBRANCH  32  33
ENDBRANCH  31  32
ENDBRANCH  30  31
ENDBRANCH  29  30
ENDBRANCH  28  29
ENDBRANCH   1  28
TORSDOF 23
ENDMDL
MODEL 3
REMARK VINA RESULT:     -10.0      4.373      8.933
REMARK SMILES O=C(OCCOCCOCCOC(=O)c1ccc(-c2c3nc(c(-c4cccc(S(=O)(=O)[O-])c4F)c4ccc([nH]4)c(-c4cccc(S(=O)(=O)[O-])c4F)c4nc(c(-c5cccc(S(=O)(=O)[O-])c5F)c5ccc2[nH]5)C=C4)C=C3)cc1)c1ccc(/C=C/c2ccc3cccc(O)c3n2)cc1
REMARK SMILES IDX 7 1 6 2 5 3 4 4 3 5 2 6 1 7 78 8 79 9 96 10 80 11 95 12
REMARK SMILES IDX 81 13 82 14 83 15 84 16 85 17 94 18 86 19 93 20 87 21 91 22
REMARK SMILES IDX 88 23 90 24 89 25 92 26 8 28 9 29 10 30 11 31 12 32 13 33
REMARK SMILES IDX 14 34 15 35 16 36 77 37 17 38 76 39 18 40 19 41 20 42 70 43
REMARK SMILES IDX 21 44 75 45 69 46 71 47 22 48 74 49 68 50 67 51 23 53 55 54
REMARK SMILES IDX 35 55 54 56 36 57 39 58 53 59 72 60 37 61 38 62 52 64 73 65
REMARK SMILES IDX 40 66 24 67 25 68 33 69 26 70 28 71 34 72 27 73 29 74 30 75
REMARK SMILES IDX 31 76 32 77 56 78 57 79 65 80 58 81 60 82 66 83 59 84 61 85
REMARK SMILES IDX 62 86 63 87 64 88 41 89 42 90 50 91 43 92 45 93 51 94 44 95
REMARK SMILES IDX 46 96 47 97 48 98 49 99
REMARK H PARENT 92 27 71 52 39 63
REMARK Flexibility Score: inf
ROOT
ATOM      1  C   UNL A   1      35.764  33.585  33.395  1.00  0.00     0.188 C 
ENDROOT
BRANCH   1   2
ATOM      2  O   UNL A   1      34.562  33.055  32.852  1.00  0.00    -0.376 OA
BRANCH   2   3
ATOM      3  C   UNL A   1      34.429  32.885  31.447  1.00  0.00     0.202 C 
BRANCH   3   4
ATOM      4  C   UNL A   1      34.398  34.110  30.541  1.00  0.00     0.261 C 
BRANCH   4   5
ATOM      5  O   UNL A   1      34.284  33.888  29.127  1.00  0.00    -0.460 OA
BRANCH   5   6
ATOM      6  C   UNL A   1      34.349  32.800  28.339  1.00  0.00     0.338 C 
ATOM      7  O   UNL A   1      33.376  32.561  27.622  1.00  0.00    -0.246 OA
BRANCH   6   8
ATOM      8  C   UNL A   1      35.491  31.849  28.261  1.00  0.00     0.060 A 
ATOM      9  C   UNL A   1      36.810  32.112  28.636  1.00  0.00     0.016 A 
ATOM     10  C   UNL A   1      35.147  30.518  28.016  1.00  0.00     0.016 A 
ATOM     11  C   UNL A   1      37.776  31.100  28.747  1.00  0.00     0.009 A 
ATOM     12  C   UNL A   1      36.096  29.501  28.157  1.00  0.00     0.009 A 
ATOM     13  C   UNL A   1      37.422  29.778  28.538  1.00  0.00    -0.026 A 
BRANCH  13  14
ATOM     14  C   UNL A   1      38.360  28.645  28.626  1.00  0.00     0.010 C 
ATOM     15  C   UNL A   1      39.676  28.677  28.331  1.00  0.00     0.029 C 
BRANCH  15  16
ATOM     16  C   UNL A   1      40.057  27.703  27.251  1.00  0.00     0.064 A 
ATOM     17  C   UNL A   1      39.617  26.435  27.643  1.00  0.00     0.029 A 
ATOM     18  N   UNL A   1      41.214  27.901  26.584  1.00  0.00    -0.245 NA
ATOM     19  C   UNL A   1      40.516  25.634  28.344  1.00  0.00     0.013 A 
ATOM     20  C   UNL A   1      42.115  26.872  26.597  1.00  0.00     0.113 A 
ATOM     21  C   UNL A   1      41.811  25.647  27.853  1.00  0.00     0.004 A 
ATOM     22  C   UNL A   1      43.608  26.616  25.524  1.00  0.00     0.141 A 
ATOM     23  C   UNL A   1      42.911  24.228  28.062  1.00  0.00     0.010 A 
ATOM     24  C   UNL A   1      44.711  25.213  25.708  1.00  0.00     0.048 A 
ATOM     25  C   UNL A   1      44.286  23.938  26.922  1.00  0.00     0.005 A 
BRANCH  22  26
ATOM     26  O   UNL A   1      43.963  27.593  24.626  1.00  0.00    -0.506 OA
ATOM     27  H   UNL A   1      44.218  28.442  24.934  1.00  0.00     0.293 HD
ENDBRANCH  22  26
ENDBRANCH  15  16
ENDBRANCH  13  14
ENDBRANCH   6   8
ENDBRANCH   5   6
ENDBRANCH   4   5
ENDBRANCH   3   4
ENDBRANCH   2   3
ENDBRANCH   1   2
BRANCH   1  28
ATOM     28  C   UNL A   1      35.540  34.210  34.775  1.00  0.00     0.188 C 
BRANCH  28  29
ATOM     29  O   UNL A   1      36.087  33.513  35.889  1.00  0.00    -0.376 OA
BRANCH  29  30
ATOM     30  C   UNL A   1      37.492  33.286  35.879  1.00  0.00     0.202 C 
BRANCH  30  31
ATOM     31  C   UNL A   1      38.023  31.836  35.892  1.00  0.00     0.261 C 
BRANCH  31  32
ATOM     32  O   UNL A   1      37.967  31.087  34.662  1.00  0.00    -0.460 OA
BRANCH  32  33
ATOM     33  C   UNL A   1      39.138  30.511  34.295  1.00  0.00     0.338 C 
ATOM     34  O   UNL A   1      39.654  29.521  34.793  1.00  0.00    -0.246 OA
BRANCH  33  35
ATOM     35  C   UNL A   1      39.785  31.241  33.187  1.00  0.00     0.060 A 
ATOM     36  C   UNL A   1      39.595  30.833  31.863  1.00  0.00     0.016 A 
ATOM     37  C   UNL A   1      40.773  32.178  33.494  1.00  0.00     0.016 A 
ATOM     38  C   UNL A   1      40.439  31.317  30.852  1.00  0.00     0.010 A 
ATOM     39  C   UNL A   1      41.594  32.680  32.475  1.00  0.00     0.010 A 
ATOM     40  C   UNL A   1      41.469  32.223  31.149  1.00  0.00    -0.014 A 
BRANCH  40  41
ATOM     41  C   UNL A   1      42.481  32.649  30.135  1.00  0.00     0.031 A 
ATOM     42  C   UNL A   1      43.705  31.814  29.886  1.00  0.00     0.074 A 
ATOM     43  C   UNL A   1      42.373  33.795  29.440  1.00  0.00     0.049 A 
ATOM     44  N   UNL A   1      44.805  32.131  29.254  1.00  0.00    -0.248 NA
ATOM     45  C   UNL A   1      43.666  30.436  30.389  1.00  0.00     0.031 C 
ATOM     46  C   UNL A   1      41.216  34.673  29.441  1.00  0.00     0.029 A 
ATOM     47  N   UNL A   1      43.297  34.452  28.654  1.00  0.00    -0.354 N 
ATOM     48  C   UNL A   1      45.604  30.997  29.291  1.00  0.00     0.074 A 
ATOM     49  C   UNL A   1      44.866  29.995  30.036  1.00  0.00     0.031 C 
ATOM     50  C   UNL A   1      41.528  35.807  28.798  1.00  0.00     0.029 A 
ATOM     51  C   UNL A   1      42.926  35.748  28.386  1.00  0.00     0.049 A 
ATOM     52  H   UNL A   1      44.126  34.039  28.322  1.00  0.00     0.167 HD
ATOM     53  C   UNL A   1      46.827  30.800  28.741  1.00  0.00     0.034 A 
ATOM     54  C   UNL A   1      43.640  36.811  27.965  1.00  0.00     0.034 A 
ATOM     55  C   UNL A   1      47.576  31.788  28.009  1.00  0.00     0.049 A 
ATOM     56  C   UNL A   1      45.089  36.682  27.615  1.00  0.00     0.074 A 
ATOM     57  C   UNL A   1      48.796  31.641  27.371  1.00  0.00     0.029 A 
ATOM     58  N   UNL A   1      47.210  33.116  27.858  1.00  0.00    -0.354 N 
ATOM     59  N   UNL A   1      45.836  35.608  27.630  1.00  0.00    -0.248 NA
ATOM     60  C   UNL A   1      45.783  37.895  27.158  1.00  0.00     0.031 C 
ATOM     61  C   UNL A   1      49.201  32.895  26.897  1.00  0.00     0.029 A 
ATOM     62  C   UNL A   1      48.195  33.806  27.169  1.00  0.00     0.049 A 
ATOM     63  H   UNL A   1      46.372  33.511  28.191  1.00  0.00     0.167 HD
ATOM     64  C   UNL A   1      47.063  35.994  27.104  1.00  0.00     0.074 A 
ATOM     65  C   UNL A   1      46.977  37.413  26.831  1.00  0.00     0.031 C 
ATOM     66  C   UNL A   1      48.135  35.209  26.838  1.00  0.00     0.034 A 
BRANCH  53  67
ATOM     67  C   UNL A   1      47.450  29.446  28.947  1.00  0.00     0.023 A 
ATOM     68  C   UNL A   1      47.224  28.409  28.018  1.00  0.00     0.012 A 
ATOM     69  C   UNL A   1      48.268  29.208  30.066  1.00  0.00     0.148 A 
ATOM     70  C   UNL A   1      47.749  27.136  28.239  1.00  0.00     0.002 A 
ATOM     71  C   UNL A   1      48.835  27.955  30.248  1.00  0.00     0.091 A 
ATOM     72  F   UNL A   1      48.458  30.204  30.944  1.00  0.00    -0.205 F 
ATOM     73  C   UNL A   1      48.560  26.912  29.349  1.00  0.00     0.022 A 
BRANCH  71  74
ATOM     74  S   UNL A   1      49.962  27.599  31.598  1.00  0.00     0.127 S 
ATOM     75  O   UNL A   1      50.339  26.217  31.310  1.00  0.00    -0.237 OA
ATOM     76  O   UNL A   1      51.025  28.581  31.375  1.00  0.00    -0.237 OA
ATOM     77  O   UNL A   1      49.201  27.800  32.822  1.00  0.00    -0.744 OA
ENDBRANCH  71  74
ENDBRANCH  53  67
BRANCH  54  78
ATOM     78  C   UNL A   1      42.975  38.145  28.002  1.00  0.00     0.023 A 
ATOM     79  C   UNL A   1      42.330  38.603  26.873  1.00  0.00     0.012 A 
ATOM     80  C   UNL A   1      43.023  38.903  29.238  1.00  0.00     0.148 A 
ATOM     81  C   UNL A   1      41.604  39.759  26.988  1.00  0.00     0.002 A 
ATOM     82  C   UNL A   1      42.342  40.289  29.581  1.00  0.00     0.091 A 
ATOM     83  F   UNL A   1      43.872  38.229  30.047  1.00  0.00    -0.205 F 
ATOM     84  C   UNL A   1      41.536  40.481  28.223  1.00  0.00     0.022 A 
BRANCH  82  85
ATOM     85  S   UNL A   1      42.775  42.002  31.445  1.00  0.00     0.127 S 
ATOM     86  O   UNL A   1      41.907  41.817  32.649  1.00  0.00    -0.237 OA
ATOM     87  O   UNL A   1      44.178  41.968  31.966  1.00  0.00    -0.237 OA
ATOM     88  O   UNL A   1      42.547  43.405  31.005  1.00  0.00    -0.744 OA
ENDBRANCH  82  85
ENDBRANCH  54  78
BRANCH  66  89
ATOM     89  C   UNL A   1      49.284  35.805  26.069  1.00  0.00     0.023 A 
ATOM     90  C   UNL A   1      49.370  35.701  24.669  1.00  0.00     0.012 A 
ATOM     91  C   UNL A   1      50.259  36.553  26.765  1.00  0.00     0.148 A 
ATOM     92  C   UNL A   1      50.415  36.319  23.977  1.00  0.00     0.002 A 
ATOM     93  C   UNL A   1      51.263  37.209  26.067  1.00  0.00     0.091 A 
ATOM     94  F   UNL A   1      50.176  36.617  28.103  1.00  0.00    -0.205 F 
ATOM     95  C   UNL A   1      51.351  37.084  24.672  1.00  0.00     0.022 A 
BRANCH  93  96
ATOM     96  S   UNL A   1      52.451  38.289  26.874  1.00  0.00     0.127 S 
ATOM     97  O   UNL A   1      53.274  38.724  25.747  1.00  0.00    -0.237 OA
ATOM     98  O   UNL A   1      51.589  39.329  27.437  1.00  0.00    -0.237 OA
ATOM     99  O   UNL A   1      53.141  37.470  27.862  1.00  0.00    -0.744 OA
ENDBRANCH  93  96
ENDBRANCH  66  89
ENDBRANCH  40  41
ENDBRANCH  33  35
ENDBRANCH  32  33
ENDBRANCH  31  32
ENDBRANCH  30  31
ENDBRANCH  29  30
ENDBRANCH  28  29
ENDBRANCH   1  28
TORSDOF 23
ENDMDL
