MODEL 1
REMARK VINA RESULT:     -11.9      0.000      0.000
REMARK SMILES Cc1ccc(-c2cc(Cl)ccc2Cl)c(C(=O)OCCOCCOCCOC(=O)c2ccc(-c3c4nc(c(-c5cccc(S(=O)(=O)[O-])c5F)c5ccc([nH]5)c(-c5cccc(S(=O)(=O)[O-])c5F)c5nc(c(-c6cccc(S(=O)(=O)[O-])c6F)c6ccc3[nH]6)C=C5)C=C4)cc2)c1
REMARK SMILES IDX 22 1 21 2 20 3 19 4 18 5 17 6 15 7 16 8 14 9 1 10 2 11 3 12
REMARK SMILES IDX 92 13 4 14 5 15 6 16 7 17 12 18 8 19 11 20 13 21 9 22 10 23
REMARK SMILES IDX 23 24 24 25 25 26 26 27 27 28 28 29 29 30 30 31 91 32 31 33
REMARK SMILES IDX 90 34 32 35 33 36 34 37 84 38 35 39 89 40 83 41 85 42 36 43
REMARK SMILES IDX 88 44 82 45 81 46 37 48 69 49 49 50 68 51 50 52 53 53 67 54
REMARK SMILES IDX 86 55 51 56 52 57 66 59 87 60 54 61 38 62 39 63 47 64 40 65
REMARK SMILES IDX 42 66 48 67 41 68 43 69 44 70 45 71 46 72 70 73 71 74 79 75
REMARK SMILES IDX 72 76 74 77 80 78 73 79 75 80 76 81 77 82 78 83 55 84 56 85
REMARK SMILES IDX 64 86 57 87 59 88 65 89 58 90 60 91 61 92 62 93 63 94
REMARK H PARENT 85 47 53 58
REMARK Flexibility Score: inf
ROOT
ATOM      1  C   UNL A   1      34.202  29.374  27.154  1.00  0.00     0.188 C 
ENDROOT
BRANCH   1   2
ATOM      2  C   UNL A   1      32.912  29.533  26.306  1.00  0.00     0.188 C 
BRANCH   2   3
ATOM      3  O   UNL A   1      32.804  29.627  24.870  1.00  0.00    -0.376 OA
BRANCH   3   4
ATOM      4  C   UNL A   1      33.143  28.845  23.683  1.00  0.00     0.202 C 
BRANCH   4   5
ATOM      5  C   UNL A   1      33.747  27.186  23.235  1.00  0.00     0.261 C 
BRANCH   5   6
ATOM      6  O   UNL A   1      33.119  25.574  23.106  1.00  0.00    -0.460 OA
BRANCH   6   7
ATOM      7  C   UNL A   1      33.301  24.210  23.592  1.00  0.00     0.338 C 
ATOM      8  O   UNL A   1      33.335  23.164  22.944  1.00  0.00    -0.246 OA
BRANCH   7   9
ATOM      9  C   UNL A   1      33.178  23.849  25.015  1.00  0.00     0.068 A 
ATOM     10  C   UNL A   1      30.025  23.162  26.980  1.00  0.00     0.044 C 
ATOM     11  C   UNL A   1      31.474  23.260  26.635  1.00  0.00    -0.050 A 
ATOM     12  C   UNL A   1      32.440  22.664  27.443  1.00  0.00     0.004 A 
ATOM     13  C   UNL A   1      31.851  23.878  25.447  1.00  0.00     0.019 A 
ATOM     14  C   UNL A   1      33.766  22.616  27.029  1.00  0.00     0.010 A 
ATOM     15  C   UNL A   1      34.188  23.157  25.794  1.00  0.00    -0.002 A 
BRANCH  15  16
ATOM     16  C   UNL A   1      35.659  22.894  25.536  1.00  0.00     0.003 A 
ATOM     17  C   UNL A   1      36.581  23.867  26.007  1.00  0.00     0.030 A 
ATOM     18  C   UNL A   1      36.232  21.644  25.181  1.00  0.00     0.049 A 
ATOM     19  C   UNL A   1      37.963  23.616  26.115  1.00  0.00     0.041 A 
ATOM     20  C   UNL A   1      37.631  21.419  25.232  1.00  0.00     0.023 A 
ATOM     21  Cl  UNL A   1      35.271  20.243  24.839  1.00  0.00    -0.084 Cl
ATOM     22  Cl  UNL A   1      39.008  24.828  26.762  1.00  0.00    -0.084 Cl
ATOM     23  C   UNL A   1      38.498  22.401  25.708  1.00  0.00     0.022 A 
ENDBRANCH  15  16
ENDBRANCH   7   9
ENDBRANCH   6   7
ENDBRANCH   5   6
ENDBRANCH   4   5
ENDBRANCH   3   4
ENDBRANCH   2   3
ENDBRANCH   1   2
BRANCH   1  24
ATOM     24  O   UNL A   1      35.084  30.484  27.125  1.00  0.00    -0.376 OA
BRANCH  24  25
ATOM     25  C   UNL A   1      34.524  31.707  27.612  1.00  0.00     0.202 C 
BRANCH  25  26
ATOM     26  C   UNL A   1      34.370  31.896  29.150  1.00  0.00     0.261 C 
BRANCH  26  27
ATOM     27  O   UNL A   1      33.683  33.108  29.556  1.00  0.00    -0.460 OA
BRANCH  27  28
ATOM     28  C   UNL A   1      34.449  34.258  29.659  1.00  0.00     0.338 C 
ATOM     29  O   UNL A   1      33.967  35.376  29.611  1.00  0.00    -0.246 OA
BRANCH  28  30
ATOM     30  C   UNL A   1      35.888  33.926  29.901  1.00  0.00     0.060 A 
ATOM     31  C   UNL A   1      36.998  34.077  29.060  1.00  0.00     0.016 A 
ATOM     32  C   UNL A   1      36.106  33.212  31.021  1.00  0.00     0.016 A 
ATOM     33  C   UNL A   1      38.234  33.305  29.259  1.00  0.00     0.010 A 
ATOM     34  C   UNL A   1      37.187  32.345  31.006  1.00  0.00     0.010 A 
ATOM     35  C   UNL A   1      38.373  32.311  30.224  1.00  0.00    -0.014 A 
BRANCH  35  36
ATOM     36  C   UNL A   1      39.700  31.283  30.544  1.00  0.00     0.031 A 
ATOM     37  C   UNL A   1      40.069  29.628  30.099  1.00  0.00     0.074 A 
ATOM     38  C   UNL A   1      40.743  31.793  31.242  1.00  0.00     0.049 A 
ATOM     39  N   UNL A   1      41.279  29.115  30.190  1.00  0.00    -0.248 NA
ATOM     40  C   UNL A   1      39.215  28.489  29.552  1.00  0.00     0.031 C 
ATOM     41  C   UNL A   1      42.141  31.402  31.094  1.00  0.00     0.029 A 
ATOM     42  N   UNL A   1      40.770  32.714  32.285  1.00  0.00    -0.354 N 
ATOM     43  C   UNL A   1      41.347  27.907  29.516  1.00  0.00     0.074 A 
ATOM     44  C   UNL A   1      40.040  27.530  29.163  1.00  0.00     0.031 C 
ATOM     45  C   UNL A   1      42.824  31.797  32.166  1.00  0.00     0.029 A 
ATOM     46  C   UNL A   1      41.884  32.396  33.081  1.00  0.00     0.049 A 
ATOM     47  H   UNL A   1      40.133  33.448  32.436  1.00  0.00     0.167 HD
ATOM     48  C   UNL A   1      42.502  27.262  29.242  1.00  0.00     0.034 A 
ATOM     49  C   UNL A   1      41.894  32.201  34.424  1.00  0.00     0.034 A 
ATOM     50  C   UNL A   1      43.449  27.506  30.301  1.00  0.00     0.049 A 
ATOM     51  C   UNL A   1      42.392  30.818  34.827  1.00  0.00     0.074 A 
ATOM     52  C   UNL A   1      44.542  28.325  30.466  1.00  0.00     0.029 A 
ATOM     53  N   UNL A   1      43.087  27.064  31.569  1.00  0.00    -0.354 N 
ATOM     54  N   UNL A   1      43.032  29.977  34.052  1.00  0.00    -0.248 NA
ATOM     55  C   UNL A   1      42.140  30.242  36.146  1.00  0.00     0.031 C 
ATOM     56  C   UNL A   1      44.715  28.514  31.873  1.00  0.00     0.029 A 
ATOM     57  C   UNL A   1      43.770  27.758  32.552  1.00  0.00     0.049 A 
ATOM     58  H   UNL A   1      42.430  26.352  31.745  1.00  0.00     0.167 HD
ATOM     59  C   UNL A   1      43.070  28.730  34.642  1.00  0.00     0.074 A 
ATOM     60  C   UNL A   1      42.614  28.992  35.998  1.00  0.00     0.031 C 
ATOM     61  C   UNL A   1      43.377  27.576  33.955  1.00  0.00     0.034 A 
BRANCH  48  62
ATOM     62  C   UNL A   1      42.691  26.428  27.987  1.00  0.00     0.023 A 
ATOM     63  C   UNL A   1      42.901  27.082  26.760  1.00  0.00     0.012 A 
ATOM     64  C   UNL A   1      42.510  25.010  27.924  1.00  0.00     0.148 A 
ATOM     65  C   UNL A   1      42.928  26.379  25.543  1.00  0.00     0.002 A 
ATOM     66  C   UNL A   1      42.609  24.306  26.719  1.00  0.00     0.091 A 
ATOM     67  F   UNL A   1      42.147  24.334  29.023  1.00  0.00    -0.205 F 
ATOM     68  C   UNL A   1      42.799  24.993  25.521  1.00  0.00     0.022 A 
BRANCH  66  69
ATOM     69  S   UNL A   1      42.526  22.503  26.649  1.00  0.00     0.127 S 
ATOM     70  O   UNL A   1      42.541  22.244  25.210  1.00  0.00    -0.237 OA
ATOM     71  O   UNL A   1      43.745  22.095  27.349  1.00  0.00    -0.237 OA
ATOM     72  O   UNL A   1      41.296  22.136  27.341  1.00  0.00    -0.744 OA
ENDBRANCH  66  69
ENDBRANCH  48  62
BRANCH  49  73
ATOM     73  C   UNL A   1      41.046  33.163  35.186  1.00  0.00     0.023 A 
ATOM     74  C   UNL A   1      41.408  34.527  35.097  1.00  0.00     0.012 A 
ATOM     75  C   UNL A   1      39.711  32.850  35.481  1.00  0.00     0.148 A 
ATOM     76  C   UNL A   1      40.458  35.548  35.234  1.00  0.00     0.002 A 
ATOM     77  C   UNL A   1      38.757  33.874  35.468  1.00  0.00     0.091 A 
ATOM     78  F   UNL A   1      39.369  31.556  35.520  1.00  0.00    -0.205 F 
ATOM     79  C   UNL A   1      39.124  35.216  35.387  1.00  0.00     0.022 A 
BRANCH  77  80
ATOM     80  S   UNL A   1      37.039  33.545  35.094  1.00  0.00     0.127 S 
ATOM     81  O   UNL A   1      36.401  33.586  36.417  1.00  0.00    -0.237 OA
ATOM     82  O   UNL A   1      36.715  34.685  34.224  1.00  0.00    -0.237 OA
ATOM     83  O   UNL A   1      37.054  32.269  34.468  1.00  0.00    -0.744 OA
ENDBRANCH  77  80
ENDBRANCH  49  73
BRANCH  61  84
ATOM     84  C   UNL A   1      43.255  26.141  34.502  1.00  0.00     0.023 A 
ATOM     85  C   UNL A   1      42.050  25.611  35.004  1.00  0.00     0.012 A 
ATOM     86  C   UNL A   1      44.336  25.218  34.400  1.00  0.00     0.148 A 
ATOM     87  C   UNL A   1      41.937  24.283  35.448  1.00  0.00     0.002 A 
ATOM     88  C   UNL A   1      44.181  23.867  34.726  1.00  0.00     0.091 A 
ATOM     89  F   UNL A   1      45.542  25.641  33.993  1.00  0.00    -0.205 F 
ATOM     90  C   UNL A   1      42.995  23.402  35.290  1.00  0.00     0.022 A 
BRANCH  88  91
ATOM     91  S   UNL A   1      45.441  22.667  34.256  1.00  0.00     0.127 S 
ATOM     92  O   UNL A   1      44.955  21.439  34.879  1.00  0.00    -0.237 OA
ATOM     93  O   UNL A   1      45.369  22.673  32.793  1.00  0.00    -0.237 OA
ATOM     94  O   UNL A   1      46.679  23.225  34.789  1.00  0.00    -0.744 OA
ENDBRANCH  88  91
ENDBRANCH  61  84
ENDBRANCH  35  36
ENDBRANCH  28  30
ENDBRANCH  27  28
ENDBRANCH  26  27
ENDBRANCH  25  26
ENDBRANCH  24  25
ENDBRANCH   1  24
TORSDOF 21
ENDMDL
MODEL 2
REMARK VINA RESULT:     -11.9      2.986      9.422
REMARK SMILES Cc1ccc(-c2cc(Cl)ccc2Cl)c(C(=O)OCCOCCOCCOC(=O)c2ccc(-c3c4nc(c(-c5cccc(S(=O)(=O)[O-])c5F)c5ccc([nH]5)c(-c5cccc(S(=O)(=O)[O-])c5F)c5nc(c(-c6cccc(S(=O)(=O)[O-])c6F)c6ccc3[nH]6)C=C5)C=C4)cc2)c1
REMARK SMILES IDX 22 1 21 2 20 3 19 4 18 5 17 6 15 7 16 8 14 9 1 10 2 11 3 12
REMARK SMILES IDX 92 13 4 14 5 15 6 16 7 17 12 18 8 19 11 20 13 21 9 22 10 23
REMARK SMILES IDX 23 24 24 25 25 26 26 27 27 28 28 29 29 30 30 31 91 32 31 33
REMARK SMILES IDX 90 34 32 35 33 36 34 37 84 38 35 39 89 40 83 41 85 42 36 43
REMARK SMILES IDX 88 44 82 45 81 46 37 48 69 49 49 50 68 51 50 52 53 53 67 54
REMARK SMILES IDX 86 55 51 56 52 57 66 59 87 60 54 61 38 62 39 63 47 64 40 65
REMARK SMILES IDX 42 66 48 67 41 68 43 69 44 70 45 71 46 72 70 73 71 74 79 75
REMARK SMILES IDX 72 76 74 77 80 78 73 79 75 80 76 81 77 82 78 83 55 84 56 85
REMARK SMILES IDX 64 86 57 87 59 88 65 89 58 90 60 91 61 92 62 93 63 94
REMARK H PARENT 85 47 53 58
REMARK Flexibility Score: inf
ROOT
ATOM      1  C   UNL A   1      40.055  21.727  26.645  1.00  0.00     0.188 C 
ENDROOT
BRANCH   1   2
ATOM      2  C   UNL A   1      39.090  20.908  25.748  1.00  0.00     0.188 C 
BRANCH   2   3
ATOM      3  O   UNL A   1      37.721  21.218  25.409  1.00  0.00    -0.376 OA
BRANCH   3   4
ATOM      4  C   UNL A   1      36.947  21.703  24.268  1.00  0.00     0.202 C 
BRANCH   4   5
ATOM      5  C   UNL A   1      35.941  23.139  23.779  1.00  0.00     0.261 C 
BRANCH   5   6
ATOM      6  O   UNL A   1      34.709  23.519  22.617  1.00  0.00    -0.460 OA
BRANCH   6   7
ATOM      7  C   UNL A   1      33.514  24.330  22.408  1.00  0.00     0.338 C 
ATOM      8  O   UNL A   1      33.215  25.015  21.430  1.00  0.00    -0.246 OA
BRANCH   7   9
ATOM      9  C   UNL A   1      32.592  24.685  23.501  1.00  0.00     0.068 A 
ATOM     10  C   UNL A   1      30.139  27.555  23.638  1.00  0.00     0.044 C 
ATOM     11  C   UNL A   1      30.856  26.299  24.007  1.00  0.00    -0.050 A 
ATOM     12  C   UNL A   1      30.355  25.457  24.997  1.00  0.00     0.004 A 
ATOM     13  C   UNL A   1      31.989  25.926  23.291  1.00  0.00     0.019 A 
ATOM     14  C   UNL A   1      30.935  24.213  25.218  1.00  0.00     0.010 A 
ATOM     15  C   UNL A   1      32.036  23.752  24.463  1.00  0.00    -0.002 A 
BRANCH  15  16
ATOM     16  C   UNL A   1      32.420  22.333  24.834  1.00  0.00     0.003 A 
ATOM     17  C   UNL A   1      32.131  21.316  23.884  1.00  0.00     0.030 A 
ATOM     18  C   UNL A   1      33.324  21.957  25.862  1.00  0.00     0.049 A 
ATOM     19  C   UNL A   1      32.697  20.028  23.952  1.00  0.00     0.041 A 
ATOM     20  C   UNL A   1      33.841  20.640  25.961  1.00  0.00     0.023 A 
ATOM     21  Cl  UNL A   1      34.015  23.105  26.960  1.00  0.00    -0.084 Cl
ATOM     22  Cl  UNL A   1      32.350  18.871  22.720  1.00  0.00    -0.084 Cl
ATOM     23  C   UNL A   1      33.537  19.676  25.002  1.00  0.00     0.022 A 
ENDBRANCH  15  16
ENDBRANCH   7   9
ENDBRANCH   6   7
ENDBRANCH   5   6
ENDBRANCH   4   5
ENDBRANCH   3   4
ENDBRANCH   2   3
ENDBRANCH   1   2
BRANCH   1  24
ATOM     24  O   UNL A   1      41.409  21.308  26.616  1.00  0.00    -0.376 OA
BRANCH  24  25
ATOM     25  C   UNL A   1      42.243  22.039  25.713  1.00  0.00     0.202 C 
BRANCH  25  26
ATOM     26  C   UNL A   1      42.874  23.377  26.198  1.00  0.00     0.261 C 
BRANCH  26  27
ATOM     27  O   UNL A   1      41.924  24.426  26.518  1.00  0.00    -0.460 OA
BRANCH  27  28
ATOM     28  C   UNL A   1      41.959  25.565  25.731  1.00  0.00     0.338 C 
ATOM     29  O   UNL A   1      42.439  25.578  24.611  1.00  0.00    -0.246 OA
BRANCH  28  30
ATOM     30  C   UNL A   1      41.277  26.710  26.412  1.00  0.00     0.060 A 
ATOM     31  C   UNL A   1      41.601  28.074  26.420  1.00  0.00     0.016 A 
ATOM     32  C   UNL A   1      40.324  26.339  27.289  1.00  0.00     0.016 A 
ATOM     33  C   UNL A   1      41.122  28.980  27.473  1.00  0.00     0.010 A 
ATOM     34  C   UNL A   1      40.116  27.178  28.373  1.00  0.00     0.010 A 
ATOM     35  C   UNL A   1      40.397  28.554  28.583  1.00  0.00    -0.014 A 
BRANCH  35  36
ATOM     36  C   UNL A   1      39.826  29.453  29.920  1.00  0.00     0.031 A 
ATOM     37  C   UNL A   1      39.055  31.021  30.069  1.00  0.00     0.074 A 
ATOM     38  C   UNL A   1      39.911  28.886  31.147  1.00  0.00     0.049 A 
ATOM     39  N   UNL A   1      38.419  31.405  31.158  1.00  0.00    -0.248 NA
ATOM     40  C   UNL A   1      38.919  32.201  29.115  1.00  0.00     0.031 C 
ATOM     41  C   UNL A   1      38.989  29.111  32.256  1.00  0.00     0.029 A 
ATOM     42  N   UNL A   1      40.878  28.049  31.693  1.00  0.00    -0.354 N 
ATOM     43  C   UNL A   1      37.673  32.545  30.908  1.00  0.00     0.074 A 
ATOM     44  C   UNL A   1      38.035  33.034  29.641  1.00  0.00     0.031 C 
ATOM     45  C   UNL A   1      39.565  28.726  33.392  1.00  0.00     0.029 A 
ATOM     46  C   UNL A   1      40.907  28.302  33.075  1.00  0.00     0.049 A 
ATOM     47  H   UNL A   1      41.436  27.401  31.205  1.00  0.00     0.167 HD
ATOM     48  C   UNL A   1      36.746  33.038  31.757  1.00  0.00     0.034 A 
ATOM     49  C   UNL A   1      41.999  28.594  33.825  1.00  0.00     0.034 A 
ATOM     50  C   UNL A   1      37.151  32.773  33.115  1.00  0.00     0.049 A 
ATOM     51  C   UNL A   1      41.900  29.941  34.531  1.00  0.00     0.074 A 
ATOM     52  C   UNL A   1      36.802  31.854  34.078  1.00  0.00     0.029 A 
ATOM     53  N   UNL A   1      38.351  33.345  33.526  1.00  0.00    -0.354 N 
ATOM     54  N   UNL A   1      40.807  30.648  34.687  1.00  0.00    -0.248 NA
ATOM     55  C   UNL A   1      43.066  30.638  35.069  1.00  0.00     0.031 C 
ATOM     56  C   UNL A   1      37.906  31.753  34.981  1.00  0.00     0.029 A 
ATOM     57  C   UNL A   1      38.889  32.655  34.599  1.00  0.00     0.049 A 
ATOM     58  H   UNL A   1      38.763  34.135  33.109  1.00  0.00     0.167 HD
ATOM     59  C   UNL A   1      41.128  31.924  35.104  1.00  0.00     0.074 A 
ATOM     60  C   UNL A   1      42.537  31.814  35.449  1.00  0.00     0.031 C 
ATOM     61  C   UNL A   1      40.249  32.983  35.045  1.00  0.00     0.034 A 
BRANCH  48  62
ATOM     62  C   UNL A   1      35.495  33.751  31.273  1.00  0.00     0.023 A 
ATOM     63  C   UNL A   1      34.940  33.385  30.034  1.00  0.00     0.012 A 
ATOM     64  C   UNL A   1      34.919  34.894  31.911  1.00  0.00     0.148 A 
ATOM     65  C   UNL A   1      33.880  34.106  29.458  1.00  0.00     0.002 A 
ATOM     66  C   UNL A   1      33.818  35.565  31.368  1.00  0.00     0.091 A 
ATOM     67  F   UNL A   1      35.490  35.405  33.011  1.00  0.00    -0.205 F 
ATOM     68  C   UNL A   1      33.308  35.184  30.128  1.00  0.00     0.022 A 
BRANCH  66  69
ATOM     69  S   UNL A   1      32.993  36.919  32.234  1.00  0.00     0.127 S 
ATOM     70  O   UNL A   1      32.919  37.953  31.203  1.00  0.00    -0.237 OA
ATOM     71  O   UNL A   1      31.701  36.332  32.597  1.00  0.00    -0.237 OA
ATOM     72  O   UNL A   1      33.842  37.232  33.378  1.00  0.00    -0.744 OA
ENDBRANCH  66  69
ENDBRANCH  48  62
BRANCH  49  73
ATOM     73  C   UNL A   1      43.207  27.790  33.483  1.00  0.00     0.023 A 
ATOM     74  C   UNL A   1      43.285  26.498  34.056  1.00  0.00     0.012 A 
ATOM     75  C   UNL A   1      43.901  28.026  32.286  1.00  0.00     0.148 A 
ATOM     76  C   UNL A   1      43.979  25.457  33.423  1.00  0.00     0.002 A 
ATOM     77  C   UNL A   1      44.459  26.942  31.603  1.00  0.00     0.091 A 
ATOM     78  F   UNL A   1      43.785  29.239  31.730  1.00  0.00    -0.205 F 
ATOM     79  C   UNL A   1      44.538  25.674  32.177  1.00  0.00     0.022 A 
BRANCH  77  80
ATOM     80  S   UNL A   1      44.686  26.972  29.829  1.00  0.00     0.127 S 
ATOM     81  O   UNL A   1      44.713  28.410  29.525  1.00  0.00    -0.237 OA
ATOM     82  O   UNL A   1      45.985  26.296  29.697  1.00  0.00    -0.237 OA
ATOM     83  O   UNL A   1      43.562  26.266  29.319  1.00  0.00    -0.744 OA
ENDBRANCH  77  80
ENDBRANCH  49  73
BRANCH  61  84
ATOM     84  C   UNL A   1      40.597  34.459  35.313  1.00  0.00     0.023 A 
ATOM     85  C   UNL A   1      40.203  35.141  36.481  1.00  0.00     0.012 A 
ATOM     86  C   UNL A   1      41.466  35.182  34.445  1.00  0.00     0.148 A 
ATOM     87  C   UNL A   1      40.574  36.471  36.740  1.00  0.00     0.002 A 
ATOM     88  C   UNL A   1      41.933  36.459  34.769  1.00  0.00     0.091 A 
ATOM     89  F   UNL A   1      41.847  34.643  33.277  1.00  0.00    -0.205 F 
ATOM     90  C   UNL A   1      41.458  37.126  35.896  1.00  0.00     0.022 A 
BRANCH  88  91
ATOM     91  S   UNL A   1      43.293  37.195  33.841  1.00  0.00     0.127 S 
ATOM     92  O   UNL A   1      44.466  36.623  34.495  1.00  0.00    -0.237 OA
ATOM     93  O   UNL A   1      43.061  36.707  32.479  1.00  0.00    -0.237 OA
ATOM     94  O   UNL A   1      43.092  38.631  33.997  1.00  0.00    -0.744 OA
ENDBRANCH  88  91
ENDBRANCH  61  84
ENDBRANCH  35  36
ENDBRANCH  28  30
ENDBRANCH  27  28
ENDBRANCH  26  27
ENDBRANCH  25  26
ENDBRANCH  24  25
ENDBRANCH   1  24
TORSDOF 21
ENDMDL
MODEL 3
REMARK VINA RESULT:     -11.7      3.017      9.144
REMARK SMILES Cc1ccc(-c2cc(Cl)ccc2Cl)c(C(=O)OCCOCCOCCOC(=O)c2ccc(-c3c4nc(c(-c5cccc(S(=O)(=O)[O-])c5F)c5ccc([nH]5)c(-c5cccc(S(=O)(=O)[O-])c5F)c5nc(c(-c6cccc(S(=O)(=O)[O-])c6F)c6ccc3[nH]6)C=C5)C=C4)cc2)c1
REMARK SMILES IDX 22 1 21 2 20 3 19 4 18 5 17 6 15 7 16 8 14 9 1 10 2 11 3 12
REMARK SMILES IDX 92 13 4 14 5 15 6 16 7 17 12 18 8 19 11 20 13 21 9 22 10 23
REMARK SMILES IDX 23 24 24 25 25 26 26 27 27 28 28 29 29 30 30 31 91 32 31 33
REMARK SMILES IDX 90 34 32 35 33 36 34 37 84 38 35 39 89 40 83 41 85 42 36 43
REMARK SMILES IDX 88 44 82 45 81 46 37 48 69 49 49 50 68 51 50 52 53 53 67 54
REMARK SMILES IDX 86 55 51 56 52 57 66 59 87 60 54 61 38 62 39 63 47 64 40 65
REMARK SMILES IDX 42 66 48 67 41 68 43 69 44 70 45 71 46 72 70 73 71 74 79 75
REMARK SMILES IDX 72 76 74 77 80 78 73 79 75 80 76 81 77 82 78 83 55 84 56 85
REMARK SMILES IDX 64 86 57 87 59 88 65 89 58 90 60 91 61 92 62 93 63 94
REMARK H PARENT 85 47 53 58
REMARK Flexibility Score: inf
ROOT
ATOM      1  C   UNL A   1      40.063  21.859  26.701  1.00  0.00     0.188 C 
ENDROOT
BRANCH   1   2
ATOM      2  C   UNL A   1      39.191  20.973  25.772  1.00  0.00     0.188 C 
BRANCH   2   3
ATOM      3  O   UNL A   1      37.806  21.165  25.414  1.00  0.00    -0.376 OA
BRANCH   3   4
ATOM      4  C   UNL A   1      37.011  21.617  24.274  1.00  0.00     0.202 C 
BRANCH   4   5
ATOM      5  C   UNL A   1      36.222  23.131  23.641  1.00  0.00     0.261 C 
BRANCH   5   6
ATOM      6  O   UNL A   1      34.756  23.581  22.828  1.00  0.00    -0.460 OA
BRANCH   6   7
ATOM      7  C   UNL A   1      33.812  24.679  22.650  1.00  0.00     0.338 C 
ATOM      8  O   UNL A   1      33.890  25.640  21.886  1.00  0.00    -0.246 OA
BRANCH   7   9
ATOM      9  C   UNL A   1      32.723  24.955  23.604  1.00  0.00     0.068 A 
ATOM     10  C   UNL A   1      30.137  27.705  23.453  1.00  0.00     0.044 C 
ATOM     11  C   UNL A   1      30.854  26.471  23.890  1.00  0.00    -0.050 A 
ATOM     12  C   UNL A   1      30.256  25.575  24.773  1.00  0.00     0.004 A 
ATOM     13  C   UNL A   1      32.096  26.174  23.340  1.00  0.00     0.019 A 
ATOM     14  C   UNL A   1      30.858  24.352  25.044  1.00  0.00     0.010 A 
ATOM     15  C   UNL A   1      32.079  23.967  24.448  1.00  0.00    -0.002 A 
BRANCH  15  16
ATOM     16  C   UNL A   1      32.475  22.555  24.834  1.00  0.00     0.003 A 
ATOM     17  C   UNL A   1      32.131  21.517  23.927  1.00  0.00     0.030 A 
ATOM     18  C   UNL A   1      33.431  22.199  25.822  1.00  0.00     0.049 A 
ATOM     19  C   UNL A   1      32.692  20.227  23.998  1.00  0.00     0.041 A 
ATOM     20  C   UNL A   1      33.944  20.881  25.927  1.00  0.00     0.023 A 
ATOM     21  Cl  UNL A   1      34.185  23.370  26.853  1.00  0.00    -0.084 Cl
ATOM     22  Cl  UNL A   1      32.274  19.041  22.816  1.00  0.00    -0.084 Cl
ATOM     23  C   UNL A   1      33.584  19.896  25.010  1.00  0.00     0.022 A 
ENDBRANCH  15  16
ENDBRANCH   7   9
ENDBRANCH   6   7
ENDBRANCH   5   6
ENDBRANCH   4   5
ENDBRANCH   3   4
ENDBRANCH   2   3
ENDBRANCH   1   2
BRANCH   1  24
ATOM     24  O   UNL A   1      41.463  21.664  26.582  1.00  0.00    -0.376 OA
BRANCH  24  25
ATOM     25  C   UNL A   1      42.144  22.664  25.818  1.00  0.00     0.202 C 
BRANCH  25  26
ATOM     26  C   UNL A   1      42.600  23.968  26.535  1.00  0.00     0.261 C 
BRANCH  26  27
ATOM     27  O   UNL A   1      41.532  24.894  26.868  1.00  0.00    -0.460 OA
BRANCH  27  28
ATOM     28  C   UNL A   1      41.377  25.995  26.042  1.00  0.00     0.338 C 
ATOM     29  O   UNL A   1      41.653  25.974  24.856  1.00  0.00    -0.246 OA
BRANCH  28  30
ATOM     30  C   UNL A   1      40.774  27.144  26.788  1.00  0.00     0.060 A 
ATOM     31  C   UNL A   1      41.150  28.494  26.815  1.00  0.00     0.016 A 
ATOM     32  C   UNL A   1      39.853  26.784  27.701  1.00  0.00     0.016 A 
ATOM     33  C   UNL A   1      40.759  29.387  27.915  1.00  0.00     0.010 A 
ATOM     34  C   UNL A   1      39.732  27.598  28.817  1.00  0.00     0.010 A 
ATOM     35  C   UNL A   1      40.074  28.957  29.049  1.00  0.00    -0.014 A 
BRANCH  35  36
ATOM     36  C   UNL A   1      39.606  29.838  30.437  1.00  0.00     0.031 A 
ATOM     37  C   UNL A   1      39.035  31.478  30.680  1.00  0.00     0.074 A 
ATOM     38  C   UNL A   1      39.604  29.191  31.627  1.00  0.00     0.049 A 
ATOM     39  N   UNL A   1      38.440  31.872  31.787  1.00  0.00    -0.248 NA
ATOM     40  C   UNL A   1      39.059  32.722  29.799  1.00  0.00     0.031 C 
ATOM     41  C   UNL A   1      38.705  29.463  32.744  1.00  0.00     0.029 A 
ATOM     42  N   UNL A   1      40.453  28.207  32.123  1.00  0.00    -0.354 N 
ATOM     43  C   UNL A   1      37.846  33.110  31.605  1.00  0.00     0.074 A 
ATOM     44  C   UNL A   1      38.280  33.625  30.372  1.00  0.00     0.031 C 
ATOM     45  C   UNL A   1      39.216  28.940  33.857  1.00  0.00     0.029 A 
ATOM     46  C   UNL A   1      40.497  28.371  33.518  1.00  0.00     0.049 A 
ATOM     47  H   UNL A   1      40.931  27.525  31.599  1.00  0.00     0.167 HD
ATOM     48  C   UNL A   1      36.977  33.663  32.480  1.00  0.00     0.034 A 
ATOM     49  C   UNL A   1      41.608  28.477  34.289  1.00  0.00     0.034 A 
ATOM     50  C   UNL A   1      37.331  33.267  33.821  1.00  0.00     0.049 A 
ATOM     51  C   UNL A   1      41.671  29.781  35.077  1.00  0.00     0.074 A 
ATOM     52  C   UNL A   1      36.859  32.343  34.724  1.00  0.00     0.029 A 
ATOM     53  N   UNL A   1      38.588  33.658  34.270  1.00  0.00    -0.354 N 
ATOM     54  N   UNL A   1      40.674  30.608  35.272  1.00  0.00    -0.248 NA
ATOM     55  C   UNL A   1      42.909  30.291  35.661  1.00  0.00     0.031 C 
ATOM     56  C   UNL A   1      37.931  32.049  35.622  1.00  0.00     0.029 A 
ATOM     57  C   UNL A   1      39.023  32.843  35.301  1.00  0.00     0.049 A 
ATOM     58  H   UNL A   1      39.101  34.414  33.904  1.00  0.00     0.167 HD
ATOM     59  C   UNL A   1      41.147  31.806  35.768  1.00  0.00     0.074 A 
ATOM     60  C   UNL A   1      42.527  31.500  36.111  1.00  0.00     0.031 C 
ATOM     61  C   UNL A   1      40.408  32.969  35.771  1.00  0.00     0.034 A 
BRANCH  48  62
ATOM     62  C   UNL A   1      35.832  34.556  32.036  1.00  0.00     0.023 A 
ATOM     63  C   UNL A   1      35.292  35.477  32.952  1.00  0.00     0.012 A 
ATOM     64  C   UNL A   1      35.139  34.424  30.791  1.00  0.00     0.148 A 
ATOM     65  C   UNL A   1      34.136  36.220  32.658  1.00  0.00     0.002 A 
ATOM     66  C   UNL A   1      34.031  35.217  30.475  1.00  0.00     0.091 A 
ATOM     67  F   UNL A   1      35.491  33.458  29.931  1.00  0.00    -0.205 F 
ATOM     68  C   UNL A   1      33.514  36.105  31.417  1.00  0.00     0.022 A 
BRANCH  66  69
ATOM     69  S   UNL A   1      33.238  35.160  28.853  1.00  0.00     0.127 S 
ATOM     70  O   UNL A   1      32.352  36.322  28.896  1.00  0.00    -0.237 OA
ATOM     71  O   UNL A   1      34.370  35.296  27.934  1.00  0.00    -0.237 OA
ATOM     72  O   UNL A   1      32.573  33.864  28.783  1.00  0.00    -0.744 OA
ENDBRANCH  66  69
ENDBRANCH  48  62
BRANCH  49  73
ATOM     73  C   UNL A   1      42.710  27.549  33.903  1.00  0.00     0.023 A 
ATOM     74  C   UNL A   1      43.853  28.141  33.315  1.00  0.00     0.012 A 
ATOM     75  C   UNL A   1      42.867  26.321  34.563  1.00  0.00     0.148 A 
ATOM     76  C   UNL A   1      45.123  27.560  33.436  1.00  0.00     0.002 A 
ATOM     77  C   UNL A   1      44.158  25.838  34.797  1.00  0.00     0.091 A 
ATOM     78  F   UNL A   1      41.787  25.791  35.154  1.00  0.00    -0.205 F 
ATOM     79  C   UNL A   1      45.278  26.423  34.208  1.00  0.00     0.022 A 
BRANCH  77  80
ATOM     80  S   UNL A   1      44.518  24.766  36.183  1.00  0.00     0.127 S 
ATOM     81  O   UNL A   1      45.966  24.937  36.364  1.00  0.00    -0.237 OA
ATOM     82  O   UNL A   1      43.695  25.378  37.236  1.00  0.00    -0.237 OA
ATOM     83  O   UNL A   1      44.109  23.477  35.745  1.00  0.00    -0.744 OA
ENDBRANCH  77  80
ENDBRANCH  49  73
BRANCH  61  84
ATOM     84  C   UNL A   1      40.936  34.371  36.131  1.00  0.00     0.023 A 
ATOM     85  C   UNL A   1      40.628  35.019  37.343  1.00  0.00     0.012 A 
ATOM     86  C   UNL A   1      41.888  35.036  35.305  1.00  0.00     0.148 A 
ATOM     87  C   UNL A   1      41.160  36.274  37.684  1.00  0.00     0.002 A 
ATOM     88  C   UNL A   1      42.509  36.222  35.707  1.00  0.00     0.091 A 
ATOM     89  F   UNL A   1      42.200  34.530  34.102  1.00  0.00    -0.205 F 
ATOM     90  C   UNL A   1      42.119  36.867  36.878  1.00  0.00     0.022 A 
BRANCH  88  91
ATOM     91  S   UNL A   1      43.949  36.843  34.819  1.00  0.00     0.127 S 
ATOM     92  O   UNL A   1      44.327  38.011  35.609  1.00  0.00    -0.237 OA
ATOM     93  O   UNL A   1      44.892  35.725  34.902  1.00  0.00    -0.237 OA
ATOM     94  O   UNL A   1      43.452  37.098  33.472  1.00  0.00    -0.744 OA
ENDBRANCH  88  91
ENDBRANCH  61  84
ENDBRANCH  35  36
ENDBRANCH  28  30
ENDBRANCH  27  28
ENDBRANCH  26  27
ENDBRANCH  25  26
ENDBRANCH  24  25
ENDBRANCH   1  24
TORSDOF 21
ENDMDL
