MODEL 1
REMARK VINA RESULT:     -12.1      0.000      0.000
REMARK SMILES CC[C@@](C)(NC(=O)c1cccc2ccccc12)C(=O)OCCOCCOCCOC(=O)c1ccc(-c2c3nc(c(-c4cccc(S(=O)(=O)[O-])c4F)c4ccc([nH]4)c(-c4cccc(S(=O)(=O)[O-])c4F)c4nc(c(-c5cccc(S(=O)(=O)[O-])c5F)c5ccc2[nH]5)C=C4)C=C3)cc1
REMARK SMILES IDX 25 1 24 2 23 3 22 4 21 5 20 6 18 7 19 8 3 9 4 10 2 11 1 12
REMARK SMILES IDX 5 13 6 14 7 16 8 17 9 18 17 19 10 20 12 21 16 22 11 23 13 24
REMARK SMILES IDX 15 25 14 26 26 27 27 28 28 29 29 30 30 31 31 32 32 33 33 34
REMARK SMILES IDX 94 35 34 36 93 37 35 38 36 39 37 40 87 41 38 42 92 43 86 44
REMARK SMILES IDX 88 45 39 46 91 47 85 48 84 49 40 51 72 52 52 53 71 54 53 55
REMARK SMILES IDX 56 56 70 57 89 58 54 59 55 60 69 62 90 63 57 64 41 65 42 66
REMARK SMILES IDX 50 67 43 68 45 69 51 70 44 71 46 72 47 73 48 74 49 75 73 76
REMARK SMILES IDX 74 77 82 78 75 79 77 80 83 81 76 82 78 83 79 84 80 85 81 86
REMARK SMILES IDX 58 87 59 88 67 89 60 90 62 91 68 92 61 93 63 94 64 95 65 96
REMARK SMILES IDX 66 97
REMARK H PARENT 5 15 88 50 56 61
REMARK Flexibility Score: inf
ROOT
ATOM      1  C   UNL A   1      33.509  20.881  27.014  1.00  0.00     0.188 C 
ENDROOT
BRANCH   1   2
ATOM      2  C   UNL A   1      34.417  22.248  27.478  1.00  0.00     0.188 C 
BRANCH   2   3
ATOM      3  O   UNL A   1      34.662  23.444  26.720  1.00  0.00    -0.376 OA
BRANCH   3   4
ATOM      4  C   UNL A   1      35.780  23.467  25.790  1.00  0.00     0.202 C 
BRANCH   4   5
ATOM      5  C   UNL A   1      35.662  22.771  24.400  1.00  0.00     0.261 C 
BRANCH   5   6
ATOM      6  O   UNL A   1      34.348  22.870  23.858  1.00  0.00    -0.462 OA
BRANCH   6   7
ATOM      7  C   UNL A   1      33.930  24.024  23.309  1.00  0.00     0.331 C 
ATOM      8  O   UNL A   1      34.660  24.828  22.752  1.00  0.00    -0.249 OA
BRANCH   7   9
ATOM      9  C   UNL A   1      32.376  24.049  23.319  1.00  0.00     0.135 C 
ATOM     10  C   UNL A   1      31.900  22.605  23.029  1.00  0.00     0.047 C 
BRANCH   9  11
ATOM     11  C   UNL A   1      31.796  24.349  24.770  1.00  0.00     0.037 C 
ATOM     12  C   UNL A   1      31.114  23.176  25.483  1.00  0.00     0.007 C 
ENDBRANCH   9  11
BRANCH   9  13
ATOM     13  N   UNL A   1      31.773  24.913  22.175  1.00  0.00    -0.336 N 
ATOM     14  C   UNL A   1      31.385  26.216  21.804  1.00  0.00     0.252 C 
ATOM     15  H   UNL A   1      31.591  24.317  21.413  1.00  0.00     0.165 HD
ATOM     16  O   UNL A   1      31.148  26.292  20.583  1.00  0.00    -0.269 OA
BRANCH  14  17
ATOM     17  C   UNL A   1      31.442  27.600  22.551  1.00  0.00     0.047 A 
ATOM     18  C   UNL A   1      30.208  28.237  22.209  1.00  0.00     0.014 A 
ATOM     19  C   UNL A   1      32.314  28.059  23.790  1.00  0.00    -0.006 A 
ATOM     20  C   UNL A   1      29.685  29.368  22.839  1.00  0.00     0.001 A 
ATOM     21  C   UNL A   1      31.331  29.299  24.613  1.00  0.00    -0.018 A 
ATOM     22  C   UNL A   1      33.857  27.503  24.785  1.00  0.00     0.009 A 
ATOM     23  C   UNL A   1      30.237  29.892  23.997  1.00  0.00     0.009 A 
ATOM     24  C   UNL A   1      31.657  29.733  26.306  1.00  0.00     0.009 A 
ATOM     25  C   UNL A   1      34.124  27.970  26.509  1.00  0.00     0.001 A 
ATOM     26  C   UNL A   1      32.996  29.090  27.238  1.00  0.00     0.001 A 
ENDBRANCH  14  17
ENDBRANCH   9  13
ENDBRANCH   7   9
ENDBRANCH   6   7
ENDBRANCH   5   6
ENDBRANCH   4   5
ENDBRANCH   3   4
ENDBRANCH   2   3
ENDBRANCH   1   2
BRANCH   1  27
ATOM     27  O   UNL A   1      33.335  20.288  25.659  1.00  0.00    -0.376 OA
BRANCH  27  28
ATOM     28  C   UNL A   1      34.127  19.427  24.706  1.00  0.00     0.202 C 
BRANCH  28  29
ATOM     29  C   UNL A   1      35.887  18.846  24.807  1.00  0.00     0.261 C 
BRANCH  29  30
ATOM     30  O   UNL A   1      37.408  20.105  25.351  1.00  0.00    -0.460 OA
BRANCH  30  31
ATOM     31  C   UNL A   1      38.742  20.491  25.827  1.00  0.00     0.338 C 
ATOM     32  O   UNL A   1      39.571  19.566  25.887  1.00  0.00    -0.246 OA
BRANCH  31  33
ATOM     33  C   UNL A   1      39.366  21.885  26.243  1.00  0.00     0.060 A 
ATOM     34  C   UNL A   1      39.023  23.190  25.859  1.00  0.00     0.016 A 
ATOM     35  C   UNL A   1      40.459  21.856  27.140  1.00  0.00     0.016 A 
ATOM     36  C   UNL A   1      39.646  24.373  26.345  1.00  0.00     0.010 A 
ATOM     37  C   UNL A   1      41.121  23.027  27.615  1.00  0.00     0.010 A 
ATOM     38  C   UNL A   1      40.722  24.308  27.223  1.00  0.00    -0.014 A 
BRANCH  38  39
ATOM     39  C   UNL A   1      41.453  25.537  27.671  1.00  0.00     0.031 A 
ATOM     40  C   UNL A   1      40.738  26.602  28.470  1.00  0.00     0.074 A 
ATOM     41  C   UNL A   1      42.748  25.745  27.350  1.00  0.00     0.049 A 
ATOM     42  N   UNL A   1      41.150  27.793  28.833  1.00  0.00    -0.248 NA
ATOM     43  C   UNL A   1      39.380  26.275  28.929  1.00  0.00     0.031 C 
ATOM     44  C   UNL A   1      43.603  24.795  26.643  1.00  0.00     0.029 A 
ATOM     45  N   UNL A   1      43.559  26.843  27.546  1.00  0.00    -0.354 N 
ATOM     46  C   UNL A   1      40.093  28.374  29.526  1.00  0.00     0.074 A 
ATOM     47  C   UNL A   1      39.028  27.391  29.554  1.00  0.00     0.031 C 
ATOM     48  C   UNL A   1      44.799  25.370  26.416  1.00  0.00     0.029 A 
ATOM     49  C   UNL A   1      44.786  26.741  26.928  1.00  0.00     0.049 A 
ATOM     50  H   UNL A   1      43.286  27.627  28.077  1.00  0.00     0.167 HD
ATOM     51  C   UNL A   1      40.007  29.609  30.084  1.00  0.00     0.034 A 
ATOM     52  C   UNL A   1      45.770  27.650  26.752  1.00  0.00     0.034 A 
ATOM     53  C   UNL A   1      41.056  30.598  30.067  1.00  0.00     0.049 A 
ATOM     54  C   UNL A   1      45.626  29.042  27.319  1.00  0.00     0.074 A 
ATOM     55  C   UNL A   1      41.053  31.866  30.628  1.00  0.00     0.029 A 
ATOM     56  N   UNL A   1      42.286  30.445  29.448  1.00  0.00    -0.354 N 
ATOM     57  N   UNL A   1      44.652  29.545  28.038  1.00  0.00    -0.248 NA
ATOM     58  C   UNL A   1      46.729  29.985  27.068  1.00  0.00     0.031 C 
ATOM     59  C   UNL A   1      42.271  32.487  30.325  1.00  0.00     0.029 A 
ATOM     60  C   UNL A   1      43.044  31.596  29.600  1.00  0.00     0.049 A 
ATOM     61  H   UNL A   1      42.580  29.636  28.970  1.00  0.00     0.167 HD
ATOM     62  C   UNL A   1      45.041  30.844  28.355  1.00  0.00     0.074 A 
ATOM     63  C   UNL A   1      46.347  31.047  27.766  1.00  0.00     0.031 C 
ATOM     64  C   UNL A   1      44.367  31.785  29.062  1.00  0.00     0.034 A 
BRANCH  51  65
ATOM     65  C   UNL A   1      38.719  29.976  30.783  1.00  0.00     0.023 A 
ATOM     66  C   UNL A   1      38.496  29.541  32.105  1.00  0.00     0.012 A 
ATOM     67  C   UNL A   1      37.767  30.811  30.162  1.00  0.00     0.148 A 
ATOM     68  C   UNL A   1      37.333  29.905  32.786  1.00  0.00     0.002 A 
ATOM     69  C   UNL A   1      36.629  31.200  30.862  1.00  0.00     0.091 A 
ATOM     70  F   UNL A   1      37.989  31.205  28.900  1.00  0.00    -0.205 F 
ATOM     71  C   UNL A   1      36.407  30.740  32.169  1.00  0.00     0.022 A 
BRANCH  69  72
ATOM     72  S   UNL A   1      35.414  32.332  30.175  1.00  0.00     0.127 S 
ATOM     73  O   UNL A   1      36.239  33.501  29.873  1.00  0.00    -0.237 OA
ATOM     74  O   UNL A   1      34.938  31.604  28.999  1.00  0.00    -0.237 OA
ATOM     75  O   UNL A   1      34.412  32.520  31.215  1.00  0.00    -0.744 OA
ENDBRANCH  69  72
ENDBRANCH  51  65
BRANCH  52  76
ATOM     76  C   UNL A   1      47.007  27.273  26.003  1.00  0.00     0.023 A 
ATOM     77  C   UNL A   1      47.995  26.495  26.637  1.00  0.00     0.012 A 
ATOM     78  C   UNL A   1      47.202  27.668  24.665  1.00  0.00     0.148 A 
ATOM     79  C   UNL A   1      49.159  26.129  25.959  1.00  0.00     0.002 A 
ATOM     80  C   UNL A   1      48.335  27.250  23.976  1.00  0.00     0.091 A 
ATOM     81  F   UNL A   1      46.271  28.440  24.088  1.00  0.00    -0.205 F 
ATOM     82  C   UNL A   1      49.322  26.494  24.625  1.00  0.00     0.022 A 
BRANCH  80  83
ATOM     83  S   UNL A   1      48.561  27.559  22.220  1.00  0.00     0.127 S 
ATOM     84  O   UNL A   1      48.608  26.203  21.680  1.00  0.00    -0.237 OA
ATOM     85  O   UNL A   1      47.352  28.314  21.889  1.00  0.00    -0.237 OA
ATOM     86  O   UNL A   1      49.793  28.328  22.114  1.00  0.00    -0.744 OA
ENDBRANCH  80  83
ENDBRANCH  52  76
BRANCH  64  87
ATOM     87  C   UNL A   1      45.039  33.120  29.279  1.00  0.00     0.023 A 
ATOM     88  C   UNL A   1      45.882  33.310  30.391  1.00  0.00     0.012 A 
ATOM     89  C   UNL A   1      44.880  34.169  28.350  1.00  0.00     0.148 A 
ATOM     90  C   UNL A   1      46.529  34.531  30.595  1.00  0.00     0.002 A 
ATOM     91  C   UNL A   1      45.561  35.369  28.536  1.00  0.00     0.091 A 
ATOM     92  F   UNL A   1      44.058  33.982  27.308  1.00  0.00    -0.205 F 
ATOM     93  C   UNL A   1      46.377  35.555  29.663  1.00  0.00     0.022 A 
BRANCH  91  94
ATOM     94  S   UNL A   1      45.490  36.709  27.340  1.00  0.00     0.127 S 
ATOM     95  O   UNL A   1      46.128  36.104  26.173  1.00  0.00    -0.237 OA
ATOM     96  O   UNL A   1      44.050  36.930  27.200  1.00  0.00    -0.237 OA
ATOM     97  O   UNL A   1      46.211  37.820  27.946  1.00  0.00    -0.744 OA
ENDBRANCH  91  94
ENDBRANCH  64  87
ENDBRANCH  38  39
ENDBRANCH  31  33
ENDBRANCH  30  31
ENDBRANCH  29  30
ENDBRANCH  28  29
ENDBRANCH  27  28
ENDBRANCH   1  27
TORSDOF 23
ENDMDL
MODEL 2
REMARK VINA RESULT:     -11.4      1.580      2.074
REMARK SMILES CC[C@@](C)(NC(=O)c1cccc2ccccc12)C(=O)OCCOCCOCCOC(=O)c1ccc(-c2c3nc(c(-c4cccc(S(=O)(=O)[O-])c4F)c4ccc([nH]4)c(-c4cccc(S(=O)(=O)[O-])c4F)c4nc(c(-c5cccc(S(=O)(=O)[O-])c5F)c5ccc2[nH]5)C=C4)C=C3)cc1
REMARK SMILES IDX 25 1 24 2 23 3 22 4 21 5 20 6 18 7 19 8 3 9 4 10 2 11 1 12
REMARK SMILES IDX 5 13 6 14 7 16 8 17 9 18 17 19 10 20 12 21 16 22 11 23 13 24
REMARK SMILES IDX 15 25 14 26 26 27 27 28 28 29 29 30 30 31 31 32 32 33 33 34
REMARK SMILES IDX 94 35 34 36 93 37 35 38 36 39 37 40 87 41 38 42 92 43 86 44
REMARK SMILES IDX 88 45 39 46 91 47 85 48 84 49 40 51 72 52 52 53 71 54 53 55
REMARK SMILES IDX 56 56 70 57 89 58 54 59 55 60 69 62 90 63 57 64 41 65 42 66
REMARK SMILES IDX 50 67 43 68 45 69 51 70 44 71 46 72 47 73 48 74 49 75 73 76
REMARK SMILES IDX 74 77 82 78 75 79 77 80 83 81 76 82 78 83 79 84 80 85 81 86
REMARK SMILES IDX 58 87 59 88 67 89 60 90 62 91 68 92 61 93 63 94 64 95 65 96
REMARK SMILES IDX 66 97
REMARK H PARENT 5 15 88 50 56 61
REMARK Flexibility Score: inf
ROOT
ATOM      1  C   UNL A   1      34.100  22.830  26.637  1.00  0.00     0.188 C 
ENDROOT
BRANCH   1   2
ATOM      2  C   UNL A   1      35.380  23.568  25.787  1.00  0.00     0.188 C 
BRANCH   2   3
ATOM      3  O   UNL A   1      35.454  23.863  24.383  1.00  0.00    -0.376 OA
BRANCH   3   4
ATOM      4  C   UNL A   1      35.124  22.815  23.429  1.00  0.00     0.202 C 
BRANCH   4   5
ATOM      5  C   UNL A   1      33.651  22.618  22.957  1.00  0.00     0.261 C 
BRANCH   5   6
ATOM      6  O   UNL A   1      32.894  23.822  23.036  1.00  0.00    -0.462 OA
BRANCH   6   7
ATOM      7  C   UNL A   1      32.917  24.702  22.020  1.00  0.00     0.331 C 
ATOM      8  O   UNL A   1      32.968  24.393  20.840  1.00  0.00    -0.249 OA
BRANCH   7   9
ATOM      9  C   UNL A   1      32.659  26.126  22.584  1.00  0.00     0.135 C 
ATOM     10  C   UNL A   1      33.468  26.243  23.899  1.00  0.00     0.047 C 
BRANCH   9  11
ATOM     11  C   UNL A   1      33.288  27.256  21.657  1.00  0.00     0.037 C 
ATOM     12  C   UNL A   1      33.922  28.450  22.380  1.00  0.00     0.007 C 
ENDBRANCH   9  11
BRANCH   9  13
ATOM     13  N   UNL A   1      31.178  26.360  22.997  1.00  0.00    -0.336 N 
ATOM     14  C   UNL A   1      30.229  27.335  23.362  1.00  0.00     0.252 C 
ATOM     15  H   UNL A   1      30.728  25.484  23.006  1.00  0.00     0.165 HD
ATOM     16  O   UNL A   1      29.073  26.869  23.368  1.00  0.00    -0.269 OA
BRANCH  14  17
ATOM     17  C   UNL A   1      30.308  28.900  23.507  1.00  0.00     0.047 A 
ATOM     18  C   UNL A   1      29.060  29.367  22.988  1.00  0.00     0.014 A 
ATOM     19  C   UNL A   1      31.224  29.796  24.437  1.00  0.00    -0.006 A 
ATOM     20  C   UNL A   1      28.557  30.659  23.144  1.00  0.00     0.001 A 
ATOM     21  C   UNL A   1      30.267  31.270  24.744  1.00  0.00    -0.018 A 
ATOM     22  C   UNL A   1      32.804  29.655  25.516  1.00  0.00     0.009 A 
ATOM     23  C   UNL A   1      29.149  31.588  23.985  1.00  0.00     0.009 A 
ATOM     24  C   UNL A   1      30.654  32.327  26.121  1.00  0.00     0.009 A 
ATOM     25  C   UNL A   1      33.133  30.755  26.909  1.00  0.00     0.001 A 
ATOM     26  C   UNL A   1      32.028  32.083  27.183  1.00  0.00     0.001 A 
ENDBRANCH  14  17
ENDBRANCH   9  13
ENDBRANCH   7   9
ENDBRANCH   6   7
ENDBRANCH   5   6
ENDBRANCH   4   5
ENDBRANCH   3   4
ENDBRANCH   2   3
ENDBRANCH   1   2
BRANCH   1  27
ATOM     27  O   UNL A   1      33.363  21.577  26.317  1.00  0.00    -0.376 OA
BRANCH  27  28
ATOM     28  C   UNL A   1      33.660  20.234  25.695  1.00  0.00     0.202 C 
BRANCH  28  29
ATOM     29  C   UNL A   1      35.246  19.568  24.998  1.00  0.00     0.261 C 
BRANCH  29  30
ATOM     30  O   UNL A   1      37.016  20.580  25.190  1.00  0.00    -0.460 OA
BRANCH  30  31
ATOM     31  C   UNL A   1      38.346  20.894  25.727  1.00  0.00     0.338 C 
ATOM     32  O   UNL A   1      39.120  19.925  25.824  1.00  0.00    -0.246 OA
BRANCH  31  33
ATOM     33  C   UNL A   1      39.025  22.252  26.174  1.00  0.00     0.060 A 
ATOM     34  C   UNL A   1      38.684  23.581  25.886  1.00  0.00     0.016 A 
ATOM     35  C   UNL A   1      40.176  22.155  26.991  1.00  0.00     0.016 A 
ATOM     36  C   UNL A   1      39.363  24.725  26.391  1.00  0.00     0.010 A 
ATOM     37  C   UNL A   1      40.892  23.287  27.481  1.00  0.00     0.010 A 
ATOM     38  C   UNL A   1      40.493  24.594  27.188  1.00  0.00    -0.014 A 
BRANCH  38  39
ATOM     39  C   UNL A   1      41.279  25.784  27.650  1.00  0.00     0.031 A 
ATOM     40  C   UNL A   1      40.614  26.863  28.473  1.00  0.00     0.074 A 
ATOM     41  C   UNL A   1      42.578  25.943  27.322  1.00  0.00     0.049 A 
ATOM     42  N   UNL A   1      41.078  28.029  28.853  1.00  0.00    -0.248 NA
ATOM     43  C   UNL A   1      39.248  26.585  28.938  1.00  0.00     0.031 C 
ATOM     44  C   UNL A   1      43.388  24.971  26.593  1.00  0.00     0.029 A 
ATOM     45  N   UNL A   1      43.435  27.004  27.530  1.00  0.00    -0.354 N 
ATOM     46  C   UNL A   1      40.052  28.643  29.565  1.00  0.00     0.074 A 
ATOM     47  C   UNL A   1      38.947  27.704  29.585  1.00  0.00     0.031 C 
ATOM     48  C   UNL A   1      44.605  25.500  26.365  1.00  0.00     0.029 A 
ATOM     49  C   UNL A   1      44.653  26.861  26.900  1.00  0.00     0.049 A 
ATOM     50  H   UNL A   1      43.199  27.788  28.076  1.00  0.00     0.167 HD
ATOM     51  C   UNL A   1      40.021  29.870  30.144  1.00  0.00     0.034 A 
ATOM     52  C   UNL A   1      45.672  27.732  26.731  1.00  0.00     0.034 A 
ATOM     53  C   UNL A   1      41.110  30.815  30.135  1.00  0.00     0.049 A 
ATOM     54  C   UNL A   1      45.590  29.119  27.322  1.00  0.00     0.074 A 
ATOM     55  C   UNL A   1      41.164  32.072  30.716  1.00  0.00     0.029 A 
ATOM     56  N   UNL A   1      42.328  30.621  29.503  1.00  0.00    -0.354 N 
ATOM     57  N   UNL A   1      44.644  29.649  28.058  1.00  0.00    -0.248 NA
ATOM     58  C   UNL A   1      46.730  30.020  27.078  1.00  0.00     0.031 C 
ATOM     59  C   UNL A   1      42.404  32.647  30.414  1.00  0.00     0.029 A 
ATOM     60  C   UNL A   1      43.134  31.738  29.668  1.00  0.00     0.049 A 
ATOM     61  H   UNL A   1      42.584  29.809  29.009  1.00  0.00     0.167 HD
ATOM     62  C   UNL A   1      45.089  30.925  28.394  1.00  0.00     0.074 A 
ATOM     63  C   UNL A   1      46.397  31.084  27.797  1.00  0.00     0.031 C 
ATOM     64  C   UNL A   1      44.459  31.882  29.122  1.00  0.00     0.034 A 
BRANCH  51  65
ATOM     65  C   UNL A   1      38.755  30.277  30.859  1.00  0.00     0.023 A 
ATOM     66  C   UNL A   1      38.552  29.880  32.196  1.00  0.00     0.012 A 
ATOM     67  C   UNL A   1      37.805  31.114  30.237  1.00  0.00     0.148 A 
ATOM     68  C   UNL A   1      37.411  30.282  32.892  1.00  0.00     0.002 A 
ATOM     69  C   UNL A   1      36.689  31.541  30.950  1.00  0.00     0.091 A 
ATOM     70  F   UNL A   1      38.007  31.472  28.961  1.00  0.00    -0.205 F 
ATOM     71  C   UNL A   1      36.486  31.118  32.273  1.00  0.00     0.022 A 
BRANCH  69  72
ATOM     72  S   UNL A   1      35.480  32.678  30.260  1.00  0.00     0.127 S 
ATOM     73  O   UNL A   1      36.317  33.827  29.918  1.00  0.00    -0.237 OA
ATOM     74  O   UNL A   1      34.971  31.932  29.108  1.00  0.00    -0.237 OA
ATOM     75  O   UNL A   1      34.500  32.904  31.313  1.00  0.00    -0.744 OA
ENDBRANCH  69  72
ENDBRANCH  51  65
BRANCH  52  76
ATOM     76  C   UNL A   1      46.887  27.317  25.966  1.00  0.00     0.023 A 
ATOM     77  C   UNL A   1      46.966  27.588  24.586  1.00  0.00     0.012 A 
ATOM     78  C   UNL A   1      47.967  26.671  26.600  1.00  0.00     0.148 A 
ATOM     79  C   UNL A   1      48.090  27.211  23.849  1.00  0.00     0.002 A 
ATOM     80  C   UNL A   1      49.108  26.352  25.872  1.00  0.00     0.091 A 
ATOM     81  F   UNL A   1      47.861  26.386  27.905  1.00  0.00    -0.205 F 
ATOM     82  C   UNL A   1      49.166  26.608  24.494  1.00  0.00     0.022 A 
BRANCH  80  83
ATOM     83  S   UNL A   1      50.591  25.698  26.648  1.00  0.00     0.127 S 
ATOM     84  O   UNL A   1      50.932  26.762  27.589  1.00  0.00    -0.237 OA
ATOM     85  O   UNL A   1      50.093  24.467  27.262  1.00  0.00    -0.237 OA
ATOM     86  O   UNL A   1      51.538  25.483  25.562  1.00  0.00    -0.744 OA
ENDBRANCH  80  83
ENDBRANCH  52  76
BRANCH  64  87
ATOM     87  C   UNL A   1      45.188  33.184  29.356  1.00  0.00     0.023 A 
ATOM     88  C   UNL A   1      46.006  33.337  30.492  1.00  0.00     0.012 A 
ATOM     89  C   UNL A   1      45.107  34.235  28.420  1.00  0.00     0.148 A 
ATOM     90  C   UNL A   1      46.704  34.526  30.712  1.00  0.00     0.002 A 
ATOM     91  C   UNL A   1      45.839  35.402  28.623  1.00  0.00     0.091 A 
ATOM     92  F   UNL A   1      44.308  34.084  27.354  1.00  0.00    -0.205 F 
ATOM     93  C   UNL A   1      46.629  35.553  29.774  1.00  0.00     0.022 A 
BRANCH  91  94
ATOM     94  S   UNL A   1      45.867  36.739  27.423  1.00  0.00     0.127 S 
ATOM     95  O   UNL A   1      46.363  36.059  26.228  1.00  0.00    -0.237 OA
ATOM     96  O   UNL A   1      44.460  37.134  27.359  1.00  0.00    -0.237 OA
ATOM     97  O   UNL A   1      46.750  37.755  27.982  1.00  0.00    -0.744 OA
ENDBRANCH  91  94
ENDBRANCH  64  87
ENDBRANCH  38  39
ENDBRANCH  31  33
ENDBRANCH  30  31
ENDBRANCH  29  30
ENDBRANCH  28  29
ENDBRANCH  27  28
ENDBRANCH   1  27
TORSDOF 23
ENDMDL
MODEL 3
REMARK VINA RESULT:     -11.2      5.189      8.610
REMARK SMILES CC[C@@](C)(NC(=O)c1cccc2ccccc12)C(=O)OCCOCCOCCOC(=O)c1ccc(-c2c3nc(c(-c4cccc(S(=O)(=O)[O-])c4F)c4ccc([nH]4)c(-c4cccc(S(=O)(=O)[O-])c4F)c4nc(c(-c5cccc(S(=O)(=O)[O-])c5F)c5ccc2[nH]5)C=C4)C=C3)cc1
REMARK SMILES IDX 25 1 24 2 23 3 22 4 21 5 20 6 18 7 19 8 3 9 4 10 2 11 1 12
REMARK SMILES IDX 5 13 6 14 7 16 8 17 9 18 17 19 10 20 12 21 16 22 11 23 13 24
REMARK SMILES IDX 15 25 14 26 26 27 27 28 28 29 29 30 30 31 31 32 32 33 33 34
REMARK SMILES IDX 94 35 34 36 93 37 35 38 36 39 37 40 87 41 38 42 92 43 86 44
REMARK SMILES IDX 88 45 39 46 91 47 85 48 84 49 40 51 72 52 52 53 71 54 53 55
REMARK SMILES IDX 56 56 70 57 89 58 54 59 55 60 69 62 90 63 57 64 41 65 42 66
REMARK SMILES IDX 50 67 43 68 45 69 51 70 44 71 46 72 47 73 48 74 49 75 73 76
REMARK SMILES IDX 74 77 82 78 75 79 77 80 83 81 76 82 78 83 79 84 80 85 81 86
REMARK SMILES IDX 58 87 59 88 67 89 60 90 62 91 68 92 61 93 63 94 64 95 65 96
REMARK SMILES IDX 66 97
REMARK H PARENT 5 15 88 50 56 61
REMARK Flexibility Score: inf
ROOT
ATOM      1  C   UNL A   1      32.897  28.759  25.342  1.00  0.00     0.188 C 
ENDROOT
BRANCH   1   2
ATOM      2  C   UNL A   1      32.356  27.233  25.875  1.00  0.00     0.188 C 
BRANCH   2   3
ATOM      3  O   UNL A   1      33.132  26.037  26.062  1.00  0.00    -0.376 OA
BRANCH   3   4
ATOM      4  C   UNL A   1      34.405  25.913  25.368  1.00  0.00     0.202 C 
BRANCH   4   5
ATOM      5  C   UNL A   1      34.758  24.600  24.606  1.00  0.00     0.261 C 
BRANCH   5   6
ATOM      6  O   UNL A   1      35.902  23.951  25.153  1.00  0.00    -0.462 OA
BRANCH   6   7
ATOM      7  C   UNL A   1      35.763  22.808  25.848  1.00  0.00     0.331 C 
ATOM      8  O   UNL A   1      35.202  22.721  26.929  1.00  0.00    -0.249 OA
BRANCH   7   9
ATOM      9  C   UNL A   1      36.234  21.622  24.962  1.00  0.00     0.135 C 
ATOM     10  C   UNL A   1      36.545  22.202  23.561  1.00  0.00     0.047 C 
BRANCH   9  11
ATOM     11  C   UNL A   1      37.635  21.041  25.444  1.00  0.00     0.037 C 
ATOM     12  C   UNL A   1      38.010  19.652  24.915  1.00  0.00     0.007 C 
ENDBRANCH   9  11
BRANCH   9  13
ATOM     13  N   UNL A   1      35.125  20.559  24.725  1.00  0.00    -0.336 N 
ATOM     14  C   UNL A   1      33.753  20.371  24.462  1.00  0.00     0.252 C 
ATOM     15  H   UNL A   1      35.544  19.670  24.781  1.00  0.00     0.165 HD
ATOM     16  O   UNL A   1      33.504  19.189  24.152  1.00  0.00    -0.269 OA
BRANCH  14  17
ATOM     17  C   UNL A   1      32.562  21.374  24.238  1.00  0.00     0.047 A 
ATOM     18  C   UNL A   1      31.915  21.445  25.510  1.00  0.00     0.014 A 
ATOM     19  C   UNL A   1      32.348  22.473  23.118  1.00  0.00    -0.006 A 
ATOM     20  C   UNL A   1      30.968  22.403  25.879  1.00  0.00     0.001 A 
ATOM     21  C   UNL A   1      31.354  23.735  23.895  1.00  0.00    -0.018 A 
ATOM     22  C   UNL A   1      33.046  22.979  21.404  1.00  0.00     0.009 A 
ATOM     23  C   UNL A   1      30.685  23.506  25.090  1.00  0.00     0.009 A 
ATOM     24  C   UNL A   1      31.283  25.375  23.214  1.00  0.00     0.009 A 
ATOM     25  C   UNL A   1      32.951  24.668  20.774  1.00  0.00     0.001 A 
ATOM     26  C   UNL A   1      32.060  25.844  21.713  1.00  0.00     0.001 A 
ENDBRANCH  14  17
ENDBRANCH   9  13
ENDBRANCH   7   9
ENDBRANCH   6   7
ENDBRANCH   5   6
ENDBRANCH   4   5
ENDBRANCH   3   4
ENDBRANCH   2   3
ENDBRANCH   1   2
BRANCH   1  27
ATOM     27  O   UNL A   1      32.607  30.105  25.908  1.00  0.00    -0.376 OA
BRANCH  27  28
ATOM     28  C   UNL A   1      31.402  30.884  26.378  1.00  0.00     0.202 C 
BRANCH  28  29
ATOM     29  C   UNL A   1      31.066  32.709  26.320  1.00  0.00     0.261 C 
BRANCH  29  30
ATOM     30  O   UNL A   1      32.135  34.038  27.452  1.00  0.00    -0.460 OA
BRANCH  30  31
ATOM     31  C   UNL A   1      33.274  34.551  28.225  1.00  0.00     0.338 C 
ATOM     32  O   UNL A   1      33.261  35.776  28.437  1.00  0.00    -0.246 OA
BRANCH  31  33
ATOM     33  C   UNL A   1      34.516  33.837  28.899  1.00  0.00     0.060 A 
ATOM     34  C   UNL A   1      35.853  34.243  29.009  1.00  0.00     0.016 A 
ATOM     35  C   UNL A   1      34.285  32.572  29.491  1.00  0.00     0.016 A 
ATOM     36  C   UNL A   1      36.873  33.516  29.685  1.00  0.00     0.010 A 
ATOM     37  C   UNL A   1      35.299  31.811  30.143  1.00  0.00     0.010 A 
ATOM     38  C   UNL A   1      36.614  32.274  30.251  1.00  0.00    -0.014 A 
BRANCH  38  39
ATOM     39  C   UNL A   1      37.694  31.450  30.881  1.00  0.00     0.031 A 
ATOM     40  C   UNL A   1      38.116  31.709  32.309  1.00  0.00     0.074 A 
ATOM     41  C   UNL A   1      38.340  30.485  30.192  1.00  0.00     0.049 A 
ATOM     42  N   UNL A   1      39.117  31.203  32.990  1.00  0.00    -0.248 NA
ATOM     43  C   UNL A   1      37.294  32.657  33.074  1.00  0.00     0.031 C 
ATOM     44  C   UNL A   1      38.017  30.062  28.832  1.00  0.00     0.029 A 
ATOM     45  N   UNL A   1      39.430  29.712  30.533  1.00  0.00    -0.354 N 
ATOM     46  C   UNL A   1      39.071  31.798  34.247  1.00  0.00     0.074 A 
ATOM     47  C   UNL A   1      37.925  32.686  34.240  1.00  0.00     0.031 C 
ATOM     48  C   UNL A   1      38.920  29.147  28.433  1.00  0.00     0.029 A 
ATOM     49  C   UNL A   1      39.908  28.944  29.494  1.00  0.00     0.049 A 
ATOM     50  H   UNL A   1      39.829  29.709  31.433  1.00  0.00     0.167 HD
ATOM     51  C   UNL A   1      39.902  31.633  35.307  1.00  0.00     0.034 A 
ATOM     52  C   UNL A   1      41.029  28.196  29.384  1.00  0.00     0.034 A 
ATOM     53  C   UNL A   1      41.045  30.753  35.332  1.00  0.00     0.049 A 
ATOM     54  C   UNL A   1      41.979  28.081  30.552  1.00  0.00     0.074 A 
ATOM     55  C   UNL A   1      41.925  30.514  36.375  1.00  0.00     0.029 A 
ATOM     56  N   UNL A   1      41.479  29.981  34.266  1.00  0.00    -0.354 N 
ATOM     57  N   UNL A   1      41.876  28.589  31.756  1.00  0.00    -0.248 NA
ATOM     58  C   UNL A   1      43.191  27.268  30.352  1.00  0.00     0.031 C 
ATOM     59  C   UNL A   1      42.906  29.618  35.931  1.00  0.00     0.029 A 
ATOM     60  C   UNL A   1      42.620  29.278  34.621  1.00  0.00     0.049 A 
ATOM     61  H   UNL A   1      41.042  29.939  33.385  1.00  0.00     0.167 HD
ATOM     62  C   UNL A   1      42.983  28.129  32.463  1.00  0.00     0.074 A 
ATOM     63  C   UNL A   1      43.738  27.286  31.560  1.00  0.00     0.031 C 
ATOM     64  C   UNL A   1      43.346  28.394  33.744  1.00  0.00     0.034 A 
BRANCH  51  65
ATOM     65  C   UNL A   1      39.607  32.421  36.561  1.00  0.00     0.023 A 
ATOM     66  C   UNL A   1      40.279  33.637  36.794  1.00  0.00     0.012 A 
ATOM     67  C   UNL A   1      38.612  31.999  37.468  1.00  0.00     0.148 A 
ATOM     68  C   UNL A   1      39.990  34.405  37.924  1.00  0.00     0.002 A 
ATOM     69  C   UNL A   1      38.303  32.788  38.571  1.00  0.00     0.091 A 
ATOM     70  F   UNL A   1      37.991  30.833  37.238  1.00  0.00    -0.205 F 
ATOM     71  C   UNL A   1      38.998  33.985  38.805  1.00  0.00     0.022 A 
BRANCH  69  72
ATOM     72  S   UNL A   1      36.990  32.366  39.723  1.00  0.00     0.127 S 
ATOM     73  O   UNL A   1      35.823  32.337  38.842  1.00  0.00    -0.237 OA
ATOM     74  O   UNL A   1      37.414  31.054  40.213  1.00  0.00    -0.237 OA
ATOM     75  O   UNL A   1      36.991  33.416  40.731  1.00  0.00    -0.744 OA
ENDBRANCH  69  72
ENDBRANCH  51  65
BRANCH  52  76
ATOM     76  C   UNL A   1      41.323  27.477  28.108  1.00  0.00     0.023 A 
ATOM     77  C   UNL A   1      41.807  28.196  26.999  1.00  0.00     0.012 A 
ATOM     78  C   UNL A   1      41.139  26.085  27.994  1.00  0.00     0.148 A 
ATOM     79  C   UNL A   1      42.090  27.547  25.796  1.00  0.00     0.002 A 
ATOM     80  C   UNL A   1      41.480  25.435  26.812  1.00  0.00     0.091 A 
ATOM     81  F   UNL A   1      40.641  25.420  29.045  1.00  0.00    -0.205 F 
ATOM     82  C   UNL A   1      41.941  26.166  25.707  1.00  0.00     0.022 A 
BRANCH  80  83
ATOM     83  S   UNL A   1      41.448  23.645  26.656  1.00  0.00     0.127 S 
ATOM     84  O   UNL A   1      40.020  23.383  26.489  1.00  0.00    -0.237 OA
ATOM     85  O   UNL A   1      42.259  23.432  25.457  1.00  0.00    -0.237 OA
ATOM     86  O   UNL A   1      42.048  23.136  27.881  1.00  0.00    -0.744 OA
ENDBRANCH  80  83
ENDBRANCH  52  76
BRANCH  64  87
ATOM     87  C   UNL A   1      44.599  27.738  34.273  1.00  0.00     0.023 A 
ATOM     88  C   UNL A   1      45.824  28.432  34.238  1.00  0.00     0.012 A 
ATOM     89  C   UNL A   1      44.552  26.455  34.856  1.00  0.00     0.148 A 
ATOM     90  C   UNL A   1      46.988  27.849  34.743  1.00  0.00     0.002 A 
ATOM     91  C   UNL A   1      45.707  25.897  35.397  1.00  0.00     0.091 A 
ATOM     92  F   UNL A   1      43.384  25.797  34.864  1.00  0.00    -0.205 F 
ATOM     93  C   UNL A   1      46.927  26.587  35.331  1.00  0.00     0.022 A 
BRANCH  91  94
ATOM     94  S   UNL A   1      45.700  24.314  36.249  1.00  0.00     0.127 S 
ATOM     95  O   UNL A   1      46.204  23.414  35.214  1.00  0.00    -0.237 OA
ATOM     96  O   UNL A   1      46.628  24.549  37.356  1.00  0.00    -0.237 OA
ATOM     97  O   UNL A   1      44.321  24.091  36.660  1.00  0.00    -0.744 OA
ENDBRANCH  91  94
ENDBRANCH  64  87
ENDBRANCH  38  39
ENDBRANCH  31  33
ENDBRANCH  30  31
ENDBRANCH  29  30
ENDBRANCH  28  29
ENDBRANCH  27  28
ENDBRANCH   1  27
TORSDOF 23
ENDMDL
