MODEL 1
REMARK VINA RESULT:     -10.2      0.000      0.000
REMARK SMILES CCOC(=O)c1cccc(Nc2c(-c3ccc(C(=O)OCCOCCOCCOC(=O)c4ccc(-c5c6nc(c(-c7cccc(S(=O)(=O)[O-])c7F)c7ccc([nH]7)c(-c7cccc(S(=O)(=O)[O-])c7F)c7nc(c(-c8cccc(S(=O)(=O)[O-])c8F)c8ccc5[nH]8)C=C7)C=C6)cc4)cc3)nc3cnccn23)c1
REMARK SMILES IDX 23 1 22 2 21 3 20 4 18 5 19 6 17 7 14 8 15 9 96 10 16 11
REMARK SMILES IDX 95 12 13 13 12 14 103 15 97 16 98 17 102 18 99 19 101 20
REMARK SMILES IDX 100 21 11 22 10 24 6 25 7 26 104 27 8 28 9 29 4 30 5 31 3 32
REMARK SMILES IDX 2 33 1 34 24 35 25 36 26 37 27 38 28 39 29 40 30 41 31 42
REMARK SMILES IDX 32 43 33 44 94 45 34 46 93 47 35 48 36 49 37 50 87 51 38 52
REMARK SMILES IDX 92 53 86 54 88 55 39 56 91 57 85 58 84 59 40 61 72 62 52 63
REMARK SMILES IDX 71 64 53 65 56 66 70 67 89 68 54 69 55 70 69 72 90 73 57 74
REMARK SMILES IDX 41 75 42 76 50 77 43 78 45 79 51 80 44 81 46 82 47 83 48 84
REMARK SMILES IDX 49 85 73 86 74 87 82 88 75 89 77 90 83 91 76 92 78 93 79 94
REMARK SMILES IDX 80 95 81 96 58 97 59 98 67 99 60 100 62 101 68 102 61 103
REMARK SMILES IDX 63 104 64 105 65 106 66 107
REMARK H PARENT 11 23 88 60 56 71
REMARK Flexibility Score: inf
ROOT
ATOM      1  O   UNL A   1      40.329  19.910  26.137  1.00  0.00    -0.376 OA
ENDROOT
BRANCH   1   2
ATOM      2  C   UNL A   1      39.143  19.285  25.683  1.00  0.00     0.202 C 
BRANCH   2   3
ATOM      3  C   UNL A   1      38.119  19.899  24.710  1.00  0.00     0.261 C 
BRANCH   3   4
ATOM      4  O   UNL A   1      37.156  20.813  25.237  1.00  0.00    -0.460 OA
BRANCH   4   5
ATOM      5  C   UNL A   1      37.568  22.099  25.356  1.00  0.00     0.338 C 
ATOM      6  O   UNL A   1      38.684  22.484  25.655  1.00  0.00    -0.246 OA
BRANCH   5   7
ATOM      7  C   UNL A   1      36.479  23.006  24.931  1.00  0.00     0.060 A 
ATOM      8  C   UNL A   1      34.329  24.676  24.277  1.00  0.00     0.004 A 
ATOM      9  C   UNL A   1      35.113  24.954  25.402  1.00  0.00     0.011 A 
ATOM     10  C   UNL A   1      34.662  23.589  23.451  1.00  0.00     0.011 A 
ATOM     11  C   UNL A   1      36.179  24.113  25.736  1.00  0.00     0.016 A 
ATOM     12  C   UNL A   1      35.744  22.762  23.767  1.00  0.00     0.016 A 
BRANCH   8  13
ATOM     13  C   UNL A   1      33.067  25.358  24.068  1.00  0.00     0.114 A 
ATOM     14  C   UNL A   1      31.804  24.996  24.533  1.00  0.00     0.143 A 
ATOM     15  N   UNL A   1      30.967  25.962  23.992  1.00  0.00    -0.283 N 
ATOM     16  N   UNL A   1      33.016  26.456  23.235  1.00  0.00    -0.225 NA
ATOM     17  C   UNL A   1      31.744  26.756  23.185  1.00  0.00     0.157 A 
ATOM     18  C   UNL A   1      29.617  26.257  24.121  1.00  0.00     0.115 A 
ATOM     19  C   UNL A   1      31.120  27.806  22.431  1.00  0.00     0.158 A 
ATOM     20  C   UNL A   1      29.107  27.273  23.401  1.00  0.00     0.129 A 
ATOM     21  N   UNL A   1      29.843  28.060  22.528  1.00  0.00    -0.259 NA
BRANCH  14  22
ATOM     22  N   UNL A   1      31.395  24.011  25.383  1.00  0.00    -0.339 N 
ATOM     23  H   UNL A   1      30.459  24.058  25.684  1.00  0.00     0.168 HD
BRANCH  22  24
ATOM     24  C   UNL A   1      32.160  22.927  25.885  1.00  0.00     0.040 A 
ATOM     25  C   UNL A   1      32.931  20.629  25.635  1.00  0.00     0.062 A 
ATOM     26  C   UNL A   1      33.622  20.707  26.846  1.00  0.00     0.016 A 
ATOM     27  C   UNL A   1      32.222  21.735  25.143  1.00  0.00     0.041 A 
ATOM     28  C   UNL A   1      33.610  21.898  27.564  1.00  0.00     0.003 A 
ATOM     29  C   UNL A   1      32.879  22.992  27.090  1.00  0.00     0.026 A 
BRANCH  25  30
ATOM     30  C   UNL A   1      32.866  19.322  24.961  1.00  0.00     0.338 C 
ATOM     31  O   UNL A   1      31.940  18.546  25.119  1.00  0.00    -0.246 OA
BRANCH  30  32
ATOM     32  O   UNL A   1      33.979  19.123  24.215  1.00  0.00    -0.462 OA
BRANCH  32  33
ATOM     33  C   UNL A   1      34.596  17.838  24.408  1.00  0.00     0.230 C 
ATOM     34  C   UNL A   1      34.149  16.839  23.352  1.00  0.00     0.049 C 
ENDBRANCH  32  33
ENDBRANCH  30  32
ENDBRANCH  25  30
ENDBRANCH  22  24
ENDBRANCH  14  22
ENDBRANCH   8  13
ENDBRANCH   5   7
ENDBRANCH   4   5
ENDBRANCH   3   4
ENDBRANCH   2   3
ENDBRANCH   1   2
BRANCH   1  35
ATOM     35  C   UNL A   1      41.508  19.172  26.342  1.00  0.00     0.188 C 
BRANCH  35  36
ATOM     36  C   UNL A   1      42.787  19.832  25.782  1.00  0.00     0.188 C 
BRANCH  36  37
ATOM     37  O   UNL A   1      43.401  19.336  24.599  1.00  0.00    -0.376 OA
BRANCH  37  38
ATOM     38  C   UNL A   1      44.815  19.393  24.471  1.00  0.00     0.202 C 
BRANCH  38  39
ATOM     39  C   UNL A   1      45.612  20.516  25.151  1.00  0.00     0.261 C 
BRANCH  39  40
ATOM     40  O   UNL A   1      46.060  21.566  24.284  1.00  0.00    -0.460 OA
BRANCH  40  41
ATOM     41  C   UNL A   1      45.102  22.454  23.910  1.00  0.00     0.338 C 
ATOM     42  O   UNL A   1      44.263  22.314  23.044  1.00  0.00    -0.246 OA
BRANCH  41  43
ATOM     43  C   UNL A   1      45.097  23.592  24.852  1.00  0.00     0.060 A 
ATOM     44  C   UNL A   1      46.315  23.973  25.433  1.00  0.00     0.016 A 
ATOM     45  C   UNL A   1      43.909  24.232  25.206  1.00  0.00     0.016 A 
ATOM     46  C   UNL A   1      46.346  24.983  26.392  1.00  0.00     0.010 A 
ATOM     47  C   UNL A   1      43.939  25.229  26.186  1.00  0.00     0.010 A 
ATOM     48  C   UNL A   1      45.152  25.588  26.802  1.00  0.00    -0.014 A 
BRANCH  48  49
ATOM     49  C   UNL A   1      45.150  26.474  27.988  1.00  0.00     0.031 A 
ATOM     50  C   UNL A   1      45.388  27.946  27.791  1.00  0.00     0.074 A 
ATOM     51  C   UNL A   1      44.951  25.979  29.222  1.00  0.00     0.049 A 
ATOM     52  N   UNL A   1      45.486  28.896  28.682  1.00  0.00    -0.248 NA
ATOM     53  C   UNL A   1      45.550  28.402  26.400  1.00  0.00     0.031 C 
ATOM     54  C   UNL A   1      44.706  24.574  29.541  1.00  0.00     0.029 A 
ATOM     55  N   UNL A   1      44.951  26.607  30.442  1.00  0.00    -0.354 N 
ATOM     56  C   UNL A   1      45.736  30.059  27.966  1.00  0.00     0.074 A 
ATOM     57  C   UNL A   1      45.801  29.693  26.568  1.00  0.00     0.031 C 
ATOM     58  C   UNL A   1      44.613  24.441  30.876  1.00  0.00     0.029 A 
ATOM     59  C   UNL A   1      44.812  25.746  31.504  1.00  0.00     0.049 A 
ATOM     60  H   UNL A   1      45.043  27.582  30.547  1.00  0.00     0.167 HD
ATOM     61  C   UNL A   1      45.885  31.324  28.427  1.00  0.00     0.034 A 
ATOM     62  C   UNL A   1      44.862  25.984  32.829  1.00  0.00     0.034 A 
ATOM     63  C   UNL A   1      45.799  31.692  29.814  1.00  0.00     0.049 A 
ATOM     64  C   UNL A   1      45.055  27.396  33.320  1.00  0.00     0.074 A 
ATOM     65  C   UNL A   1      45.900  32.952  30.377  1.00  0.00     0.029 A 
ATOM     66  N   UNL A   1      45.600  30.801  30.856  1.00  0.00    -0.354 N 
ATOM     67  N   UNL A   1      45.180  28.503  32.628  1.00  0.00    -0.248 NA
ATOM     68  C   UNL A   1      45.082  27.598  34.777  1.00  0.00     0.031 C 
ATOM     69  C   UNL A   1      45.788  32.818  31.765  1.00  0.00     0.029 A 
ATOM     70  C   UNL A   1      45.591  31.479  32.063  1.00  0.00     0.049 A 
ATOM     71  H   UNL A   1      45.483  29.829  30.754  1.00  0.00     0.167 HD
ATOM     72  C   UNL A   1      45.260  29.533  33.560  1.00  0.00     0.074 A 
ATOM     73  C   UNL A   1      45.153  28.919  34.867  1.00  0.00     0.031 C 
ATOM     74  C   UNL A   1      45.422  30.863  33.354  1.00  0.00     0.034 A 
BRANCH  61  75
ATOM     75  C   UNL A   1      46.132  32.408  27.413  1.00  0.00     0.023 A 
ATOM     76  C   UNL A   1      45.037  33.043  26.791  1.00  0.00     0.012 A 
ATOM     77  C   UNL A   1      47.441  32.828  27.109  1.00  0.00     0.148 A 
ATOM     78  C   UNL A   1      45.244  34.057  25.858  1.00  0.00     0.002 A 
ATOM     79  C   UNL A   1      47.637  33.870  26.211  1.00  0.00     0.091 A 
ATOM     80  F   UNL A   1      48.468  32.195  27.692  1.00  0.00    -0.205 F 
ATOM     81  C   UNL A   1      46.541  34.477  25.576  1.00  0.00     0.022 A 
BRANCH  79  82
ATOM     82  S   UNL A   1      49.265  34.533  25.839  1.00  0.00     0.127 S 
ATOM     83  O   UNL A   1      48.947  35.552  24.840  1.00  0.00    -0.237 OA
ATOM     84  O   UNL A   1      49.685  35.062  27.138  1.00  0.00    -0.237 OA
ATOM     85  O   UNL A   1      50.056  33.409  25.358  1.00  0.00    -0.744 OA
ENDBRANCH  79  82
ENDBRANCH  61  75
BRANCH  62  86
ATOM     86  C   UNL A   1      44.690  24.861  33.795  1.00  0.00     0.023 A 
ATOM     87  C   UNL A   1      43.397  24.510  34.227  1.00  0.00     0.012 A 
ATOM     88  C   UNL A   1      45.796  24.136  34.277  1.00  0.00     0.148 A 
ATOM     89  C   UNL A   1      43.210  23.478  35.147  1.00  0.00     0.002 A 
ATOM     90  C   UNL A   1      45.599  23.073  35.152  1.00  0.00     0.091 A 
ATOM     91  F   UNL A   1      47.021  24.496  33.868  1.00  0.00    -0.205 F 
ATOM     92  C   UNL A   1      44.308  22.753  35.601  1.00  0.00     0.022 A 
BRANCH  90  93
ATOM     93  S   UNL A   1      46.941  22.010  35.697  1.00  0.00     0.127 S 
ATOM     94  O   UNL A   1      47.394  21.431  34.436  1.00  0.00    -0.237 OA
ATOM     95  O   UNL A   1      47.863  22.974  36.300  1.00  0.00    -0.237 OA
ATOM     96  O   UNL A   1      46.344  21.078  36.644  1.00  0.00    -0.744 OA
ENDBRANCH  90  93
ENDBRANCH  62  86
BRANCH  74  97
ATOM     97  C   UNL A   1      45.457  31.764  34.563  1.00  0.00     0.023 A 
ATOM     98  C   UNL A   1      46.688  32.071  35.173  1.00  0.00     0.012 A 
ATOM     99  C   UNL A   1      44.278  32.371  35.041  1.00  0.00     0.148 A 
ATOM    100  C   UNL A   1      46.743  32.943  36.260  1.00  0.00     0.002 A 
ATOM    101  C   UNL A   1      44.346  33.277  36.093  1.00  0.00     0.091 A 
ATOM    102  F   UNL A   1      43.112  32.054  34.457  1.00  0.00    -0.205 F 
ATOM    103  C   UNL A   1      45.576  33.555  36.711  1.00  0.00     0.022 A 
BRANCH 101 104
ATOM    104  S   UNL A   1      42.909  34.184  36.677  1.00  0.00     0.127 S 
ATOM    105  O   UNL A   1      43.416  34.785  37.910  1.00  0.00    -0.237 OA
ATOM    106  O   UNL A   1      42.676  35.133  35.588  1.00  0.00    -0.237 OA
ATOM    107  O   UNL A   1      41.854  33.195  36.851  1.00  0.00    -0.744 OA
ENDBRANCH 101 104
ENDBRANCH  74  97
ENDBRANCH  48  49
ENDBRANCH  41  43
ENDBRANCH  40  41
ENDBRANCH  39  40
ENDBRANCH  38  39
ENDBRANCH  37  38
ENDBRANCH  36  37
ENDBRANCH  35  36
ENDBRANCH   1  35
TORSDOF 26
ENDMDL
MODEL 2
REMARK VINA RESULT:      -9.9      4.477      7.322
REMARK SMILES CCOC(=O)c1cccc(Nc2c(-c3ccc(C(=O)OCCOCCOCCOC(=O)c4ccc(-c5c6nc(c(-c7cccc(S(=O)(=O)[O-])c7F)c7ccc([nH]7)c(-c7cccc(S(=O)(=O)[O-])c7F)c7nc(c(-c8cccc(S(=O)(=O)[O-])c8F)c8ccc5[nH]8)C=C7)C=C6)cc4)cc3)nc3cnccn23)c1
REMARK SMILES IDX 23 1 22 2 21 3 20 4 18 5 19 6 17 7 14 8 15 9 96 10 16 11
REMARK SMILES IDX 95 12 13 13 12 14 103 15 97 16 98 17 102 18 99 19 101 20
REMARK SMILES IDX 100 21 11 22 10 24 6 25 7 26 104 27 8 28 9 29 4 30 5 31 3 32
REMARK SMILES IDX 2 33 1 34 24 35 25 36 26 37 27 38 28 39 29 40 30 41 31 42
REMARK SMILES IDX 32 43 33 44 94 45 34 46 93 47 35 48 36 49 37 50 87 51 38 52
REMARK SMILES IDX 92 53 86 54 88 55 39 56 91 57 85 58 84 59 40 61 72 62 52 63
REMARK SMILES IDX 71 64 53 65 56 66 70 67 89 68 54 69 55 70 69 72 90 73 57 74
REMARK SMILES IDX 41 75 42 76 50 77 43 78 45 79 51 80 44 81 46 82 47 83 48 84
REMARK SMILES IDX 49 85 73 86 74 87 82 88 75 89 77 90 83 91 76 92 78 93 79 94
REMARK SMILES IDX 80 95 81 96 58 97 59 98 67 99 60 100 62 101 68 102 61 103
REMARK SMILES IDX 63 104 64 105 65 106 66 107
REMARK H PARENT 11 23 88 60 56 71
REMARK Flexibility Score: inf
ROOT
ATOM      1  O   UNL A   1      37.429  21.784  24.456  1.00  0.00    -0.376 OA
ENDROOT
BRANCH   1   2
ATOM      2  C   UNL A   1      36.461  22.692  24.947  1.00  0.00     0.202 C 
BRANCH   2   3
ATOM      3  C   UNL A   1      34.964  22.694  24.585  1.00  0.00     0.261 C 
BRANCH   3   4
ATOM      4  O   UNL A   1      34.346  23.946  24.285  1.00  0.00    -0.460 OA
BRANCH   4   5
ATOM      5  C   UNL A   1      33.388  24.353  25.154  1.00  0.00     0.338 C 
ATOM      6  O   UNL A   1      33.221  23.960  26.294  1.00  0.00    -0.246 OA
BRANCH   5   7
ATOM      7  C   UNL A   1      32.627  25.473  24.557  1.00  0.00     0.060 A 
ATOM      8  C   UNL A   1      31.280  27.706  23.537  1.00  0.00     0.004 A 
ATOM      9  C   UNL A   1      32.653  27.554  23.312  1.00  0.00     0.011 A 
ATOM     10  C   UNL A   1      30.577  26.706  24.228  1.00  0.00     0.011 A 
ATOM     11  C   UNL A   1      33.328  26.446  23.833  1.00  0.00     0.016 A 
ATOM     12  C   UNL A   1      31.244  25.583  24.727  1.00  0.00     0.016 A 
BRANCH   8  13
ATOM     13  C   UNL A   1      30.620  28.965  23.254  1.00  0.00     0.114 A 
ATOM     14  C   UNL A   1      30.266  29.973  24.149  1.00  0.00     0.143 A 
ATOM     15  N   UNL A   1      29.617  30.906  23.351  1.00  0.00    -0.283 N 
ATOM     16  N   UNL A   1      30.166  29.225  21.977  1.00  0.00    -0.225 NA
ATOM     17  C   UNL A   1      29.540  30.367  22.091  1.00  0.00     0.157 A 
ATOM     18  C   UNL A   1      29.098  32.174  23.570  1.00  0.00     0.115 A 
ATOM     19  C   UNL A   1      28.846  31.091  21.064  1.00  0.00     0.158 A 
ATOM     20  C   UNL A   1      28.482  32.804  22.552  1.00  0.00     0.129 A 
ATOM     21  N   UNL A   1      28.329  32.271  21.281  1.00  0.00    -0.259 NA
BRANCH  14  22
ATOM     22  N   UNL A   1      30.524  30.142  25.478  1.00  0.00    -0.339 N 
ATOM     23  H   UNL A   1      29.738  30.206  26.067  1.00  0.00     0.168 HD
BRANCH  22  24
ATOM     24  C   UNL A   1      31.790  30.235  26.110  1.00  0.00     0.040 A 
ATOM     25  C   UNL A   1      33.381  31.553  27.401  1.00  0.00     0.062 A 
ATOM     26  C   UNL A   1      34.314  30.515  27.350  1.00  0.00     0.016 A 
ATOM     27  C   UNL A   1      32.119  31.411  26.806  1.00  0.00     0.041 A 
ATOM     28  C   UNL A   1      33.980  29.328  26.707  1.00  0.00     0.003 A 
ATOM     29  C   UNL A   1      32.734  29.195  26.087  1.00  0.00     0.026 A 
BRANCH  25  30
ATOM     30  C   UNL A   1      33.808  32.836  27.983  1.00  0.00     0.338 C 
ATOM     31  O   UNL A   1      33.281  33.896  27.697  1.00  0.00    -0.246 OA
BRANCH  30  32
ATOM     32  O   UNL A   1      34.866  32.648  28.809  1.00  0.00    -0.462 OA
BRANCH  32  33
ATOM     33  C   UNL A   1      34.553  32.773  30.207  1.00  0.00     0.230 C 
ATOM     34  C   UNL A   1      35.573  32.050  31.074  1.00  0.00     0.049 C 
ENDBRANCH  32  33
ENDBRANCH  30  32
ENDBRANCH  25  30
ENDBRANCH  22  24
ENDBRANCH  14  22
ENDBRANCH   8  13
ENDBRANCH   5   7
ENDBRANCH   4   5
ENDBRANCH   3   4
ENDBRANCH   2   3
ENDBRANCH   1   2
BRANCH   1  35
ATOM     35  C   UNL A   1      38.300  21.107  25.328  1.00  0.00     0.188 C 
BRANCH  35  36
ATOM     36  C   UNL A   1      38.425  19.591  25.065  1.00  0.00     0.188 C 
BRANCH  36  37
ATOM     37  O   UNL A   1      39.604  18.884  25.430  1.00  0.00    -0.376 OA
BRANCH  37  38
ATOM     38  C   UNL A   1      40.632  19.563  26.139  1.00  0.00     0.202 C 
BRANCH  38  39
ATOM     39  C   UNL A   1      42.054  18.984  26.186  1.00  0.00     0.261 C 
BRANCH  39  40
ATOM     40  O   UNL A   1      42.776  19.023  24.948  1.00  0.00    -0.460 OA
BRANCH  40  41
ATOM     41  C   UNL A   1      44.024  19.556  25.025  1.00  0.00     0.338 C 
ATOM     42  O   UNL A   1      45.069  19.042  24.685  1.00  0.00    -0.246 OA
BRANCH  41  43
ATOM     43  C   UNL A   1      43.925  20.972  25.434  1.00  0.00     0.060 A 
ATOM     44  C   UNL A   1      43.968  21.953  24.432  1.00  0.00     0.016 A 
ATOM     45  C   UNL A   1      43.857  21.333  26.780  1.00  0.00     0.016 A 
ATOM     46  C   UNL A   1      43.966  23.303  24.775  1.00  0.00     0.010 A 
ATOM     47  C   UNL A   1      43.878  22.688  27.123  1.00  0.00     0.010 A 
ATOM     48  C   UNL A   1      43.962  23.676  26.125  1.00  0.00    -0.014 A 
BRANCH  48  49
ATOM     49  C   UNL A   1      44.212  25.088  26.495  1.00  0.00     0.031 A 
ATOM     50  C   UNL A   1      45.600  25.643  26.326  1.00  0.00     0.074 A 
ATOM     51  C   UNL A   1      43.227  25.861  26.984  1.00  0.00     0.049 A 
ATOM     52  N   UNL A   1      46.062  26.825  26.636  1.00  0.00    -0.248 NA
ATOM     53  C   UNL A   1      46.601  24.736  25.740  1.00  0.00     0.031 C 
ATOM     54  C   UNL A   1      41.843  25.439  27.190  1.00  0.00     0.029 A 
ATOM     55  N   UNL A   1      43.253  27.161  27.422  1.00  0.00    -0.354 N 
ATOM     56  C   UNL A   1      47.409  26.802  26.299  1.00  0.00     0.074 A 
ATOM     57  C   UNL A   1      47.697  25.480  25.785  1.00  0.00     0.031 C 
ATOM     58  C   UNL A   1      41.159  26.453  27.748  1.00  0.00     0.029 A 
ATOM     59  C   UNL A   1      42.060  27.585  27.955  1.00  0.00     0.049 A 
ATOM     60  H   UNL A   1      44.051  27.735  27.361  1.00  0.00     0.167 HD
ATOM     61  C   UNL A   1      48.325  27.795  26.394  1.00  0.00     0.034 A 
ATOM     62  C   UNL A   1      41.741  28.746  28.561  1.00  0.00     0.034 A 
ATOM     63  C   UNL A   1      48.035  29.114  26.884  1.00  0.00     0.049 A 
ATOM     64  C   UNL A   1      42.785  29.828  28.680  1.00  0.00     0.074 A 
ATOM     65  C   UNL A   1      48.886  30.201  26.986  1.00  0.00     0.029 A 
ATOM     66  N   UNL A   1      46.801  29.525  27.363  1.00  0.00    -0.354 N 
ATOM     67  N   UNL A   1      44.026  29.832  28.256  1.00  0.00    -0.248 NA
ATOM     68  C   UNL A   1      42.374  31.081  29.332  1.00  0.00     0.031 C 
ATOM     69  C   UNL A   1      48.172  31.262  27.552  1.00  0.00     0.029 A 
ATOM     70  C   UNL A   1      46.870  30.844  27.777  1.00  0.00     0.049 A 
ATOM     71  H   UNL A   1      45.995  28.962  27.403  1.00  0.00     0.167 HD
ATOM     72  C   UNL A   1      44.530  31.093  28.553  1.00  0.00     0.074 A 
ATOM     73  C   UNL A   1      43.455  31.834  29.179  1.00  0.00     0.031 C 
ATOM     74  C   UNL A   1      45.775  31.590  28.342  1.00  0.00     0.034 A 
BRANCH  61  75
ATOM     75  C   UNL A   1      49.726  27.494  25.933  1.00  0.00     0.023 A 
ATOM     76  C   UNL A   1      50.698  27.094  26.874  1.00  0.00     0.012 A 
ATOM     77  C   UNL A   1      50.069  27.566  24.570  1.00  0.00     0.148 A 
ATOM     78  C   UNL A   1      51.998  26.801  26.467  1.00  0.00     0.002 A 
ATOM     79  C   UNL A   1      51.356  27.229  24.167  1.00  0.00     0.091 A 
ATOM     80  F   UNL A   1      49.138  27.973  23.696  1.00  0.00    -0.205 F 
ATOM     81  C   UNL A   1      52.324  26.858  25.115  1.00  0.00     0.022 A 
BRANCH  79  82
ATOM     82  S   UNL A   1      51.851  27.199  22.440  1.00  0.00     0.127 S 
ATOM     83  O   UNL A   1      52.262  28.586  22.227  1.00  0.00    -0.237 OA
ATOM     84  O   UNL A   1      52.950  26.232  22.452  1.00  0.00    -0.237 OA
ATOM     85  O   UNL A   1      50.676  26.772  21.694  1.00  0.00    -0.744 OA
ENDBRANCH  79  82
ENDBRANCH  61  75
BRANCH  62  86
ATOM     86  C   UNL A   1      40.358  28.965  29.072  1.00  0.00     0.023 A 
ATOM     87  C   UNL A   1      39.340  29.343  28.176  1.00  0.00     0.012 A 
ATOM     88  C   UNL A   1      40.047  28.793  30.434  1.00  0.00     0.148 A 
ATOM     89  C   UNL A   1      38.042  29.575  28.632  1.00  0.00     0.002 A 
ATOM     90  C   UNL A   1      38.740  28.973  30.873  1.00  0.00     0.091 A 
ATOM     91  F   UNL A   1      41.034  28.451  31.274  1.00  0.00    -0.205 F 
ATOM     92  C   UNL A   1      37.739  29.380  29.977  1.00  0.00     0.022 A 
BRANCH  90  93
ATOM     93  S   UNL A   1      38.234  28.632  32.563  1.00  0.00     0.127 S 
ATOM     94  O   UNL A   1      39.196  29.420  33.328  1.00  0.00    -0.237 OA
ATOM     95  O   UNL A   1      36.865  29.148  32.578  1.00  0.00    -0.237 OA
ATOM     96  O   UNL A   1      38.333  27.187  32.719  1.00  0.00    -0.744 OA
ENDBRANCH  90  93
ENDBRANCH  62  86
BRANCH  74  97
ATOM     97  C   UNL A   1      46.043  33.016  28.752  1.00  0.00     0.023 A 
ATOM     98  C   UNL A   1      46.670  33.285  29.984  1.00  0.00     0.012 A 
ATOM     99  C   UNL A   1      45.750  34.082  27.878  1.00  0.00     0.148 A 
ATOM    100  C   UNL A   1      46.972  34.595  30.355  1.00  0.00     0.002 A 
ATOM    101  C   UNL A   1      46.098  35.380  28.233  1.00  0.00     0.091 A 
ATOM    102  F   UNL A   1      45.138  33.809  26.716  1.00  0.00    -0.205 F 
ATOM    103  C   UNL A   1      46.698  35.640  29.475  1.00  0.00     0.022 A 
BRANCH 101 104
ATOM    104  S   UNL A   1      45.870  36.775  27.123  1.00  0.00     0.127 S 
ATOM    105  O   UNL A   1      44.416  36.801  26.972  1.00  0.00    -0.237 OA
ATOM    106  O   UNL A   1      46.421  37.885  27.900  1.00  0.00    -0.237 OA
ATOM    107  O   UNL A   1      46.619  36.454  25.916  1.00  0.00    -0.744 OA
ENDBRANCH 101 104
ENDBRANCH  74  97
ENDBRANCH  48  49
ENDBRANCH  41  43
ENDBRANCH  40  41
ENDBRANCH  39  40
ENDBRANCH  38  39
ENDBRANCH  37  38
ENDBRANCH  36  37
ENDBRANCH  35  36
ENDBRANCH   1  35
TORSDOF 26
ENDMDL
MODEL 3
REMARK VINA RESULT:      -9.1      4.131      7.109
REMARK SMILES CCOC(=O)c1cccc(Nc2c(-c3ccc(C(=O)OCCOCCOCCOC(=O)c4ccc(-c5c6nc(c(-c7cccc(S(=O)(=O)[O-])c7F)c7ccc([nH]7)c(-c7cccc(S(=O)(=O)[O-])c7F)c7nc(c(-c8cccc(S(=O)(=O)[O-])c8F)c8ccc5[nH]8)C=C7)C=C6)cc4)cc3)nc3cnccn23)c1
REMARK SMILES IDX 23 1 22 2 21 3 20 4 18 5 19 6 17 7 14 8 15 9 96 10 16 11
REMARK SMILES IDX 95 12 13 13 12 14 103 15 97 16 98 17 102 18 99 19 101 20
REMARK SMILES IDX 100 21 11 22 10 24 6 25 7 26 104 27 8 28 9 29 4 30 5 31 3 32
REMARK SMILES IDX 2 33 1 34 24 35 25 36 26 37 27 38 28 39 29 40 30 41 31 42
REMARK SMILES IDX 32 43 33 44 94 45 34 46 93 47 35 48 36 49 37 50 87 51 38 52
REMARK SMILES IDX 92 53 86 54 88 55 39 56 91 57 85 58 84 59 40 61 72 62 52 63
REMARK SMILES IDX 71 64 53 65 56 66 70 67 89 68 54 69 55 70 69 72 90 73 57 74
REMARK SMILES IDX 41 75 42 76 50 77 43 78 45 79 51 80 44 81 46 82 47 83 48 84
REMARK SMILES IDX 49 85 73 86 74 87 82 88 75 89 77 90 83 91 76 92 78 93 79 94
REMARK SMILES IDX 80 95 81 96 58 97 59 98 67 99 60 100 62 101 68 102 61 103
REMARK SMILES IDX 63 104 64 105 65 106 66 107
REMARK H PARENT 11 23 88 60 56 71
REMARK Flexibility Score: inf
ROOT
ATOM      1  O   UNL A   1      37.744  22.266  24.590  1.00  0.00    -0.376 OA
ENDROOT
BRANCH   1   2
ATOM      2  C   UNL A   1      36.769  23.279  24.744  1.00  0.00     0.202 C 
BRANCH   2   3
ATOM      3  C   UNL A   1      35.275  23.152  24.392  1.00  0.00     0.261 C 
BRANCH   3   4
ATOM      4  O   UNL A   1      34.592  24.318  23.930  1.00  0.00    -0.460 OA
BRANCH   4   5
ATOM      5  C   UNL A   1      33.987  25.064  24.887  1.00  0.00     0.338 C 
ATOM      6  O   UNL A   1      34.184  25.012  26.088  1.00  0.00    -0.246 OA
BRANCH   5   7
ATOM      7  C   UNL A   1      33.122  26.079  24.246  1.00  0.00     0.060 A 
ATOM      8  C   UNL A   1      31.522  28.110  23.172  1.00  0.00     0.004 A 
ATOM      9  C   UNL A   1      32.903  28.297  23.288  1.00  0.00     0.011 A 
ATOM     10  C   UNL A   1      30.955  26.881  23.545  1.00  0.00     0.011 A 
ATOM     11  C   UNL A   1      33.701  27.288  23.837  1.00  0.00     0.016 A 
ATOM     12  C   UNL A   1      31.753  25.860  24.068  1.00  0.00     0.016 A 
BRANCH   8  13
ATOM     13  C   UNL A   1      30.647  29.227  22.873  1.00  0.00     0.114 A 
ATOM     14  C   UNL A   1      30.286  30.285  23.704  1.00  0.00     0.143 A 
ATOM     15  N   UNL A   1      29.394  31.018  22.931  1.00  0.00    -0.283 N 
ATOM     16  N   UNL A   1      29.976  29.263  21.668  1.00  0.00    -0.225 NA
ATOM     17  C   UNL A   1      29.211  30.320  21.764  1.00  0.00     0.157 A 
ATOM     18  C   UNL A   1      28.731  32.226  23.100  1.00  0.00     0.115 A 
ATOM     19  C   UNL A   1      28.273  30.813  20.797  1.00  0.00     0.158 A 
ATOM     20  C   UNL A   1      27.884  32.637  22.138  1.00  0.00     0.129 A 
ATOM     21  N   UNL A   1      27.624  31.933  20.972  1.00  0.00    -0.259 NA
BRANCH  14  22
ATOM     22  N   UNL A   1      30.709  30.652  24.948  1.00  0.00    -0.339 N 
ATOM     23  H   UNL A   1      30.396  31.527  25.273  1.00  0.00     0.168 HD
BRANCH  22  24
ATOM     24  C   UNL A   1      31.548  29.921  25.827  1.00  0.00     0.040 A 
ATOM     25  C   UNL A   1      33.641  29.772  27.066  1.00  0.00     0.062 A 
ATOM     26  C   UNL A   1      33.297  28.504  27.537  1.00  0.00     0.016 A 
ATOM     27  C   UNL A   1      32.768  30.489  26.235  1.00  0.00     0.041 A 
ATOM     28  C   UNL A   1      32.070  27.953  27.181  1.00  0.00     0.003 A 
ATOM     29  C   UNL A   1      31.211  28.653  26.328  1.00  0.00     0.026 A 
BRANCH  25  30
ATOM     30  C   UNL A   1      34.993  30.275  27.363  1.00  0.00     0.338 C 
ATOM     31  O   UNL A   1      35.231  31.456  27.538  1.00  0.00    -0.246 OA
BRANCH  30  32
ATOM     32  O   UNL A   1      35.885  29.255  27.356  1.00  0.00    -0.462 OA
BRANCH  32  33
ATOM     33  C   UNL A   1      36.919  29.368  28.350  1.00  0.00     0.230 C 
ATOM     34  C   UNL A   1      38.283  29.581  27.713  1.00  0.00     0.049 C 
ENDBRANCH  32  33
ENDBRANCH  30  32
ENDBRANCH  25  30
ENDBRANCH  22  24
ENDBRANCH  14  22
ENDBRANCH   8  13
ENDBRANCH   5   7
ENDBRANCH   4   5
ENDBRANCH   3   4
ENDBRANCH   2   3
ENDBRANCH   1   2
BRANCH   1  35
ATOM     35  C   UNL A   1      38.360  21.671  25.706  1.00  0.00     0.188 C 
BRANCH  35  36
ATOM     36  C   UNL A   1      38.443  20.130  25.650  1.00  0.00     0.188 C 
BRANCH  36  37
ATOM     37  O   UNL A   1      39.700  19.473  25.550  1.00  0.00    -0.376 OA
BRANCH  37  38
ATOM     38  C   UNL A   1      40.713  19.757  26.504  1.00  0.00     0.202 C 
BRANCH  38  39
ATOM     39  C   UNL A   1      42.181  19.422  26.201  1.00  0.00     0.261 C 
BRANCH  39  40
ATOM     40  O   UNL A   1      42.710  20.002  25.001  1.00  0.00    -0.460 OA
BRANCH  40  41
ATOM     41  C   UNL A   1      44.041  20.275  25.031  1.00  0.00     0.338 C 
ATOM     42  O   UNL A   1      44.944  19.599  24.585  1.00  0.00    -0.246 OA
BRANCH  41  43
ATOM     43  C   UNL A   1      44.247  21.645  25.546  1.00  0.00     0.060 A 
ATOM     44  C   UNL A   1      44.033  22.718  24.670  1.00  0.00     0.016 A 
ATOM     45  C   UNL A   1      44.705  21.867  26.845  1.00  0.00     0.016 A 
ATOM     46  C   UNL A   1      44.299  24.022  25.084  1.00  0.00     0.010 A 
ATOM     47  C   UNL A   1      44.993  23.173  27.252  1.00  0.00     0.010 A 
ATOM     48  C   UNL A   1      44.818  24.251  26.364  1.00  0.00    -0.014 A 
BRANCH  48  49
ATOM     49  C   UNL A   1      45.334  25.594  26.715  1.00  0.00     0.031 A 
ATOM     50  C   UNL A   1      46.720  25.974  26.271  1.00  0.00     0.074 A 
ATOM     51  C   UNL A   1      44.590  26.458  27.427  1.00  0.00     0.049 A 
ATOM     52  N   UNL A   1      47.397  27.065  26.511  1.00  0.00    -0.248 NA
ATOM     53  C   UNL A   1      47.442  24.981  25.457  1.00  0.00     0.031 C 
ATOM     54  C   UNL A   1      43.234  26.208  27.912  1.00  0.00     0.029 A 
ATOM     55  N   UNL A   1      44.887  27.715  27.889  1.00  0.00    -0.354 N 
ATOM     56  C   UNL A   1      48.628  26.888  25.893  1.00  0.00     0.074 A 
ATOM     57  C   UNL A   1      48.616  25.573  25.289  1.00  0.00     0.031 C 
ATOM     58  C   UNL A   1      42.828  27.267  28.633  1.00  0.00     0.029 A 
ATOM     59  C   UNL A   1      43.902  28.258  28.678  1.00  0.00     0.049 A 
ATOM     60  H   UNL A   1      45.727  28.184  27.677  1.00  0.00     0.167 HD
ATOM     61  C   UNL A   1      49.672  27.746  25.821  1.00  0.00     0.034 A 
ATOM     62  C   UNL A   1      43.880  29.413  29.373  1.00  0.00     0.034 A 
ATOM     63  C   UNL A   1      49.677  29.060  26.402  1.00  0.00     0.049 A 
ATOM     64  C   UNL A   1      45.066  30.341  29.299  1.00  0.00     0.074 A 
ATOM     65  C   UNL A   1      50.674  30.019  26.352  1.00  0.00     0.029 A 
ATOM     66  N   UNL A   1      48.639  29.599  27.145  1.00  0.00    -0.354 N 
ATOM     67  N   UNL A   1      46.180  30.209  28.619  1.00  0.00    -0.248 NA
ATOM     68  C   UNL A   1      44.978  31.596  30.062  1.00  0.00     0.031 C 
ATOM     69  C   UNL A   1      50.247  31.129  27.090  1.00  0.00     0.029 A 
ATOM     70  C   UNL A   1      48.975  30.871  27.575  1.00  0.00     0.049 A 
ATOM     71  H   UNL A   1      47.789  29.144  27.339  1.00  0.00     0.167 HD
ATOM     72  C   UNL A   1      46.906  31.375  28.841  1.00  0.00     0.074 A 
ATOM     73  C   UNL A   1      46.097  32.210  29.704  1.00  0.00     0.031 C 
ATOM     74  C   UNL A   1      48.136  31.717  28.383  1.00  0.00     0.034 A 
BRANCH  61  75
ATOM     75  C   UNL A   1      50.892  27.295  25.062  1.00  0.00     0.023 A 
ATOM     76  C   UNL A   1      51.144  27.815  23.776  1.00  0.00     0.012 A 
ATOM     77  C   UNL A   1      51.807  26.393  25.637  1.00  0.00     0.148 A 
ATOM     78  C   UNL A   1      52.273  27.419  23.062  1.00  0.00     0.002 A 
ATOM     79  C   UNL A   1      52.952  26.037  24.936  1.00  0.00     0.091 A 
ATOM     80  F   UNL A   1      51.535  25.890  26.850  1.00  0.00    -0.205 F 
ATOM     81  C   UNL A   1      53.182  26.540  23.645  1.00  0.00     0.022 A 
BRANCH  79  82
ATOM     82  S   UNL A   1      54.220  24.970  25.632  1.00  0.00     0.127 S 
ATOM     83  O   UNL A   1      53.621  23.648  25.456  1.00  0.00    -0.237 OA
ATOM     84  O   UNL A   1      55.364  25.242  24.762  1.00  0.00    -0.237 OA
ATOM     85  O   UNL A   1      54.393  25.400  27.012  1.00  0.00    -0.744 OA
ENDBRANCH  79  82
ENDBRANCH  61  75
BRANCH  62  86
ATOM     86  C   UNL A   1      42.677  29.778  30.173  1.00  0.00     0.023 A 
ATOM     87  C   UNL A   1      41.691  30.606  29.605  1.00  0.00     0.012 A 
ATOM     88  C   UNL A   1      42.503  29.304  31.488  1.00  0.00     0.148 A 
ATOM     89  C   UNL A   1      40.566  30.981  30.341  1.00  0.00     0.002 A 
ATOM     90  C   UNL A   1      41.354  29.637  32.197  1.00  0.00     0.091 A 
ATOM     91  F   UNL A   1      43.462  28.532  32.018  1.00  0.00    -0.205 F 
ATOM     92  C   UNL A   1      40.392  30.488  31.632  1.00  0.00     0.022 A 
BRANCH  90  93
ATOM     93  S   UNL A   1      40.990  28.955  33.819  1.00  0.00     0.127 S 
ATOM     94  O   UNL A   1      41.545  29.976  34.703  1.00  0.00    -0.237 OA
ATOM     95  O   UNL A   1      39.528  28.889  33.796  1.00  0.00    -0.237 OA
ATOM     96  O   UNL A   1      41.650  27.657  33.857  1.00  0.00    -0.744 OA
ENDBRANCH  90  93
ENDBRANCH  62  86
BRANCH  74  97
ATOM     97  C   UNL A   1      48.679  33.070  28.770  1.00  0.00     0.023 A 
ATOM     98  C   UNL A   1      49.479  33.201  29.923  1.00  0.00     0.012 A 
ATOM     99  C   UNL A   1      48.468  34.192  27.945  1.00  0.00     0.148 A 
ATOM    100  C   UNL A   1      50.032  34.434  30.265  1.00  0.00     0.002 A 
ATOM    101  C   UNL A   1      49.062  35.407  28.266  1.00  0.00     0.091 A 
ATOM    102  F   UNL A   1      47.691  34.052  26.860  1.00  0.00    -0.205 F 
ATOM    103  C   UNL A   1      49.834  35.533  29.432  1.00  0.00     0.022 A 
BRANCH 101 104
ATOM    104  S   UNL A   1      48.941  36.849  27.201  1.00  0.00     0.127 S 
ATOM    105  O   UNL A   1      47.499  37.092  27.190  1.00  0.00    -0.237 OA
ATOM    106  O   UNL A   1      49.720  37.846  27.936  1.00  0.00    -0.237 OA
ATOM    107  O   UNL A   1      49.519  36.455  25.924  1.00  0.00    -0.744 OA
ENDBRANCH 101 104
ENDBRANCH  74  97
ENDBRANCH  48  49
ENDBRANCH  41  43
ENDBRANCH  40  41
ENDBRANCH  39  40
ENDBRANCH  38  39
ENDBRANCH  37  38
ENDBRANCH  36  37
ENDBRANCH  35  36
ENDBRANCH   1  35
TORSDOF 26
ENDMDL
