MODEL 1
REMARK VINA RESULT:      -9.3      0.000      0.000
REMARK SMILES O=C(OCCOCCOCCOC(=O)c1ccc2nc(C3CCCCC3)[nH]c2c1)c1ccc(-c2c3nc(c(-c4cccc(S(=O)(=O)[O-])c4F)c4ccc([nH]4)c(-c4cccc(S(=O)(=O)[O-])c4F)c4nc(c(-c5cccc(S(=O)(=O)[O-])c5F)c5ccc2[nH]5)C=C4)C=C3)cc1
REMARK SMILES IDX 7 1 6 2 5 3 4 4 3 5 2 6 1 7 30 8 31 9 92 10 32 11 91 12
REMARK SMILES IDX 33 13 34 14 35 15 85 16 36 17 90 18 84 19 86 20 37 21 89 22
REMARK SMILES IDX 83 23 82 24 38 26 70 27 50 28 69 29 51 30 54 31 68 32 87 33
REMARK SMILES IDX 52 34 53 35 67 37 88 38 55 39 39 40 40 41 48 42 41 43 43 44
REMARK SMILES IDX 49 45 42 46 44 47 45 48 46 49 47 50 71 51 72 52 80 53 73 54
REMARK SMILES IDX 75 55 81 56 74 57 76 58 77 59 78 60 79 61 56 62 57 63 65 64
REMARK SMILES IDX 58 65 60 66 66 67 59 68 61 69 62 70 63 71 64 72 8 73 9 74
REMARK SMILES IDX 10 75 11 76 12 77 13 78 14 79 15 80 16 81 29 82 17 83 28 84
REMARK SMILES IDX 18 85 27 86 19 87 20 88 21 90 22 91 26 92 23 93 25 94 24 95
REMARK H PARENT 86 25 54 36 27 89
REMARK Flexibility Score: inf
ROOT
ATOM      1  C   UNL A   1      46.429  22.874  24.285  1.00  0.00     0.188 C 
ENDROOT
BRANCH   1   2
ATOM      2  O   UNL A   1      45.255  23.328  23.601  1.00  0.00    -0.376 OA
BRANCH   2   3
ATOM      3  C   UNL A   1      44.156  23.624  24.465  1.00  0.00     0.202 C 
BRANCH   3   4
ATOM      4  C   UNL A   1      44.445  24.714  25.505  1.00  0.00     0.261 C 
BRANCH   4   5
ATOM      5  O   UNL A   1      44.157  26.027  25.001  1.00  0.00    -0.460 OA
BRANCH   5   6
ATOM      6  C   UNL A   1      43.188  26.883  25.417  1.00  0.00     0.338 C 
ATOM      7  O   UNL A   1      42.014  26.588  25.193  1.00  0.00    -0.246 OA
BRANCH   6   8
ATOM      8  C   UNL A   1      43.459  28.145  26.173  1.00  0.00     0.060 A 
ATOM      9  C   UNL A   1      44.548  28.360  27.021  1.00  0.00     0.016 A 
ATOM     10  C   UNL A   1      42.568  29.213  25.967  1.00  0.00     0.016 A 
ATOM     11  C   UNL A   1      44.675  29.536  27.752  1.00  0.00     0.010 A 
ATOM     12  C   UNL A   1      42.727  30.425  26.646  1.00  0.00     0.010 A 
ATOM     13  C   UNL A   1      43.757  30.570  27.583  1.00  0.00    -0.014 A 
BRANCH  13  14
ATOM     14  C   UNL A   1      43.836  31.747  28.471  1.00  0.00     0.031 A 
ATOM     15  C   UNL A   1      44.856  32.805  28.178  1.00  0.00     0.074 A 
ATOM     16  C   UNL A   1      42.955  31.895  29.474  1.00  0.00     0.049 A 
ATOM     17  N   UNL A   1      45.108  33.909  28.826  1.00  0.00    -0.248 NA
ATOM     18  C   UNL A   1      45.696  32.602  26.985  1.00  0.00     0.031 C 
ATOM     19  C   UNL A   1      41.882  30.953  29.795  1.00  0.00     0.029 A 
ATOM     20  N   UNL A   1      42.822  32.885  30.413  1.00  0.00    -0.354 N 
ATOM     21  C   UNL A   1      46.157  34.513  28.146  1.00  0.00     0.074 A 
ATOM     22  C   UNL A   1      46.497  33.656  27.033  1.00  0.00     0.031 C 
ATOM     23  C   UNL A   1      41.216  31.401  30.870  1.00  0.00     0.029 A 
ATOM     24  C   UNL A   1      41.841  32.627  31.341  1.00  0.00     0.049 A 
ATOM     25  H   UNL A   1      43.374  33.700  30.421  1.00  0.00     0.167 HD
ATOM     26  C   UNL A   1      46.772  35.685  28.422  1.00  0.00     0.034 A 
ATOM     27  C   UNL A   1      41.504  33.288  32.463  1.00  0.00     0.034 A 
ATOM     28  C   UNL A   1      46.410  36.532  29.523  1.00  0.00     0.049 A 
ATOM     29  C   UNL A   1      42.236  34.561  32.778  1.00  0.00     0.074 A 
ATOM     30  C   UNL A   1      46.963  37.741  29.900  1.00  0.00     0.029 A 
ATOM     31  N   UNL A   1      45.403  36.245  30.435  1.00  0.00    -0.354 N 
ATOM     32  N   UNL A   1      43.178  35.158  32.087  1.00  0.00    -0.248 NA
ATOM     33  C   UNL A   1      41.842  35.271  34.002  1.00  0.00     0.031 C 
ATOM     34  C   UNL A   1      46.301  38.175  31.055  1.00  0.00     0.029 A 
ATOM     35  C   UNL A   1      45.325  37.247  31.385  1.00  0.00     0.049 A 
ATOM     36  H   UNL A   1      44.828  35.447  30.409  1.00  0.00     0.167 HD
ATOM     37  C   UNL A   1      43.478  36.324  32.778  1.00  0.00     0.074 A 
ATOM     38  C   UNL A   1      42.599  36.359  33.932  1.00  0.00     0.031 C 
ATOM     39  C   UNL A   1      44.405  37.272  32.496  1.00  0.00     0.034 A 
BRANCH  26  40
ATOM     40  C   UNL A   1      47.899  36.091  27.514  1.00  0.00     0.023 A 
ATOM     41  C   UNL A   1      47.637  36.904  26.392  1.00  0.00     0.012 A 
ATOM     42  C   UNL A   1      49.210  35.637  27.751  1.00  0.00     0.148 A 
ATOM     43  C   UNL A   1      48.657  37.227  25.497  1.00  0.00     0.002 A 
ATOM     44  C   UNL A   1      50.228  35.992  26.873  1.00  0.00     0.091 A 
ATOM     45  F   UNL A   1      49.430  34.836  28.802  1.00  0.00    -0.205 F 
ATOM     46  C   UNL A   1      49.953  36.776  25.741  1.00  0.00     0.022 A 
BRANCH  44  47
ATOM     47  S   UNL A   1      51.933  35.490  27.129  1.00  0.00     0.127 S 
ATOM     48  O   UNL A   1      52.113  35.774  28.552  1.00  0.00    -0.237 OA
ATOM     49  O   UNL A   1      51.891  34.066  26.793  1.00  0.00    -0.237 OA
ATOM     50  O   UNL A   1      52.727  36.301  26.218  1.00  0.00    -0.744 OA
ENDBRANCH  44  47
ENDBRANCH  26  40
BRANCH  27  51
ATOM     51  C   UNL A   1      40.416  32.767  33.340  1.00  0.00     0.023 A 
ATOM     52  C   UNL A   1      40.704  31.754  34.274  1.00  0.00     0.012 A 
ATOM     53  C   UNL A   1      39.111  33.303  33.287  1.00  0.00     0.148 A 
ATOM     54  C   UNL A   1      39.710  31.267  35.125  1.00  0.00     0.002 A 
ATOM     55  C   UNL A   1      38.136  32.839  34.163  1.00  0.00     0.091 A 
ATOM     56  F   UNL A   1      38.861  34.278  32.404  1.00  0.00    -0.205 F 
ATOM     57  C   UNL A   1      38.430  31.812  35.073  1.00  0.00     0.022 A 
BRANCH  55  58
ATOM     58  S   UNL A   1      36.472  33.519  34.219  1.00  0.00     0.127 S 
ATOM     59  O   UNL A   1      35.774  32.702  33.225  1.00  0.00    -0.237 OA
ATOM     60  O   UNL A   1      36.094  33.241  35.604  1.00  0.00    -0.237 OA
ATOM     61  O   UNL A   1      36.604  34.921  33.850  1.00  0.00    -0.744 OA
ENDBRANCH  55  58
ENDBRANCH  27  51
BRANCH  39  62
ATOM     62  C   UNL A   1      44.507  38.437  33.438  1.00  0.00     0.023 A 
ATOM     63  C   UNL A   1      45.412  38.382  34.515  1.00  0.00     0.012 A 
ATOM     64  C   UNL A   1      43.780  39.618  33.196  1.00  0.00     0.148 A 
ATOM     65  C   UNL A   1      45.579  39.483  35.351  1.00  0.00     0.002 A 
ATOM     66  C   UNL A   1      43.987  40.728  34.006  1.00  0.00     0.091 A 
ATOM     67  F   UNL A   1      42.908  39.636  32.178  1.00  0.00    -0.205 F 
ATOM     68  C   UNL A   1      44.879  40.659  35.088  1.00  0.00     0.022 A 
BRANCH  66  69
ATOM     69  S   UNL A   1      43.203  42.310  33.676  1.00  0.00     0.127 S 
ATOM     70  O   UNL A   1      41.798  42.007  33.939  1.00  0.00    -0.237 OA
ATOM     71  O   UNL A   1      43.837  43.183  34.665  1.00  0.00    -0.237 OA
ATOM     72  O   UNL A   1      43.527  42.635  32.293  1.00  0.00    -0.744 OA
ENDBRANCH  66  69
ENDBRANCH  39  62
ENDBRANCH  13  14
ENDBRANCH   6   8
ENDBRANCH   5   6
ENDBRANCH   4   5
ENDBRANCH   3   4
ENDBRANCH   2   3
ENDBRANCH   1   2
BRANCH   1  73
ATOM     73  C   UNL A   1      46.143  21.603  25.090  1.00  0.00     0.188 C 
BRANCH  73  74
ATOM     74  O   UNL A   1      46.347  20.377  24.384  1.00  0.00    -0.376 OA
BRANCH  74  75
ATOM     75  C   UNL A   1      46.524  19.205  25.172  1.00  0.00     0.202 C 
BRANCH  75  76
ATOM     76  C   UNL A   1      45.262  18.453  25.615  1.00  0.00     0.261 C 
BRANCH  76  77
ATOM     77  O   UNL A   1      44.026  18.916  25.047  1.00  0.00    -0.460 OA
BRANCH  77  78
ATOM     78  C   UNL A   1      42.935  18.642  25.804  1.00  0.00     0.338 C 
ATOM     79  O   UNL A   1      42.588  17.544  26.220  1.00  0.00    -0.246 OA
BRANCH  78  80
ATOM     80  C   UNL A   1      42.110  19.845  26.002  1.00  0.00     0.062 A 
ATOM     81  C   UNL A   1      40.724  19.658  25.955  1.00  0.00     0.018 A 
ATOM     82  C   UNL A   1      42.690  21.066  26.400  1.00  0.00     0.044 A 
ATOM     83  C   UNL A   1      39.862  20.688  26.333  1.00  0.00     0.031 A 
ATOM     84  C   UNL A   1      41.793  22.075  26.786  1.00  0.00     0.066 A 
ATOM     85  C   UNL A   1      40.413  21.901  26.761  1.00  0.00     0.089 A 
ATOM     86  N   UNL A   1      41.953  23.349  27.289  1.00  0.00    -0.342 N 
ATOM     87  N   UNL A   1      39.776  23.012  27.214  1.00  0.00    -0.233 NA
ATOM     88  C   UNL A   1      40.708  23.859  27.579  1.00  0.00     0.110 A 
ATOM     89  H   UNL A   1      42.812  23.815  27.418  1.00  0.00     0.168 HD
BRANCH  88  90
ATOM     90  C   UNL A   1      40.426  25.154  28.280  1.00  0.00     0.055 C 
ATOM     91  C   UNL A   1      41.717  25.924  28.589  1.00  0.00     0.011 C 
ATOM     92  C   UNL A   1      39.419  26.039  27.540  1.00  0.00     0.011 C 
ATOM     93  C   UNL A   1      41.423  27.193  29.389  1.00  0.00     0.001 C 
ATOM     94  C   UNL A   1      39.122  27.308  28.344  1.00  0.00     0.001 C 
ATOM     95  C   UNL A   1      40.396  28.078  28.689  1.00  0.00     0.000 C 
ENDBRANCH  88  90
ENDBRANCH  78  80
ENDBRANCH  77  78
ENDBRANCH  76  77
ENDBRANCH  75  76
ENDBRANCH  74  75
ENDBRANCH  73  74
ENDBRANCH   1  73
TORSDOF 21
ENDMDL
MODEL 2
REMARK VINA RESULT:      -9.3      1.855      2.591
REMARK SMILES O=C(OCCOCCOCCOC(=O)c1ccc2nc(C3CCCCC3)[nH]c2c1)c1ccc(-c2c3nc(c(-c4cccc(S(=O)(=O)[O-])c4F)c4ccc([nH]4)c(-c4cccc(S(=O)(=O)[O-])c4F)c4nc(c(-c5cccc(S(=O)(=O)[O-])c5F)c5ccc2[nH]5)C=C4)C=C3)cc1
REMARK SMILES IDX 7 1 6 2 5 3 4 4 3 5 2 6 1 7 30 8 31 9 92 10 32 11 91 12
REMARK SMILES IDX 33 13 34 14 35 15 85 16 36 17 90 18 84 19 86 20 37 21 89 22
REMARK SMILES IDX 83 23 82 24 38 26 70 27 50 28 69 29 51 30 54 31 68 32 87 33
REMARK SMILES IDX 52 34 53 35 67 37 88 38 55 39 39 40 40 41 48 42 41 43 43 44
REMARK SMILES IDX 49 45 42 46 44 47 45 48 46 49 47 50 71 51 72 52 80 53 73 54
REMARK SMILES IDX 75 55 81 56 74 57 76 58 77 59 78 60 79 61 56 62 57 63 65 64
REMARK SMILES IDX 58 65 60 66 66 67 59 68 61 69 62 70 63 71 64 72 8 73 9 74
REMARK SMILES IDX 10 75 11 76 12 77 13 78 14 79 15 80 16 81 29 82 17 83 28 84
REMARK SMILES IDX 18 85 27 86 19 87 20 88 21 90 22 91 26 92 23 93 25 94 24 95
REMARK H PARENT 86 25 54 36 27 89
REMARK Flexibility Score: inf
ROOT
ATOM      1  C   UNL A   1      46.190  22.972  24.283  1.00  0.00     0.188 C 
ENDROOT
BRANCH   1   2
ATOM      2  O   UNL A   1      44.966  23.235  23.588  1.00  0.00    -0.376 OA
BRANCH   2   3
ATOM      3  C   UNL A   1      43.797  23.119  24.402  1.00  0.00     0.202 C 
BRANCH   3   4
ATOM      4  C   UNL A   1      43.716  24.144  25.540  1.00  0.00     0.261 C 
BRANCH   4   5
ATOM      5  O   UNL A   1      43.478  25.472  25.049  1.00  0.00    -0.460 OA
BRANCH   5   6
ATOM      6  C   UNL A   1      42.559  26.369  25.491  1.00  0.00     0.338 C 
ATOM      7  O   UNL A   1      41.379  26.191  25.191  1.00  0.00    -0.246 OA
BRANCH   6   8
ATOM      8  C   UNL A   1      42.890  27.541  26.361  1.00  0.00     0.060 A 
ATOM      9  C   UNL A   1      43.580  27.478  27.574  1.00  0.00     0.016 A 
ATOM     10  C   UNL A   1      42.517  28.811  25.885  1.00  0.00     0.016 A 
ATOM     11  C   UNL A   1      43.768  28.609  28.360  1.00  0.00     0.010 A 
ATOM     12  C   UNL A   1      42.764  29.964  26.638  1.00  0.00     0.010 A 
ATOM     13  C   UNL A   1      43.347  29.857  27.906  1.00  0.00    -0.014 A 
BRANCH  13  14
ATOM     14  C   UNL A   1      43.434  31.015  28.817  1.00  0.00     0.031 A 
ATOM     15  C   UNL A   1      44.662  31.873  28.781  1.00  0.00     0.074 A 
ATOM     16  C   UNL A   1      42.393  31.331  29.607  1.00  0.00     0.049 A 
ATOM     17  N   UNL A   1      44.954  32.925  29.495  1.00  0.00    -0.248 NA
ATOM     18  C   UNL A   1      45.695  31.506  27.796  1.00  0.00     0.031 C 
ATOM     19  C   UNL A   1      41.129  30.596  29.662  1.00  0.00     0.029 A 
ATOM     20  N   UNL A   1      42.233  32.342  30.517  1.00  0.00    -0.354 N 
ATOM     21  C   UNL A   1      46.216  33.324  29.076  1.00  0.00     0.074 A 
ATOM     22  C   UNL A   1      46.637  32.404  28.043  1.00  0.00     0.031 C 
ATOM     23  C   UNL A   1      40.332  31.171  30.576  1.00  0.00     0.029 A 
ATOM     24  C   UNL A   1      41.042  32.275  31.201  1.00  0.00     0.049 A 
ATOM     25  H   UNL A   1      42.904  33.048  30.666  1.00  0.00     0.167 HD
ATOM     26  C   UNL A   1      46.951  34.374  29.508  1.00  0.00     0.034 A 
ATOM     27  C   UNL A   1      40.588  33.002  32.239  1.00  0.00     0.034 A 
ATOM     28  C   UNL A   1      46.510  35.288  30.524  1.00  0.00     0.049 A 
ATOM     29  C   UNL A   1      41.444  34.131  32.737  1.00  0.00     0.074 A 
ATOM     30  C   UNL A   1      47.169  36.386  31.042  1.00  0.00     0.029 A 
ATOM     31  N   UNL A   1      45.293  35.196  31.186  1.00  0.00    -0.354 N 
ATOM     32  N   UNL A   1      42.604  34.543  32.284  1.00  0.00    -0.248 NA
ATOM     33  C   UNL A   1      40.921  34.917  33.862  1.00  0.00     0.031 C 
ATOM     34  C   UNL A   1      46.356  36.947  32.034  1.00  0.00     0.029 A 
ATOM     35  C   UNL A   1      45.184  36.210  32.119  1.00  0.00     0.049 A 
ATOM     36  H   UNL A   1      44.607  34.511  31.015  1.00  0.00     0.167 HD
ATOM     37  C   UNL A   1      42.944  35.647  33.052  1.00  0.00     0.074 A 
ATOM     38  C   UNL A   1      41.854  35.854  33.986  1.00  0.00     0.031 C 
ATOM     39  C   UNL A   1      44.062  36.413  33.002  1.00  0.00     0.034 A 
BRANCH  26  40
ATOM     40  C   UNL A   1      48.303  34.561  28.878  1.00  0.00     0.023 A 
ATOM     41  C   UNL A   1      49.439  33.970  29.469  1.00  0.00     0.012 A 
ATOM     42  C   UNL A   1      48.454  35.352  27.725  1.00  0.00     0.148 A 
ATOM     43  C   UNL A   1      50.711  34.197  28.942  1.00  0.00     0.002 A 
ATOM     44  C   UNL A   1      49.721  35.545  27.185  1.00  0.00     0.091 A 
ATOM     45  F   UNL A   1      47.366  35.934  27.200  1.00  0.00    -0.205 F 
ATOM     46  C   UNL A   1      50.850  34.979  27.798  1.00  0.00     0.022 A 
BRANCH  44  47
ATOM     47  S   UNL A   1      49.990  36.504  25.692  1.00  0.00     0.127 S 
ATOM     48  O   UNL A   1      49.371  37.781  26.044  1.00  0.00    -0.237 OA
ATOM     49  O   UNL A   1      51.451  36.539  25.605  1.00  0.00    -0.237 OA
ATOM     50  O   UNL A   1      49.341  35.762  24.620  1.00  0.00    -0.744 OA
ENDBRANCH  44  47
ENDBRANCH  26  40
BRANCH  27  51
ATOM     51  C   UNL A   1      39.260  32.694  32.843  1.00  0.00     0.023 A 
ATOM     52  C   UNL A   1      39.154  31.663  33.796  1.00  0.00     0.012 A 
ATOM     53  C   UNL A   1      38.112  33.447  32.515  1.00  0.00     0.148 A 
ATOM     54  C   UNL A   1      37.928  31.372  34.397  1.00  0.00     0.002 A 
ATOM     55  C   UNL A   1      36.902  33.175  33.145  1.00  0.00     0.091 A 
ATOM     56  F   UNL A   1      38.235  34.434  31.619  1.00  0.00    -0.205 F 
ATOM     57  C   UNL A   1      36.806  32.130  34.076  1.00  0.00     0.022 A 
BRANCH  55  58
ATOM     58  S   UNL A   1      35.411  34.134  32.848  1.00  0.00     0.127 S 
ATOM     59  O   UNL A   1      35.790  35.454  33.354  1.00  0.00    -0.237 OA
ATOM     60  O   UNL A   1      35.300  34.053  31.392  1.00  0.00    -0.237 OA
ATOM     61  O   UNL A   1      34.360  33.483  33.617  1.00  0.00    -0.744 OA
ENDBRANCH  55  58
ENDBRANCH  27  51
BRANCH  39  62
ATOM     62  C   UNL A   1      44.156  37.556  33.972  1.00  0.00     0.023 A 
ATOM     63  C   UNL A   1      44.810  37.368  35.205  1.00  0.00     0.012 A 
ATOM     64  C   UNL A   1      43.686  38.835  33.618  1.00  0.00     0.148 A 
ATOM     65  C   UNL A   1      44.979  38.437  36.082  1.00  0.00     0.002 A 
ATOM     66  C   UNL A   1      43.900  39.905  34.477  1.00  0.00     0.091 A 
ATOM     67  F   UNL A   1      43.047  38.981  32.449  1.00  0.00    -0.205 F 
ATOM     68  C   UNL A   1      44.538  39.706  35.713  1.00  0.00     0.022 A 
BRANCH  66  69
ATOM     69  S   UNL A   1      43.455  41.588  34.035  1.00  0.00     0.127 S 
ATOM     70  O   UNL A   1      42.010  41.476  33.850  1.00  0.00    -0.237 OA
ATOM     71  O   UNL A   1      43.863  42.340  35.223  1.00  0.00    -0.237 OA
ATOM     72  O   UNL A   1      44.219  41.901  32.835  1.00  0.00    -0.744 OA
ENDBRANCH  66  69
ENDBRANCH  39  62
ENDBRANCH  13  14
ENDBRANCH   6   8
ENDBRANCH   5   6
ENDBRANCH   4   5
ENDBRANCH   3   4
ENDBRANCH   2   3
ENDBRANCH   1   2
BRANCH   1  73
ATOM     73  C   UNL A   1      46.070  21.727  25.165  1.00  0.00     0.188 C 
BRANCH  73  74
ATOM     74  O   UNL A   1      46.335  20.486  24.506  1.00  0.00    -0.376 OA
BRANCH  74  75
ATOM     75  C   UNL A   1      46.445  19.331  25.332  1.00  0.00     0.202 C 
BRANCH  75  76
ATOM     76  C   UNL A   1      45.199  18.448  25.483  1.00  0.00     0.261 C 
BRANCH  76  77
ATOM     77  O   UNL A   1      43.936  19.126  25.389  1.00  0.00    -0.460 OA
BRANCH  77  78
ATOM     78  C   UNL A   1      42.967  18.596  26.176  1.00  0.00     0.338 C 
ATOM     79  O   UNL A   1      42.930  17.459  26.628  1.00  0.00    -0.246 OA
BRANCH  78  80
ATOM     80  C   UNL A   1      41.854  19.542  26.357  1.00  0.00     0.062 A 
ATOM     81  C   UNL A   1      42.169  20.756  26.976  1.00  0.00     0.018 A 
ATOM     82  C   UNL A   1      40.596  19.303  25.768  1.00  0.00     0.044 A 
ATOM     83  C   UNL A   1      41.237  21.793  27.006  1.00  0.00     0.031 A 
ATOM     84  C   UNL A   1      39.687  20.372  25.806  1.00  0.00     0.066 A 
ATOM     85  C   UNL A   1      39.989  21.592  26.403  1.00  0.00     0.089 A 
ATOM     86  N   UNL A   1      38.418  20.562  25.299  1.00  0.00    -0.342 N 
ATOM     87  N   UNL A   1      38.957  22.466  26.272  1.00  0.00    -0.233 NA
ATOM     88  C   UNL A   1      38.036  21.859  25.563  1.00  0.00     0.110 A 
ATOM     89  H   UNL A   1      37.878  19.885  24.829  1.00  0.00     0.168 HD
BRANCH  88  90
ATOM     90  C   UNL A   1      36.795  22.532  25.061  1.00  0.00     0.055 C 
ATOM     91  C   UNL A   1      35.628  21.544  24.930  1.00  0.00     0.011 C 
ATOM     92  C   UNL A   1      36.391  23.756  25.888  1.00  0.00     0.011 C 
ATOM     93  C   UNL A   1      34.398  22.222  24.325  1.00  0.00     0.001 C 
ATOM     94  C   UNL A   1      35.162  24.437  25.280  1.00  0.00     0.001 C 
ATOM     95  C   UNL A   1      33.995  23.466  25.112  1.00  0.00     0.000 C 
ENDBRANCH  88  90
ENDBRANCH  78  80
ENDBRANCH  77  78
ENDBRANCH  76  77
ENDBRANCH  75  76
ENDBRANCH  74  75
ENDBRANCH  73  74
ENDBRANCH   1  73
TORSDOF 21
ENDMDL
MODEL 3
REMARK VINA RESULT:      -9.2      6.470      9.796
REMARK SMILES O=C(OCCOCCOCCOC(=O)c1ccc2nc(C3CCCCC3)[nH]c2c1)c1ccc(-c2c3nc(c(-c4cccc(S(=O)(=O)[O-])c4F)c4ccc([nH]4)c(-c4cccc(S(=O)(=O)[O-])c4F)c4nc(c(-c5cccc(S(=O)(=O)[O-])c5F)c5ccc2[nH]5)C=C4)C=C3)cc1
REMARK SMILES IDX 7 1 6 2 5 3 4 4 3 5 2 6 1 7 30 8 31 9 92 10 32 11 91 12
REMARK SMILES IDX 33 13 34 14 35 15 85 16 36 17 90 18 84 19 86 20 37 21 89 22
REMARK SMILES IDX 83 23 82 24 38 26 70 27 50 28 69 29 51 30 54 31 68 32 87 33
REMARK SMILES IDX 52 34 53 35 67 37 88 38 55 39 39 40 40 41 48 42 41 43 43 44
REMARK SMILES IDX 49 45 42 46 44 47 45 48 46 49 47 50 71 51 72 52 80 53 73 54
REMARK SMILES IDX 75 55 81 56 74 57 76 58 77 59 78 60 79 61 56 62 57 63 65 64
REMARK SMILES IDX 58 65 60 66 66 67 59 68 61 69 62 70 63 71 64 72 8 73 9 74
REMARK SMILES IDX 10 75 11 76 12 77 13 78 14 79 15 80 16 81 29 82 17 83 28 84
REMARK SMILES IDX 18 85 27 86 19 87 20 88 21 90 22 91 26 92 23 93 25 94 24 95
REMARK H PARENT 86 25 54 36 27 89
REMARK Flexibility Score: inf
ROOT
ATOM      1  C   UNL A   1      42.048  21.406  25.869  1.00  0.00     0.188 C 
ENDROOT
BRANCH   1   2
ATOM      2  O   UNL A   1      43.374  21.945  25.920  1.00  0.00    -0.376 OA
BRANCH   2   3
ATOM      3  C   UNL A   1      44.068  21.901  24.671  1.00  0.00     0.202 C 
BRANCH   3   4
ATOM      4  C   UNL A   1      44.835  23.185  24.329  1.00  0.00     0.261 C 
BRANCH   4   5
ATOM      5  O   UNL A   1      44.993  24.036  25.475  1.00  0.00    -0.460 OA
BRANCH   5   6
ATOM      6  C   UNL A   1      44.964  25.393  25.512  1.00  0.00     0.338 C 
ATOM      7  O   UNL A   1      45.549  26.013  24.624  1.00  0.00    -0.246 OA
BRANCH   6   8
ATOM      8  C   UNL A   1      44.224  26.183  26.545  1.00  0.00     0.060 A 
ATOM      9  C   UNL A   1      44.337  27.562  26.741  1.00  0.00     0.016 A 
ATOM     10  C   UNL A   1      43.304  25.481  27.343  1.00  0.00     0.016 A 
ATOM     11  C   UNL A   1      43.675  28.201  27.783  1.00  0.00     0.010 A 
ATOM     12  C   UNL A   1      42.581  26.129  28.350  1.00  0.00     0.010 A 
ATOM     13  C   UNL A   1      42.806  27.487  28.605  1.00  0.00    -0.014 A 
BRANCH  13  14
ATOM     14  C   UNL A   1      42.226  28.158  29.785  1.00  0.00     0.031 A 
ATOM     15  C   UNL A   1      40.949  28.927  29.624  1.00  0.00     0.074 A 
ATOM     16  C   UNL A   1      42.798  28.014  30.992  1.00  0.00     0.049 A 
ATOM     17  N   UNL A   1      40.274  29.599  30.516  1.00  0.00    -0.248 NA
ATOM     18  C   UNL A   1      40.342  28.927  28.282  1.00  0.00     0.031 C 
ATOM     19  C   UNL A   1      44.004  27.228  31.261  1.00  0.00     0.029 A 
ATOM     20  N   UNL A   1      42.452  28.523  32.216  1.00  0.00    -0.354 N 
ATOM     21  C   UNL A   1      39.186  30.132  29.839  1.00  0.00     0.074 A 
ATOM     22  C   UNL A   1      39.286  29.706  28.461  1.00  0.00     0.031 C 
ATOM     23  C   UNL A   1      44.307  27.328  32.564  1.00  0.00     0.029 A 
ATOM     24  C   UNL A   1      43.353  28.217  33.208  1.00  0.00     0.049 A 
ATOM     25  H   UNL A   1      41.637  29.055  32.370  1.00  0.00     0.167 HD
ATOM     26  C   UNL A   1      38.185  30.898  30.329  1.00  0.00     0.034 A 
ATOM     27  C   UNL A   1      43.421  28.633  34.486  1.00  0.00     0.034 A 
ATOM     28  C   UNL A   1      38.092  31.299  31.705  1.00  0.00     0.049 A 
ATOM     29  C   UNL A   1      42.326  29.526  34.996  1.00  0.00     0.074 A 
ATOM     30  C   UNL A   1      37.125  32.074  32.315  1.00  0.00     0.029 A 
ATOM     31  N   UNL A   1      39.017  30.959  32.684  1.00  0.00    -0.354 N 
ATOM     32  N   UNL A   1      41.264  29.964  34.364  1.00  0.00    -0.248 NA
ATOM     33  C   UNL A   1      42.416  29.957  36.397  1.00  0.00     0.031 C 
ATOM     34  C   UNL A   1      37.478  32.221  33.662  1.00  0.00     0.029 A 
ATOM     35  C   UNL A   1      38.652  31.521  33.893  1.00  0.00     0.049 A 
ATOM     36  H   UNL A   1      39.813  30.400  32.539  1.00  0.00     0.167 HD
ATOM     37  C   UNL A   1      40.546  30.705  35.291  1.00  0.00     0.074 A 
ATOM     38  C   UNL A   1      41.285  30.638  36.538  1.00  0.00     0.031 C 
ATOM     39  C   UNL A   1      39.389  31.394  35.127  1.00  0.00     0.034 A 
BRANCH  26  40
ATOM     40  C   UNL A   1      37.134  31.349  29.353  1.00  0.00     0.023 A 
ATOM     41  C   UNL A   1      37.068  32.705  28.971  1.00  0.00     0.012 A 
ATOM     42  C   UNL A   1      36.190  30.438  28.845  1.00  0.00     0.148 A 
ATOM     43  C   UNL A   1      36.053  33.154  28.126  1.00  0.00     0.002 A 
ATOM     44  C   UNL A   1      35.201  30.887  27.976  1.00  0.00     0.091 A 
ATOM     45  F   UNL A   1      36.249  29.162  29.250  1.00  0.00    -0.205 F 
ATOM     46  C   UNL A   1      35.124  32.245  27.625  1.00  0.00     0.022 A 
BRANCH  44  47
ATOM     47  S   UNL A   1      33.988  29.781  27.251  1.00  0.00     0.127 S 
ATOM     48  O   UNL A   1      33.023  30.726  26.692  1.00  0.00    -0.237 OA
ATOM     49  O   UNL A   1      34.781  29.059  26.256  1.00  0.00    -0.237 OA
ATOM     50  O   UNL A   1      33.499  28.954  28.346  1.00  0.00    -0.744 OA
ENDBRANCH  44  47
ENDBRANCH  26  40
BRANCH  27  51
ATOM     51  C   UNL A   1      44.544  28.186  35.360  1.00  0.00     0.023 A 
ATOM     52  C   UNL A   1      44.446  26.958  36.042  1.00  0.00     0.012 A 
ATOM     53  C   UNL A   1      45.727  28.947  35.480  1.00  0.00     0.148 A 
ATOM     54  C   UNL A   1      45.493  26.504  36.845  1.00  0.00     0.002 A 
ATOM     55  C   UNL A   1      46.781  28.470  36.252  1.00  0.00     0.091 A 
ATOM     56  F   UNL A   1      45.809  30.103  34.811  1.00  0.00    -0.205 F 
ATOM     57  C   UNL A   1      46.661  27.256  36.946  1.00  0.00     0.022 A 
BRANCH  55  58
ATOM     58  S   UNL A   1      48.352  29.333  36.397  1.00  0.00     0.127 S 
ATOM     59  O   UNL A   1      49.108  28.445  37.281  1.00  0.00    -0.237 OA
ATOM     60  O   UNL A   1      48.808  29.337  35.008  1.00  0.00    -0.237 OA
ATOM     61  O   UNL A   1      48.040  30.629  36.983  1.00  0.00    -0.744 OA
ENDBRANCH  55  58
ENDBRANCH  27  51
BRANCH  39  62
ATOM     62  C   UNL A   1      38.841  32.114  36.326  1.00  0.00     0.023 A 
ATOM     63  C   UNL A   1      39.087  33.491  36.481  1.00  0.00     0.012 A 
ATOM     64  C   UNL A   1      38.002  31.447  37.239  1.00  0.00     0.148 A 
ATOM     65  C   UNL A   1      38.519  34.193  37.542  1.00  0.00     0.002 A 
ATOM     66  C   UNL A   1      37.402  32.163  38.266  1.00  0.00     0.091 A 
ATOM     67  F   UNL A   1      37.802  30.131  37.081  1.00  0.00    -0.205 F 
ATOM     68  C   UNL A   1      37.666  33.533  38.425  1.00  0.00     0.022 A 
BRANCH  66  69
ATOM     69  S   UNL A   1      36.213  31.413  39.384  1.00  0.00     0.127 S 
ATOM     70  O   UNL A   1      36.912  31.497  40.664  1.00  0.00    -0.237 OA
ATOM     71  O   UNL A   1      35.061  32.307  39.258  1.00  0.00    -0.237 OA
ATOM     72  O   UNL A   1      35.985  30.066  38.880  1.00  0.00    -0.744 OA
ENDBRANCH  66  69
ENDBRANCH  39  62
ENDBRANCH  13  14
ENDBRANCH   6   8
ENDBRANCH   5   6
ENDBRANCH   4   5
ENDBRANCH   3   4
ENDBRANCH   2   3
ENDBRANCH   1   2
BRANCH   1  73
ATOM     73  C   UNL A   1      41.449  21.276  27.271  1.00  0.00     0.188 C 
BRANCH  73  74
ATOM     74  O   UNL A   1      40.045  21.535  27.361  1.00  0.00    -0.376 OA
BRANCH  74  75
ATOM     75  C   UNL A   1      39.478  22.351  26.341  1.00  0.00     0.202 C 
BRANCH  75  76
ATOM     76  C   UNL A   1      38.187  21.855  25.674  1.00  0.00     0.261 C 
BRANCH  76  77
ATOM     77  O   UNL A   1      36.994  22.585  26.002  1.00  0.00    -0.460 OA
BRANCH  77  78
ATOM     78  C   UNL A   1      35.865  22.067  25.458  1.00  0.00     0.338 C 
ATOM     79  O   UNL A   1      35.483  20.905  25.529  1.00  0.00    -0.246 OA
BRANCH  78  80
ATOM     80  C   UNL A   1      35.160  23.069  24.643  1.00  0.00     0.062 A 
ATOM     81  C   UNL A   1      34.404  22.576  23.574  1.00  0.00     0.018 A 
ATOM     82  C   UNL A   1      35.105  24.420  25.042  1.00  0.00     0.044 A 
ATOM     83  C   UNL A   1      33.540  23.419  22.876  1.00  0.00     0.031 A 
ATOM     84  C   UNL A   1      34.216  25.236  24.325  1.00  0.00     0.066 A 
ATOM     85  C   UNL A   1      33.445  24.759  23.269  1.00  0.00     0.089 A 
ATOM     86  N   UNL A   1      33.829  26.555  24.441  1.00  0.00    -0.342 N 
ATOM     87  N   UNL A   1      32.645  25.738  22.770  1.00  0.00    -0.233 NA
ATOM     88  C   UNL A   1      32.843  26.801  23.512  1.00  0.00     0.110 A 
ATOM     89  H   UNL A   1      34.197  27.210  25.079  1.00  0.00     0.168 HD
BRANCH  88  90
ATOM     90  C   UNL A   1      32.038  28.059  23.392  1.00  0.00     0.055 C 
ATOM     91  C   UNL A   1      30.982  27.953  22.282  1.00  0.00     0.011 C 
ATOM     92  C   UNL A   1      31.404  28.505  24.713  1.00  0.00     0.011 C 
ATOM     93  C   UNL A   1      30.235  29.275  22.104  1.00  0.00     0.001 C 
ATOM     94  C   UNL A   1      30.660  29.830  24.536  1.00  0.00     0.001 C 
ATOM     95  C   UNL A   1      29.623  29.759  23.417  1.00  0.00     0.000 C 
ENDBRANCH  88  90
ENDBRANCH  78  80
ENDBRANCH  77  78
ENDBRANCH  76  77
ENDBRANCH  75  76
ENDBRANCH  74  75
ENDBRANCH  73  74
ENDBRANCH   1  73
TORSDOF 21
ENDMDL
