MODEL 1
REMARK VINA RESULT:      -9.7      0.000      0.000
REMARK SMILES C[C@@H](NC1=[NH+]CCC1)C(=O)OCCOCCOCCOC(=O)c1ccc(-c2c3nc(c(-c4cccc(S(=O)(=O)[O-])c4F)c4ccc([nH]4)c(-c4cccc(S(=O)(=O)[O-])c4F)c4nc(c(-c5cccc(S(=O)(=O)[O-])c5F)c5ccc2[nH]5)C=C4)C=C3)cc1
REMARK SMILES IDX 16 1 15 2 14 3 13 4 12 5 11 6 9 7 10 8 2 9 1 10 3 11 4 12
REMARK SMILES IDX 5 14 8 15 6 16 7 18 17 19 18 20 19 21 20 22 21 23 22 24
REMARK SMILES IDX 23 25 24 26 85 27 25 28 84 29 26 30 27 31 28 32 78 33 29 34
REMARK SMILES IDX 83 35 77 36 79 37 30 38 82 39 76 40 75 41 31 43 63 44 43 45
REMARK SMILES IDX 62 46 44 47 47 48 61 49 80 50 45 51 46 52 60 54 81 55 48 56
REMARK SMILES IDX 32 57 33 58 41 59 34 60 36 61 42 62 35 63 37 64 38 65 39 66
REMARK SMILES IDX 40 67 64 68 65 69 73 70 66 71 68 72 74 73 67 74 69 75 70 76
REMARK SMILES IDX 71 77 72 78 49 79 50 80 58 81 51 82 53 83 59 84 52 85 54 86
REMARK SMILES IDX 55 87 56 88 57 89
REMARK H PARENT 3 13 5 17 79 42 47 53
REMARK Flexibility Score: inf
ROOT
ATOM      1  C   UNL A   1      33.987  21.774  23.847  1.00  0.00     0.188 C 
ENDROOT
BRANCH   1   2
ATOM      2  C   UNL A   1      32.474  21.560  23.700  1.00  0.00     0.188 C 
BRANCH   2   3
ATOM      3  O   UNL A   1      31.603  22.437  24.377  1.00  0.00    -0.376 OA
BRANCH   3   4
ATOM      4  C   UNL A   1      31.470  22.350  25.783  1.00  0.00     0.202 C 
BRANCH   4   5
ATOM      5  C   UNL A   1      32.050  23.406  26.728  1.00  0.00     0.261 C 
BRANCH   5   6
ATOM      6  O   UNL A   1      32.777  24.500  26.136  1.00  0.00    -0.460 OA
BRANCH   6   7
ATOM      7  C   UNL A   1      32.264  25.751  26.355  1.00  0.00     0.350 C 
ATOM      8  O   UNL A   1      31.223  25.967  26.967  1.00  0.00    -0.247 OA
BRANCH   7   9
ATOM      9  C   UNL A   1      33.047  26.872  25.660  1.00  0.00     0.279 C 
ATOM     10  C   UNL A   1      33.751  26.449  24.370  1.00  0.00     0.071 C 
BRANCH   9  11
ATOM     11  N   UNL A   1      32.248  28.072  25.391  1.00  0.00    -0.265 N 
ATOM     12  C   UNL A   1      31.478  28.305  24.294  1.00  0.00     0.243 C 
ATOM     13  H   UNL A   1      32.271  28.781  26.073  1.00  0.00     0.305 HD
ATOM     14  N   UNL A   1      31.653  29.391  23.598  1.00  0.00    -0.279 N 
ATOM     15  C   UNL A   1      30.333  27.433  23.852  1.00  0.00     0.131 C 
ATOM     16  C   UNL A   1      30.678  29.307  22.492  1.00  0.00     0.234 C 
ATOM     17  H   UNL A   1      32.298  30.114  23.771  1.00  0.00     0.304 HD
ATOM     18  C   UNL A   1      30.286  27.846  22.405  1.00  0.00     0.058 C 
ENDBRANCH   9  11
ENDBRANCH   7   9
ENDBRANCH   6   7
ENDBRANCH   5   6
ENDBRANCH   4   5
ENDBRANCH   3   4
ENDBRANCH   2   3
ENDBRANCH   1   2
BRANCH   1  19
ATOM     19  O   UNL A   1      34.783  20.940  24.661  1.00  0.00    -0.376 OA
BRANCH  19  20
ATOM     20  C   UNL A   1      35.237  21.415  25.916  1.00  0.00     0.202 C 
BRANCH  20  21
ATOM     21  C   UNL A   1      36.616  22.065  26.114  1.00  0.00     0.261 C 
BRANCH  21  22
ATOM     22  O   UNL A   1      37.650  21.680  25.203  1.00  0.00    -0.460 OA
BRANCH  22  23
ATOM     23  C   UNL A   1      38.829  21.311  25.766  1.00  0.00     0.338 C 
ATOM     24  O   UNL A   1      39.423  20.256  25.605  1.00  0.00    -0.246 OA
BRANCH  23  25
ATOM     25  C   UNL A   1      39.414  22.494  26.431  1.00  0.00     0.060 A 
ATOM     26  C   UNL A   1      39.052  23.776  25.982  1.00  0.00     0.016 A 
ATOM     27  C   UNL A   1      40.290  22.342  27.504  1.00  0.00     0.016 A 
ATOM     28  C   UNL A   1      39.572  24.912  26.600  1.00  0.00     0.010 A 
ATOM     29  C   UNL A   1      40.841  23.478  28.096  1.00  0.00     0.010 A 
ATOM     30  C   UNL A   1      40.508  24.764  27.628  1.00  0.00    -0.014 A 
BRANCH  30  31
ATOM     31  C   UNL A   1      41.343  25.908  28.060  1.00  0.00     0.031 A 
ATOM     32  C   UNL A   1      40.661  27.016  28.808  1.00  0.00     0.074 A 
ATOM     33  C   UNL A   1      42.639  26.011  27.722  1.00  0.00     0.049 A 
ATOM     34  N   UNL A   1      41.097  28.210  29.108  1.00  0.00    -0.248 NA
ATOM     35  C   UNL A   1      39.286  26.741  29.260  1.00  0.00     0.031 C 
ATOM     36  C   UNL A   1      43.416  24.993  27.020  1.00  0.00     0.029 A 
ATOM     37  N   UNL A   1      43.511  27.059  27.879  1.00  0.00    -0.354 N 
ATOM     38  C   UNL A   1      40.031  28.850  29.727  1.00  0.00     0.074 A 
ATOM     39  C   UNL A   1      38.932  27.910  29.769  1.00  0.00     0.031 C 
ATOM     40  C   UNL A   1      44.635  25.490  26.751  1.00  0.00     0.029 A 
ATOM     41  C   UNL A   1      44.705  26.873  27.223  1.00  0.00     0.049 A 
ATOM     42  H   UNL A   1      43.303  27.863  28.408  1.00  0.00     0.167 HD
ATOM     43  C   UNL A   1      39.970  30.112  30.212  1.00  0.00     0.034 A 
ATOM     44  C   UNL A   1      45.712  27.738  26.985  1.00  0.00     0.034 A 
ATOM     45  C   UNL A   1      41.067  31.037  30.173  1.00  0.00     0.049 A 
ATOM     46  C   UNL A   1      45.622  29.147  27.512  1.00  0.00     0.074 A 
ATOM     47  C   UNL A   1      41.128  32.319  30.684  1.00  0.00     0.029 A 
ATOM     48  N   UNL A   1      42.288  30.787  29.566  1.00  0.00    -0.354 N 
ATOM     49  N   UNL A   1      44.649  29.717  28.183  1.00  0.00    -0.248 NA
ATOM     50  C   UNL A   1      46.775  30.027  27.273  1.00  0.00     0.031 C 
ATOM     51  C   UNL A   1      42.374  32.861  30.352  1.00  0.00     0.029 A 
ATOM     52  C   UNL A   1      43.106  31.896  29.675  1.00  0.00     0.049 A 
ATOM     53  H   UNL A   1      42.535  29.944  29.121  1.00  0.00     0.167 HD
ATOM     54  C   UNL A   1      45.090  31.003  28.483  1.00  0.00     0.074 A 
ATOM     55  C   UNL A   1      46.418  31.129  27.921  1.00  0.00     0.031 C 
ATOM     56  C   UNL A   1      44.450  31.989  29.160  1.00  0.00     0.034 A 
BRANCH  43  57
ATOM     57  C   UNL A   1      38.663  30.557  30.811  1.00  0.00     0.023 A 
ATOM     58  C   UNL A   1      38.370  30.275  32.162  1.00  0.00     0.012 A 
ATOM     59  C   UNL A   1      37.724  31.261  30.034  1.00  0.00     0.148 A 
ATOM     60  C   UNL A   1      37.144  30.642  32.714  1.00  0.00     0.002 A 
ATOM     61  C   UNL A   1      36.525  31.670  30.605  1.00  0.00     0.091 A 
ATOM     62  F   UNL A   1      38.005  31.495  28.743  1.00  0.00    -0.205 F 
ATOM     63  C   UNL A   1      36.226  31.348  31.939  1.00  0.00     0.022 A 
BRANCH  61  64
ATOM     64  S   UNL A   1      35.321  32.656  29.710  1.00  0.00     0.127 S 
ATOM     65  O   UNL A   1      34.296  32.868  30.731  1.00  0.00    -0.237 OA
ATOM     66  O   UNL A   1      36.094  33.850  29.366  1.00  0.00    -0.237 OA
ATOM     67  O   UNL A   1      34.914  31.850  28.568  1.00  0.00    -0.744 OA
ENDBRANCH  61  64
ENDBRANCH  43  57
BRANCH  44  68
ATOM     68  C   UNL A   1      46.902  27.282  26.212  1.00  0.00     0.023 A 
ATOM     69  C   UNL A   1      46.974  27.541  24.830  1.00  0.00     0.012 A 
ATOM     70  C   UNL A   1      47.982  26.639  26.850  1.00  0.00     0.148 A 
ATOM     71  C   UNL A   1      48.094  27.154  24.094  1.00  0.00     0.002 A 
ATOM     72  C   UNL A   1      49.117  26.305  26.121  1.00  0.00     0.091 A 
ATOM     73  F   UNL A   1      47.885  26.392  28.164  1.00  0.00    -0.205 F 
ATOM     74  C   UNL A   1      49.169  26.548  24.740  1.00  0.00     0.022 A 
BRANCH  72  75
ATOM     75  S   UNL A   1      50.599  25.636  26.885  1.00  0.00     0.127 S 
ATOM     76  O   UNL A   1      50.058  24.519  27.657  1.00  0.00    -0.237 OA
ATOM     77  O   UNL A   1      51.388  25.251  25.715  1.00  0.00    -0.237 OA
ATOM     78  O   UNL A   1      51.167  26.722  27.670  1.00  0.00    -0.744 OA
ENDBRANCH  72  75
ENDBRANCH  44  68
BRANCH  56  79
ATOM     79  C   UNL A   1      45.186  33.282  29.404  1.00  0.00     0.023 A 
ATOM     80  C   UNL A   1      45.986  33.441  30.550  1.00  0.00     0.012 A 
ATOM     81  C   UNL A   1      45.171  34.296  28.424  1.00  0.00     0.148 A 
ATOM     82  C   UNL A   1      46.747  34.599  30.727  1.00  0.00     0.002 A 
ATOM     83  C   UNL A   1      45.969  35.422  28.581  1.00  0.00     0.091 A 
ATOM     84  F   UNL A   1      44.389  34.132  27.346  1.00  0.00    -0.205 F 
ATOM     85  C   UNL A   1      46.749  35.581  29.738  1.00  0.00     0.022 A 
BRANCH  83  86
ATOM     86  S   UNL A   1      46.117  36.686  27.312  1.00  0.00     0.127 S 
ATOM     87  O   UNL A   1      46.695  35.927  26.204  1.00  0.00    -0.237 OA
ATOM     88  O   UNL A   1      44.726  37.090  27.115  1.00  0.00    -0.237 OA
ATOM     89  O   UNL A   1      46.976  37.721  27.871  1.00  0.00    -0.744 OA
ENDBRANCH  83  86
ENDBRANCH  56  79
ENDBRANCH  30  31
ENDBRANCH  23  25
ENDBRANCH  22  23
ENDBRANCH  21  22
ENDBRANCH  20  21
ENDBRANCH  19  20
ENDBRANCH   1  19
TORSDOF 21
ENDMDL
MODEL 2
REMARK VINA RESULT:      -9.4      5.734     10.714
REMARK SMILES C[C@@H](NC1=[NH+]CCC1)C(=O)OCCOCCOCCOC(=O)c1ccc(-c2c3nc(c(-c4cccc(S(=O)(=O)[O-])c4F)c4ccc([nH]4)c(-c4cccc(S(=O)(=O)[O-])c4F)c4nc(c(-c5cccc(S(=O)(=O)[O-])c5F)c5ccc2[nH]5)C=C4)C=C3)cc1
REMARK SMILES IDX 16 1 15 2 14 3 13 4 12 5 11 6 9 7 10 8 2 9 1 10 3 11 4 12
REMARK SMILES IDX 5 14 8 15 6 16 7 18 17 19 18 20 19 21 20 22 21 23 22 24
REMARK SMILES IDX 23 25 24 26 85 27 25 28 84 29 26 30 27 31 28 32 78 33 29 34
REMARK SMILES IDX 83 35 77 36 79 37 30 38 82 39 76 40 75 41 31 43 63 44 43 45
REMARK SMILES IDX 62 46 44 47 47 48 61 49 80 50 45 51 46 52 60 54 81 55 48 56
REMARK SMILES IDX 32 57 33 58 41 59 34 60 36 61 42 62 35 63 37 64 38 65 39 66
REMARK SMILES IDX 40 67 64 68 65 69 73 70 66 71 68 72 74 73 67 74 69 75 70 76
REMARK SMILES IDX 71 77 72 78 49 79 50 80 58 81 51 82 53 83 59 84 52 85 54 86
REMARK SMILES IDX 55 87 56 88 57 89
REMARK H PARENT 3 13 5 17 79 42 47 53
REMARK Flexibility Score: inf
ROOT
ATOM      1  C   UNL A   1      33.052  29.274  26.681  1.00  0.00     0.188 C 
ENDROOT
BRANCH   1   2
ATOM      2  C   UNL A   1      32.390  28.215  27.575  1.00  0.00     0.188 C 
BRANCH   2   3
ATOM      3  O   UNL A   1      31.145  27.685  27.180  1.00  0.00    -0.376 OA
BRANCH   3   4
ATOM      4  C   UNL A   1      31.060  26.879  26.020  1.00  0.00     0.202 C 
BRANCH   4   5
ATOM      5  C   UNL A   1      31.109  25.350  26.080  1.00  0.00     0.261 C 
BRANCH   5   6
ATOM      6  O   UNL A   1      31.597  24.654  24.917  1.00  0.00    -0.460 OA
BRANCH   6   7
ATOM      7  C   UNL A   1      32.955  24.657  24.741  1.00  0.00     0.350 C 
ATOM      8  O   UNL A   1      33.532  25.309  23.875  1.00  0.00    -0.247 OA
BRANCH   7   9
ATOM      9  C   UNL A   1      33.701  23.675  25.653  1.00  0.00     0.279 C 
ATOM     10  C   UNL A   1      33.574  22.207  25.243  1.00  0.00     0.071 C 
BRANCH   9  11
ATOM     11  N   UNL A   1      35.121  23.995  25.830  1.00  0.00    -0.265 N 
ATOM     12  C   UNL A   1      36.179  23.215  25.477  1.00  0.00     0.243 C 
ATOM     13  H   UNL A   1      35.331  24.862  26.246  1.00  0.00     0.305 HD
ATOM     14  N   UNL A   1      37.087  22.917  26.360  1.00  0.00    -0.279 N 
ATOM     15  C   UNL A   1      36.454  22.729  24.079  1.00  0.00     0.131 C 
ATOM     16  C   UNL A   1      38.056  22.059  25.650  1.00  0.00     0.234 C 
ATOM     17  H   UNL A   1      37.120  23.201  27.302  1.00  0.00     0.304 HD
ATOM     18  C   UNL A   1      37.326  21.550  24.423  1.00  0.00     0.058 C 
ENDBRANCH   9  11
ENDBRANCH   7   9
ENDBRANCH   6   7
ENDBRANCH   5   6
ENDBRANCH   4   5
ENDBRANCH   3   4
ENDBRANCH   2   3
ENDBRANCH   1   2
BRANCH   1  19
ATOM     19  O   UNL A   1      32.293  30.159  25.885  1.00  0.00    -0.376 OA
BRANCH  19  20
ATOM     20  C   UNL A   1      31.399  31.064  26.507  1.00  0.00     0.202 C 
BRANCH  20  21
ATOM     21  C   UNL A   1      31.804  32.489  26.920  1.00  0.00     0.261 C 
BRANCH  21  22
ATOM     22  O   UNL A   1      33.108  32.653  27.483  1.00  0.00    -0.460 OA
BRANCH  22  23
ATOM     23  C   UNL A   1      33.282  33.749  28.266  1.00  0.00     0.338 C 
ATOM     24  O   UNL A   1      32.502  34.676  28.418  1.00  0.00    -0.246 OA
BRANCH  23  25
ATOM     25  C   UNL A   1      34.477  33.529  29.108  1.00  0.00     0.060 A 
ATOM     26  C   UNL A   1      35.664  34.216  28.798  1.00  0.00     0.016 A 
ATOM     27  C   UNL A   1      34.421  32.676  30.209  1.00  0.00     0.016 A 
ATOM     28  C   UNL A   1      36.803  34.044  29.584  1.00  0.00     0.010 A 
ATOM     29  C   UNL A   1      35.571  32.474  30.970  1.00  0.00     0.010 A 
ATOM     30  C   UNL A   1      36.772  33.133  30.643  1.00  0.00    -0.014 A 
BRANCH  30  31
ATOM     31  C   UNL A   1      38.028  32.656  31.265  1.00  0.00     0.031 A 
ATOM     32  C   UNL A   1      38.726  31.498  30.612  1.00  0.00     0.074 A 
ATOM     33  C   UNL A   1      38.489  33.165  32.421  1.00  0.00     0.049 A 
ATOM     34  N   UNL A   1      39.703  30.756  31.058  1.00  0.00    -0.248 NA
ATOM     35  C   UNL A   1      38.232  31.114  29.279  1.00  0.00     0.031 C 
ATOM     36  C   UNL A   1      37.914  34.302  33.134  1.00  0.00     0.029 A 
ATOM     37  N   UNL A   1      39.519  32.742  33.223  1.00  0.00    -0.354 N 
ATOM     38  C   UNL A   1      39.901  29.780  30.090  1.00  0.00     0.074 A 
ATOM     39  C   UNL A   1      38.949  30.030  29.030  1.00  0.00     0.031 C 
ATOM     40  C   UNL A   1      38.562  34.450  34.302  1.00  0.00     0.029 A 
ATOM     41  C   UNL A   1      39.564  33.392  34.433  1.00  0.00     0.049 A 
ATOM     42  H   UNL A   1      40.161  32.044  32.957  1.00  0.00     0.167 HD
ATOM     43  C   UNL A   1      40.790  28.761  30.086  1.00  0.00     0.034 A 
ATOM     44  C   UNL A   1      40.291  33.127  35.538  1.00  0.00     0.034 A 
ATOM     45  C   UNL A   1      41.736  28.523  31.139  1.00  0.00     0.049 A 
ATOM     46  C   UNL A   1      41.263  31.974  35.528  1.00  0.00     0.074 A 
ATOM     47  C   UNL A   1      42.718  27.552  31.210  1.00  0.00     0.029 A 
ATOM     48  N   UNL A   1      41.802  29.249  32.319  1.00  0.00    -0.354 N 
ATOM     49  N   UNL A   1      41.515  31.113  34.570  1.00  0.00    -0.248 NA
ATOM     50  C   UNL A   1      42.071  31.769  36.739  1.00  0.00     0.031 C 
ATOM     51  C   UNL A   1      43.353  27.666  32.451  1.00  0.00     0.029 A 
ATOM     52  C   UNL A   1      42.798  28.738  33.132  1.00  0.00     0.049 A 
ATOM     53  H   UNL A   1      41.225  30.013  32.545  1.00  0.00     0.167 HD
ATOM     54  C   UNL A   1      42.535  30.296  35.045  1.00  0.00     0.074 A 
ATOM     55  C   UNL A   1      42.858  30.764  36.377  1.00  0.00     0.031 C 
ATOM     56  C   UNL A   1      43.148  29.251  34.434  1.00  0.00     0.034 A 
BRANCH  43  57
ATOM     57  C   UNL A   1      40.762  27.826  28.908  1.00  0.00     0.023 A 
ATOM     58  C   UNL A   1      39.778  26.819  28.825  1.00  0.00     0.012 A 
ATOM     59  C   UNL A   1      41.713  27.948  27.876  1.00  0.00     0.148 A 
ATOM     60  C   UNL A   1      39.772  25.918  27.761  1.00  0.00     0.002 A 
ATOM     61  C   UNL A   1      41.668  27.080  26.791  1.00  0.00     0.091 A 
ATOM     62  F   UNL A   1      42.660  28.892  27.984  1.00  0.00    -0.205 F 
ATOM     63  C   UNL A   1      40.709  26.055  26.740  1.00  0.00     0.022 A 
BRANCH  61  64
ATOM     64  S   UNL A   1      42.780  27.234  25.391  1.00  0.00     0.127 S 
ATOM     65  O   UNL A   1      42.581  25.953  24.714  1.00  0.00    -0.237 OA
ATOM     66  O   UNL A   1      42.228  28.390  24.683  1.00  0.00    -0.237 OA
ATOM     67  O   UNL A   1      44.106  27.447  25.954  1.00  0.00    -0.744 OA
ENDBRANCH  61  64
ENDBRANCH  43  57
BRANCH  44  68
ATOM     68  C   UNL A   1      40.127  33.983  36.746  1.00  0.00     0.023 A 
ATOM     69  C   UNL A   1      40.605  35.308  36.729  1.00  0.00     0.012 A 
ATOM     70  C   UNL A   1      39.457  33.507  37.890  1.00  0.00     0.148 A 
ATOM     71  C   UNL A   1      40.432  36.138  37.837  1.00  0.00     0.002 A 
ATOM     72  C   UNL A   1      39.240  34.356  38.969  1.00  0.00     0.091 A 
ATOM     73  F   UNL A   1      39.021  32.239  37.887  1.00  0.00    -0.205 F 
ATOM     74  C   UNL A   1      39.740  35.667  38.950  1.00  0.00     0.022 A 
BRANCH  72  75
ATOM     75  S   UNL A   1      38.254  33.883  40.394  1.00  0.00     0.127 S 
ATOM     76  O   UNL A   1      37.055  33.338  39.759  1.00  0.00    -0.237 OA
ATOM     77  O   UNL A   1      39.117  32.890  41.035  1.00  0.00    -0.237 OA
ATOM     78  O   UNL A   1      38.055  35.102  41.164  1.00  0.00    -0.744 OA
ENDBRANCH  72  75
ENDBRANCH  44  68
BRANCH  56  79
ATOM     79  C   UNL A   1      44.282  28.566  35.154  1.00  0.00     0.023 A 
ATOM     80  C   UNL A   1      45.612  28.967  34.932  1.00  0.00     0.012 A 
ATOM     81  C   UNL A   1      44.006  27.600  36.144  1.00  0.00     0.148 A 
ATOM     82  C   UNL A   1      46.654  28.404  35.670  1.00  0.00     0.002 A 
ATOM     83  C   UNL A   1      45.042  27.081  36.910  1.00  0.00     0.091 A 
ATOM     84  F   UNL A   1      42.734  27.221  36.329  1.00  0.00    -0.205 F 
ATOM     85  C   UNL A   1      46.368  27.473  36.668  1.00  0.00     0.022 A 
BRANCH  83  86
ATOM     86  S   UNL A   1      44.757  25.959  38.285  1.00  0.00     0.127 S 
ATOM     87  O   UNL A   1      44.477  24.704  37.591  1.00  0.00    -0.237 OA
ATOM     88  O   UNL A   1      46.041  25.996  38.985  1.00  0.00    -0.237 OA
ATOM     89  O   UNL A   1      43.641  26.516  39.037  1.00  0.00    -0.744 OA
ENDBRANCH  83  86
ENDBRANCH  56  79
ENDBRANCH  30  31
ENDBRANCH  23  25
ENDBRANCH  22  23
ENDBRANCH  21  22
ENDBRANCH  20  21
ENDBRANCH  19  20
ENDBRANCH   1  19
TORSDOF 21
ENDMDL
MODEL 3
REMARK VINA RESULT:      -9.3      4.811      8.146
REMARK SMILES C[C@@H](NC1=[NH+]CCC1)C(=O)OCCOCCOCCOC(=O)c1ccc(-c2c3nc(c(-c4cccc(S(=O)(=O)[O-])c4F)c4ccc([nH]4)c(-c4cccc(S(=O)(=O)[O-])c4F)c4nc(c(-c5cccc(S(=O)(=O)[O-])c5F)c5ccc2[nH]5)C=C4)C=C3)cc1
REMARK SMILES IDX 16 1 15 2 14 3 13 4 12 5 11 6 9 7 10 8 2 9 1 10 3 11 4 12
REMARK SMILES IDX 5 14 8 15 6 16 7 18 17 19 18 20 19 21 20 22 21 23 22 24
REMARK SMILES IDX 23 25 24 26 85 27 25 28 84 29 26 30 27 31 28 32 78 33 29 34
REMARK SMILES IDX 83 35 77 36 79 37 30 38 82 39 76 40 75 41 31 43 63 44 43 45
REMARK SMILES IDX 62 46 44 47 47 48 61 49 80 50 45 51 46 52 60 54 81 55 48 56
REMARK SMILES IDX 32 57 33 58 41 59 34 60 36 61 42 62 35 63 37 64 38 65 39 66
REMARK SMILES IDX 40 67 64 68 65 69 73 70 66 71 68 72 74 73 67 74 69 75 70 76
REMARK SMILES IDX 71 77 72 78 49 79 50 80 58 81 51 82 53 83 59 84 52 85 54 86
REMARK SMILES IDX 55 87 56 88 57 89
REMARK H PARENT 3 13 5 17 79 42 47 53
REMARK Flexibility Score: inf
ROOT
ATOM      1  C   UNL A   1      33.790  28.015  25.929  1.00  0.00     0.188 C 
ENDROOT
BRANCH   1   2
ATOM      2  C   UNL A   1      33.607  26.560  25.472  1.00  0.00     0.188 C 
BRANCH   2   3
ATOM      3  O   UNL A   1      32.348  25.954  25.650  1.00  0.00    -0.376 OA
BRANCH   3   4
ATOM      4  C   UNL A   1      31.726  25.292  24.565  1.00  0.00     0.202 C 
BRANCH   4   5
ATOM      5  C   UNL A   1      32.033  23.835  24.210  1.00  0.00     0.261 C 
BRANCH   5   6
ATOM      6  O   UNL A   1      32.623  23.011  25.234  1.00  0.00    -0.460 OA
BRANCH   6   7
ATOM      7  C   UNL A   1      32.281  21.685  25.209  1.00  0.00     0.350 C 
ATOM      8  O   UNL A   1      31.208  21.246  25.611  1.00  0.00    -0.247 OA
BRANCH   7   9
ATOM      9  C   UNL A   1      33.413  20.763  24.738  1.00  0.00     0.279 C 
ATOM     10  C   UNL A   1      34.738  21.475  24.460  1.00  0.00     0.071 C 
BRANCH   9  11
ATOM     11  N   UNL A   1      33.664  19.630  25.635  1.00  0.00    -0.265 N 
ATOM     12  C   UNL A   1      33.625  18.310  25.306  1.00  0.00     0.243 C 
ATOM     13  H   UNL A   1      33.883  19.846  26.569  1.00  0.00     0.305 HD
ATOM     14  N   UNL A   1      32.877  17.493  25.990  1.00  0.00    -0.279 N 
ATOM     15  C   UNL A   1      34.476  17.668  24.243  1.00  0.00     0.131 C 
ATOM     16  C   UNL A   1      33.061  16.172  25.358  1.00  0.00     0.234 C 
ATOM     17  H   UNL A   1      32.308  17.711  26.763  1.00  0.00     0.304 HD
ATOM     18  C   UNL A   1      33.622  16.455  23.979  1.00  0.00     0.058 C 
ENDBRANCH   9  11
ENDBRANCH   7   9
ENDBRANCH   6   7
ENDBRANCH   5   6
ENDBRANCH   4   5
ENDBRANCH   3   4
ENDBRANCH   2   3
ENDBRANCH   1   2
BRANCH   1  19
ATOM     19  O   UNL A   1      32.752  28.965  25.828  1.00  0.00    -0.376 OA
BRANCH  19  20
ATOM     20  C   UNL A   1      32.322  29.656  26.987  1.00  0.00     0.202 C 
BRANCH  20  21
ATOM     21  C   UNL A   1      32.908  31.010  27.419  1.00  0.00     0.261 C 
BRANCH  21  22
ATOM     22  O   UNL A   1      34.327  31.162  27.322  1.00  0.00    -0.460 OA
BRANCH  22  23
ATOM     23  C   UNL A   1      34.952  31.625  28.435  1.00  0.00     0.338 C 
ATOM     24  O   UNL A   1      34.544  32.479  29.206  1.00  0.00    -0.246 OA
BRANCH  23  25
ATOM     25  C   UNL A   1      36.112  30.751  28.709  1.00  0.00     0.060 A 
ATOM     26  C   UNL A   1      36.057  29.866  29.800  1.00  0.00     0.016 A 
ATOM     27  C   UNL A   1      37.234  30.784  27.882  1.00  0.00     0.016 A 
ATOM     28  C   UNL A   1      37.128  29.017  30.073  1.00  0.00     0.010 A 
ATOM     29  C   UNL A   1      38.321  29.963  28.179  1.00  0.00     0.010 A 
ATOM     30  C   UNL A   1      38.283  29.100  29.292  1.00  0.00    -0.014 A 
BRANCH  30  31
ATOM     31  C   UNL A   1      39.552  28.493  29.753  1.00  0.00     0.031 A 
ATOM     32  C   UNL A   1      40.310  29.213  30.832  1.00  0.00     0.074 A 
ATOM     33  C   UNL A   1      40.068  27.394  29.177  1.00  0.00     0.049 A 
ATOM     34  N   UNL A   1      41.528  29.025  31.260  1.00  0.00    -0.248 NA
ATOM     35  C   UNL A   1      39.594  30.313  31.500  1.00  0.00     0.031 C 
ATOM     36  C   UNL A   1      39.417  26.596  28.142  1.00  0.00     0.029 A 
ATOM     37  N   UNL A   1      41.293  26.799  29.349  1.00  0.00    -0.354 N 
ATOM     38  C   UNL A   1      41.749  30.020  32.204  1.00  0.00     0.074 A 
ATOM     39  C   UNL A   1      40.535  30.803  32.291  1.00  0.00     0.031 C 
ATOM     40  C   UNL A   1      40.274  25.649  27.724  1.00  0.00     0.029 A 
ATOM     41  C   UNL A   1      41.545  25.805  28.433  1.00  0.00     0.049 A 
ATOM     42  H   UNL A   1      41.926  27.057  30.057  1.00  0.00     0.167 HD
ATOM     43  C   UNL A   1      42.864  30.266  32.929  1.00  0.00     0.034 A 
ATOM     44  C   UNL A   1      42.686  25.140  28.162  1.00  0.00     0.034 A 
ATOM     45  C   UNL A   1      44.063  29.480  32.840  1.00  0.00     0.049 A 
ATOM     46  C   UNL A   1      43.928  25.439  28.962  1.00  0.00     0.074 A 
ATOM     47  C   UNL A   1      45.230  29.610  33.569  1.00  0.00     0.029 A 
ATOM     48  N   UNL A   1      44.256  28.433  31.953  1.00  0.00    -0.354 N 
ATOM     49  N   UNL A   1      44.102  26.317  29.922  1.00  0.00    -0.248 NA
ATOM     50  C   UNL A   1      45.127  24.641  28.662  1.00  0.00     0.031 C 
ATOM     51  C   UNL A   1      46.146  28.665  33.094  1.00  0.00     0.029 A 
ATOM     52  C   UNL A   1      45.530  27.916  32.103  1.00  0.00     0.049 A 
ATOM     53  H   UNL A   1      43.586  28.107  31.310  1.00  0.00     0.167 HD
ATOM     54  C   UNL A   1      45.409  26.147  30.367  1.00  0.00     0.074 A 
ATOM     55  C   UNL A   1      45.984  25.081  29.574  1.00  0.00     0.031 C 
ATOM     56  C   UNL A   1      46.072  26.816  31.344  1.00  0.00     0.034 A 
BRANCH  43  57
ATOM     57  C   UNL A   1      42.832  31.443  33.865  1.00  0.00     0.023 A 
ATOM     58  C   UNL A   1      43.348  32.690  33.454  1.00  0.00     0.012 A 
ATOM     59  C   UNL A   1      42.285  31.314  35.156  1.00  0.00     0.148 A 
ATOM     60  C   UNL A   1      43.366  33.774  34.330  1.00  0.00     0.002 A 
ATOM     61  C   UNL A   1      42.257  32.413  36.006  1.00  0.00     0.091 A 
ATOM     62  F   UNL A   1      41.825  30.114  35.542  1.00  0.00    -0.205 F 
ATOM     63  C   UNL A   1      42.812  33.639  35.601  1.00  0.00     0.022 A 
BRANCH  61  64
ATOM     64  S   UNL A   1      41.489  32.357  37.627  1.00  0.00     0.127 S 
ATOM     65  O   UNL A   1      42.392  31.464  38.351  1.00  0.00    -0.237 OA
ATOM     66  O   UNL A   1      41.549  33.758  38.046  1.00  0.00    -0.237 OA
ATOM     67  O   UNL A   1      40.141  31.848  37.413  1.00  0.00    -0.744 OA
ENDBRANCH  61  64
ENDBRANCH  43  57
BRANCH  44  68
ATOM     68  C   UNL A   1      42.697  24.113  27.081  1.00  0.00     0.023 A 
ATOM     69  C   UNL A   1      43.310  24.409  25.848  1.00  0.00     0.012 A 
ATOM     70  C   UNL A   1      42.149  22.833  27.289  1.00  0.00     0.148 A 
ATOM     71  C   UNL A   1      43.362  23.451  24.836  1.00  0.00     0.002 A 
ATOM     72  C   UNL A   1      42.253  21.866  26.296  1.00  0.00     0.091 A 
ATOM     73  F   UNL A   1      41.560  22.579  28.467  1.00  0.00    -0.205 F 
ATOM     74  C   UNL A   1      42.846  22.178  25.063  1.00  0.00     0.022 A 
BRANCH  72  75
ATOM     75  S   UNL A   1      41.730  20.165  26.539  1.00  0.00     0.127 S 
ATOM     76  O   UNL A   1      40.276  20.305  26.596  1.00  0.00    -0.237 OA
ATOM     77  O   UNL A   1      42.239  19.522  25.328  1.00  0.00    -0.237 OA
ATOM     78  O   UNL A   1      42.365  19.725  27.773  1.00  0.00    -0.744 OA
ENDBRANCH  72  75
ENDBRANCH  44  68
BRANCH  56  79
ATOM     79  C   UNL A   1      47.479  26.386  31.675  1.00  0.00     0.023 A 
ATOM     80  C   UNL A   1      48.579  27.023  31.071  1.00  0.00     0.012 A 
ATOM     81  C   UNL A   1      47.703  25.424  32.682  1.00  0.00     0.148 A 
ATOM     82  C   UNL A   1      49.882  26.695  31.449  1.00  0.00     0.002 A 
ATOM     83  C   UNL A   1      49.000  25.140  33.090  1.00  0.00     0.091 A 
ATOM     84  F   UNL A   1      46.642  24.818  33.234  1.00  0.00    -0.205 F 
ATOM     85  C   UNL A   1      50.091  25.766  32.467  1.00  0.00     0.022 A 
BRANCH  83  86
ATOM     86  S   UNL A   1      49.361  24.038  34.463  1.00  0.00     0.127 S 
ATOM     87  O   UNL A   1      49.981  22.904  33.778  1.00  0.00    -0.237 OA
ATOM     88  O   UNL A   1      50.280  24.840  35.270  1.00  0.00    -0.237 OA
ATOM     89  O   UNL A   1      48.083  23.755  35.101  1.00  0.00    -0.744 OA
ENDBRANCH  83  86
ENDBRANCH  56  79
ENDBRANCH  30  31
ENDBRANCH  23  25
ENDBRANCH  22  23
ENDBRANCH  21  22
ENDBRANCH  20  21
ENDBRANCH  19  20
ENDBRANCH   1  19
TORSDOF 21
ENDMDL
