MODEL 1
REMARK VINA RESULT:      -8.7      0.000      0.000
REMARK SMILES O=C(CCN1C(=O)/C(=C2/C(=O)N(Cc3ccccc3)c3ccccc32)SC1=S)OCCOCCOCCOC(=O)c1ccc(-c2c3nc(c(-c4cccc(S(=O)(=O)[O-])c4F)c4ccc([nH]4)c(-c4cccc(S(=O)(=O)[O-])c4F)c4nc(c(-c5cccc(S(=O)(=O)[O-])c5F)c5ccc2[nH]5)C=C4)C=C3)cc1
REMARK SMILES IDX 33 1 32 2 31 3 30 4 29 5 2 6 1 7 3 8 4 9 5 10 6 11 27 12
REMARK SMILES IDX 7 13 8 14 26 15 28 16 9 17 10 18 25 19 11 20 12 21 20 22
REMARK SMILES IDX 24 23 21 24 23 25 22 26 13 27 14 28 15 29 19 30 16 31 18 32
REMARK SMILES IDX 17 33 34 34 35 35 36 36 37 37 38 38 39 39 40 40 41 41 42 42
REMARK SMILES IDX 103 43 43 44 102 45 44 46 45 47 46 48 96 49 47 50 101 51
REMARK SMILES IDX 95 52 97 53 48 54 100 55 94 56 93 57 49 59 81 60 61 61 80 62
REMARK SMILES IDX 62 63 65 64 79 65 98 66 63 67 64 68 78 70 99 71 66 72 50 73
REMARK SMILES IDX 51 74 59 75 52 76 54 77 60 78 53 79 55 80 56 81 57 82 58 83
REMARK SMILES IDX 82 84 83 85 91 86 84 87 86 88 92 89 85 90 87 91 88 92 89 93
REMARK SMILES IDX 90 94 67 95 68 96 76 97 69 98 71 99 77 100 70 101 72 102
REMARK SMILES IDX 73 103 74 104 75 105
REMARK H PARENT 97 58 65 69
REMARK Flexibility Score: inf
ROOT
ATOM      1  C   UNL A   1      43.553  42.561  24.439  1.00  0.00     0.188 C 
ENDROOT
BRANCH   1   2
ATOM      2  O   UNL A   1      43.340  42.351  23.042  1.00  0.00    -0.376 OA
BRANCH   2   3
ATOM      3  C   UNL A   1      42.374  43.168  22.411  1.00  0.00     0.202 C 
BRANCH   3   4
ATOM      4  C   UNL A   1      41.896  42.680  21.046  1.00  0.00     0.261 C 
BRANCH   4   5
ATOM      5  O   UNL A   1      41.148  43.646  20.299  1.00  0.00    -0.463 OA
BRANCH   5   6
ATOM      6  C   UNL A   1      41.440  43.764  18.976  1.00  0.00     0.307 C 
ATOM      7  O   UNL A   1      41.961  42.850  18.349  1.00  0.00    -0.252 OA
BRANCH   6   8
ATOM      8  C   UNL A   1      41.323  45.173  18.430  1.00  0.00     0.144 C 
BRANCH   8   9
ATOM      9  C   UNL A   1      42.446  45.593  17.498  1.00  0.00     0.139 C 
BRANCH   9  10
ATOM     10  N   UNL A   1      43.587  46.242  18.157  1.00  0.00    -0.292 N 
ATOM     11  C   UNL A   1      44.585  45.433  18.639  1.00  0.00     0.267 C 
ATOM     12  C   UNL A   1      43.781  47.591  18.339  1.00  0.00     0.148 C 
ATOM     13  O   UNL A   1      44.793  44.305  18.227  1.00  0.00    -0.268 OA
ATOM     14  C   UNL A   1      45.458  46.147  19.595  1.00  0.00     0.093 C 
ATOM     15  S   UNL A   1      45.230  47.839  19.315  1.00  0.00    -0.053 SA
ATOM     16  S   UNL A   1      42.851  48.852  17.775  1.00  0.00    -0.052 S 
ATOM     17  C   UNL A   1      46.204  45.544  20.537  1.00  0.00     0.069 C 
ATOM     18  C   UNL A   1      47.036  46.310  21.544  1.00  0.00     0.260 C 
ATOM     19  C   UNL A   1      46.355  44.107  20.884  1.00  0.00     0.012 A 
ATOM     20  O   UNL A   1      47.191  47.516  21.625  1.00  0.00    -0.269 OA
ATOM     21  N   UNL A   1      47.580  45.344  22.385  1.00  0.00    -0.303 N 
ATOM     22  C   UNL A   1      47.245  44.050  21.960  1.00  0.00     0.052 A 
ATOM     23  C   UNL A   1      45.779  42.920  20.448  1.00  0.00     0.011 A 
ATOM     24  C   UNL A   1      47.654  42.846  22.521  1.00  0.00     0.027 A 
ATOM     25  C   UNL A   1      46.150  41.702  21.024  1.00  0.00     0.001 A 
ATOM     26  C   UNL A   1      47.095  41.662  22.047  1.00  0.00     0.002 A 
BRANCH  21  27
ATOM     27  C   UNL A   1      48.179  45.662  23.665  1.00  0.00     0.161 C 
BRANCH  27  28
ATOM     28  C   UNL A   1      47.386  45.079  24.824  1.00  0.00    -0.028 A 
ATOM     29  C   UNL A   1      46.008  45.316  24.959  1.00  0.00     0.005 A 
ATOM     30  C   UNL A   1      48.027  44.329  25.820  1.00  0.00     0.005 A 
ATOM     31  C   UNL A   1      45.296  44.842  26.062  1.00  0.00     0.000 A 
ATOM     32  C   UNL A   1      47.308  43.832  26.912  1.00  0.00     0.000 A 
ATOM     33  C   UNL A   1      45.945  44.095  27.037  1.00  0.00     0.000 A 
ENDBRANCH  27  28
ENDBRANCH  21  27
ENDBRANCH   9  10
ENDBRANCH   8   9
ENDBRANCH   6   8
ENDBRANCH   5   6
ENDBRANCH   4   5
ENDBRANCH   3   4
ENDBRANCH   2   3
ENDBRANCH   1   2
BRANCH   1  34
ATOM     34  C   UNL A   1      43.264  41.389  25.379  1.00  0.00     0.188 C 
BRANCH  34  35
ATOM     35  O   UNL A   1      44.370  40.626  25.850  1.00  0.00    -0.376 OA
BRANCH  35  36
ATOM     36  C   UNL A   1      45.658  40.875  25.294  1.00  0.00     0.202 C 
BRANCH  36  37
ATOM     37  C   UNL A   1      46.648  39.714  25.372  1.00  0.00     0.261 C 
BRANCH  37  38
ATOM     38  O   UNL A   1      46.534  39.002  26.616  1.00  0.00    -0.460 OA
BRANCH  38  39
ATOM     39  C   UNL A   1      46.432  37.653  26.540  1.00  0.00     0.338 C 
ATOM     40  O   UNL A   1      46.999  36.916  25.754  1.00  0.00    -0.246 OA
BRANCH  39  41
ATOM     41  C   UNL A   1      45.620  37.175  27.680  1.00  0.00     0.060 A 
ATOM     42  C   UNL A   1      45.939  35.980  28.329  1.00  0.00     0.016 A 
ATOM     43  C   UNL A   1      44.542  37.955  28.118  1.00  0.00     0.016 A 
ATOM     44  C   UNL A   1      45.198  35.585  29.444  1.00  0.00     0.010 A 
ATOM     45  C   UNL A   1      43.798  37.556  29.230  1.00  0.00     0.010 A 
ATOM     46  C   UNL A   1      44.139  36.381  29.915  1.00  0.00    -0.014 A 
BRANCH  46  47
ATOM     47  C   UNL A   1      43.519  36.063  31.223  1.00  0.00     0.031 A 
ATOM     48  C   UNL A   1      42.289  35.218  31.332  1.00  0.00     0.074 A 
ATOM     49  C   UNL A   1      44.106  36.555  32.331  1.00  0.00     0.049 A 
ATOM     50  N   UNL A   1      41.700  34.772  32.412  1.00  0.00    -0.248 NA
ATOM     51  C   UNL A   1      41.633  34.819  30.079  1.00  0.00     0.031 C 
ATOM     52  C   UNL A   1      45.283  37.427  32.336  1.00  0.00     0.029 A 
ATOM     53  N   UNL A   1      43.804  36.390  33.657  1.00  0.00    -0.354 N 
ATOM     54  C   UNL A   1      40.609  34.035  31.976  1.00  0.00     0.074 A 
ATOM     55  C   UNL A   1      40.600  34.114  30.529  1.00  0.00     0.031 C 
ATOM     56  C   UNL A   1      45.616  37.703  33.606  1.00  0.00     0.029 A 
ATOM     57  C   UNL A   1      44.674  37.039  34.501  1.00  0.00     0.049 A 
ATOM     58  H   UNL A   1      43.039  35.858  33.975  1.00  0.00     0.167 HD
ATOM     59  C   UNL A   1      39.717  33.336  32.716  1.00  0.00     0.034 A 
ATOM     60  C   UNL A   1      44.719  37.085  35.846  1.00  0.00     0.034 A 
ATOM     61  C   UNL A   1      39.735  33.258  34.155  1.00  0.00     0.049 A 
ATOM     62  C   UNL A   1      43.715  36.304  36.642  1.00  0.00     0.074 A 
ATOM     63  C   UNL A   1      38.891  32.542  34.985  1.00  0.00     0.029 A 
ATOM     64  N   UNL A   1      40.634  33.922  34.976  1.00  0.00    -0.354 N 
ATOM     65  N   UNL A   1      42.760  35.518  36.209  1.00  0.00    -0.248 NA
ATOM     66  C   UNL A   1      43.811  36.390  38.106  1.00  0.00     0.031 C 
ATOM     67  C   UNL A   1      39.272  32.781  36.309  1.00  0.00     0.029 A 
ATOM     68  C   UNL A   1      40.362  33.636  36.303  1.00  0.00     0.049 A 
ATOM     69  H   UNL A   1      41.358  34.510  34.661  1.00  0.00     0.167 HD
ATOM     70  C   UNL A   1      42.149  35.003  37.346  1.00  0.00     0.074 A 
ATOM     71  C   UNL A   1      42.854  35.553  38.486  1.00  0.00     0.031 C 
ATOM     72  C   UNL A   1      41.090  34.162  37.429  1.00  0.00     0.034 A 
BRANCH  59  73
ATOM     73  C   UNL A   1      38.674  32.532  31.991  1.00  0.00     0.023 A 
ATOM     74  C   UNL A   1      38.876  31.145  31.833  1.00  0.00     0.012 A 
ATOM     75  C   UNL A   1      37.462  33.110  31.570  1.00  0.00     0.148 A 
ATOM     76  C   UNL A   1      37.889  30.346  31.259  1.00  0.00     0.002 A 
ATOM     77  C   UNL A   1      36.472  32.302  31.021  1.00  0.00     0.091 A 
ATOM     78  F   UNL A   1      37.298  34.432  31.721  1.00  0.00    -0.205 F 
ATOM     79  C   UNL A   1      36.685  30.922  30.863  1.00  0.00     0.022 A 
BRANCH  77  80
ATOM     80  S   UNL A   1      34.865  32.931  30.518  1.00  0.00     0.127 S 
ATOM     81  O   UNL A   1      35.228  34.219  29.927  1.00  0.00    -0.237 OA
ATOM     82  O   UNL A   1      34.428  31.919  29.557  1.00  0.00    -0.237 OA
ATOM     83  O   UNL A   1      34.065  33.011  31.732  1.00  0.00    -0.744 OA
ENDBRANCH  77  80
ENDBRANCH  59  73
BRANCH  60  84
ATOM     84  C   UNL A   1      45.816  37.841  36.504  1.00  0.00     0.023 A 
ATOM     85  C   UNL A   1      47.035  37.191  36.768  1.00  0.00     0.012 A 
ATOM     86  C   UNL A   1      45.690  39.218  36.772  1.00  0.00     0.148 A 
ATOM     87  C   UNL A   1      48.115  37.901  37.294  1.00  0.00     0.002 A 
ATOM     88  C   UNL A   1      46.781  39.926  37.260  1.00  0.00     0.091 A 
ATOM     89  F   UNL A   1      44.517  39.809  36.505  1.00  0.00    -0.205 F 
ATOM     90  C   UNL A   1      47.991  39.268  37.530  1.00  0.00     0.022 A 
BRANCH  88  91
ATOM     91  S   UNL A   1      46.754  41.706  37.500  1.00  0.00     0.127 S 
ATOM     92  O   UNL A   1      46.066  42.159  36.293  1.00  0.00    -0.237 OA
ATOM     93  O   UNL A   1      45.978  41.827  38.734  1.00  0.00    -0.237 OA
ATOM     94  O   UNL A   1      48.147  42.113  37.615  1.00  0.00    -0.744 OA
ENDBRANCH  88  91
ENDBRANCH  60  84
BRANCH  72  95
ATOM     95  C   UNL A   1      40.611  33.775  38.802  1.00  0.00     0.023 A 
ATOM     96  C   UNL A   1      41.200  32.673  39.452  1.00  0.00     0.012 A 
ATOM     97  C   UNL A   1      39.663  34.560  39.486  1.00  0.00     0.148 A 
ATOM     98  C   UNL A   1      40.843  32.350  40.760  1.00  0.00     0.002 A 
ATOM     99  C   UNL A   1      39.337  34.253  40.802  1.00  0.00     0.091 A 
ATOM    100  F   UNL A   1      39.110  35.597  38.841  1.00  0.00    -0.205 F 
ATOM    101  C   UNL A   1      39.922  33.146  41.437  1.00  0.00     0.022 A 
BRANCH  99 102
ATOM    102  S   UNL A   1      38.215  35.258  41.782  1.00  0.00     0.127 S 
ATOM    103  O   UNL A   1      38.510  36.602  41.286  1.00  0.00    -0.237 OA
ATOM    104  O   UNL A   1      36.908  34.735  41.386  1.00  0.00    -0.237 OA
ATOM    105  O   UNL A   1      38.570  35.018  43.174  1.00  0.00    -0.744 OA
ENDBRANCH  99 102
ENDBRANCH  72  95
ENDBRANCH  46  47
ENDBRANCH  39  41
ENDBRANCH  38  39
ENDBRANCH  37  38
ENDBRANCH  36  37
ENDBRANCH  35  36
ENDBRANCH  34  35
ENDBRANCH   1  34
TORSDOF 24
ENDMDL
MODEL 2
REMARK VINA RESULT:      -8.2      6.983     13.113
REMARK SMILES O=C(CCN1C(=O)/C(=C2/C(=O)N(Cc3ccccc3)c3ccccc32)SC1=S)OCCOCCOCCOC(=O)c1ccc(-c2c3nc(c(-c4cccc(S(=O)(=O)[O-])c4F)c4ccc([nH]4)c(-c4cccc(S(=O)(=O)[O-])c4F)c4nc(c(-c5cccc(S(=O)(=O)[O-])c5F)c5ccc2[nH]5)C=C4)C=C3)cc1
REMARK SMILES IDX 33 1 32 2 31 3 30 4 29 5 2 6 1 7 3 8 4 9 5 10 6 11 27 12
REMARK SMILES IDX 7 13 8 14 26 15 28 16 9 17 10 18 25 19 11 20 12 21 20 22
REMARK SMILES IDX 24 23 21 24 23 25 22 26 13 27 14 28 15 29 19 30 16 31 18 32
REMARK SMILES IDX 17 33 34 34 35 35 36 36 37 37 38 38 39 39 40 40 41 41 42 42
REMARK SMILES IDX 103 43 43 44 102 45 44 46 45 47 46 48 96 49 47 50 101 51
REMARK SMILES IDX 95 52 97 53 48 54 100 55 94 56 93 57 49 59 81 60 61 61 80 62
REMARK SMILES IDX 62 63 65 64 79 65 98 66 63 67 64 68 78 70 99 71 66 72 50 73
REMARK SMILES IDX 51 74 59 75 52 76 54 77 60 78 53 79 55 80 56 81 57 82 58 83
REMARK SMILES IDX 82 84 83 85 91 86 84 87 86 88 92 89 85 90 87 91 88 92 89 93
REMARK SMILES IDX 90 94 67 95 68 96 76 97 69 98 71 99 77 100 70 101 72 102
REMARK SMILES IDX 73 103 74 104 75 105
REMARK H PARENT 97 58 65 69
REMARK Flexibility Score: inf
ROOT
ATOM      1  C   UNL A   1      52.063  26.641  34.138  1.00  0.00     0.188 C 
ENDROOT
BRANCH   1   2
ATOM      2  O   UNL A   1      50.871  26.833  33.376  1.00  0.00    -0.376 OA
BRANCH   2   3
ATOM      3  C   UNL A   1      50.970  26.657  31.976  1.00  0.00     0.202 C 
BRANCH   3   4
ATOM      4  C   UNL A   1      50.486  27.835  31.134  1.00  0.00     0.261 C 
BRANCH   4   5
ATOM      5  O   UNL A   1      49.316  27.566  30.354  1.00  0.00    -0.463 OA
BRANCH   5   6
ATOM      6  C   UNL A   1      48.114  27.839  30.931  1.00  0.00     0.307 C 
ATOM      7  O   UNL A   1      47.375  26.948  31.328  1.00  0.00    -0.252 OA
BRANCH   6   8
ATOM      8  C   UNL A   1      47.666  29.281  30.793  1.00  0.00     0.144 C 
BRANCH   8   9
ATOM      9  C   UNL A   1      46.613  29.522  29.725  1.00  0.00     0.139 C 
BRANCH   9  10
ATOM     10  N   UNL A   1      46.671  30.844  29.087  1.00  0.00    -0.292 N 
ATOM     11  C   UNL A   1      45.772  31.791  29.507  1.00  0.00     0.267 C 
ATOM     12  C   UNL A   1      47.546  31.254  28.109  1.00  0.00     0.148 C 
ATOM     13  O   UNL A   1      45.224  31.761  30.595  1.00  0.00    -0.268 OA
ATOM     14  C   UNL A   1      45.671  32.915  28.553  1.00  0.00     0.093 C 
ATOM     15  S   UNL A   1      47.101  32.878  27.580  1.00  0.00    -0.053 SA
ATOM     16  S   UNL A   1      48.835  30.421  27.463  1.00  0.00    -0.052 S 
ATOM     17  C   UNL A   1      44.606  33.730  28.451  1.00  0.00     0.069 C 
ATOM     18  C   UNL A   1      44.508  34.832  27.416  1.00  0.00     0.260 C 
ATOM     19  C   UNL A   1      43.317  33.741  29.189  1.00  0.00     0.012 A 
ATOM     20  O   UNL A   1      45.345  35.165  26.595  1.00  0.00    -0.269 OA
ATOM     21  N   UNL A   1      43.240  35.381  27.579  1.00  0.00    -0.303 N 
ATOM     22  C   UNL A   1      42.567  34.796  28.663  1.00  0.00     0.052 A 
ATOM     23  C   UNL A   1      42.724  32.935  30.154  1.00  0.00     0.011 A 
ATOM     24  C   UNL A   1      41.310  35.130  29.154  1.00  0.00     0.027 A 
ATOM     25  C   UNL A   1      41.445  33.232  30.634  1.00  0.00     0.001 A 
ATOM     26  C   UNL A   1      40.746  34.334  30.147  1.00  0.00     0.002 A 
BRANCH  21  27
ATOM     27  C   UNL A   1      42.622  36.243  26.594  1.00  0.00     0.161 C 
BRANCH  27  28
ATOM     28  C   UNL A   1      42.735  37.711  26.971  1.00  0.00    -0.028 A 
ATOM     29  C   UNL A   1      43.899  38.226  27.564  1.00  0.00     0.005 A 
ATOM     30  C   UNL A   1      41.651  38.581  26.781  1.00  0.00     0.005 A 
ATOM     31  C   UNL A   1      43.975  39.558  27.976  1.00  0.00     0.000 A 
ATOM     32  C   UNL A   1      41.737  39.921  27.171  1.00  0.00     0.000 A 
ATOM     33  C   UNL A   1      42.895  40.407  27.775  1.00  0.00     0.000 A 
ENDBRANCH  27  28
ENDBRANCH  21  27
ENDBRANCH   9  10
ENDBRANCH   8   9
ENDBRANCH   6   8
ENDBRANCH   5   6
ENDBRANCH   4   5
ENDBRANCH   3   4
ENDBRANCH   2   3
ENDBRANCH   1   2
BRANCH   1  34
ATOM     34  C   UNL A   1      51.959  25.792  35.407  1.00  0.00     0.188 C 
BRANCH  34  35
ATOM     35  O   UNL A   1      51.949  26.467  36.660  1.00  0.00    -0.376 OA
BRANCH  35  36
ATOM     36  C   UNL A   1      50.767  27.159  37.054  1.00  0.00     0.202 C 
BRANCH  36  37
ATOM     37  C   UNL A   1      49.582  26.277  37.443  1.00  0.00     0.261 C 
BRANCH  37  38
ATOM     38  O   UNL A   1      48.521  26.356  36.477  1.00  0.00    -0.460 OA
BRANCH  38  39
ATOM     39  C   UNL A   1      47.265  26.127  36.930  1.00  0.00     0.338 C 
ATOM     40  O   UNL A   1      46.943  25.741  38.039  1.00  0.00    -0.246 OA
BRANCH  39  41
ATOM     41  C   UNL A   1      46.301  26.569  35.898  1.00  0.00     0.060 A 
ATOM     42  C   UNL A   1      45.073  25.922  35.748  1.00  0.00     0.016 A 
ATOM     43  C   UNL A   1      46.630  27.666  35.091  1.00  0.00     0.016 A 
ATOM     44  C   UNL A   1      44.154  26.400  34.813  1.00  0.00     0.010 A 
ATOM     45  C   UNL A   1      45.712  28.140  34.151  1.00  0.00     0.010 A 
ATOM     46  C   UNL A   1      44.458  27.524  34.025  1.00  0.00    -0.014 A 
BRANCH  46  47
ATOM     47  C   UNL A   1      43.391  28.148  33.208  1.00  0.00     0.031 A 
ATOM     48  C   UNL A   1      43.180  27.789  31.771  1.00  0.00     0.074 A 
ATOM     49  C   UNL A   1      42.594  29.055  33.806  1.00  0.00     0.049 A 
ATOM     50  N   UNL A   1      42.222  28.174  30.967  1.00  0.00    -0.248 NA
ATOM     51  C   UNL A   1      44.161  26.886  31.152  1.00  0.00     0.031 C 
ATOM     52  C   UNL A   1      42.739  29.512  35.190  1.00  0.00     0.029 A 
ATOM     53  N   UNL A   1      41.508  29.747  33.336  1.00  0.00    -0.354 N 
ATOM     54  C   UNL A   1      42.476  27.560  29.749  1.00  0.00     0.074 A 
ATOM     55  C   UNL A   1      43.695  26.794  29.911  1.00  0.00     0.031 C 
ATOM     56  C   UNL A   1      41.764  30.392  35.463  1.00  0.00     0.029 A 
ATOM     57  C   UNL A   1      40.935  30.569  34.276  1.00  0.00     0.049 A 
ATOM     58  H   UNL A   1      41.171  29.661  32.415  1.00  0.00     0.167 HD
ATOM     59  C   UNL A   1      41.741  27.611  28.614  1.00  0.00     0.034 A 
ATOM     60  C   UNL A   1      39.854  31.369  34.198  1.00  0.00     0.034 A 
ATOM     61  C   UNL A   1      40.526  28.371  28.462  1.00  0.00     0.049 A 
ATOM     62  C   UNL A   1      39.060  31.409  32.926  1.00  0.00     0.074 A 
ATOM     63  C   UNL A   1      39.697  28.450  27.357  1.00  0.00     0.029 A 
ATOM     64  N   UNL A   1      39.972  29.186  29.436  1.00  0.00    -0.354 N 
ATOM     65  N   UNL A   1      39.250  30.730  31.821  1.00  0.00    -0.248 NA
ATOM     66  C   UNL A   1      37.891  32.298  32.896  1.00  0.00     0.031 C 
ATOM     67  C   UNL A   1      38.647  29.322  27.659  1.00  0.00     0.029 A 
ATOM     68  C   UNL A   1      38.815  29.776  28.957  1.00  0.00     0.049 A 
ATOM     69  H   UNL A   1      40.346  29.326  30.336  1.00  0.00     0.167 HD
ATOM     70  C   UNL A   1      38.216  31.097  30.968  1.00  0.00     0.074 A 
ATOM     71  C   UNL A   1      37.393  32.045  31.692  1.00  0.00     0.031 C 
ATOM     72  C   UNL A   1      37.985  30.692  29.696  1.00  0.00     0.034 A 
BRANCH  59  73
ATOM     73  C   UNL A   1      42.182  26.767  27.450  1.00  0.00     0.023 A 
ATOM     74  C   UNL A   1      42.979  27.357  26.448  1.00  0.00     0.012 A 
ATOM     75  C   UNL A   1      41.911  25.386  27.399  1.00  0.00     0.148 A 
ATOM     76  C   UNL A   1      43.495  26.587  25.407  1.00  0.00     0.002 A 
ATOM     77  C   UNL A   1      42.450  24.620  26.371  1.00  0.00     0.091 A 
ATOM     78  F   UNL A   1      41.142  24.851  28.358  1.00  0.00    -0.205 F 
ATOM     79  C   UNL A   1      43.239  25.219  25.374  1.00  0.00     0.022 A 
BRANCH  77  80
ATOM     80  S   UNL A   1      42.222  22.841  26.256  1.00  0.00     0.127 S 
ATOM     81  O   UNL A   1      42.853  22.548  24.969  1.00  0.00    -0.237 OA
ATOM     82  O   UNL A   1      42.963  22.362  27.422  1.00  0.00    -0.237 OA
ATOM     83  O   UNL A   1      40.785  22.614  26.306  1.00  0.00    -0.744 OA
ENDBRANCH  77  80
ENDBRANCH  59  73
BRANCH  60  84
ATOM     84  C   UNL A   1      39.429  32.125  35.405  1.00  0.00     0.023 A 
ATOM     85  C   UNL A   1      38.476  31.556  36.270  1.00  0.00     0.012 A 
ATOM     86  C   UNL A   1      40.037  33.347  35.747  1.00  0.00     0.148 A 
ATOM     87  C   UNL A   1      38.132  32.197  37.460  1.00  0.00     0.002 A 
ATOM     88  C   UNL A   1      39.716  33.961  36.952  1.00  0.00     0.091 A 
ATOM     89  F   UNL A   1      40.944  33.860  34.905  1.00  0.00    -0.205 F 
ATOM     90  C   UNL A   1      38.758  33.392  37.805  1.00  0.00     0.022 A 
BRANCH  88  91
ATOM     91  S   UNL A   1      40.542  35.447  37.534  1.00  0.00     0.127 S 
ATOM     92  O   UNL A   1      41.876  35.291  36.960  1.00  0.00    -0.237 OA
ATOM     93  O   UNL A   1      39.727  36.496  36.923  1.00  0.00    -0.237 OA
ATOM     94  O   UNL A   1      40.477  35.393  38.988  1.00  0.00    -0.744 OA
ENDBRANCH  88  91
ENDBRANCH  60  84
BRANCH  72  95
ATOM     95  C   UNL A   1      36.791  31.269  28.985  1.00  0.00     0.023 A 
ATOM     96  C   UNL A   1      36.734  32.657  28.750  1.00  0.00     0.012 A 
ATOM     97  C   UNL A   1      35.788  30.432  28.458  1.00  0.00     0.148 A 
ATOM     98  C   UNL A   1      35.688  33.206  28.010  1.00  0.00     0.002 A 
ATOM     99  C   UNL A   1      34.766  30.983  27.693  1.00  0.00     0.091 A 
ATOM    100  F   UNL A   1      35.861  29.117  28.705  1.00  0.00    -0.205 F 
ATOM    101  C   UNL A   1      34.712  32.369  27.473  1.00  0.00     0.022 A 
BRANCH  99 102
ATOM    102  S   UNL A   1      33.502  29.982  26.900  1.00  0.00     0.127 S 
ATOM    103  O   UNL A   1      34.300  29.174  25.977  1.00  0.00    -0.237 OA
ATOM    104  O   UNL A   1      32.941  29.242  28.030  1.00  0.00    -0.237 OA
ATOM    105  O   UNL A   1      32.582  30.918  26.268  1.00  0.00    -0.744 OA
ENDBRANCH  99 102
ENDBRANCH  72  95
ENDBRANCH  46  47
ENDBRANCH  39  41
ENDBRANCH  38  39
ENDBRANCH  37  38
ENDBRANCH  36  37
ENDBRANCH  35  36
ENDBRANCH  34  35
ENDBRANCH   1  34
TORSDOF 24
ENDMDL
MODEL 3
REMARK VINA RESULT:      -8.2      7.057     13.420
REMARK SMILES O=C(CCN1C(=O)/C(=C2/C(=O)N(Cc3ccccc3)c3ccccc32)SC1=S)OCCOCCOCCOC(=O)c1ccc(-c2c3nc(c(-c4cccc(S(=O)(=O)[O-])c4F)c4ccc([nH]4)c(-c4cccc(S(=O)(=O)[O-])c4F)c4nc(c(-c5cccc(S(=O)(=O)[O-])c5F)c5ccc2[nH]5)C=C4)C=C3)cc1
REMARK SMILES IDX 33 1 32 2 31 3 30 4 29 5 2 6 1 7 3 8 4 9 5 10 6 11 27 12
REMARK SMILES IDX 7 13 8 14 26 15 28 16 9 17 10 18 25 19 11 20 12 21 20 22
REMARK SMILES IDX 24 23 21 24 23 25 22 26 13 27 14 28 15 29 19 30 16 31 18 32
REMARK SMILES IDX 17 33 34 34 35 35 36 36 37 37 38 38 39 39 40 40 41 41 42 42
REMARK SMILES IDX 103 43 43 44 102 45 44 46 45 47 46 48 96 49 47 50 101 51
REMARK SMILES IDX 95 52 97 53 48 54 100 55 94 56 93 57 49 59 81 60 61 61 80 62
REMARK SMILES IDX 62 63 65 64 79 65 98 66 63 67 64 68 78 70 99 71 66 72 50 73
REMARK SMILES IDX 51 74 59 75 52 76 54 77 60 78 53 79 55 80 56 81 57 82 58 83
REMARK SMILES IDX 82 84 83 85 91 86 84 87 86 88 92 89 85 90 87 91 88 92 89 93
REMARK SMILES IDX 90 94 67 95 68 96 76 97 69 98 71 99 77 100 70 101 72 102
REMARK SMILES IDX 73 103 74 104 75 105
REMARK H PARENT 97 58 65 69
REMARK Flexibility Score: inf
ROOT
ATOM      1  C   UNL A   1      46.176  23.324  26.239  1.00  0.00     0.188 C 
ENDROOT
BRANCH   1   2
ATOM      2  O   UNL A   1      44.899  23.762  26.708  1.00  0.00    -0.376 OA
BRANCH   2   3
ATOM      3  C   UNL A   1      43.983  24.221  25.733  1.00  0.00     0.202 C 
BRANCH   3   4
ATOM      4  C   UNL A   1      43.745  25.729  25.719  1.00  0.00     0.261 C 
BRANCH   4   5
ATOM      5  O   UNL A   1      42.367  26.113  25.763  1.00  0.00    -0.463 OA
BRANCH   5   6
ATOM      6  C   UNL A   1      42.058  27.356  25.305  1.00  0.00     0.307 C 
ATOM      7  O   UNL A   1      42.782  27.948  24.515  1.00  0.00    -0.252 OA
BRANCH   6   8
ATOM      8  C   UNL A   1      40.921  28.033  26.045  1.00  0.00     0.144 C 
BRANCH   8   9
ATOM      9  C   UNL A   1      40.510  27.356  27.341  1.00  0.00     0.139 C 
BRANCH   9  10
ATOM     10  N   UNL A   1      40.357  28.259  28.489  1.00  0.00    -0.292 N 
ATOM     11  C   UNL A   1      39.092  28.703  28.783  1.00  0.00     0.267 C 
ATOM     12  C   UNL A   1      41.350  28.708  29.327  1.00  0.00     0.148 C 
ATOM     13  O   UNL A   1      38.079  28.119  28.440  1.00  0.00    -0.268 OA
ATOM     14  C   UNL A   1      39.117  29.874  29.685  1.00  0.00     0.093 C 
ATOM     15  S   UNL A   1      40.667  29.885  30.452  1.00  0.00    -0.053 SA
ATOM     16  S   UNL A   1      42.958  28.276  29.345  1.00  0.00    -0.052 S 
ATOM     17  C   UNL A   1      38.122  30.773  29.786  1.00  0.00     0.069 C 
ATOM     18  C   UNL A   1      38.208  31.999  30.671  1.00  0.00     0.260 C 
ATOM     19  C   UNL A   1      36.820  30.865  29.077  1.00  0.00     0.012 A 
ATOM     20  O   UNL A   1      39.113  32.320  31.422  1.00  0.00    -0.269 OA
ATOM     21  N   UNL A   1      37.035  32.709  30.435  1.00  0.00    -0.303 N 
ATOM     22  C   UNL A   1      36.186  32.014  29.559  1.00  0.00     0.052 A 
ATOM     23  C   UNL A   1      36.195  30.151  28.063  1.00  0.00     0.011 A 
ATOM     24  C   UNL A   1      34.914  32.390  29.143  1.00  0.00     0.027 A 
ATOM     25  C   UNL A   1      34.931  30.534  27.604  1.00  0.00     0.001 A 
ATOM     26  C   UNL A   1      34.286  31.641  28.151  1.00  0.00     0.002 A 
BRANCH  21  27
ATOM     27  C   UNL A   1      36.855  34.089  30.834  1.00  0.00     0.161 C 
BRANCH  27  28
ATOM     28  C   UNL A   1      36.310  34.205  32.249  1.00  0.00    -0.028 A 
ATOM     29  C   UNL A   1      36.583  33.228  33.220  1.00  0.00     0.005 A 
ATOM     30  C   UNL A   1      35.475  35.274  32.606  1.00  0.00     0.005 A 
ATOM     31  C   UNL A   1      36.024  33.298  34.497  1.00  0.00     0.000 A 
ATOM     32  C   UNL A   1      34.935  35.358  33.893  1.00  0.00     0.000 A 
ATOM     33  C   UNL A   1      35.203  34.367  34.836  1.00  0.00     0.000 A 
ENDBRANCH  27  28
ENDBRANCH  21  27
ENDBRANCH   9  10
ENDBRANCH   8   9
ENDBRANCH   6   8
ENDBRANCH   5   6
ENDBRANCH   4   5
ENDBRANCH   3   4
ENDBRANCH   2   3
ENDBRANCH   1   2
BRANCH   1  34
ATOM     34  C   UNL A   1      46.376  23.229  24.725  1.00  0.00     0.188 C 
BRANCH  34  35
ATOM     35  O   UNL A   1      47.322  24.106  24.123  1.00  0.00    -0.376 OA
BRANCH  35  36
ATOM     36  C   UNL A   1      47.525  25.392  24.700  1.00  0.00     0.202 C 
BRANCH  36  37
ATOM     37  C   UNL A   1      48.940  25.955  24.580  1.00  0.00     0.261 C 
BRANCH  37  38
ATOM     38  O   UNL A   1      49.423  26.450  25.841  1.00  0.00    -0.460 OA
BRANCH  38  39
ATOM     39  C   UNL A   1      49.266  25.641  26.916  1.00  0.00     0.338 C 
ATOM     40  O   UNL A   1      49.762  24.542  27.086  1.00  0.00    -0.246 OA
BRANCH  39  41
ATOM     41  C   UNL A   1      48.498  26.369  27.949  1.00  0.00     0.060 A 
ATOM     42  C   UNL A   1      49.156  27.068  28.963  1.00  0.00     0.016 A 
ATOM     43  C   UNL A   1      47.099  26.369  27.878  1.00  0.00     0.016 A 
ATOM     44  C   UNL A   1      48.410  27.802  29.887  1.00  0.00     0.010 A 
ATOM     45  C   UNL A   1      46.353  27.099  28.806  1.00  0.00     0.010 A 
ATOM     46  C   UNL A   1      47.007  27.841  29.801  1.00  0.00    -0.014 A 
BRANCH  46  47
ATOM     47  C   UNL A   1      46.254  28.801  30.642  1.00  0.00     0.031 A 
ATOM     48  C   UNL A   1      45.899  30.171  30.158  1.00  0.00     0.074 A 
ATOM     49  C   UNL A   1      45.882  28.397  31.872  1.00  0.00     0.049 A 
ATOM     50  N   UNL A   1      45.156  31.074  30.743  1.00  0.00    -0.248 NA
ATOM     51  C   UNL A   1      46.443  30.587  28.857  1.00  0.00     0.031 C 
ATOM     52  C   UNL A   1      46.214  27.098  32.462  1.00  0.00     0.029 A 
ATOM     53  N   UNL A   1      45.144  29.027  32.841  1.00  0.00    -0.354 N 
ATOM     54  C   UNL A   1      45.132  32.164  29.885  1.00  0.00     0.074 A 
ATOM     55  C   UNL A   1      45.959  31.820  28.747  1.00  0.00     0.031 C 
ATOM     56  C   UNL A   1      45.662  27.018  33.683  1.00  0.00     0.029 A 
ATOM     57  C   UNL A   1      44.951  28.260  33.965  1.00  0.00     0.049 A 
ATOM     58  H   UNL A   1      44.787  29.938  32.740  1.00  0.00     0.167 HD
ATOM     59  C   UNL A   1      44.458  33.329  30.025  1.00  0.00     0.034 A 
ATOM     60  C   UNL A   1      44.265  28.520  35.095  1.00  0.00     0.034 A 
ATOM     61  C   UNL A   1      43.633  33.662  31.159  1.00  0.00     0.049 A 
ATOM     62  C   UNL A   1      43.530  29.821  35.225  1.00  0.00     0.074 A 
ATOM     63  C   UNL A   1      42.883  34.807  31.366  1.00  0.00     0.029 A 
ATOM     64  N   UNL A   1      43.454  32.861  32.275  1.00  0.00    -0.354 N 
ATOM     65  N   UNL A   1      43.425  30.793  34.352  1.00  0.00    -0.248 NA
ATOM     66  C   UNL A   1      42.798  30.052  36.478  1.00  0.00     0.031 C 
ATOM     67  C   UNL A   1      42.259  34.702  32.613  1.00  0.00     0.029 A 
ATOM     68  C   UNL A   1      42.611  33.487  33.177  1.00  0.00     0.049 A 
ATOM     69  H   UNL A   1      43.866  31.976  32.407  1.00  0.00     0.167 HD
ATOM     70  C   UNL A   1      42.603  31.745  34.942  1.00  0.00     0.074 A 
ATOM     71  C   UNL A   1      42.224  31.225  36.240  1.00  0.00     0.031 C 
ATOM     72  C   UNL A   1      42.213  32.947  34.451  1.00  0.00     0.034 A 
BRANCH  59  73
ATOM     73  C   UNL A   1      44.519  34.320  28.895  1.00  0.00     0.023 A 
ATOM     74  C   UNL A   1      43.516  34.281  27.905  1.00  0.00     0.012 A 
ATOM     75  C   UNL A   1      45.483  35.345  28.869  1.00  0.00     0.148 A 
ATOM     76  C   UNL A   1      43.475  35.245  26.899  1.00  0.00     0.002 A 
ATOM     77  C   UNL A   1      45.421  36.318  27.876  1.00  0.00     0.091 A 
ATOM     78  F   UNL A   1      46.432  35.355  29.815  1.00  0.00    -0.205 F 
ATOM     79  C   UNL A   1      44.421  36.267  26.890  1.00  0.00     0.022 A 
BRANCH  77  80
ATOM     80  S   UNL A   1      46.560  37.705  27.796  1.00  0.00     0.127 S 
ATOM     81  O   UNL A   1      46.090  38.400  26.597  1.00  0.00    -0.237 OA
ATOM     82  O   UNL A   1      46.283  38.401  29.052  1.00  0.00    -0.237 OA
ATOM     83  O   UNL A   1      47.893  37.128  27.694  1.00  0.00    -0.744 OA
ENDBRANCH  77  80
ENDBRANCH  59  73
BRANCH  60  84
ATOM     84  C   UNL A   1      44.185  27.472  36.145  1.00  0.00     0.023 A 
ATOM     85  C   UNL A   1      43.168  26.503  36.072  1.00  0.00     0.012 A 
ATOM     86  C   UNL A   1      45.167  27.375  37.150  1.00  0.00     0.148 A 
ATOM     87  C   UNL A   1      43.128  25.451  36.987  1.00  0.00     0.002 A 
ATOM     88  C   UNL A   1      45.142  26.304  38.035  1.00  0.00     0.091 A 
ATOM     89  F   UNL A   1      46.125  28.311  37.190  1.00  0.00    -0.205 F 
ATOM     90  C   UNL A   1      44.118  25.346  37.961  1.00  0.00     0.022 A 
BRANCH  88  91
ATOM     91  S   UNL A   1      46.429  26.024  39.256  1.00  0.00     0.127 S 
ATOM     92  O   UNL A   1      46.280  27.194  40.120  1.00  0.00    -0.237 OA
ATOM     93  O   UNL A   1      46.001  24.759  39.852  1.00  0.00    -0.237 OA
ATOM     94  O   UNL A   1      47.677  25.955  38.510  1.00  0.00    -0.744 OA
ENDBRANCH  88  91
ENDBRANCH  60  84
BRANCH  72  95
ATOM     95  C   UNL A   1      41.328  33.801  35.317  1.00  0.00     0.023 A 
ATOM     96  C   UNL A   1      39.932  33.754  35.134  1.00  0.00     0.012 A 
ATOM     97  C   UNL A   1      41.866  34.562  36.373  1.00  0.00     0.148 A 
ATOM     98  C   UNL A   1      39.084  34.462  35.984  1.00  0.00     0.002 A 
ATOM     99  C   UNL A   1      41.012  35.238  37.238  1.00  0.00     0.091 A 
ATOM    100  F   UNL A   1      43.198  34.599  36.519  1.00  0.00    -0.205 F 
ATOM    101  C   UNL A   1      39.622  35.193  37.041  1.00  0.00     0.022 A 
BRANCH  99 102
ATOM    102  S   UNL A   1      41.604  36.149  38.669  1.00  0.00     0.127 S 
ATOM    103  O   UNL A   1      42.386  35.129  39.367  1.00  0.00    -0.237 OA
ATOM    104  O   UNL A   1      42.398  37.211  38.051  1.00  0.00    -0.237 OA
ATOM    105  O   UNL A   1      40.416  36.610  39.374  1.00  0.00    -0.744 OA
ENDBRANCH  99 102
ENDBRANCH  72  95
ENDBRANCH  46  47
ENDBRANCH  39  41
ENDBRANCH  38  39
ENDBRANCH  37  38
ENDBRANCH  36  37
ENDBRANCH  35  36
ENDBRANCH  34  35
ENDBRANCH   1  34
TORSDOF 24
ENDMDL
