MODEL 1
REMARK VINA RESULT:     -10.3      0.000      0.000
REMARK SMILES COc1ccccc1[C@H](C)NC(=O)[C@@H]1CC=CC[C@@H]1C(=O)OCCOCCOCCOC(=O)c1ccc(-c2c3nc(c(-c4cccc(S(=O)(=O)[O-])c4F)c4ccc([nH]4)c(-c4cccc(S(=O)(=O)[O-])c4F)c4nc(c(-c5cccc(S(=O)(=O)[O-])c5F)c5ccc2[nH]5)C=C4)C=C3)cc1
REMARK SMILES IDX 26 1 25 2 24 3 23 4 22 5 20 6 21 7 19 8 14 9 15 10 16 11
REMARK SMILES IDX 18 12 17 13 12 14 11 15 13 17 9 18 10 19 8 20 3 21 4 22 5 23
REMARK SMILES IDX 7 24 6 25 2 26 1 27 27 28 28 29 29 30 30 31 31 32 32 33
REMARK SMILES IDX 33 34 34 35 35 36 96 37 36 38 95 39 37 40 38 41 39 42 89 43
REMARK SMILES IDX 40 44 94 45 88 46 90 47 41 48 93 49 87 50 86 51 42 53 74 54
REMARK SMILES IDX 54 55 73 56 55 57 58 58 72 59 91 60 56 61 57 62 71 64 92 65
REMARK SMILES IDX 59 66 43 67 44 68 52 69 45 70 47 71 53 72 46 73 48 74 49 75
REMARK SMILES IDX 50 76 51 77 75 78 76 79 84 80 77 81 79 82 85 83 78 84 80 85
REMARK SMILES IDX 81 86 82 87 83 88 60 89 61 90 69 91 62 92 64 93 70 94 63 95
REMARK SMILES IDX 65 96 66 97 67 98 68 99
REMARK H PARENT 11 16 90 52 58 63
REMARK Flexibility Score: inf
ROOT
ATOM      1  C   UNL A   1      34.631  31.679  28.463  1.00  0.00     0.188 C 
ENDROOT
BRANCH   1   2
ATOM      2  O   UNL A   1      33.676  30.894  27.756  1.00  0.00    -0.376 OA
BRANCH   2   3
ATOM      3  C   UNL A   1      34.123  29.997  26.748  1.00  0.00     0.202 C 
BRANCH   3   4
ATOM      4  C   UNL A   1      33.233  28.782  26.467  1.00  0.00     0.261 C 
BRANCH   4   5
ATOM      5  O   UNL A   1      33.564  28.091  25.242  1.00  0.00    -0.463 OA
BRANCH   5   6
ATOM      6  C   UNL A   1      33.350  26.758  25.217  1.00  0.00     0.310 C 
ATOM      7  O   UNL A   1      34.095  25.937  25.746  1.00  0.00    -0.252 OA
BRANCH   6   8
ATOM      8  C   UNL A   1      32.055  26.307  24.531  1.00  0.00     0.115 C 
ATOM      9  C   UNL A   1      31.988  25.984  23.019  1.00  0.00     0.097 C 
ATOM     10  C   UNL A   1      31.261  27.001  22.121  1.00  0.00     0.041 C 
ATOM     11  C   UNL A   1      30.081  27.646  22.760  1.00  0.00    -0.030 C 
ATOM     12  C   UNL A   1      30.872  27.132  25.081  1.00  0.00     0.043 C 
ATOM     13  C   UNL A   1      29.909  27.695  24.084  1.00  0.00    -0.030 C 
BRANCH   9  14
ATOM     14  C   UNL A   1      33.334  25.666  22.405  1.00  0.00     0.224 C 
ATOM     15  N   UNL A   1      33.983  24.536  22.767  1.00  0.00    -0.349 N 
ATOM     16  H   UNL A   1      34.951  24.553  22.590  1.00  0.00     0.164 HD
ATOM     17  O   UNL A   1      33.889  26.391  21.579  1.00  0.00    -0.275 OA
BRANCH  15  18
ATOM     18  C   UNL A   1      33.502  23.284  23.378  1.00  0.00     0.113 C 
ATOM     19  C   UNL A   1      32.737  22.618  22.223  1.00  0.00     0.036 C 
BRANCH  18  20
ATOM     20  C   UNL A   1      34.658  22.456  23.946  1.00  0.00     0.016 A 
ATOM     21  C   UNL A   1      34.544  21.305  24.754  1.00  0.00     0.124 A 
ATOM     22  C   UNL A   1      35.708  20.614  25.162  1.00  0.00     0.047 A 
ATOM     23  C   UNL A   1      36.987  21.074  24.865  1.00  0.00     0.004 A 
ATOM     24  C   UNL A   1      35.984  22.932  23.733  1.00  0.00     0.010 A 
ATOM     25  C   UNL A   1      37.123  22.264  24.182  1.00  0.00     0.001 A 
BRANCH  21  26
ATOM     26  O   UNL A   1      33.463  20.831  25.446  1.00  0.00    -0.496 OA
ATOM     27  C   UNL A   1      32.557  19.913  24.878  1.00  0.00     0.278 C 
ENDBRANCH  21  26
ENDBRANCH  18  20
ENDBRANCH  15  18
ENDBRANCH   9  14
ENDBRANCH   6   8
ENDBRANCH   5   6
ENDBRANCH   4   5
ENDBRANCH   3   4
ENDBRANCH   2   3
ENDBRANCH   1   2
BRANCH   1  28
ATOM     28  C   UNL A   1      34.841  33.137  28.041  1.00  0.00     0.188 C 
BRANCH  28  29
ATOM     29  O   UNL A   1      33.689  33.941  28.234  1.00  0.00    -0.376 OA
BRANCH  29  30
ATOM     30  C   UNL A   1      33.910  35.338  28.178  1.00  0.00     0.202 C 
BRANCH  30  31
ATOM     31  C   UNL A   1      32.869  36.085  29.014  1.00  0.00     0.261 C 
BRANCH  31  32
ATOM     32  O   UNL A   1      32.397  35.359  30.165  1.00  0.00    -0.460 OA
BRANCH  32  33
ATOM     33  C   UNL A   1      32.940  35.687  31.355  1.00  0.00     0.338 C 
ATOM     34  O   UNL A   1      32.495  36.490  32.171  1.00  0.00    -0.246 OA
BRANCH  33  35
ATOM     35  C   UNL A   1      34.066  34.773  31.615  1.00  0.00     0.060 A 
ATOM     36  C   UNL A   1      33.801  33.475  32.072  1.00  0.00     0.016 A 
ATOM     37  C   UNL A   1      35.380  35.196  31.417  1.00  0.00     0.016 A 
ATOM     38  C   UNL A   1      34.852  32.600  32.351  1.00  0.00     0.010 A 
ATOM     39  C   UNL A   1      36.432  34.327  31.715  1.00  0.00     0.010 A 
ATOM     40  C   UNL A   1      36.176  33.034  32.209  1.00  0.00    -0.014 A 
BRANCH  40  41
ATOM     41  C   UNL A   1      37.302  32.217  32.726  1.00  0.00     0.031 A 
ATOM     42  C   UNL A   1      37.926  32.609  34.037  1.00  0.00     0.074 A 
ATOM     43  C   UNL A   1      37.792  31.174  32.032  1.00  0.00     0.049 A 
ATOM     44  N   UNL A   1      39.006  32.153  34.613  1.00  0.00    -0.248 NA
ATOM     45  C   UNL A   1      37.238  33.667  34.797  1.00  0.00     0.031 C 
ATOM     46  C   UNL A   1      37.261  30.674  30.767  1.00  0.00     0.029 A 
ATOM     47  N   UNL A   1      38.880  30.373  32.283  1.00  0.00    -0.354 N 
ATOM     48  C   UNL A   1      39.159  32.902  35.774  1.00  0.00     0.074 A 
ATOM     49  C   UNL A   1      38.056  33.837  35.824  1.00  0.00     0.031 C 
ATOM     50  C   UNL A   1      38.047  29.673  30.331  1.00  0.00     0.029 A 
ATOM     51  C   UNL A   1      39.160  29.495  31.262  1.00  0.00     0.049 A 
ATOM     52  H   UNL A   1      39.408  30.423  33.113  1.00  0.00     0.167 HD
ATOM     53  C   UNL A   1      40.128  32.818  36.715  1.00  0.00     0.034 A 
ATOM     54  C   UNL A   1      40.215  28.675  31.079  1.00  0.00     0.034 A 
ATOM     55  C   UNL A   1      41.208  31.871  36.675  1.00  0.00     0.049 A 
ATOM     56  C   UNL A   1      41.302  28.622  32.124  1.00  0.00     0.074 A 
ATOM     57  C   UNL A   1      42.215  31.678  37.604  1.00  0.00     0.029 A 
ATOM     58  N   UNL A   1      41.431  30.967  35.650  1.00  0.00    -0.354 N 
ATOM     59  N   UNL A   1      41.390  29.272  33.260  1.00  0.00    -0.248 NA
ATOM     60  C   UNL A   1      42.426  27.707  31.872  1.00  0.00     0.031 C 
ATOM     61  C   UNL A   1      43.066  30.677  37.124  1.00  0.00     0.029 A 
ATOM     62  C   UNL A   1      42.567  30.222  35.914  1.00  0.00     0.049 A 
ATOM     63  H   UNL A   1      40.866  30.869  34.850  1.00  0.00     0.167 HD
ATOM     64  C   UNL A   1      42.554  28.818  33.873  1.00  0.00     0.074 A 
ATOM     65  C   UNL A   1      43.132  27.827  32.988  1.00  0.00     0.031 C 
ATOM     66  C   UNL A   1      43.101  29.196  35.055  1.00  0.00     0.034 A 
BRANCH  53  67
ATOM     67  C   UNL A   1      40.062  33.779  37.871  1.00  0.00     0.023 A 
ATOM     68  C   UNL A   1      40.778  34.991  37.821  1.00  0.00     0.012 A 
ATOM     69  C   UNL A   1      39.254  33.498  38.990  1.00  0.00     0.148 A 
ATOM     70  C   UNL A   1      40.720  35.894  38.882  1.00  0.00     0.002 A 
ATOM     71  C   UNL A   1      39.165  34.422  40.024  1.00  0.00     0.091 A 
ATOM     72  F   UNL A   1      38.600  32.329  39.030  1.00  0.00    -0.205 F 
ATOM     73  C   UNL A   1      39.906  35.614  39.978  1.00  0.00     0.022 A 
BRANCH  71  74
ATOM     74  S   UNL A   1      38.084  34.189  41.439  1.00  0.00     0.127 S 
ATOM     75  O   UNL A   1      36.909  33.583  40.815  1.00  0.00    -0.237 OA
ATOM     76  O   UNL A   1      38.867  33.279  42.276  1.00  0.00    -0.237 OA
ATOM     77  O   UNL A   1      37.878  35.512  42.010  1.00  0.00    -0.744 OA
ENDBRANCH  71  74
ENDBRANCH  53  67
BRANCH  54  78
ATOM     78  C   UNL A   1      40.297  27.826  29.855  1.00  0.00     0.023 A 
ATOM     79  C   UNL A   1      39.522  26.654  29.768  1.00  0.00     0.012 A 
ATOM     80  C   UNL A   1      41.129  28.181  28.775  1.00  0.00     0.148 A 
ATOM     81  C   UNL A   1      39.593  25.836  28.639  1.00  0.00     0.002 A 
ATOM     82  C   UNL A   1      41.154  27.391  27.631  1.00  0.00     0.091 A 
ATOM     83  F   UNL A   1      41.876  29.289  28.886  1.00  0.00    -0.205 F 
ATOM     84  C   UNL A   1      40.400  26.210  27.568  1.00  0.00     0.022 A 
BRANCH  82  85
ATOM     85  S   UNL A   1      42.071  27.854  26.156  1.00  0.00     0.127 S 
ATOM     86  O   UNL A   1      41.499  29.162  25.848  1.00  0.00    -0.237 OA
ATOM     87  O   UNL A   1      43.445  27.885  26.657  1.00  0.00    -0.237 OA
ATOM     88  O   UNL A   1      41.807  26.804  25.182  1.00  0.00    -0.744 OA
ENDBRANCH  82  85
ENDBRANCH  54  78
BRANCH  66  89
ATOM     89  C   UNL A   1      44.365  28.509  35.504  1.00  0.00     0.023 A 
ATOM     90  C   UNL A   1      45.617  29.100  35.250  1.00  0.00     0.012 A 
ATOM     91  C   UNL A   1      44.300  27.326  36.270  1.00  0.00     0.148 A 
ATOM     92  C   UNL A   1      46.788  28.513  35.731  1.00  0.00     0.002 A 
ATOM     93  C   UNL A   1      45.466  26.774  36.788  1.00  0.00     0.091 A 
ATOM     94  F   UNL A   1      43.099  26.771  36.487  1.00  0.00    -0.205 F 
ATOM     95  C   UNL A   1      46.712  27.361  36.510  1.00  0.00     0.022 A 
BRANCH  93  96
ATOM     96  S   UNL A   1      45.457  25.351  37.882  1.00  0.00     0.127 S 
ATOM     97  O   UNL A   1      46.884  25.057  38.003  1.00  0.00    -0.237 OA
ATOM     98  O   UNL A   1      44.841  25.895  39.093  1.00  0.00    -0.237 OA
ATOM     99  O   UNL A   1      44.666  24.328  37.210  1.00  0.00    -0.744 OA
ENDBRANCH  93  96
ENDBRANCH  66  89
ENDBRANCH  40  41
ENDBRANCH  33  35
ENDBRANCH  32  33
ENDBRANCH  31  32
ENDBRANCH  30  31
ENDBRANCH  29  30
ENDBRANCH  28  29
ENDBRANCH   1  28
TORSDOF 24
ENDMDL
MODEL 2
REMARK VINA RESULT:     -10.1      6.524     12.743
REMARK SMILES COc1ccccc1[C@H](C)NC(=O)[C@@H]1CC=CC[C@@H]1C(=O)OCCOCCOCCOC(=O)c1ccc(-c2c3nc(c(-c4cccc(S(=O)(=O)[O-])c4F)c4ccc([nH]4)c(-c4cccc(S(=O)(=O)[O-])c4F)c4nc(c(-c5cccc(S(=O)(=O)[O-])c5F)c5ccc2[nH]5)C=C4)C=C3)cc1
REMARK SMILES IDX 26 1 25 2 24 3 23 4 22 5 20 6 21 7 19 8 14 9 15 10 16 11
REMARK SMILES IDX 18 12 17 13 12 14 11 15 13 17 9 18 10 19 8 20 3 21 4 22 5 23
REMARK SMILES IDX 7 24 6 25 2 26 1 27 27 28 28 29 29 30 30 31 31 32 32 33
REMARK SMILES IDX 33 34 34 35 35 36 96 37 36 38 95 39 37 40 38 41 39 42 89 43
REMARK SMILES IDX 40 44 94 45 88 46 90 47 41 48 93 49 87 50 86 51 42 53 74 54
REMARK SMILES IDX 54 55 73 56 55 57 58 58 72 59 91 60 56 61 57 62 71 64 92 65
REMARK SMILES IDX 59 66 43 67 44 68 52 69 45 70 47 71 53 72 46 73 48 74 49 75
REMARK SMILES IDX 50 76 51 77 75 78 76 79 84 80 77 81 79 82 85 83 78 84 80 85
REMARK SMILES IDX 81 86 82 87 83 88 60 89 61 90 69 91 62 92 64 93 70 94 63 95
REMARK SMILES IDX 65 96 66 97 67 98 68 99
REMARK H PARENT 11 16 90 52 58 63
REMARK Flexibility Score: inf
ROOT
ATOM      1  C   UNL A   1      40.206  21.706  26.187  1.00  0.00     0.188 C 
ENDROOT
BRANCH   1   2
ATOM      2  O   UNL A   1      39.091  22.541  26.483  1.00  0.00    -0.376 OA
BRANCH   2   3
ATOM      3  C   UNL A   1      37.906  22.419  25.708  1.00  0.00     0.202 C 
BRANCH   3   4
ATOM      4  C   UNL A   1      36.916  23.586  25.778  1.00  0.00     0.261 C 
BRANCH   4   5
ATOM      5  O   UNL A   1      35.539  23.171  25.915  1.00  0.00    -0.463 OA
BRANCH   5   6
ATOM      6  C   UNL A   1      34.594  24.045  25.503  1.00  0.00     0.310 C 
ATOM      7  O   UNL A   1      34.663  25.258  25.681  1.00  0.00    -0.252 OA
BRANCH   6   8
ATOM      8  C   UNL A   1      33.426  23.437  24.718  1.00  0.00     0.115 C 
ATOM      9  C   UNL A   1      32.086  23.055  25.391  1.00  0.00     0.097 C 
ATOM     10  C   UNL A   1      31.802  21.553  25.575  1.00  0.00     0.041 C 
ATOM     11  C   UNL A   1      32.310  20.695  24.467  1.00  0.00    -0.030 C 
ATOM     12  C   UNL A   1      33.973  22.408  23.706  1.00  0.00     0.043 C 
ATOM     13  C   UNL A   1      33.274  21.086  23.630  1.00  0.00    -0.030 C 
BRANCH   9  14
ATOM     14  C   UNL A   1      31.843  23.761  26.707  1.00  0.00     0.224 C 
ATOM     15  N   UNL A   1      31.479  25.064  26.708  1.00  0.00    -0.349 N 
ATOM     16  H   UNL A   1      31.649  25.529  27.558  1.00  0.00     0.164 HD
ATOM     17  O   UNL A   1      31.961  23.211  27.802  1.00  0.00    -0.275 OA
BRANCH  15  18
ATOM     18  C   UNL A   1      30.872  25.911  25.666  1.00  0.00     0.113 C 
ATOM     19  C   UNL A   1      29.373  25.607  25.815  1.00  0.00     0.036 C 
BRANCH  18  20
ATOM     20  C   UNL A   1      31.251  27.383  25.849  1.00  0.00     0.016 A 
ATOM     21  C   UNL A   1      31.362  28.351  24.828  1.00  0.00     0.124 A 
ATOM     22  C   UNL A   1      31.673  29.690  25.160  1.00  0.00     0.047 A 
ATOM     23  C   UNL A   1      31.960  30.085  26.462  1.00  0.00     0.004 A 
ATOM     24  C   UNL A   1      31.629  27.815  27.153  1.00  0.00     0.010 A 
ATOM     25  C   UNL A   1      31.979  29.131  27.457  1.00  0.00     0.001 A 
BRANCH  21  26
ATOM     26  O   UNL A   1      31.451  28.181  23.473  1.00  0.00    -0.496 OA
ATOM     27  C   UNL A   1      32.466  28.791  22.710  1.00  0.00     0.278 C 
ENDBRANCH  21  26
ENDBRANCH  18  20
ENDBRANCH  15  18
ENDBRANCH   9  14
ENDBRANCH   6   8
ENDBRANCH   5   6
ENDBRANCH   4   5
ENDBRANCH   3   4
ENDBRANCH   2   3
ENDBRANCH   1   2
BRANCH   1  28
ATOM     28  C   UNL A   1      41.445  21.788  27.085  1.00  0.00     0.188 C 
BRANCH  28  29
ATOM     29  O   UNL A   1      42.156  20.564  27.161  1.00  0.00    -0.376 OA
BRANCH  29  30
ATOM     30  C   UNL A   1      41.591  19.491  26.431  1.00  0.00     0.202 C 
BRANCH  30  31
ATOM     31  C   UNL A   1      42.686  18.636  25.789  1.00  0.00     0.261 C 
BRANCH  31  32
ATOM     32  O   UNL A   1      43.997  19.230  25.816  1.00  0.00    -0.460 OA
BRANCH  32  33
ATOM     33  C   UNL A   1      44.445  19.768  24.664  1.00  0.00     0.338 C 
ATOM     34  O   UNL A   1      44.420  19.250  23.551  1.00  0.00    -0.246 OA
BRANCH  33  35
ATOM     35  C   UNL A   1      44.798  21.176  24.919  1.00  0.00     0.060 A 
ATOM     36  C   UNL A   1      45.258  21.545  26.190  1.00  0.00     0.016 A 
ATOM     37  C   UNL A   1      44.669  22.131  23.910  1.00  0.00     0.016 A 
ATOM     38  C   UNL A   1      45.573  22.877  26.463  1.00  0.00     0.010 A 
ATOM     39  C   UNL A   1      44.966  23.466  24.190  1.00  0.00     0.010 A 
ATOM     40  C   UNL A   1      45.394  23.853  25.475  1.00  0.00    -0.014 A 
BRANCH  40  41
ATOM     41  C   UNL A   1      45.486  25.296  25.807  1.00  0.00     0.031 A 
ATOM     42  C   UNL A   1      46.845  25.940  25.819  1.00  0.00     0.074 A 
ATOM     43  C   UNL A   1      44.397  26.015  26.132  1.00  0.00     0.049 A 
ATOM     44  N   UNL A   1      47.196  27.132  26.224  1.00  0.00    -0.248 NA
ATOM     45  C   UNL A   1      47.960  25.123  25.312  1.00  0.00     0.031 C 
ATOM     46  C   UNL A   1      43.023  25.519  26.129  1.00  0.00     0.029 A 
ATOM     47  N   UNL A   1      44.287  27.313  26.568  1.00  0.00    -0.354 N 
ATOM     48  C   UNL A   1      48.576  27.190  26.072  1.00  0.00     0.074 A 
ATOM     49  C   UNL A   1      48.997  25.916  25.530  1.00  0.00     0.031 C 
ATOM     50  C   UNL A   1      42.209  26.490  26.581  1.00  0.00     0.029 A 
ATOM     51  C   UNL A   1      43.010  27.658  26.946  1.00  0.00     0.049 A 
ATOM     52  H   UNL A   1      45.048  27.937  26.606  1.00  0.00     0.167 HD
ATOM     53  C   UNL A   1      49.418  28.212  26.355  1.00  0.00     0.034 A 
ATOM     54  C   UNL A   1      42.549  28.768  27.558  1.00  0.00     0.034 A 
ATOM     55  C   UNL A   1      48.993  29.485  26.869  1.00  0.00     0.049 A 
ATOM     56  C   UNL A   1      43.510  29.881  27.896  1.00  0.00     0.074 A 
ATOM     57  C   UNL A   1      49.765  30.599  27.146  1.00  0.00     0.029 A 
ATOM     58  N   UNL A   1      47.687  29.811  27.195  1.00  0.00    -0.354 N 
ATOM     59  N   UNL A   1      44.799  29.959  27.666  1.00  0.00    -0.248 NA
ATOM     60  C   UNL A   1      42.949  31.069  28.559  1.00  0.00     0.031 C 
ATOM     61  C   UNL A   1      48.929  31.590  27.669  1.00  0.00     0.029 A 
ATOM     62  C   UNL A   1      47.631  31.105  27.683  1.00  0.00     0.049 A 
ATOM     63  H   UNL A   1      46.913  29.212  27.095  1.00  0.00     0.167 HD
ATOM     64  C   UNL A   1      45.194  31.213  28.120  1.00  0.00     0.074 A 
ATOM     65  C   UNL A   1      44.006  31.867  28.626  1.00  0.00     0.031 C 
ATOM     66  C   UNL A   1      46.432  31.768  28.129  1.00  0.00     0.034 A 
BRANCH  53  67
ATOM     67  C   UNL A   1      50.887  27.992  26.112  1.00  0.00     0.023 A 
ATOM     68  C   UNL A   1      51.747  27.724  27.195  1.00  0.00     0.012 A 
ATOM     69  C   UNL A   1      51.406  28.010  24.803  1.00  0.00     0.148 A 
ATOM     70  C   UNL A   1      53.109  27.511  26.983  1.00  0.00     0.002 A 
ATOM     71  C   UNL A   1      52.756  27.753  24.595  1.00  0.00     0.091 A 
ATOM     72  F   UNL A   1      50.576  28.291  23.788  1.00  0.00    -0.205 F 
ATOM     73  C   UNL A   1      53.611  27.516  25.684  1.00  0.00     0.022 A 
BRANCH  71  74
ATOM     74  S   UNL A   1      53.480  27.659  22.954  1.00  0.00     0.127 S 
ATOM     75  O   UNL A   1      53.777  29.064  22.682  1.00  0.00    -0.237 OA
ATOM     76  O   UNL A   1      54.658  26.821  23.186  1.00  0.00    -0.237 OA
ATOM     77  O   UNL A   1      52.466  27.056  22.101  1.00  0.00    -0.744 OA
ENDBRANCH  71  74
ENDBRANCH  53  67
BRANCH  54  78
ATOM     78  C   UNL A   1      41.100  28.890  27.888  1.00  0.00     0.023 A 
ATOM     79  C   UNL A   1      40.179  29.211  26.872  1.00  0.00     0.012 A 
ATOM     80  C   UNL A   1      40.629  28.680  29.200  1.00  0.00     0.148 A 
ATOM     81  C   UNL A   1      38.820  29.345  27.160  1.00  0.00     0.002 A 
ATOM     82  C   UNL A   1      39.268  28.762  29.468  1.00  0.00     0.091 A 
ATOM     83  F   UNL A   1      41.524  28.397  30.157  1.00  0.00    -0.205 F 
ATOM     84  C   UNL A   1      38.364  29.111  28.455  1.00  0.00     0.022 A 
BRANCH  82  85
ATOM     85  S   UNL A   1      38.575  28.361  31.078  1.00  0.00     0.127 S 
ATOM     86  O   UNL A   1      38.819  26.922  31.157  1.00  0.00    -0.237 OA
ATOM     87  O   UNL A   1      39.399  29.176  31.970  1.00  0.00    -0.237 OA
ATOM     88  O   UNL A   1      37.176  28.761  31.015  1.00  0.00    -0.744 OA
ENDBRANCH  82  85
ENDBRANCH  54  78
BRANCH  66  89
ATOM     89  C   UNL A   1      46.576  33.174  28.652  1.00  0.00     0.023 A 
ATOM     90  C   UNL A   1      46.963  33.393  29.988  1.00  0.00     0.012 A 
ATOM     91  C   UNL A   1      46.426  34.277  27.785  1.00  0.00     0.148 A 
ATOM     92  C   UNL A   1      47.176  34.689  30.460  1.00  0.00     0.002 A 
ATOM     93  C   UNL A   1      46.689  35.561  28.249  1.00  0.00     0.091 A 
ATOM     94  F   UNL A   1      46.042  34.047  26.521  1.00  0.00    -0.205 F 
ATOM     95  C   UNL A   1      47.053  35.769  29.589  1.00  0.00     0.022 A 
BRANCH  93  96
ATOM     96  S   UNL A   1      46.654  37.000  27.176  1.00  0.00     0.127 S 
ATOM     97  O   UNL A   1      45.229  37.107  26.866  1.00  0.00    -0.237 OA
ATOM     98  O   UNL A   1      47.168  38.053  28.053  1.00  0.00    -0.237 OA
ATOM     99  O   UNL A   1      47.515  36.683  26.045  1.00  0.00    -0.744 OA
ENDBRANCH  93  96
ENDBRANCH  66  89
ENDBRANCH  40  41
ENDBRANCH  33  35
ENDBRANCH  32  33
ENDBRANCH  31  32
ENDBRANCH  30  31
ENDBRANCH  29  30
ENDBRANCH  28  29
ENDBRANCH   1  28
TORSDOF 24
ENDMDL
MODEL 3
REMARK VINA RESULT:      -9.9      1.239      2.024
REMARK SMILES COc1ccccc1[C@H](C)NC(=O)[C@@H]1CC=CC[C@@H]1C(=O)OCCOCCOCCOC(=O)c1ccc(-c2c3nc(c(-c4cccc(S(=O)(=O)[O-])c4F)c4ccc([nH]4)c(-c4cccc(S(=O)(=O)[O-])c4F)c4nc(c(-c5cccc(S(=O)(=O)[O-])c5F)c5ccc2[nH]5)C=C4)C=C3)cc1
REMARK SMILES IDX 26 1 25 2 24 3 23 4 22 5 20 6 21 7 19 8 14 9 15 10 16 11
REMARK SMILES IDX 18 12 17 13 12 14 11 15 13 17 9 18 10 19 8 20 3 21 4 22 5 23
REMARK SMILES IDX 7 24 6 25 2 26 1 27 27 28 28 29 29 30 30 31 31 32 32 33
REMARK SMILES IDX 33 34 34 35 35 36 96 37 36 38 95 39 37 40 38 41 39 42 89 43
REMARK SMILES IDX 40 44 94 45 88 46 90 47 41 48 93 49 87 50 86 51 42 53 74 54
REMARK SMILES IDX 54 55 73 56 55 57 58 58 72 59 91 60 56 61 57 62 71 64 92 65
REMARK SMILES IDX 59 66 43 67 44 68 52 69 45 70 47 71 53 72 46 73 48 74 49 75
REMARK SMILES IDX 50 76 51 77 75 78 76 79 84 80 77 81 79 82 85 83 78 84 80 85
REMARK SMILES IDX 81 86 82 87 83 88 60 89 61 90 69 91 62 92 64 93 70 94 63 95
REMARK SMILES IDX 65 96 66 97 67 98 68 99
REMARK H PARENT 11 16 90 52 58 63
REMARK Flexibility Score: inf
ROOT
ATOM      1  C   UNL A   1      35.296  31.352  28.081  1.00  0.00     0.188 C 
ENDROOT
BRANCH   1   2
ATOM      2  O   UNL A   1      34.152  30.714  27.523  1.00  0.00    -0.376 OA
BRANCH   2   3
ATOM      3  C   UNL A   1      34.227  29.340  27.167  1.00  0.00     0.202 C 
BRANCH   3   4
ATOM      4  C   UNL A   1      33.532  28.929  25.865  1.00  0.00     0.261 C 
BRANCH   4   5
ATOM      5  O   UNL A   1      33.021  27.578  25.882  1.00  0.00    -0.463 OA
BRANCH   5   6
ATOM      6  C   UNL A   1      31.705  27.427  26.146  1.00  0.00     0.310 C 
ATOM      7  O   UNL A   1      31.197  27.660  27.239  1.00  0.00    -0.252 OA
BRANCH   6   8
ATOM      8  C   UNL A   1      30.835  27.001  24.957  1.00  0.00     0.115 C 
ATOM      9  C   UNL A   1      30.459  25.523  24.694  1.00  0.00     0.097 C 
ATOM     10  C   UNL A   1      31.154  24.828  23.509  1.00  0.00     0.041 C 
ATOM     11  C   UNL A   1      31.400  25.716  22.339  1.00  0.00    -0.030 C 
ATOM     12  C   UNL A   1      31.247  27.809  23.708  1.00  0.00     0.043 C 
ATOM     13  C   UNL A   1      31.433  27.048  22.433  1.00  0.00    -0.030 C 
BRANCH   9  14
ATOM     14  C   UNL A   1      30.578  24.639  25.916  1.00  0.00     0.224 C 
ATOM     15  N   UNL A   1      31.580  23.733  25.991  1.00  0.00    -0.349 N 
ATOM     16  H   UNL A   1      31.416  23.002  26.628  1.00  0.00     0.164 HD
ATOM     17  O   UNL A   1      29.801  24.694  26.869  1.00  0.00    -0.275 OA
BRANCH  15  18
ATOM     18  C   UNL A   1      32.873  23.644  25.288  1.00  0.00     0.113 C 
ATOM     19  C   UNL A   1      33.806  24.460  26.197  1.00  0.00     0.036 C 
BRANCH  18  20
ATOM     20  C   UNL A   1      33.296  22.189  25.073  1.00  0.00     0.016 A 
ATOM     21  C   UNL A   1      34.619  21.710  24.962  1.00  0.00     0.124 A 
ATOM     22  C   UNL A   1      34.855  20.324  24.815  1.00  0.00     0.047 A 
ATOM     23  C   UNL A   1      33.820  19.404  24.690  1.00  0.00     0.004 A 
ATOM     24  C   UNL A   1      32.270  21.222  24.862  1.00  0.00     0.010 A 
ATOM     25  C   UNL A   1      32.520  19.863  24.672  1.00  0.00     0.001 A 
BRANCH  21  26
ATOM     26  O   UNL A   1      35.778  22.400  24.731  1.00  0.00    -0.496 OA
ATOM     27  C   UNL A   1      36.969  21.752  24.351  1.00  0.00     0.278 C 
ENDBRANCH  21  26
ENDBRANCH  18  20
ENDBRANCH  15  18
ENDBRANCH   9  14
ENDBRANCH   6   8
ENDBRANCH   5   6
ENDBRANCH   4   5
ENDBRANCH   3   4
ENDBRANCH   2   3
ENDBRANCH   1   2
BRANCH   1  28
ATOM     28  C   UNL A   1      35.143  32.764  28.657  1.00  0.00     0.188 C 
BRANCH  28  29
ATOM     29  O   UNL A   1      34.556  33.675  27.743  1.00  0.00    -0.376 OA
BRANCH  29  30
ATOM     30  C   UNL A   1      33.242  34.092  28.065  1.00  0.00     0.202 C 
BRANCH  30  31
ATOM     31  C   UNL A   1      33.270  35.213  29.106  1.00  0.00     0.261 C 
BRANCH  31  32
ATOM     32  O   UNL A   1      32.505  34.941  30.294  1.00  0.00    -0.460 OA
BRANCH  32  33
ATOM     33  C   UNL A   1      32.836  35.633  31.403  1.00  0.00     0.338 C 
ATOM     34  O   UNL A   1      32.239  36.595  31.877  1.00  0.00    -0.246 OA
BRANCH  33  35
ATOM     35  C   UNL A   1      33.936  34.921  32.079  1.00  0.00     0.060 A 
ATOM     36  C   UNL A   1      35.244  35.408  31.953  1.00  0.00     0.016 A 
ATOM     37  C   UNL A   1      33.681  33.772  32.827  1.00  0.00     0.016 A 
ATOM     38  C   UNL A   1      36.306  34.737  32.561  1.00  0.00     0.010 A 
ATOM     39  C   UNL A   1      34.745  33.090  33.420  1.00  0.00     0.010 A 
ATOM     40  C   UNL A   1      36.067  33.552  33.268  1.00  0.00    -0.014 A 
BRANCH  40  41
ATOM     41  C   UNL A   1      37.192  32.693  33.713  1.00  0.00     0.031 A 
ATOM     42  C   UNL A   1      37.931  33.077  34.965  1.00  0.00     0.074 A 
ATOM     43  C   UNL A   1      37.583  31.619  33.003  1.00  0.00     0.049 A 
ATOM     44  N   UNL A   1      39.032  32.582  35.466  1.00  0.00    -0.248 NA
ATOM     45  C   UNL A   1      37.350  34.175  35.755  1.00  0.00     0.031 C 
ATOM     46  C   UNL A   1      36.934  31.124  31.791  1.00  0.00     0.029 A 
ATOM     47  N   UNL A   1      38.651  30.774  33.186  1.00  0.00    -0.354 N 
ATOM     48  C   UNL A   1      39.306  33.340  36.597  1.00  0.00     0.074 A 
ATOM     49  C   UNL A   1      38.251  34.324  36.714  1.00  0.00     0.031 C 
ATOM     50  C   UNL A   1      37.641  30.083  31.315  1.00  0.00     0.029 A 
ATOM     51  C   UNL A   1      38.813  29.869  32.162  1.00  0.00     0.049 A 
ATOM     52  H   UNL A   1      39.242  30.813  33.972  1.00  0.00     0.167 HD
ATOM     53  C   UNL A   1      40.340  33.228  37.463  1.00  0.00     0.034 A 
ATOM     54  C   UNL A   1      39.814  29.000  31.914  1.00  0.00     0.034 A 
ATOM     55  C   UNL A   1      41.372  32.233  37.360  1.00  0.00     0.049 A 
ATOM     56  C   UNL A   1      40.975  28.915  32.875  1.00  0.00     0.074 A 
ATOM     57  C   UNL A   1      42.438  32.009  38.213  1.00  0.00     0.029 A 
ATOM     58  N   UNL A   1      41.476  31.304  36.337  1.00  0.00    -0.354 N 
ATOM     59  N   UNL A   1      41.178  29.577  33.989  1.00  0.00    -0.248 NA
ATOM     60  C   UNL A   1      42.036  27.947  32.555  1.00  0.00     0.031 C 
ATOM     61  C   UNL A   1      43.204  30.965  37.688  1.00  0.00     0.029 A 
ATOM     62  C   UNL A   1      42.595  30.514  36.528  1.00  0.00     0.049 A 
ATOM     63  H   UNL A   1      40.847  31.220  35.584  1.00  0.00     0.167 HD
ATOM     64  C   UNL A   1      42.365  29.081  34.520  1.00  0.00     0.074 A 
ATOM     65  C   UNL A   1      42.830  28.053  33.612  1.00  0.00     0.031 C 
ATOM     66  C   UNL A   1      43.017  29.452  35.649  1.00  0.00     0.034 A 
BRANCH  53  67
ATOM     67  C   UNL A   1      40.404  34.208  38.603  1.00  0.00     0.023 A 
ATOM     68  C   UNL A   1      41.221  35.351  38.504  1.00  0.00     0.012 A 
ATOM     69  C   UNL A   1      39.620  34.016  39.758  1.00  0.00     0.148 A 
ATOM     70  C   UNL A   1      41.285  36.271  39.550  1.00  0.00     0.002 A 
ATOM     71  C   UNL A   1      39.653  34.960  40.777  1.00  0.00     0.091 A 
ATOM     72  F   UNL A   1      38.868  32.910  39.844  1.00  0.00    -0.205 F 
ATOM     73  C   UNL A   1      40.494  36.081  40.681  1.00  0.00     0.022 A 
BRANCH  71  74
ATOM     74  S   UNL A   1      38.613  34.844  42.236  1.00  0.00     0.127 S 
ATOM     75  O   UNL A   1      38.928  36.096  42.923  1.00  0.00    -0.237 OA
ATOM     76  O   UNL A   1      37.272  34.788  41.654  1.00  0.00    -0.237 OA
ATOM     77  O   UNL A   1      39.025  33.631  42.928  1.00  0.00    -0.744 OA
ENDBRANCH  71  74
ENDBRANCH  53  67
BRANCH  54  78
ATOM     78  C   UNL A   1      39.766  28.131  30.704  1.00  0.00     0.023 A 
ATOM     79  C   UNL A   1      38.970  26.969  30.714  1.00  0.00     0.012 A 
ATOM     80  C   UNL A   1      40.494  28.455  29.542  1.00  0.00     0.148 A 
ATOM     81  C   UNL A   1      38.920  26.132  29.598  1.00  0.00     0.002 A 
ATOM     82  C   UNL A   1      40.396  27.646  28.416  1.00  0.00     0.091 A 
ATOM     83  F   UNL A   1      41.263  29.553  29.560  1.00  0.00    -0.205 F 
ATOM     84  C   UNL A   1      39.624  26.476  28.446  1.00  0.00     0.022 A 
BRANCH  82  85
ATOM     85  S   UNL A   1      41.172  28.070  26.851  1.00  0.00     0.127 S 
ATOM     86  O   UNL A   1      42.541  28.363  27.267  1.00  0.00    -0.237 OA
ATOM     87  O   UNL A   1      41.010  26.831  26.091  1.00  0.00    -0.237 OA
ATOM     88  O   UNL A   1      40.415  29.201  26.330  1.00  0.00    -0.744 OA
ENDBRANCH  82  85
ENDBRANCH  54  78
BRANCH  66  89
ATOM     89  C   UNL A   1      44.281  28.716  36.014  1.00  0.00     0.023 A 
ATOM     90  C   UNL A   1      45.532  29.227  35.620  1.00  0.00     0.012 A 
ATOM     91  C   UNL A   1      44.227  27.572  36.837  1.00  0.00     0.148 A 
ATOM     92  C   UNL A   1      46.711  28.598  36.020  1.00  0.00     0.002 A 
ATOM     93  C   UNL A   1      45.407  26.979  37.273  1.00  0.00     0.091 A 
ATOM     94  F   UNL A   1      43.025  27.093  37.188  1.00  0.00    -0.205 F 
ATOM     95  C   UNL A   1      46.649  27.484  36.856  1.00  0.00     0.022 A 
BRANCH  93  96
ATOM     96  S   UNL A   1      45.427  25.605  38.429  1.00  0.00     0.127 S 
ATOM     97  O   UNL A   1      44.399  24.729  37.868  1.00  0.00    -0.237 OA
ATOM     98  O   UNL A   1      46.796  25.106  38.293  1.00  0.00    -0.237 OA
ATOM     99  O   UNL A   1      45.118  26.171  39.735  1.00  0.00    -0.744 OA
ENDBRANCH  93  96
ENDBRANCH  66  89
ENDBRANCH  40  41
ENDBRANCH  33  35
ENDBRANCH  32  33
ENDBRANCH  31  32
ENDBRANCH  30  31
ENDBRANCH  29  30
ENDBRANCH  28  29
ENDBRANCH   1  28
TORSDOF 24
ENDMDL
