MODEL 1
REMARK VINA RESULT:     -10.8      0.000      0.000
REMARK SMILES O=C(CNc1cc(N2CCCC2)c2noc3c2c1C(=O)c1ccccc1-3)OCCOCCOCCOC(=O)c1ccc(-c2c3nc(c(-c4cccc(S(=O)(=O)[O-])c4F)c4ccc([nH]4)c(-c4cccc(S(=O)(=O)[O-])c4F)c4nc(c(-c5cccc(S(=O)(=O)[O-])c5F)c5ccc2[nH]5)C=C4)C=C3)cc1
REMARK SMILES IDX 31 1 30 2 29 3 28 4 27 5 2 6 1 7 3 8 4 9 5 11 6 12 18 13
REMARK SMILES IDX 7 14 17 15 19 16 13 17 16 18 20 19 21 20 14 21 15 22 26 23
REMARK SMILES IDX 22 24 25 25 23 26 24 27 8 28 9 29 12 30 10 31 11 32 32 33
REMARK SMILES IDX 33 34 34 35 35 36 36 37 37 38 38 39 39 40 40 41 101 42 41 43
REMARK SMILES IDX 100 44 42 45 43 46 44 47 94 48 45 49 99 50 93 51 95 52 46 53
REMARK SMILES IDX 98 54 92 55 91 56 47 58 79 59 59 60 78 61 60 62 63 63 77 64
REMARK SMILES IDX 96 65 61 66 62 67 76 69 97 70 64 71 48 72 49 73 57 74 50 75
REMARK SMILES IDX 52 76 58 77 51 78 53 79 54 80 55 81 56 82 80 83 81 84 89 85
REMARK SMILES IDX 82 86 84 87 90 88 83 89 85 90 86 91 87 92 88 93 65 94 66 95
REMARK SMILES IDX 74 96 67 97 69 98 75 99 68 100 70 101 71 102 72 103 73 104
REMARK H PARENT 4 10 95 57 63 68
REMARK Flexibility Score: inf
ROOT
ATOM      1  C   UNL A   1      32.559  29.000  27.279  1.00  0.00     0.188 C 
ENDROOT
BRANCH   1   2
ATOM      2  O   UNL A   1      31.480  28.176  26.875  1.00  0.00    -0.376 OA
BRANCH   2   3
ATOM      3  C   UNL A   1      31.736  26.815  26.553  1.00  0.00     0.202 C 
BRANCH   3   4
ATOM      4  C   UNL A   1      30.613  25.881  26.088  1.00  0.00     0.261 C 
BRANCH   4   5
ATOM      5  O   UNL A   1      30.458  24.582  26.689  1.00  0.00    -0.462 OA
BRANCH   5   6
ATOM      6  C   UNL A   1      30.601  23.363  26.111  1.00  0.00     0.325 C 
ATOM      7  O   UNL A   1      30.042  22.405  26.649  1.00  0.00    -0.250 OA
BRANCH   6   8
ATOM      8  C   UNL A   1      31.588  23.188  24.957  1.00  0.00     0.236 C 
BRANCH   8   9
ATOM      9  N   UNL A   1      32.970  23.182  25.410  1.00  0.00    -0.374 N 
ATOM     10  H   UNL A   1      33.268  24.034  25.804  1.00  0.00     0.161 HD
BRANCH   9  11
ATOM     11  C   UNL A   1      33.936  22.200  25.388  1.00  0.00     0.049 A 
ATOM     12  C   UNL A   1      33.400  20.901  25.007  1.00  0.00     0.054 A 
ATOM     13  C   UNL A   1      35.334  22.351  25.549  1.00  0.00     0.059 A 
ATOM     14  C   UNL A   1      34.132  19.712  24.711  1.00  0.00     0.069 A 
ATOM     15  C   UNL A   1      35.992  21.144  25.360  1.00  0.00     0.065 A 
ATOM     16  C   UNL A   1      36.203  23.527  25.816  1.00  0.00     0.196 C 
ATOM     17  C   UNL A   1      35.508  19.876  24.965  1.00  0.00     0.138 A 
ATOM     18  C   UNL A   1      37.335  21.030  25.496  1.00  0.00     0.176 A 
ATOM     19  O   UNL A   1      35.792  24.670  25.724  1.00  0.00    -0.288 OA
ATOM     20  C   UNL A   1      37.672  23.312  26.081  1.00  0.00     0.034 A 
ATOM     21  N   UNL A   1      36.562  19.029  24.873  1.00  0.00    -0.077 NA
ATOM     22  O   UNL A   1      37.704  19.760  25.220  1.00  0.00    -0.355 OA
ATOM     23  C   UNL A   1      38.259  22.058  25.871  1.00  0.00     0.032 A 
ATOM     24  C   UNL A   1      38.469  24.371  26.491  1.00  0.00     0.013 A 
ATOM     25  C   UNL A   1      39.635  21.891  26.035  1.00  0.00     0.013 A 
ATOM     26  C   UNL A   1      39.845  24.225  26.636  1.00  0.00     0.001 A 
ATOM     27  C   UNL A   1      40.429  22.984  26.403  1.00  0.00     0.001 A 
BRANCH  14  28
ATOM     28  N   UNL A   1      33.546  18.557  24.244  1.00  0.00    -0.370 N 
ATOM     29  C   UNL A   1      32.397  17.976  24.933  1.00  0.00     0.116 C 
ATOM     30  C   UNL A   1      34.487  17.531  23.808  1.00  0.00     0.116 C 
ATOM     31  C   UNL A   1      32.748  16.499  25.062  1.00  0.00     0.023 C 
ATOM     32  C   UNL A   1      33.660  16.254  23.869  1.00  0.00     0.023 C 
ENDBRANCH  14  28
ENDBRANCH   9  11
ENDBRANCH   8   9
ENDBRANCH   6   8
ENDBRANCH   5   6
ENDBRANCH   4   5
ENDBRANCH   3   4
ENDBRANCH   2   3
ENDBRANCH   1   2
BRANCH   1  33
ATOM     33  C   UNL A   1      32.406  30.455  26.834  1.00  0.00     0.188 C 
BRANCH  33  34
ATOM     34  O   UNL A   1      33.170  31.410  27.571  1.00  0.00    -0.376 OA
BRANCH  34  35
ATOM     35  C   UNL A   1      34.558  31.113  27.739  1.00  0.00     0.202 C 
BRANCH  35  36
ATOM     36  C   UNL A   1      35.164  31.385  29.126  1.00  0.00     0.261 C 
BRANCH  36  37
ATOM     37  O   UNL A   1      36.323  30.583  29.429  1.00  0.00    -0.460 OA
BRANCH  37  38
ATOM     38  C   UNL A   1      37.528  31.201  29.354  1.00  0.00     0.338 C 
ATOM     39  O   UNL A   1      37.745  32.398  29.504  1.00  0.00    -0.246 OA
BRANCH  38  40
ATOM     40  C   UNL A   1      38.563  30.248  28.904  1.00  0.00     0.060 A 
ATOM     41  C   UNL A   1      39.772  30.243  29.600  1.00  0.00     0.016 A 
ATOM     42  C   UNL A   1      38.370  29.364  27.839  1.00  0.00     0.016 A 
ATOM     43  C   UNL A   1      40.818  29.429  29.165  1.00  0.00     0.010 A 
ATOM     44  C   UNL A   1      39.433  28.562  27.389  1.00  0.00     0.010 A 
ATOM     45  C   UNL A   1      40.689  28.645  28.005  1.00  0.00    -0.014 A 
BRANCH  45  46
ATOM     46  C   UNL A   1      41.904  27.907  27.557  1.00  0.00     0.031 A 
ATOM     47  C   UNL A   1      43.061  28.840  27.410  1.00  0.00     0.074 A 
ATOM     48  C   UNL A   1      42.218  26.650  27.959  1.00  0.00     0.049 A 
ATOM     49  N   UNL A   1      43.857  29.196  28.372  1.00  0.00    -0.248 NA
ATOM     50  C   UNL A   1      43.180  29.649  26.197  1.00  0.00     0.031 C 
ATOM     51  C   UNL A   1      42.198  26.178  29.343  1.00  0.00     0.029 A 
ATOM     52  N   UNL A   1      42.857  25.626  27.265  1.00  0.00    -0.354 N 
ATOM     53  C   UNL A   1      44.536  30.317  27.929  1.00  0.00     0.074 A 
ATOM     54  C   UNL A   1      44.087  30.558  26.576  1.00  0.00     0.031 C 
ATOM     55  C   UNL A   1      42.865  25.011  29.431  1.00  0.00     0.029 A 
ATOM     56  C   UNL A   1      43.355  24.626  28.107  1.00  0.00     0.049 A 
ATOM     57  H   UNL A   1      42.949  25.609  26.286  1.00  0.00     0.167 HD
ATOM     58  C   UNL A   1      45.432  30.997  28.690  1.00  0.00     0.034 A 
ATOM     59  C   UNL A   1      44.490  23.895  27.883  1.00  0.00     0.034 A 
ATOM     60  C   UNL A   1      45.693  30.441  29.986  1.00  0.00     0.049 A 
ATOM     61  C   UNL A   1      45.541  24.809  28.471  1.00  0.00     0.074 A 
ATOM     62  C   UNL A   1      45.310  30.683  31.287  1.00  0.00     0.029 A 
ATOM     63  N   UNL A   1      46.465  29.306  30.054  1.00  0.00    -0.354 N 
ATOM     64  N   UNL A   1      45.792  24.996  29.741  1.00  0.00    -0.248 NA
ATOM     65  C   UNL A   1      46.000  25.883  27.590  1.00  0.00     0.031 C 
ATOM     66  C   UNL A   1      45.502  29.447  31.984  1.00  0.00     0.029 A 
ATOM     67  C   UNL A   1      45.985  28.515  31.068  1.00  0.00     0.049 A 
ATOM     68  H   UNL A   1      47.231  29.095  29.473  1.00  0.00     0.167 HD
ATOM     69  C   UNL A   1      46.085  26.360  29.849  1.00  0.00     0.074 A 
ATOM     70  C   UNL A   1      46.214  26.839  28.484  1.00  0.00     0.031 C 
ATOM     71  C   UNL A   1      46.025  27.067  31.018  1.00  0.00     0.034 A 
BRANCH  58  72
ATOM     72  C   UNL A   1      46.260  32.100  28.153  1.00  0.00     0.023 A 
ATOM     73  C   UNL A   1      47.292  31.733  27.267  1.00  0.00     0.012 A 
ATOM     74  C   UNL A   1      46.147  33.434  28.578  1.00  0.00     0.148 A 
ATOM     75  C   UNL A   1      48.228  32.669  26.839  1.00  0.00     0.002 A 
ATOM     76  C   UNL A   1      47.089  34.366  28.147  1.00  0.00     0.091 A 
ATOM     77  F   UNL A   1      45.146  33.763  29.407  1.00  0.00    -0.205 F 
ATOM     78  C   UNL A   1      48.132  33.981  27.286  1.00  0.00     0.022 A 
BRANCH  76  79
ATOM     79  S   UNL A   1      47.087  36.088  28.661  1.00  0.00     0.127 S 
ATOM     80  O   UNL A   1      47.120  35.969  30.118  1.00  0.00    -0.237 OA
ATOM     81  O   UNL A   1      48.327  36.584  28.063  1.00  0.00    -0.237 OA
ATOM     82  O   UNL A   1      45.871  36.672  28.110  1.00  0.00    -0.744 OA
ENDBRANCH  76  79
ENDBRANCH  58  72
BRANCH  59  83
ATOM     83  C   UNL A   1      44.626  23.202  26.558  1.00  0.00     0.023 A 
ATOM     84  C   UNL A   1      45.249  23.942  25.524  1.00  0.00     0.012 A 
ATOM     85  C   UNL A   1      44.182  21.902  26.242  1.00  0.00     0.148 A 
ATOM     86  C   UNL A   1      45.531  23.380  24.276  1.00  0.00     0.002 A 
ATOM     87  C   UNL A   1      44.509  21.323  25.012  1.00  0.00     0.091 A 
ATOM     88  F   UNL A   1      43.456  21.223  27.137  1.00  0.00    -0.205 F 
ATOM     89  C   UNL A   1      45.192  22.057  24.032  1.00  0.00     0.022 A 
BRANCH  87  90
ATOM     90  S   UNL A   1      44.150  19.603  24.624  1.00  0.00     0.127 S 
ATOM     91  O   UNL A   1      42.715  19.515  24.898  1.00  0.00    -0.237 OA
ATOM     92  O   UNL A   1      44.509  19.548  23.209  1.00  0.00    -0.237 OA
ATOM     93  O   UNL A   1      44.988  18.816  25.518  1.00  0.00    -0.744 OA
ENDBRANCH  87  90
ENDBRANCH  59  83
BRANCH  71  94
ATOM     94  C   UNL A   1      45.877  26.273  32.285  1.00  0.00     0.023 A 
ATOM     95  C   UNL A   1      47.059  25.828  32.905  1.00  0.00     0.012 A 
ATOM     96  C   UNL A   1      44.640  26.030  32.923  1.00  0.00     0.148 A 
ATOM     97  C   UNL A   1      47.024  25.182  34.140  1.00  0.00     0.002 A 
ATOM     98  C   UNL A   1      44.612  25.397  34.167  1.00  0.00     0.091 A 
ATOM     99  F   UNL A   1      43.509  26.419  32.316  1.00  0.00    -0.205 F 
ATOM    100  C   UNL A   1      45.805  24.981  34.776  1.00  0.00     0.022 A 
BRANCH  98 101
ATOM    101  S   UNL A   1      43.107  25.123  35.110  1.00  0.00     0.127 S 
ATOM    102  O   UNL A   1      42.290  26.283  34.757  1.00  0.00    -0.237 OA
ATOM    103  O   UNL A   1      42.618  23.852  34.581  1.00  0.00    -0.237 OA
ATOM    104  O   UNL A   1      43.496  25.081  36.513  1.00  0.00    -0.744 OA
ENDBRANCH  98 101
ENDBRANCH  71  94
ENDBRANCH  45  46
ENDBRANCH  38  40
ENDBRANCH  37  38
ENDBRANCH  36  37
ENDBRANCH  35  36
ENDBRANCH  34  35
ENDBRANCH  33  34
ENDBRANCH   1  33
TORSDOF 23
ENDMDL
MODEL 2
REMARK VINA RESULT:     -10.5      3.982     10.593
REMARK SMILES O=C(CNc1cc(N2CCCC2)c2noc3c2c1C(=O)c1ccccc1-3)OCCOCCOCCOC(=O)c1ccc(-c2c3nc(c(-c4cccc(S(=O)(=O)[O-])c4F)c4ccc([nH]4)c(-c4cccc(S(=O)(=O)[O-])c4F)c4nc(c(-c5cccc(S(=O)(=O)[O-])c5F)c5ccc2[nH]5)C=C4)C=C3)cc1
REMARK SMILES IDX 31 1 30 2 29 3 28 4 27 5 2 6 1 7 3 8 4 9 5 11 6 12 18 13
REMARK SMILES IDX 7 14 17 15 19 16 13 17 16 18 20 19 21 20 14 21 15 22 26 23
REMARK SMILES IDX 22 24 25 25 23 26 24 27 8 28 9 29 12 30 10 31 11 32 32 33
REMARK SMILES IDX 33 34 34 35 35 36 36 37 37 38 38 39 39 40 40 41 101 42 41 43
REMARK SMILES IDX 100 44 42 45 43 46 44 47 94 48 45 49 99 50 93 51 95 52 46 53
REMARK SMILES IDX 98 54 92 55 91 56 47 58 79 59 59 60 78 61 60 62 63 63 77 64
REMARK SMILES IDX 96 65 61 66 62 67 76 69 97 70 64 71 48 72 49 73 57 74 50 75
REMARK SMILES IDX 52 76 58 77 51 78 53 79 54 80 55 81 56 82 80 83 81 84 89 85
REMARK SMILES IDX 82 86 84 87 90 88 83 89 85 90 86 91 87 92 88 93 65 94 66 95
REMARK SMILES IDX 74 96 67 97 69 98 75 99 68 100 70 101 71 102 72 103 73 104
REMARK H PARENT 4 10 95 57 63 68
REMARK Flexibility Score: inf
ROOT
ATOM      1  C   UNL A   1      46.220  23.924  25.133  1.00  0.00     0.188 C 
ENDROOT
BRANCH   1   2
ATOM      2  O   UNL A   1      44.979  24.117  24.476  1.00  0.00    -0.376 OA
BRANCH   2   3
ATOM      3  C   UNL A   1      44.135  22.996  24.253  1.00  0.00     0.202 C 
BRANCH   3   4
ATOM      4  C   UNL A   1      44.331  21.684  25.023  1.00  0.00     0.261 C 
BRANCH   4   5
ATOM      5  O   UNL A   1      43.415  20.591  24.832  1.00  0.00    -0.462 OA
BRANCH   5   6
ATOM      6  C   UNL A   1      43.372  19.403  25.487  1.00  0.00     0.325 C 
ATOM      7  O   UNL A   1      44.441  18.825  25.695  1.00  0.00    -0.250 OA
BRANCH   6   8
ATOM      8  C   UNL A   1      42.020  18.743  25.759  1.00  0.00     0.236 C 
BRANCH   8   9
ATOM      9  N   UNL A   1      41.206  19.516  26.684  1.00  0.00    -0.374 N 
ATOM     10  H   UNL A   1      41.049  19.073  27.549  1.00  0.00     0.161 HD
BRANCH   9  11
ATOM     11  C   UNL A   1      40.615  20.755  26.567  1.00  0.00     0.049 A 
ATOM     12  C   UNL A   1      39.337  20.698  25.869  1.00  0.00     0.054 A 
ATOM     13  C   UNL A   1      41.031  21.976  27.147  1.00  0.00     0.059 A 
ATOM     14  C   UNL A   1      38.378  21.745  25.727  1.00  0.00     0.069 A 
ATOM     15  C   UNL A   1      40.121  22.990  26.887  1.00  0.00     0.065 A 
ATOM     16  C   UNL A   1      42.190  22.350  28.001  1.00  0.00     0.196 C 
ATOM     17  C   UNL A   1      38.865  22.964  26.240  1.00  0.00     0.138 A 
ATOM     18  C   UNL A   1      40.321  24.260  27.312  1.00  0.00     0.176 A 
ATOM     19  O   UNL A   1      42.901  21.514  28.530  1.00  0.00    -0.288 OA
ATOM     20  C   UNL A   1      42.421  23.803  28.333  1.00  0.00     0.034 A 
ATOM     21  N   UNL A   1      38.337  24.212  26.287  1.00  0.00    -0.077 NA
ATOM     22  O   UNL A   1      39.264  25.021  26.952  1.00  0.00    -0.355 OA
ATOM     23  C   UNL A   1      41.452  24.767  28.030  1.00  0.00     0.032 A 
ATOM     24  C   UNL A   1      43.581  24.193  28.988  1.00  0.00     0.013 A 
ATOM     25  C   UNL A   1      41.637  26.095  28.420  1.00  0.00     0.013 A 
ATOM     26  C   UNL A   1      43.767  25.507  29.403  1.00  0.00     0.001 A 
ATOM     27  C   UNL A   1      42.792  26.458  29.122  1.00  0.00     0.001 A 
BRANCH  14  28
ATOM     28  N   UNL A   1      37.141  21.568  25.149  1.00  0.00    -0.370 N 
ATOM     29  C   UNL A   1      36.818  22.205  23.875  1.00  0.00     0.116 C 
ATOM     30  C   UNL A   1      36.020  21.627  26.081  1.00  0.00     0.116 C 
ATOM     31  C   UNL A   1      35.452  22.837  24.113  1.00  0.00     0.023 C 
ATOM     32  C   UNL A   1      34.836  21.943  25.177  1.00  0.00     0.023 C 
ENDBRANCH  14  28
ENDBRANCH   9  11
ENDBRANCH   8   9
ENDBRANCH   6   8
ENDBRANCH   5   6
ENDBRANCH   4   5
ENDBRANCH   3   4
ENDBRANCH   2   3
ENDBRANCH   1   2
BRANCH   1  33
ATOM     33  C   UNL A   1      47.319  24.861  24.633  1.00  0.00     0.188 C 
BRANCH  33  34
ATOM     34  O   UNL A   1      47.273  26.194  25.141  1.00  0.00    -0.376 OA
BRANCH  34  35
ATOM     35  C   UNL A   1      46.955  26.330  26.528  1.00  0.00     0.202 C 
BRANCH  35  36
ATOM     36  C   UNL A   1      45.818  27.300  26.889  1.00  0.00     0.261 C 
BRANCH  36  37
ATOM     37  O   UNL A   1      45.454  28.202  25.825  1.00  0.00    -0.460 OA
BRANCH  37  38
ATOM     38  C   UNL A   1      45.339  29.514  26.151  1.00  0.00     0.338 C 
ATOM     39  O   UNL A   1      46.031  30.434  25.733  1.00  0.00    -0.246 OA
BRANCH  38  40
ATOM     40  C   UNL A   1      44.339  29.686  27.226  1.00  0.00     0.060 A 
ATOM     41  C   UNL A   1      43.002  29.470  26.895  1.00  0.00     0.016 A 
ATOM     42  C   UNL A   1      44.686  30.037  28.535  1.00  0.00     0.016 A 
ATOM     43  C   UNL A   1      42.007  29.705  27.845  1.00  0.00     0.010 A 
ATOM     44  C   UNL A   1      43.680  30.295  29.482  1.00  0.00     0.010 A 
ATOM     45  C   UNL A   1      42.329  30.202  29.120  1.00  0.00    -0.014 A 
BRANCH  45  46
ATOM     46  C   UNL A   1      41.186  30.536  30.017  1.00  0.00     0.031 A 
ATOM     47  C   UNL A   1      41.231  29.703  31.256  1.00  0.00     0.074 A 
ATOM     48  C   UNL A   1      40.688  31.787  30.176  1.00  0.00     0.049 A 
ATOM     49  N   UNL A   1      41.913  29.990  32.322  1.00  0.00    -0.248 NA
ATOM     50  C   UNL A   1      40.720  28.333  31.217  1.00  0.00     0.031 C 
ATOM     51  C   UNL A   1      41.487  32.989  30.417  1.00  0.00     0.029 A 
ATOM     52  N   UNL A   1      39.380  32.203  30.410  1.00  0.00    -0.354 N 
ATOM     53  C   UNL A   1      41.988  28.829  33.070  1.00  0.00     0.074 A 
ATOM     54  C   UNL A   1      41.232  27.829  32.347  1.00  0.00     0.031 C 
ATOM     55  C   UNL A   1      40.686  33.983  30.847  1.00  0.00     0.029 A 
ATOM     56  C   UNL A   1      39.303  33.510  30.903  1.00  0.00     0.049 A 
ATOM     57  H   UNL A   1      38.593  31.636  30.246  1.00  0.00     0.167 HD
ATOM     58  C   UNL A   1      42.667  28.736  34.242  1.00  0.00     0.034 A 
ATOM     59  C   UNL A   1      38.361  33.970  31.783  1.00  0.00     0.034 A 
ATOM     60  C   UNL A   1      43.262  29.954  34.711  1.00  0.00     0.049 A 
ATOM     61  C   UNL A   1      38.990  33.588  33.103  1.00  0.00     0.074 A 
ATOM     62  C   UNL A   1      44.513  30.529  34.723  1.00  0.00     0.029 A 
ATOM     63  N   UNL A   1      42.431  30.911  35.242  1.00  0.00    -0.354 N 
ATOM     64  N   UNL A   1      39.985  34.192  33.699  1.00  0.00    -0.248 NA
ATOM     65  C   UNL A   1      38.774  32.202  33.522  1.00  0.00     0.031 C 
ATOM     66  C   UNL A   1      44.291  31.939  34.846  1.00  0.00     0.029 A 
ATOM     67  C   UNL A   1      42.915  32.148  34.892  1.00  0.00     0.049 A 
ATOM     68  H   UNL A   1      41.625  30.740  35.781  1.00  0.00     0.167 HD
ATOM     69  C   UNL A   1      40.741  33.159  34.265  1.00  0.00     0.074 A 
ATOM     70  C   UNL A   1      39.926  31.965  34.134  1.00  0.00     0.031 C 
ATOM     71  C   UNL A   1      42.050  33.284  34.640  1.00  0.00     0.034 A 
BRANCH  58  72
ATOM     72  C   UNL A   1      42.612  27.534  35.103  1.00  0.00     0.023 A 
ATOM     73  C   UNL A   1      41.569  27.487  36.049  1.00  0.00     0.012 A 
ATOM     74  C   UNL A   1      43.600  26.534  35.104  1.00  0.00     0.148 A 
ATOM     75  C   UNL A   1      41.527  26.485  37.013  1.00  0.00     0.002 A 
ATOM     76  C   UNL A   1      43.553  25.535  36.074  1.00  0.00     0.091 A 
ATOM     77  F   UNL A   1      44.572  26.589  34.183  1.00  0.00    -0.205 F 
ATOM     78  C   UNL A   1      42.523  25.517  37.032  1.00  0.00     0.022 A 
BRANCH  76  79
ATOM     79  S   UNL A   1      44.784  24.233  36.216  1.00  0.00     0.127 S 
ATOM     80  O   UNL A   1      44.858  24.044  37.664  1.00  0.00    -0.237 OA
ATOM     81  O   UNL A   1      44.147  23.134  35.491  1.00  0.00    -0.237 OA
ATOM     82  O   UNL A   1      45.993  24.752  35.592  1.00  0.00    -0.744 OA
ENDBRANCH  76  79
ENDBRANCH  58  72
BRANCH  59  83
ATOM     83  C   UNL A   1      36.916  33.742  31.443  1.00  0.00     0.023 A 
ATOM     84  C   UNL A   1      36.089  33.284  32.497  1.00  0.00     0.012 A 
ATOM     85  C   UNL A   1      36.312  33.924  30.183  1.00  0.00     0.148 A 
ATOM     86  C   UNL A   1      34.709  33.132  32.344  1.00  0.00     0.002 A 
ATOM     87  C   UNL A   1      34.925  33.821  30.043  1.00  0.00     0.091 A 
ATOM     88  F   UNL A   1      37.079  34.209  29.125  1.00  0.00    -0.205 F 
ATOM     89  C   UNL A   1      34.121  33.435  31.124  1.00  0.00     0.022 A 
BRANCH  87  90
ATOM     90  S   UNL A   1      34.072  34.236  28.514  1.00  0.00     0.127 S 
ATOM     91  O   UNL A   1      34.600  35.567  28.214  1.00  0.00    -0.237 OA
ATOM     92  O   UNL A   1      34.542  33.174  27.626  1.00  0.00    -0.237 OA
ATOM     93  O   UNL A   1      32.652  34.204  28.836  1.00  0.00    -0.744 OA
ENDBRANCH  87  90
ENDBRANCH  59  83
BRANCH  71  94
ATOM     94  C   UNL A   1      42.619  34.673  34.668  1.00  0.00     0.023 A 
ATOM     95  C   UNL A   1      42.466  35.406  35.861  1.00  0.00     0.012 A 
ATOM     96  C   UNL A   1      43.365  35.242  33.611  1.00  0.00     0.148 A 
ATOM     97  C   UNL A   1      43.058  36.658  36.016  1.00  0.00     0.002 A 
ATOM     98  C   UNL A   1      43.969  36.489  33.778  1.00  0.00     0.091 A 
ATOM     99  F   UNL A   1      43.479  34.563  32.460  1.00  0.00    -0.205 F 
ATOM    100  C   UNL A   1      43.820  37.191  34.983  1.00  0.00     0.022 A 
BRANCH  98 101
ATOM    101  S   UNL A   1      45.015  37.262  32.538  1.00  0.00     0.127 S 
ATOM    102  O   UNL A   1      44.129  37.350  31.379  1.00  0.00    -0.237 OA
ATOM    103  O   UNL A   1      45.348  38.548  33.148  1.00  0.00    -0.237 OA
ATOM    104  O   UNL A   1      46.155  36.376  32.343  1.00  0.00    -0.744 OA
ENDBRANCH  98 101
ENDBRANCH  71  94
ENDBRANCH  45  46
ENDBRANCH  38  40
ENDBRANCH  37  38
ENDBRANCH  36  37
ENDBRANCH  35  36
ENDBRANCH  34  35
ENDBRANCH  33  34
ENDBRANCH   1  33
TORSDOF 23
ENDMDL
MODEL 3
REMARK VINA RESULT:     -10.3      8.394     16.763
REMARK SMILES O=C(CNc1cc(N2CCCC2)c2noc3c2c1C(=O)c1ccccc1-3)OCCOCCOCCOC(=O)c1ccc(-c2c3nc(c(-c4cccc(S(=O)(=O)[O-])c4F)c4ccc([nH]4)c(-c4cccc(S(=O)(=O)[O-])c4F)c4nc(c(-c5cccc(S(=O)(=O)[O-])c5F)c5ccc2[nH]5)C=C4)C=C3)cc1
REMARK SMILES IDX 31 1 30 2 29 3 28 4 27 5 2 6 1 7 3 8 4 9 5 11 6 12 18 13
REMARK SMILES IDX 7 14 17 15 19 16 13 17 16 18 20 19 21 20 14 21 15 22 26 23
REMARK SMILES IDX 22 24 25 25 23 26 24 27 8 28 9 29 12 30 10 31 11 32 32 33
REMARK SMILES IDX 33 34 34 35 35 36 36 37 37 38 38 39 39 40 40 41 101 42 41 43
REMARK SMILES IDX 100 44 42 45 43 46 44 47 94 48 45 49 99 50 93 51 95 52 46 53
REMARK SMILES IDX 98 54 92 55 91 56 47 58 79 59 59 60 78 61 60 62 63 63 77 64
REMARK SMILES IDX 96 65 61 66 62 67 76 69 97 70 64 71 48 72 49 73 57 74 50 75
REMARK SMILES IDX 52 76 58 77 51 78 53 79 54 80 55 81 56 82 80 83 81 84 89 85
REMARK SMILES IDX 82 86 84 87 90 88 83 89 85 90 86 91 87 92 88 93 65 94 66 95
REMARK SMILES IDX 74 96 67 97 69 98 75 99 68 100 70 101 71 102 72 103 73 104
REMARK H PARENT 4 10 95 57 63 68
REMARK Flexibility Score: inf
ROOT
ATOM      1  C   UNL A   1      42.284  39.897  28.890  1.00  0.00     0.188 C 
ENDROOT
BRANCH   1   2
ATOM      2  O   UNL A   1      41.216  40.431  28.126  1.00  0.00    -0.376 OA
BRANCH   2   3
ATOM      3  C   UNL A   1      41.270  40.339  26.709  1.00  0.00     0.202 C 
BRANCH   3   4
ATOM      4  C   UNL A   1      42.562  40.635  25.938  1.00  0.00     0.261 C 
BRANCH   4   5
ATOM      5  O   UNL A   1      42.848  41.972  25.492  1.00  0.00    -0.462 OA
BRANCH   5   6
ATOM      6  C   UNL A   1      43.958  42.432  24.862  1.00  0.00     0.325 C 
ATOM      7  O   UNL A   1      45.050  41.993  25.232  1.00  0.00    -0.250 OA
BRANCH   6   8
ATOM      8  C   UNL A   1      43.838  43.595  23.877  1.00  0.00     0.236 C 
BRANCH   8   9
ATOM      9  N   UNL A   1      44.940  43.629  22.928  1.00  0.00    -0.374 N 
ATOM     10  H   UNL A   1      45.573  42.881  23.019  1.00  0.00     0.161 HD
BRANCH   9  11
ATOM     11  C   UNL A   1      45.257  44.519  21.926  1.00  0.00     0.049 A 
ATOM     12  C   UNL A   1      46.528  45.191  22.161  1.00  0.00     0.054 A 
ATOM     13  C   UNL A   1      44.583  44.725  20.699  1.00  0.00     0.059 A 
ATOM     14  C   UNL A   1      47.246  46.031  21.257  1.00  0.00     0.069 A 
ATOM     15  C   UNL A   1      45.262  45.634  19.902  1.00  0.00     0.065 A 
ATOM     16  C   UNL A   1      43.358  44.129  20.103  1.00  0.00     0.196 C 
ATOM     17  C   UNL A   1      46.505  46.281  20.085  1.00  0.00     0.138 A 
ATOM     18  C   UNL A   1      44.791  46.019  18.691  1.00  0.00     0.176 A 
ATOM     19  O   UNL A   1      42.832  43.132  20.565  1.00  0.00    -0.288 OA
ATOM     20  C   UNL A   1      42.820  44.691  18.811  1.00  0.00     0.034 A 
ATOM     21  N   UNL A   1      46.756  47.039  18.989  1.00  0.00    -0.077 NA
ATOM     22  O   UNL A   1      45.668  46.876  18.124  1.00  0.00    -0.355 OA
ATOM     23  C   UNL A   1      43.567  45.612  18.068  1.00  0.00     0.032 A 
ATOM     24  C   UNL A   1      41.594  44.262  18.321  1.00  0.00     0.013 A 
ATOM     25  C   UNL A   1      43.099  46.059  16.830  1.00  0.00     0.013 A 
ATOM     26  C   UNL A   1      41.127  44.682  17.079  1.00  0.00     0.001 A 
ATOM     27  C   UNL A   1      41.884  45.578  16.332  1.00  0.00     0.001 A 
BRANCH  14  28
ATOM     28  N   UNL A   1      48.501  46.531  21.521  1.00  0.00    -0.370 N 
ATOM     29  C   UNL A   1      48.663  47.862  22.101  1.00  0.00     0.116 C 
ATOM     30  C   UNL A   1      49.490  46.273  20.480  1.00  0.00     0.116 C 
ATOM     31  C   UNL A   1      49.732  48.517  21.234  1.00  0.00     0.023 C 
ATOM     32  C   UNL A   1      50.551  47.334  20.741  1.00  0.00     0.023 C 
ENDBRANCH  14  28
ENDBRANCH   9  11
ENDBRANCH   8   9
ENDBRANCH   6   8
ENDBRANCH   5   6
ENDBRANCH   4   5
ENDBRANCH   3   4
ENDBRANCH   2   3
ENDBRANCH   1   2
BRANCH   1  33
ATOM     33  C   UNL A   1      43.131  40.970  29.574  1.00  0.00     0.188 C 
BRANCH  33  34
ATOM     34  O   UNL A   1      44.536  40.718  29.610  1.00  0.00    -0.376 OA
BRANCH  34  35
ATOM     35  C   UNL A   1      45.039  39.812  28.627  1.00  0.00     0.202 C 
BRANCH  35  36
ATOM     36  C   UNL A   1      45.505  38.434  29.125  1.00  0.00     0.261 C 
BRANCH  36  37
ATOM     37  O   UNL A   1      45.453  37.397  28.124  1.00  0.00    -0.460 OA
BRANCH  37  38
ATOM     38  C   UNL A   1      44.220  36.956  27.770  1.00  0.00     0.338 C 
ATOM     39  O   UNL A   1      43.562  37.321  26.803  1.00  0.00    -0.246 OA
BRANCH  38  40
ATOM     40  C   UNL A   1      43.681  36.057  28.813  1.00  0.00     0.060 A 
ATOM     41  C   UNL A   1      44.599  35.451  29.670  1.00  0.00     0.016 A 
ATOM     42  C   UNL A   1      42.314  35.813  28.970  1.00  0.00     0.016 A 
ATOM     43  C   UNL A   1      44.157  34.525  30.615  1.00  0.00     0.010 A 
ATOM     44  C   UNL A   1      41.874  34.862  29.907  1.00  0.00     0.010 A 
ATOM     45  C   UNL A   1      42.802  34.156  30.686  1.00  0.00    -0.014 A 
BRANCH  45  46
ATOM     46  C   UNL A   1      42.452  33.069  31.644  1.00  0.00     0.031 A 
ATOM     47  C   UNL A   1      41.005  33.133  32.005  1.00  0.00     0.074 A 
ATOM     48  C   UNL A   1      42.987  31.823  31.604  1.00  0.00     0.049 A 
ATOM     49  N   UNL A   1      40.042  32.591  31.324  1.00  0.00    -0.248 NA
ATOM     50  C   UNL A   1      40.561  34.088  33.021  1.00  0.00     0.031 C 
ATOM     51  C   UNL A   1      43.111  30.996  30.404  1.00  0.00     0.029 A 
ATOM     52  N   UNL A   1      43.286  30.949  32.645  1.00  0.00    -0.354 N 
ATOM     53  C   UNL A   1      38.867  33.174  31.763  1.00  0.00     0.074 A 
ATOM     54  C   UNL A   1      39.238  34.093  32.817  1.00  0.00     0.031 C 
ATOM     55  C   UNL A   1      43.371  29.723  30.758  1.00  0.00     0.029 A 
ATOM     56  C   UNL A   1      43.453  29.627  32.216  1.00  0.00     0.049 A 
ATOM     57  H   UNL A   1      43.372  31.230  33.584  1.00  0.00     0.167 HD
ATOM     58  C   UNL A   1      37.647  32.883  31.243  1.00  0.00     0.034 A 
ATOM     59  C   UNL A   1      43.125  28.513  32.939  1.00  0.00     0.034 A 
ATOM     60  C   UNL A   1      37.632  31.864  30.234  1.00  0.00     0.049 A 
ATOM     61  C   UNL A   1      41.662  28.364  32.590  1.00  0.00     0.074 A 
ATOM     62  C   UNL A   1      37.568  31.800  28.860  1.00  0.00     0.029 A 
ATOM     63  N   UNL A   1      37.796  30.559  30.637  1.00  0.00    -0.354 N 
ATOM     64  N   UNL A   1      41.169  27.903  31.469  1.00  0.00    -0.248 NA
ATOM     65  C   UNL A   1      40.744  29.197  33.366  1.00  0.00     0.031 C 
ATOM     66  C   UNL A   1      38.136  30.535  28.502  1.00  0.00     0.029 A 
ATOM     67  C   UNL A   1      38.524  29.898  29.679  1.00  0.00     0.049 A 
ATOM     68  H   UNL A   1      37.452  30.167  31.471  1.00  0.00     0.167 HD
ATOM     69  C   UNL A   1      40.041  28.695  31.224  1.00  0.00     0.074 A 
ATOM     70  C   UNL A   1      39.829  29.456  32.442  1.00  0.00     0.031 C 
ATOM     71  C   UNL A   1      39.452  28.831  29.998  1.00  0.00     0.034 A 
BRANCH  58  72
ATOM     72  C   UNL A   1      36.388  33.400  31.823  1.00  0.00     0.023 A 
ATOM     73  C   UNL A   1      36.041  32.916  33.099  1.00  0.00     0.012 A 
ATOM     74  C   UNL A   1      35.492  34.225  31.122  1.00  0.00     0.148 A 
ATOM     75  C   UNL A   1      34.802  33.209  33.658  1.00  0.00     0.002 A 
ATOM     76  C   UNL A   1      34.252  34.513  31.688  1.00  0.00     0.091 A 
ATOM     77  F   UNL A   1      35.852  34.690  29.917  1.00  0.00    -0.205 F 
ATOM     78  C   UNL A   1      33.905  33.998  32.949  1.00  0.00     0.022 A 
BRANCH  76  79
ATOM     79  S   UNL A   1      32.998  35.508  30.871  1.00  0.00     0.127 S 
ATOM     80  O   UNL A   1      32.695  34.703  29.688  1.00  0.00    -0.237 OA
ATOM     81  O   UNL A   1      31.934  35.539  31.875  1.00  0.00    -0.237 OA
ATOM     82  O   UNL A   1      33.617  36.799  30.604  1.00  0.00    -0.744 OA
ENDBRANCH  76  79
ENDBRANCH  58  72
BRANCH  59  83
ATOM     83  C   UNL A   1      43.672  28.397  34.333  1.00  0.00     0.023 A 
ATOM     84  C   UNL A   1      44.481  29.469  34.780  1.00  0.00     0.012 A 
ATOM     85  C   UNL A   1      43.472  27.325  35.226  1.00  0.00     0.148 A 
ATOM     86  C   UNL A   1      44.967  29.535  36.088  1.00  0.00     0.002 A 
ATOM     87  C   UNL A   1      43.914  27.415  36.548  1.00  0.00     0.091 A 
ATOM     88  F   UNL A   1      42.843  26.225  34.797  1.00  0.00    -0.205 F 
ATOM     89  C   UNL A   1      44.653  28.524  36.984  1.00  0.00     0.022 A 
BRANCH  87  90
ATOM     90  S   UNL A   1      43.518  26.174  37.790  1.00  0.00     0.127 S 
ATOM     91  O   UNL A   1      42.055  26.206  37.807  1.00  0.00    -0.237 OA
ATOM     92  O   UNL A   1      44.099  24.974  37.192  1.00  0.00    -0.237 OA
ATOM     93  O   UNL A   1      44.149  26.634  39.019  1.00  0.00    -0.744 OA
ENDBRANCH  87  90
ENDBRANCH  59  83
BRANCH  71  94
ATOM     94  C   UNL A   1      39.899  27.886  28.920  1.00  0.00     0.023 A 
ATOM     95  C   UNL A   1      39.207  26.665  28.809  1.00  0.00     0.012 A 
ATOM     96  C   UNL A   1      40.902  28.189  27.971  1.00  0.00     0.148 A 
ATOM     97  C   UNL A   1      39.478  25.776  27.770  1.00  0.00     0.002 A 
ATOM     98  C   UNL A   1      41.158  27.302  26.924  1.00  0.00     0.091 A 
ATOM     99  F   UNL A   1      41.590  29.332  28.097  1.00  0.00    -0.205 F 
ATOM    100  C   UNL A   1      40.440  26.101  26.822  1.00  0.00     0.022 A 
BRANCH  98 101
ATOM    101  S   UNL A   1      42.341  27.629  25.611  1.00  0.00     0.127 S 
ATOM    102  O   UNL A   1      41.859  28.889  25.050  1.00  0.00    -0.237 OA
ATOM    103  O   UNL A   1      43.609  27.730  26.332  1.00  0.00    -0.237 OA
ATOM    104  O   UNL A   1      42.261  26.504  24.689  1.00  0.00    -0.744 OA
ENDBRANCH  98 101
ENDBRANCH  71  94
ENDBRANCH  45  46
ENDBRANCH  38  40
ENDBRANCH  37  38
ENDBRANCH  36  37
ENDBRANCH  35  36
ENDBRANCH  34  35
ENDBRANCH  33  34
ENDBRANCH   1  33
TORSDOF 23
ENDMDL
