MODEL 1
REMARK VINA RESULT:      -9.5      0.000      0.000
REMARK SMILES O=C(OCCOCCOCCOC(=O)[C@@H]1C[N@@H+](C2CCN(C(=O)c3ccccc3)CC2)C[C@H]1C1CC1)c1ccc(-c2c3nc(c(-c4cccc(S(=O)(=O)[O-])c4F)c4ccc([nH]4)c(-c4cccc(S(=O)(=O)[O-])c4F)c4nc(c(-c5cccc(S(=O)(=O)[O-])c5F)c5ccc2[nH]5)C=C4)C=C3)cc1
REMARK SMILES IDX 7 1 6 2 5 3 4 4 3 5 2 6 1 7 37 8 38 9 99 10 39 11 98 12
REMARK SMILES IDX 40 13 41 14 42 15 92 16 43 17 97 18 91 19 93 20 44 21 96 22
REMARK SMILES IDX 90 23 89 24 45 26 77 27 57 28 76 29 58 30 61 31 75 32 94 33
REMARK SMILES IDX 59 34 60 35 74 37 95 38 62 39 46 40 47 41 55 42 48 43 50 44
REMARK SMILES IDX 56 45 49 46 51 47 52 48 53 49 54 50 78 51 79 52 87 53 80 54
REMARK SMILES IDX 82 55 88 56 81 57 83 58 84 59 85 60 86 61 63 62 64 63 72 64
REMARK SMILES IDX 65 65 67 66 73 67 66 68 68 69 69 70 70 71 71 72 8 73 9 74
REMARK SMILES IDX 10 75 11 76 12 77 13 78 14 79 15 80 16 81 33 82 17 83 32 84
REMARK SMILES IDX 34 86 35 87 36 88 18 89 19 90 31 91 20 92 30 93 21 94 22 95
REMARK SMILES IDX 23 96 24 97 25 98 29 99 26 100 28 101 27 102
REMARK H PARENT 93 25 61 36 17 85
REMARK Flexibility Score: inf
ROOT
ATOM      1  C   UNL A   1      37.434  31.722  28.916  1.00  0.00     0.188 C 
ENDROOT
BRANCH   1   2
ATOM      2  O   UNL A   1      37.481  30.422  28.330  1.00  0.00    -0.376 OA
BRANCH   2   3
ATOM      3  C   UNL A   1      37.418  29.354  29.277  1.00  0.00     0.202 C 
BRANCH   3   4
ATOM      4  C   UNL A   1      36.343  29.473  30.374  1.00  0.00     0.261 C 
BRANCH   4   5
ATOM      5  O   UNL A   1      36.855  29.277  31.700  1.00  0.00    -0.460 OA
BRANCH   5   6
ATOM      6  C   UNL A   1      37.760  30.064  32.331  1.00  0.00     0.338 C 
ATOM      7  O   UNL A   1      37.408  31.189  32.682  1.00  0.00    -0.246 OA
BRANCH   6   8
ATOM      8  C   UNL A   1      39.202  29.673  32.500  1.00  0.00     0.060 A 
ATOM      9  C   UNL A   1      40.266  30.548  32.729  1.00  0.00     0.016 A 
ATOM     10  C   UNL A   1      39.484  28.298  32.551  1.00  0.00     0.016 A 
ATOM     11  C   UNL A   1      41.565  30.095  32.967  1.00  0.00     0.010 A 
ATOM     12  C   UNL A   1      40.762  27.839  32.894  1.00  0.00     0.010 A 
ATOM     13  C   UNL A   1      41.830  28.738  33.076  1.00  0.00    -0.014 A 
BRANCH  13  14
ATOM     14  C   UNL A   1      43.218  28.232  33.225  1.00  0.00     0.031 A 
ATOM     15  C   UNL A   1      43.885  27.665  32.010  1.00  0.00     0.074 A 
ATOM     16  C   UNL A   1      43.935  28.313  34.366  1.00  0.00     0.049 A 
ATOM     17  N   UNL A   1      45.056  27.104  31.914  1.00  0.00    -0.248 NA
ATOM     18  C   UNL A   1      43.183  27.827  30.723  1.00  0.00     0.031 C 
ATOM     19  C   UNL A   1      43.603  29.104  35.543  1.00  0.00     0.029 A 
ATOM     20  N   UNL A   1      45.095  27.671  34.742  1.00  0.00    -0.354 N 
ATOM     21  C   UNL A   1      45.249  26.883  30.563  1.00  0.00     0.074 A 
ATOM     22  C   UNL A   1      44.042  27.282  29.877  1.00  0.00     0.031 C 
ATOM     23  C   UNL A   1      44.435  28.782  36.548  1.00  0.00     0.029 A 
ATOM     24  C   UNL A   1      45.327  27.740  36.101  1.00  0.00     0.049 A 
ATOM     25  H   UNL A   1      45.693  27.211  34.109  1.00  0.00     0.167 HD
ATOM     26  C   UNL A   1      46.369  26.460  29.943  1.00  0.00     0.034 A 
ATOM     27  C   UNL A   1      46.140  27.026  36.901  1.00  0.00     0.034 A 
ATOM     28  C   UNL A   1      47.570  26.092  30.633  1.00  0.00     0.049 A 
ATOM     29  C   UNL A   1      47.240  26.274  36.220  1.00  0.00     0.074 A 
ATOM     30  C   UNL A   1      48.773  25.677  30.096  1.00  0.00     0.029 A 
ATOM     31  N   UNL A   1      47.708  26.064  32.012  1.00  0.00    -0.354 N 
ATOM     32  N   UNL A   1      47.459  26.159  34.935  1.00  0.00    -0.248 NA
ATOM     33  C   UNL A   1      48.287  25.700  37.072  1.00  0.00     0.031 C 
ATOM     34  C   UNL A   1      49.620  25.336  31.154  1.00  0.00     0.029 A 
ATOM     35  C   UNL A   1      48.959  25.581  32.348  1.00  0.00     0.049 A 
ATOM     36  H   UNL A   1      47.018  26.345  32.655  1.00  0.00     0.167 HD
ATOM     37  C   UNL A   1      48.723  25.610  34.819  1.00  0.00     0.074 A 
ATOM     38  C   UNL A   1      49.201  25.372  36.168  1.00  0.00     0.031 C 
ATOM     39  C   UNL A   1      49.434  25.371  33.692  1.00  0.00     0.034 A 
BRANCH  26  40
ATOM     40  C   UNL A   1      46.316  26.374  28.451  1.00  0.00     0.023 A 
ATOM     41  C   UNL A   1      46.616  27.505  27.663  1.00  0.00     0.012 A 
ATOM     42  C   UNL A   1      45.944  25.169  27.835  1.00  0.00     0.148 A 
ATOM     43  C   UNL A   1      46.511  27.442  26.275  1.00  0.00     0.002 A 
ATOM     44  C   UNL A   1      45.883  25.101  26.451  1.00  0.00     0.091 A 
ATOM     45  F   UNL A   1      45.634  24.124  28.615  1.00  0.00    -0.205 F 
ATOM     46  C   UNL A   1      46.151  26.239  25.670  1.00  0.00     0.022 A 
BRANCH  44  47
ATOM     47  S   UNL A   1      45.478  23.588  25.580  1.00  0.00     0.127 S 
ATOM     48  O   UNL A   1      44.102  23.355  26.019  1.00  0.00    -0.237 OA
ATOM     49  O   UNL A   1      45.613  24.002  24.184  1.00  0.00    -0.237 OA
ATOM     50  O   UNL A   1      46.443  22.593  26.026  1.00  0.00    -0.744 OA
ENDBRANCH  44  47
ENDBRANCH  26  40
BRANCH  27  51
ATOM     51  C   UNL A   1      46.050  27.065  38.393  1.00  0.00     0.023 A 
ATOM     52  C   UNL A   1      45.160  26.203  39.060  1.00  0.00     0.012 A 
ATOM     53  C   UNL A   1      46.755  28.037  39.140  1.00  0.00     0.148 A 
ATOM     54  C   UNL A   1      44.938  26.334  40.433  1.00  0.00     0.002 A 
ATOM     55  C   UNL A   1      46.522  28.166  40.509  1.00  0.00     0.091 A 
ATOM     56  F   UNL A   1      47.602  28.848  38.489  1.00  0.00    -0.205 F 
ATOM     57  C   UNL A   1      45.612  27.316  41.155  1.00  0.00     0.022 A 
BRANCH  55  58
ATOM     58  S   UNL A   1      47.269  29.445  41.534  1.00  0.00     0.127 S 
ATOM     59  O   UNL A   1      48.370  29.900  40.690  1.00  0.00    -0.237 OA
ATOM     60  O   UNL A   1      46.177  30.404  41.678  1.00  0.00    -0.237 OA
ATOM     61  O   UNL A   1      47.670  28.783  42.772  1.00  0.00    -0.744 OA
ENDBRANCH  55  58
ENDBRANCH  27  51
BRANCH  39  62
ATOM     62  C   UNL A   1      50.830  24.853  33.859  1.00  0.00     0.023 A 
ATOM     63  C   UNL A   1      51.855  25.723  34.271  1.00  0.00     0.012 A 
ATOM     64  C   UNL A   1      51.100  23.481  33.691  1.00  0.00     0.148 A 
ATOM     65  C   UNL A   1      53.142  25.239  34.488  1.00  0.00     0.002 A 
ATOM     66  C   UNL A   1      52.368  22.996  33.971  1.00  0.00     0.091 A 
ATOM     67  F   UNL A   1      50.110  22.679  33.273  1.00  0.00    -0.205 F 
ATOM     68  C   UNL A   1      53.394  23.875  34.356  1.00  0.00     0.022 A 
BRANCH  66  69
ATOM     69  S   UNL A   1      52.753  21.243  33.945  1.00  0.00     0.127 S 
ATOM     70  O   UNL A   1      54.175  21.244  34.283  1.00  0.00    -0.237 OA
ATOM     71  O   UNL A   1      51.875  20.722  34.994  1.00  0.00    -0.237 OA
ATOM     72  O   UNL A   1      52.434  20.777  32.602  1.00  0.00    -0.744 OA
ENDBRANCH  66  69
ENDBRANCH  39  62
ENDBRANCH  13  14
ENDBRANCH   6   8
ENDBRANCH   5   6
ENDBRANCH   4   5
ENDBRANCH   3   4
ENDBRANCH   2   3
ENDBRANCH   1   2
BRANCH   1  73
ATOM     73  C   UNL A   1      36.220  32.606  28.608  1.00  0.00     0.188 C 
BRANCH  73  74
ATOM     74  O   UNL A   1      34.920  32.127  28.902  1.00  0.00    -0.376 OA
BRANCH  74  75
ATOM     75  C   UNL A   1      34.022  31.936  27.819  1.00  0.00     0.202 C 
BRANCH  75  76
ATOM     76  C   UNL A   1      33.670  30.517  27.320  1.00  0.00     0.261 C 
BRANCH  76  77
ATOM     77  O   UNL A   1      32.326  30.308  26.831  1.00  0.00    -0.463 OA
BRANCH  77  78
ATOM     78  C   UNL A   1      31.999  29.000  26.718  1.00  0.00     0.315 C 
ATOM     79  O   UNL A   1      32.141  28.201  27.646  1.00  0.00    -0.252 OA
BRANCH  78  80
ATOM     80  C   UNL A   1      31.303  28.574  25.429  1.00  0.00     0.163 C 
ATOM     81  C   UNL A   1      32.280  27.499  24.918  1.00  0.00     0.278 C 
ATOM     82  C   UNL A   1      31.028  29.489  24.214  1.00  0.00     0.067 C 
ATOM     83  N   UNL A   1      32.218  27.494  23.489  1.00  0.00    -0.331 N 
ATOM     84  C   UNL A   1      31.953  28.869  23.123  1.00  0.00     0.267 C 
ATOM     85  H   UNL A   1      33.115  27.142  23.152  1.00  0.00     0.348 HD
BRANCH  82  86
ATOM     86  C   UNL A   1      29.629  29.548  23.575  1.00  0.00    -0.001 C 
ATOM     87  C   UNL A   1      28.833  30.815  23.329  1.00  0.00     0.004 C 
ATOM     88  C   UNL A   1      29.265  29.986  22.179  1.00  0.00     0.004 C 
ENDBRANCH  82  86
BRANCH  83  89
ATOM     89  C   UNL A   1      31.600  26.425  22.710  1.00  0.00     0.187 C 
ATOM     90  C   UNL A   1      30.312  25.794  23.221  1.00  0.00     0.086 C 
ATOM     91  C   UNL A   1      32.560  25.277  22.374  1.00  0.00     0.086 C 
ATOM     92  C   UNL A   1      30.544  24.934  24.444  1.00  0.00     0.126 C 
ATOM     93  C   UNL A   1      32.737  24.220  23.457  1.00  0.00     0.126 C 
ATOM     94  N   UNL A   1      31.542  23.902  24.256  1.00  0.00    -0.338 N 
ATOM     95  C   UNL A   1      31.458  22.802  25.109  1.00  0.00     0.253 C 
ATOM     96  O   UNL A   1      30.572  22.626  25.943  1.00  0.00    -0.269 OA
BRANCH  95  97
ATOM     97  C   UNL A   1      32.472  21.749  24.970  1.00  0.00     0.040 A 
ATOM     98  C   UNL A   1      33.646  21.885  25.713  1.00  0.00     0.014 A 
ATOM     99  C   UNL A   1      32.256  20.643  24.146  1.00  0.00     0.014 A 
ATOM    100  C   UNL A   1      34.602  20.876  25.661  1.00  0.00     0.001 A 
ATOM    101  C   UNL A   1      33.214  19.633  24.106  1.00  0.00     0.001 A 
ATOM    102  C   UNL A   1      34.381  19.749  24.866  1.00  0.00     0.000 A 
ENDBRANCH  95  97
ENDBRANCH  83  89
ENDBRANCH  78  80
ENDBRANCH  77  78
ENDBRANCH  76  77
ENDBRANCH  75  76
ENDBRANCH  74  75
ENDBRANCH  73  74
ENDBRANCH   1  73
TORSDOF 23
ENDMDL
MODEL 2
REMARK VINA RESULT:      -9.4      1.694      7.499
REMARK SMILES O=C(OCCOCCOCCOC(=O)[C@@H]1C[N@@H+](C2CCN(C(=O)c3ccccc3)CC2)C[C@H]1C1CC1)c1ccc(-c2c3nc(c(-c4cccc(S(=O)(=O)[O-])c4F)c4ccc([nH]4)c(-c4cccc(S(=O)(=O)[O-])c4F)c4nc(c(-c5cccc(S(=O)(=O)[O-])c5F)c5ccc2[nH]5)C=C4)C=C3)cc1
REMARK SMILES IDX 7 1 6 2 5 3 4 4 3 5 2 6 1 7 37 8 38 9 99 10 39 11 98 12
REMARK SMILES IDX 40 13 41 14 42 15 92 16 43 17 97 18 91 19 93 20 44 21 96 22
REMARK SMILES IDX 90 23 89 24 45 26 77 27 57 28 76 29 58 30 61 31 75 32 94 33
REMARK SMILES IDX 59 34 60 35 74 37 95 38 62 39 46 40 47 41 55 42 48 43 50 44
REMARK SMILES IDX 56 45 49 46 51 47 52 48 53 49 54 50 78 51 79 52 87 53 80 54
REMARK SMILES IDX 82 55 88 56 81 57 83 58 84 59 85 60 86 61 63 62 64 63 72 64
REMARK SMILES IDX 65 65 67 66 73 67 66 68 68 69 69 70 70 71 71 72 8 73 9 74
REMARK SMILES IDX 10 75 11 76 12 77 13 78 14 79 15 80 16 81 33 82 17 83 32 84
REMARK SMILES IDX 34 86 35 87 36 88 18 89 19 90 31 91 20 92 30 93 21 94 22 95
REMARK SMILES IDX 23 96 24 97 25 98 29 99 26 100 28 101 27 102
REMARK H PARENT 93 25 61 36 17 85
REMARK Flexibility Score: inf
ROOT
ATOM      1  C   UNL A   1      37.348  31.957  29.514  1.00  0.00     0.188 C 
ENDROOT
BRANCH   1   2
ATOM      2  O   UNL A   1      38.096  32.847  30.339  1.00  0.00    -0.376 OA
BRANCH   2   3
ATOM      3  C   UNL A   1      37.340  33.429  31.403  1.00  0.00     0.202 C 
BRANCH   3   4
ATOM      4  C   UNL A   1      36.530  32.457  32.280  1.00  0.00     0.261 C 
BRANCH   4   5
ATOM      5  O   UNL A   1      37.343  31.501  32.976  1.00  0.00    -0.460 OA
BRANCH   5   6
ATOM      6  C   UNL A   1      37.667  30.260  32.540  1.00  0.00     0.338 C 
ATOM      7  O   UNL A   1      36.754  29.461  32.331  1.00  0.00    -0.246 OA
BRANCH   6   8
ATOM      8  C   UNL A   1      39.087  29.779  32.432  1.00  0.00     0.060 A 
ATOM      9  C   UNL A   1      40.163  30.513  31.927  1.00  0.00     0.016 A 
ATOM     10  C   UNL A   1      39.378  28.529  33.002  1.00  0.00     0.016 A 
ATOM     11  C   UNL A   1      41.471  30.026  31.948  1.00  0.00     0.010 A 
ATOM     12  C   UNL A   1      40.701  28.084  33.119  1.00  0.00     0.010 A 
ATOM     13  C   UNL A   1      41.765  28.818  32.562  1.00  0.00    -0.014 A 
BRANCH  13  14
ATOM     14  C   UNL A   1      43.129  28.233  32.505  1.00  0.00     0.031 A 
ATOM     15  C   UNL A   1      44.071  28.559  33.622  1.00  0.00     0.074 A 
ATOM     16  C   UNL A   1      43.546  27.377  31.548  1.00  0.00     0.049 A 
ATOM     17  N   UNL A   1      45.323  28.225  33.751  1.00  0.00    -0.248 NA
ATOM     18  C   UNL A   1      43.513  29.276  34.783  1.00  0.00     0.031 C 
ATOM     19  C   UNL A   1      42.707  26.689  30.577  1.00  0.00     0.029 A 
ATOM     20  N   UNL A   1      44.817  26.970  31.204  1.00  0.00    -0.354 N 
ATOM     21  C   UNL A   1      45.690  28.653  35.013  1.00  0.00     0.074 A 
ATOM     22  C   UNL A   1      44.563  29.354  35.583  1.00  0.00     0.031 C 
ATOM     23  C   UNL A   1      43.485  26.083  29.664  1.00  0.00     0.029 A 
ATOM     24  C   UNL A   1      44.867  26.372  29.961  1.00  0.00     0.049 A 
ATOM     25  H   UNL A   1      45.604  27.093  31.782  1.00  0.00     0.167 HD
ATOM     26  C   UNL A   1      46.843  28.410  35.669  1.00  0.00     0.034 A 
ATOM     27  C   UNL A   1      45.902  26.114  29.141  1.00  0.00     0.034 A 
ATOM     28  C   UNL A   1      47.945  27.691  35.103  1.00  0.00     0.049 A 
ATOM     29  C   UNL A   1      47.261  26.133  29.767  1.00  0.00     0.074 A 
ATOM     30  C   UNL A   1      49.149  27.363  35.695  1.00  0.00     0.029 A 
ATOM     31  N   UNL A   1      47.988  27.215  33.801  1.00  0.00    -0.354 N 
ATOM     32  N   UNL A   1      47.574  26.450  30.998  1.00  0.00    -0.248 NA
ATOM     33  C   UNL A   1      48.375  25.610  28.969  1.00  0.00     0.031 C 
ATOM     34  C   UNL A   1      49.947  26.745  34.728  1.00  0.00     0.029 A 
ATOM     35  C   UNL A   1      49.224  26.648  33.550  1.00  0.00     0.049 A 
ATOM     36  H   UNL A   1      47.250  27.274  33.153  1.00  0.00     0.167 HD
ATOM     37  C   UNL A   1      48.888  26.053  31.163  1.00  0.00     0.074 A 
ATOM     38  C   UNL A   1      49.326  25.516  29.889  1.00  0.00     0.031 C 
ATOM     39  C   UNL A   1      49.642  26.094  32.287  1.00  0.00     0.034 A 
BRANCH  26  40
ATOM     40  C   UNL A   1      46.945  28.943  37.063  1.00  0.00     0.023 A 
ATOM     41  C   UNL A   1      47.505  30.215  37.299  1.00  0.00     0.012 A 
ATOM     42  C   UNL A   1      46.501  28.161  38.141  1.00  0.00     0.148 A 
ATOM     43  C   UNL A   1      47.653  30.687  38.602  1.00  0.00     0.002 A 
ATOM     44  C   UNL A   1      46.611  28.655  39.432  1.00  0.00     0.091 A 
ATOM     45  F   UNL A   1      46.003  26.943  37.883  1.00  0.00    -0.205 F 
ATOM     46  C   UNL A   1      47.200  29.910  39.667  1.00  0.00     0.022 A 
BRANCH  44  47
ATOM     47  S   UNL A   1      46.014  27.753  40.861  1.00  0.00     0.127 S 
ATOM     48  O   UNL A   1      46.820  26.533  40.797  1.00  0.00    -0.237 OA
ATOM     49  O   UNL A   1      46.361  28.659  41.954  1.00  0.00    -0.237 OA
ATOM     50  O   UNL A   1      44.586  27.557  40.649  1.00  0.00    -0.744 OA
ENDBRANCH  44  47
ENDBRANCH  26  40
BRANCH  27  51
ATOM     51  C   UNL A   1      45.725  25.706  27.713  1.00  0.00     0.023 A 
ATOM     52  C   UNL A   1      45.695  26.688  26.706  1.00  0.00     0.012 A 
ATOM     53  C   UNL A   1      45.464  24.360  27.367  1.00  0.00     0.148 A 
ATOM     54  C   UNL A   1      45.367  26.350  25.391  1.00  0.00     0.002 A 
ATOM     55  C   UNL A   1      45.129  24.031  26.054  1.00  0.00     0.091 A 
ATOM     56  F   UNL A   1      45.499  23.435  28.338  1.00  0.00    -0.205 F 
ATOM     57  C   UNL A   1      45.079  25.027  25.066  1.00  0.00     0.022 A 
BRANCH  55  58
ATOM     58  S   UNL A   1      44.660  22.374  25.526  1.00  0.00     0.127 S 
ATOM     59  O   UNL A   1      44.195  22.614  24.164  1.00  0.00    -0.237 OA
ATOM     60  O   UNL A   1      45.926  21.650  25.618  1.00  0.00    -0.237 OA
ATOM     61  O   UNL A   1      43.632  21.930  26.463  1.00  0.00    -0.744 OA
ENDBRANCH  55  58
ENDBRANCH  27  51
BRANCH  39  62
ATOM     62  C   UNL A   1      51.018  25.508  32.211  1.00  0.00     0.023 A 
ATOM     63  C   UNL A   1      52.113  26.332  31.893  1.00  0.00     0.012 A 
ATOM     64  C   UNL A   1      51.231  24.155  32.541  1.00  0.00     0.148 A 
ATOM     65  C   UNL A   1      53.403  25.811  31.878  1.00  0.00     0.002 A 
ATOM     66  C   UNL A   1      52.525  23.660  32.588  1.00  0.00     0.091 A 
ATOM     67  F   UNL A   1      50.167  23.387  32.815  1.00  0.00    -0.205 F 
ATOM     68  C   UNL A   1      53.611  24.482  32.243  1.00  0.00     0.022 A 
BRANCH  66  69
ATOM     69  S   UNL A   1      52.898  22.001  33.161  1.00  0.00     0.127 S 
ATOM     70  O   UNL A   1      52.159  21.947  34.421  1.00  0.00    -0.237 OA
ATOM     71  O   UNL A   1      52.341  21.174  32.090  1.00  0.00    -0.237 OA
ATOM     72  O   UNL A   1      54.347  21.931  33.289  1.00  0.00    -0.744 OA
ENDBRANCH  66  69
ENDBRANCH  39  62
ENDBRANCH  13  14
ENDBRANCH   6   8
ENDBRANCH   5   6
ENDBRANCH   4   5
ENDBRANCH   3   4
ENDBRANCH   2   3
ENDBRANCH   1   2
BRANCH   1  73
ATOM     73  C   UNL A   1      36.233  32.549  28.644  1.00  0.00     0.188 C 
BRANCH  73  74
ATOM     74  O   UNL A   1      34.883  32.244  28.944  1.00  0.00    -0.376 OA
BRANCH  74  75
ATOM     75  C   UNL A   1      34.008  31.962  27.861  1.00  0.00     0.202 C 
BRANCH  75  76
ATOM     76  C   UNL A   1      34.097  30.623  27.098  1.00  0.00     0.261 C 
BRANCH  76  77
ATOM     77  O   UNL A   1      33.108  29.619  27.419  1.00  0.00    -0.463 OA
BRANCH  77  78
ATOM     78  C   UNL A   1      32.081  29.584  26.538  1.00  0.00     0.315 C 
ATOM     79  O   UNL A   1      31.273  30.509  26.428  1.00  0.00    -0.252 OA
BRANCH  78  80
ATOM     80  C   UNL A   1      32.042  28.404  25.573  1.00  0.00     0.163 C 
ATOM     81  C   UNL A   1      32.088  29.138  24.221  1.00  0.00     0.278 C 
ATOM     82  C   UNL A   1      30.885  27.387  25.447  1.00  0.00     0.067 C 
ATOM     83  N   UNL A   1      31.379  28.344  23.265  1.00  0.00    -0.331 N 
ATOM     84  C   UNL A   1      30.330  27.699  24.024  1.00  0.00     0.267 C 
ATOM     85  H   UNL A   1      31.037  28.979  22.544  1.00  0.00     0.348 HD
BRANCH  82  86
ATOM     86  C   UNL A   1      31.165  25.873  25.450  1.00  0.00    -0.001 C 
ATOM     87  C   UNL A   1      31.660  25.078  26.643  1.00  0.00     0.004 C 
ATOM     88  C   UNL A   1      30.331  24.776  26.062  1.00  0.00     0.004 C 
ENDBRANCH  82  86
BRANCH  83  89
ATOM     89  C   UNL A   1      32.028  27.604  22.187  1.00  0.00     0.187 C 
ATOM     90  C   UNL A   1      31.412  26.289  21.726  1.00  0.00     0.086 C 
ATOM     91  C   UNL A   1      33.519  27.339  22.435  1.00  0.00     0.086 C 
ATOM     92  C   UNL A   1      31.583  25.188  22.750  1.00  0.00     0.126 C 
ATOM     93  C   UNL A   1      33.844  26.127  23.300  1.00  0.00     0.126 C 
ATOM     94  N   UNL A   1      32.958  24.962  23.146  1.00  0.00    -0.338 N 
ATOM     95  C   UNL A   1      33.248  23.701  23.665  1.00  0.00     0.253 C 
ATOM     96  O   UNL A   1      32.447  22.771  23.743  1.00  0.00    -0.269 OA
BRANCH  95  97
ATOM     97  C   UNL A   1      34.624  23.443  24.108  1.00  0.00     0.040 A 
ATOM     98  C   UNL A   1      34.918  23.657  25.456  1.00  0.00     0.014 A 
ATOM     99  C   UNL A   1      35.593  22.978  23.217  1.00  0.00     0.014 A 
ATOM    100  C   UNL A   1      36.192  23.361  25.928  1.00  0.00     0.001 A 
ATOM    101  C   UNL A   1      36.864  22.675  23.699  1.00  0.00     0.001 A 
ATOM    102  C   UNL A   1      37.159  22.862  25.053  1.00  0.00     0.000 A 
ENDBRANCH  95  97
ENDBRANCH  83  89
ENDBRANCH  78  80
ENDBRANCH  77  78
ENDBRANCH  76  77
ENDBRANCH  75  76
ENDBRANCH  74  75
ENDBRANCH  73  74
ENDBRANCH   1  73
TORSDOF 23
ENDMDL
MODEL 3
REMARK VINA RESULT:      -9.3      4.687      8.314
REMARK SMILES O=C(OCCOCCOCCOC(=O)[C@@H]1C[N@@H+](C2CCN(C(=O)c3ccccc3)CC2)C[C@H]1C1CC1)c1ccc(-c2c3nc(c(-c4cccc(S(=O)(=O)[O-])c4F)c4ccc([nH]4)c(-c4cccc(S(=O)(=O)[O-])c4F)c4nc(c(-c5cccc(S(=O)(=O)[O-])c5F)c5ccc2[nH]5)C=C4)C=C3)cc1
REMARK SMILES IDX 7 1 6 2 5 3 4 4 3 5 2 6 1 7 37 8 38 9 99 10 39 11 98 12
REMARK SMILES IDX 40 13 41 14 42 15 92 16 43 17 97 18 91 19 93 20 44 21 96 22
REMARK SMILES IDX 90 23 89 24 45 26 77 27 57 28 76 29 58 30 61 31 75 32 94 33
REMARK SMILES IDX 59 34 60 35 74 37 95 38 62 39 46 40 47 41 55 42 48 43 50 44
REMARK SMILES IDX 56 45 49 46 51 47 52 48 53 49 54 50 78 51 79 52 87 53 80 54
REMARK SMILES IDX 82 55 88 56 81 57 83 58 84 59 85 60 86 61 63 62 64 63 72 64
REMARK SMILES IDX 65 65 67 66 73 67 66 68 68 69 69 70 70 71 71 72 8 73 9 74
REMARK SMILES IDX 10 75 11 76 12 77 13 78 14 79 15 80 16 81 33 82 17 83 32 84
REMARK SMILES IDX 34 86 35 87 36 88 18 89 19 90 31 91 20 92 30 93 21 94 22 95
REMARK SMILES IDX 23 96 24 97 25 98 29 99 26 100 28 101 27 102
REMARK H PARENT 93 25 61 36 17 85
REMARK Flexibility Score: inf
ROOT
ATOM      1  C   UNL A   1      39.563  35.387  36.142  1.00  0.00     0.188 C 
ENDROOT
BRANCH   1   2
ATOM      2  O   UNL A   1      40.008  36.578  36.787  1.00  0.00    -0.376 OA
BRANCH   2   3
ATOM      3  C   UNL A   1      40.422  36.387  38.142  1.00  0.00     0.202 C 
BRANCH   3   4
ATOM      4  C   UNL A   1      41.934  36.487  38.418  1.00  0.00     0.261 C 
BRANCH   4   5
ATOM      5  O   UNL A   1      42.718  35.559  37.656  1.00  0.00    -0.460 OA
BRANCH   5   6
ATOM      6  C   UNL A   1      43.286  35.795  36.449  1.00  0.00     0.338 C 
ATOM      7  O   UNL A   1      43.389  36.962  36.073  1.00  0.00    -0.246 OA
BRANCH   6   8
ATOM      8  C   UNL A   1      43.669  34.694  35.500  1.00  0.00     0.060 A 
ATOM      9  C   UNL A   1      44.972  34.307  35.178  1.00  0.00     0.016 A 
ATOM     10  C   UNL A   1      42.624  33.908  34.987  1.00  0.00     0.016 A 
ATOM     11  C   UNL A   1      45.241  33.210  34.357  1.00  0.00     0.010 A 
ATOM     12  C   UNL A   1      42.894  32.747  34.251  1.00  0.00     0.010 A 
ATOM     13  C   UNL A   1      44.212  32.401  33.899  1.00  0.00    -0.014 A 
BRANCH  13  14
ATOM     14  C   UNL A   1      44.467  31.294  32.943  1.00  0.00     0.031 A 
ATOM     15  C   UNL A   1      44.455  31.623  31.482  1.00  0.00     0.074 A 
ATOM     16  C   UNL A   1      44.773  30.032  33.310  1.00  0.00     0.049 A 
ATOM     17  N   UNL A   1      44.580  30.815  30.468  1.00  0.00    -0.248 NA
ATOM     18  C   UNL A   1      44.381  33.049  31.116  1.00  0.00     0.031 C 
ATOM     19  C   UNL A   1      45.150  29.586  34.645  1.00  0.00     0.029 A 
ATOM     20  N   UNL A   1      44.770  28.862  32.582  1.00  0.00    -0.354 N 
ATOM     21  C   UNL A   1      44.640  31.631  29.353  1.00  0.00     0.074 A 
ATOM     22  C   UNL A   1      44.444  32.992  29.796  1.00  0.00     0.031 C 
ATOM     23  C   UNL A   1      45.185  28.242  34.674  1.00  0.00     0.029 A 
ATOM     24  C   UNL A   1      44.796  27.736  33.380  1.00  0.00     0.049 A 
ATOM     25  H   UNL A   1      44.751  28.832  31.598  1.00  0.00     0.167 HD
ATOM     26  C   UNL A   1      44.914  31.278  28.081  1.00  0.00     0.034 A 
ATOM     27  C   UNL A   1      44.510  26.450  33.111  1.00  0.00     0.034 A 
ATOM     28  C   UNL A   1      45.132  29.927  27.659  1.00  0.00     0.049 A 
ATOM     29  C   UNL A   1      44.500  26.065  31.664  1.00  0.00     0.074 A 
ATOM     30  C   UNL A   1      45.446  29.465  26.396  1.00  0.00     0.029 A 
ATOM     31  N   UNL A   1      45.025  28.818  28.483  1.00  0.00    -0.354 N 
ATOM     32  N   UNL A   1      44.655  26.845  30.625  1.00  0.00    -0.248 NA
ATOM     33  C   UNL A   1      44.446  24.633  31.352  1.00  0.00     0.031 C 
ATOM     34  C   UNL A   1      45.467  28.068  26.443  1.00  0.00     0.029 A 
ATOM     35  C   UNL A   1      45.209  27.664  27.745  1.00  0.00     0.049 A 
ATOM     36  H   UNL A   1      44.844  28.848  29.450  1.00  0.00     0.167 HD
ATOM     37  C   UNL A   1      44.840  25.998  29.547  1.00  0.00     0.074 A 
ATOM     38  C   UNL A   1      44.730  24.644  30.055  1.00  0.00     0.031 C 
ATOM     39  C   UNL A   1      45.121  26.323  28.263  1.00  0.00     0.034 A 
BRANCH  26  40
ATOM     40  C   UNL A   1      44.980  32.387  27.079  1.00  0.00     0.023 A 
ATOM     41  C   UNL A   1      43.897  32.625  26.208  1.00  0.00     0.012 A 
ATOM     42  C   UNL A   1      46.136  33.179  26.993  1.00  0.00     0.148 A 
ATOM     43  C   UNL A   1      43.981  33.620  25.237  1.00  0.00     0.002 A 
ATOM     44  C   UNL A   1      46.196  34.196  26.052  1.00  0.00     0.091 A 
ATOM     45  F   UNL A   1      47.159  32.905  27.814  1.00  0.00    -0.205 F 
ATOM     46  C   UNL A   1      45.127  34.409  25.164  1.00  0.00     0.022 A 
BRANCH  44  47
ATOM     47  S   UNL A   1      47.606  35.294  25.913  1.00  0.00     0.127 S 
ATOM     48  O   UNL A   1      46.964  36.547  25.513  1.00  0.00    -0.237 OA
ATOM     49  O   UNL A   1      48.128  35.284  27.279  1.00  0.00    -0.237 OA
ATOM     50  O   UNL A   1      48.482  34.706  24.911  1.00  0.00    -0.744 OA
ENDBRANCH  44  47
ENDBRANCH  26  40
BRANCH  27  51
ATOM     51  C   UNL A   1      44.332  25.416  34.177  1.00  0.00     0.023 A 
ATOM     52  C   UNL A   1      43.080  25.269  34.802  1.00  0.00     0.012 A 
ATOM     53  C   UNL A   1      45.431  24.666  34.655  1.00  0.00     0.148 A 
ATOM     54  C   UNL A   1      42.932  24.430  35.910  1.00  0.00     0.002 A 
ATOM     55  C   UNL A   1      45.277  23.837  35.766  1.00  0.00     0.091 A 
ATOM     56  F   UNL A   1      46.616  24.816  34.046  1.00  0.00    -0.205 F 
ATOM     57  C   UNL A   1      44.028  23.720  36.394  1.00  0.00     0.022 A 
BRANCH  55  58
ATOM     58  S   UNL A   1      46.632  22.931  36.533  1.00  0.00     0.127 S 
ATOM     59  O   UNL A   1      45.921  22.051  37.454  1.00  0.00    -0.237 OA
ATOM     60  O   UNL A   1      47.238  22.254  35.389  1.00  0.00    -0.237 OA
ATOM     61  O   UNL A   1      47.479  23.937  37.167  1.00  0.00    -0.744 OA
ENDBRANCH  55  58
ENDBRANCH  27  51
BRANCH  39  62
ATOM     62  C   UNL A   1      45.367  25.194  27.309  1.00  0.00     0.023 A 
ATOM     63  C   UNL A   1      46.678  24.909  26.886  1.00  0.00     0.012 A 
ATOM     64  C   UNL A   1      44.303  24.366  26.904  1.00  0.00     0.148 A 
ATOM     65  C   UNL A   1      46.925  23.826  26.047  1.00  0.00     0.002 A 
ATOM     66  C   UNL A   1      44.566  23.252  26.122  1.00  0.00     0.091 A 
ATOM     67  F   UNL A   1      43.061  24.677  27.302  1.00  0.00    -0.205 F 
ATOM     68  C   UNL A   1      45.873  22.988  25.681  1.00  0.00     0.022 A 
BRANCH  66  69
ATOM     69  S   UNL A   1      43.298  22.052  25.702  1.00  0.00     0.127 S 
ATOM     70  O   UNL A   1      44.050  21.091  24.900  1.00  0.00    -0.237 OA
ATOM     71  O   UNL A   1      42.891  21.564  27.020  1.00  0.00    -0.237 OA
ATOM     72  O   UNL A   1      42.265  22.788  24.984  1.00  0.00    -0.744 OA
ENDBRANCH  66  69
ENDBRANCH  39  62
ENDBRANCH  13  14
ENDBRANCH   6   8
ENDBRANCH   5   6
ENDBRANCH   4   5
ENDBRANCH   3   4
ENDBRANCH   2   3
ENDBRANCH   1   2
BRANCH   1  73
ATOM     73  C   UNL A   1      39.012  34.257  37.018  1.00  0.00     0.188 C 
BRANCH  73  74
ATOM     74  O   UNL A   1      37.758  33.680  36.698  1.00  0.00    -0.376 OA
BRANCH  74  75
ATOM     75  C   UNL A   1      37.293  33.800  35.362  1.00  0.00     0.202 C 
BRANCH  75  76
ATOM     76  C   UNL A   1      35.781  33.845  35.049  1.00  0.00     0.261 C 
BRANCH  76  77
ATOM     77  O   UNL A   1      35.389  34.448  33.796  1.00  0.00    -0.463 OA
BRANCH  77  78
ATOM     78  C   UNL A   1      34.888  33.556  32.910  1.00  0.00     0.315 C 
ATOM     79  O   UNL A   1      33.708  33.198  32.928  1.00  0.00    -0.252 OA
BRANCH  78  80
ATOM     80  C   UNL A   1      35.814  33.112  31.783  1.00  0.00     0.163 C 
ATOM     81  C   UNL A   1      34.834  32.315  30.903  1.00  0.00     0.278 C 
ATOM     82  C   UNL A   1      37.052  32.200  31.946  1.00  0.00     0.067 C 
ATOM     83  N   UNL A   1      35.574  31.284  30.244  1.00  0.00    -0.331 N 
ATOM     84  C   UNL A   1      36.613  30.915  31.181  1.00  0.00     0.267 C 
ATOM     85  H   UNL A   1      34.918  30.531  30.036  1.00  0.00     0.348 HD
BRANCH  82  86
ATOM     86  C   UNL A   1      38.407  32.595  31.333  1.00  0.00    -0.001 C 
ATOM     87  C   UNL A   1      39.745  31.981  31.696  1.00  0.00     0.004 C 
ATOM     88  C   UNL A   1      39.222  31.836  30.317  1.00  0.00     0.004 C 
ENDBRANCH  82  86
BRANCH  83  89
ATOM     89  C   UNL A   1      35.883  31.295  28.817  1.00  0.00     0.187 C 
ATOM     90  C   UNL A   1      35.198  32.322  27.925  1.00  0.00     0.086 C 
ATOM     91  C   UNL A   1      35.713  29.928  28.141  1.00  0.00     0.086 C 
ATOM     92  C   UNL A   1      33.728  32.017  27.729  1.00  0.00     0.126 C 
ATOM     93  C   UNL A   1      34.296  29.574  27.708  1.00  0.00     0.126 C 
ATOM     94  N   UNL A   1      33.467  30.687  27.218  1.00  0.00    -0.338 N 
ATOM     95  C   UNL A   1      32.252  30.510  26.559  1.00  0.00     0.253 C 
ATOM     96  O   UNL A   1      31.439  31.404  26.330  1.00  0.00    -0.269 OA
BRANCH  95  97
ATOM     97  C   UNL A   1      31.936  29.167  26.055  1.00  0.00     0.040 A 
ATOM     98  C   UNL A   1      32.084  28.943  24.686  1.00  0.00     0.014 A 
ATOM     99  C   UNL A   1      31.528  28.150  26.920  1.00  0.00     0.014 A 
ATOM    100  C   UNL A   1      31.859  27.667  24.179  1.00  0.00     0.001 A 
ATOM    101  C   UNL A   1      31.314  26.873  26.406  1.00  0.00     0.001 A 
ATOM    102  C   UNL A   1      31.484  26.633  25.040  1.00  0.00     0.000 A 
ENDBRANCH  95  97
ENDBRANCH  83  89
ENDBRANCH  78  80
ENDBRANCH  77  78
ENDBRANCH  76  77
ENDBRANCH  75  76
ENDBRANCH  74  75
ENDBRANCH  73  74
ENDBRANCH   1  73
TORSDOF 23
ENDMDL
