MODEL 1
REMARK VINA RESULT:     -10.4      0.000      0.000
REMARK SMILES O=C(CNC(=O)N1CC(OCCOCCOCCOC(=O)c2ccc(-c3c4nc(c(-c5cccc(S(=O)(=O)[O-])c5F)c5ccc([nH]5)c(-c5cccc(S(=O)(=O)[O-])c5F)c5nc(c(-c6cccc(S(=O)(=O)[O-])c6F)c6ccc3[nH]6)C=C5)C=C4)cc2)=Nc2ccccc21)N[C@H](C(=O)[O-])c1ccccc1
REMARK SMILES IDX 14 1 13 2 12 3 11 4 10 5 9 6 7 7 8 8 91 9 86 10 90 11 85 12
REMARK SMILES IDX 87 13 89 14 88 15 5 16 4 17 6 19 3 20 2 21 1 22 92 23 93 25
REMARK SMILES IDX 97 26 98 27 102 28 99 29 101 30 100 31 94 32 95 33 96 34
REMARK SMILES IDX 15 35 16 36 17 37 18 38 19 39 20 40 21 41 22 42 23 43 84 44
REMARK SMILES IDX 24 45 83 46 25 47 26 48 27 49 77 50 28 51 82 52 76 53 78 54
REMARK SMILES IDX 29 55 81 56 75 57 74 58 30 60 62 61 42 62 61 63 43 64 46 65
REMARK SMILES IDX 60 66 79 67 44 68 45 69 59 71 80 72 47 73 31 74 32 75 40 76
REMARK SMILES IDX 33 77 35 78 41 79 34 80 36 81 37 82 38 83 39 84 63 85 64 86
REMARK SMILES IDX 72 87 65 88 67 89 73 90 66 91 68 92 69 93 70 94 71 95 48 96
REMARK SMILES IDX 49 97 57 98 50 99 52 100 58 101 51 102 53 103 54 104 55 105
REMARK SMILES IDX 56 106
REMARK H PARENT 4 18 92 24 78 59 46 70
REMARK Flexibility Score: inf
ROOT
ATOM      1  C   UNL A   1      35.230  32.753  29.324  1.00  0.00     0.188 C 
ENDROOT
BRANCH   1   2
ATOM      2  O   UNL A   1      34.237  32.109  28.535  1.00  0.00    -0.376 OA
BRANCH   2   3
ATOM      3  C   UNL A   1      34.583  30.941  27.802  1.00  0.00     0.201 C 
BRANCH   3   4
ATOM      4  C   UNL A   1      33.413  30.183  27.171  1.00  0.00     0.259 C 
BRANCH   4   5
ATOM      5  O   UNL A   1      32.418  31.084  26.631  1.00  0.00    -0.477 OA
BRANCH   5   6
ATOM      6  C   UNL A   1      31.505  30.573  25.771  1.00  0.00     0.209 C 
ATOM      7  N   UNL A   1      31.378  28.820  24.051  1.00  0.00    -0.283 N 
ATOM      8  C   UNL A   1      31.736  29.122  25.440  1.00  0.00     0.224 C 
ATOM      9  C   UNL A   1      30.220  29.526  23.562  1.00  0.00     0.072 A 
ATOM     10  C   UNL A   1      29.813  30.710  24.235  1.00  0.00     0.091 A 
ATOM     11  C   UNL A   1      29.448  29.086  22.480  1.00  0.00     0.029 A 
ATOM     12  N   UNL A   1      30.553  31.286  25.278  1.00  0.00    -0.214 NA
ATOM     13  C   UNL A   1      28.704  31.437  23.794  1.00  0.00     0.030 A 
ATOM     14  C   UNL A   1      28.340  29.829  22.048  1.00  0.00     0.002 A 
ATOM     15  C   UNL A   1      27.971  31.002  22.700  1.00  0.00     0.002 A 
BRANCH   7  16
ATOM     16  C   UNL A   1      31.959  27.688  23.530  1.00  0.00     0.322 C 
ATOM     17  N   UNL A   1      31.661  26.455  24.006  1.00  0.00    -0.329 N 
ATOM     18  H   UNL A   1      32.238  25.732  23.670  1.00  0.00     0.165 HD
ATOM     19  O   UNL A   1      32.665  27.726  22.519  1.00  0.00    -0.248 OA
BRANCH  17  20
ATOM     20  C   UNL A   1      30.629  26.029  24.930  1.00  0.00     0.218 C 
BRANCH  20  21
ATOM     21  C   UNL A   1      30.916  24.797  25.806  1.00  0.00     0.240 C 
ATOM     22  O   UNL A   1      30.046  24.342  26.550  1.00  0.00    -0.273 OA
ATOM     23  N   UNL A   1      32.076  24.098  25.568  1.00  0.00    -0.342 N 
ATOM     24  H   UNL A   1      32.837  24.527  25.114  1.00  0.00     0.164 HD
BRANCH  23  25
ATOM     25  C   UNL A   1      32.158  22.690  26.006  1.00  0.00     0.158 C 
BRANCH  25  26
ATOM     26  C   UNL A   1      32.235  21.690  24.841  1.00  0.00    -0.020 A 
ATOM     27  C   UNL A   1      32.078  22.097  23.504  1.00  0.00     0.006 A 
ATOM     28  C   UNL A   1      32.337  20.303  25.073  1.00  0.00     0.006 A 
ATOM     29  C   UNL A   1      32.091  21.172  22.452  1.00  0.00     0.000 A 
ATOM     30  C   UNL A   1      32.348  19.378  24.023  1.00  0.00     0.000 A 
ATOM     31  C   UNL A   1      32.234  19.814  22.711  1.00  0.00     0.000 A 
ENDBRANCH  25  26
BRANCH  25  32
ATOM     32  C   UNL A   1      33.254  22.463  27.083  1.00  0.00     0.068 C 
ATOM     33  O   UNL A   1      34.463  22.405  26.886  1.00  0.00    -0.548 OA
ATOM     34  O   UNL A   1      32.805  22.401  28.356  1.00  0.00    -0.548 OA
ENDBRANCH  25  32
ENDBRANCH  23  25
ENDBRANCH  20  21
ENDBRANCH  17  20
ENDBRANCH   7  16
ENDBRANCH   5   6
ENDBRANCH   4   5
ENDBRANCH   3   4
ENDBRANCH   2   3
ENDBRANCH   1   2
BRANCH   1  35
ATOM     35  C   UNL A   1      35.508  34.243  29.064  1.00  0.00     0.188 C 
BRANCH  35  36
ATOM     36  O   UNL A   1      34.623  34.931  28.186  1.00  0.00    -0.376 OA
BRANCH  36  37
ATOM     37  C   UNL A   1      33.867  35.999  28.747  1.00  0.00     0.202 C 
BRANCH  37  38
ATOM     38  C   UNL A   1      32.878  35.590  29.839  1.00  0.00     0.261 C 
BRANCH  38  39
ATOM     39  O   UNL A   1      33.263  36.106  31.125  1.00  0.00    -0.460 OA
BRANCH  39  40
ATOM     40  C   UNL A   1      33.022  35.268  32.159  1.00  0.00     0.338 C 
ATOM     41  O   UNL A   1      31.905  34.925  32.539  1.00  0.00    -0.246 OA
BRANCH  40  42
ATOM     42  C   UNL A   1      34.282  34.785  32.785  1.00  0.00     0.060 A 
ATOM     43  C   UNL A   1      35.483  35.489  32.682  1.00  0.00     0.016 A 
ATOM     44  C   UNL A   1      34.288  33.530  33.397  1.00  0.00     0.016 A 
ATOM     45  C   UNL A   1      36.692  34.883  33.047  1.00  0.00     0.010 A 
ATOM     46  C   UNL A   1      35.487  32.966  33.851  1.00  0.00     0.010 A 
ATOM     47  C   UNL A   1      36.716  33.606  33.628  1.00  0.00    -0.014 A 
BRANCH  47  48
ATOM     48  C   UNL A   1      38.007  32.926  33.954  1.00  0.00     0.031 A 
ATOM     49  C   UNL A   1      38.576  31.872  33.031  1.00  0.00     0.074 A 
ATOM     50  C   UNL A   1      38.681  33.230  35.081  1.00  0.00     0.049 A 
ATOM     51  N   UNL A   1      39.575  31.050  33.235  1.00  0.00    -0.248 NA
ATOM     52  C   UNL A   1      37.924  31.703  31.723  1.00  0.00     0.031 C 
ATOM     53  C   UNL A   1      38.255  34.214  36.074  1.00  0.00     0.029 A 
ATOM     54  N   UNL A   1      39.868  32.749  35.585  1.00  0.00    -0.354 N 
ATOM     55  C   UNL A   1      39.588  30.185  32.145  1.00  0.00     0.074 A 
ATOM     56  C   UNL A   1      38.536  30.623  31.253  1.00  0.00     0.031 C 
ATOM     57  C   UNL A   1      39.193  34.314  37.026  1.00  0.00     0.029 A 
ATOM     58  C   UNL A   1      40.251  33.345  36.765  1.00  0.00     0.049 A 
ATOM     59  H   UNL A   1      40.394  32.044  35.142  1.00  0.00     0.167 HD
ATOM     60  C   UNL A   1      40.387  29.113  31.922  1.00  0.00     0.034 A 
ATOM     61  C   UNL A   1      41.316  33.126  37.564  1.00  0.00     0.034 A 
ATOM     62  C   UNL A   1      41.488  28.729  32.769  1.00  0.00     0.049 A 
ATOM     63  C   UNL A   1      42.264  32.008  37.227  1.00  0.00     0.074 A 
ATOM     64  C   UNL A   1      42.355  27.659  32.623  1.00  0.00     0.029 A 
ATOM     65  N   UNL A   1      41.888  29.410  33.908  1.00  0.00    -0.354 N 
ATOM     66  N   UNL A   1      42.253  31.200  36.195  1.00  0.00    -0.248 NA
ATOM     67  C   UNL A   1      43.360  31.760  38.175  1.00  0.00     0.031 C 
ATOM     68  C   UNL A   1      43.275  27.690  33.679  1.00  0.00     0.029 A 
ATOM     69  C   UNL A   1      42.993  28.791  34.470  1.00  0.00     0.049 A 
ATOM     70  H   UNL A   1      41.451  30.216  34.265  1.00  0.00     0.167 HD
ATOM     71  C   UNL A   1      43.321  30.331  36.383  1.00  0.00     0.074 A 
ATOM     72  C   UNL A   1      44.003  30.760  37.587  1.00  0.00     0.031 C 
ATOM     73  C   UNL A   1      43.676  29.243  35.654  1.00  0.00     0.034 A 
BRANCH  60  74
ATOM     74  C   UNL A   1      40.088  28.253  30.720  1.00  0.00     0.023 A 
ATOM     75  C   UNL A   1      39.058  27.296  30.763  1.00  0.00     0.012 A 
ATOM     76  C   UNL A   1      40.808  28.439  29.520  1.00  0.00     0.148 A 
ATOM     77  C   UNL A   1      38.766  26.517  29.643  1.00  0.00     0.002 A 
ATOM     78  C   UNL A   1      40.485  27.688  28.395  1.00  0.00     0.091 A 
ATOM     79  F   UNL A   1      41.801  29.340  29.503  1.00  0.00    -0.205 F 
ATOM     80  C   UNL A   1      39.471  26.719  28.458  1.00  0.00     0.022 A 
BRANCH  78  81
ATOM     81  S   UNL A   1      41.285  27.937  26.806  1.00  0.00     0.127 S 
ATOM     82  O   UNL A   1      42.692  28.028  27.195  1.00  0.00    -0.237 OA
ATOM     83  O   UNL A   1      40.931  26.714  26.085  1.00  0.00    -0.237 OA
ATOM     84  O   UNL A   1      40.706  29.153  26.253  1.00  0.00    -0.744 OA
ENDBRANCH  78  81
ENDBRANCH  60  74
BRANCH  61  85
ATOM     85  C   UNL A   1      41.560  34.010  38.743  1.00  0.00     0.023 A 
ATOM     86  C   UNL A   1      41.098  33.608  40.012  1.00  0.00     0.012 A 
ATOM     87  C   UNL A   1      42.302  35.200  38.637  1.00  0.00     0.148 A 
ATOM     88  C   UNL A   1      41.367  34.376  41.147  1.00  0.00     0.002 A 
ATOM     89  C   UNL A   1      42.643  35.911  39.783  1.00  0.00     0.091 A 
ATOM     90  F   UNL A   1      42.696  35.606  37.420  1.00  0.00    -0.205 F 
ATOM     91  C   UNL A   1      42.160  35.515  41.036  1.00  0.00     0.022 A 
BRANCH  89  92
ATOM     92  S   UNL A   1      43.851  37.240  39.720  1.00  0.00     0.127 S 
ATOM     93  O   UNL A   1      45.024  36.561  39.179  1.00  0.00    -0.237 OA
ATOM     94  O   UNL A   1      43.217  38.198  38.811  1.00  0.00    -0.237 OA
ATOM     95  O   UNL A   1      43.951  37.713  41.095  1.00  0.00    -0.744 OA
ENDBRANCH  89  92
ENDBRANCH  61  85
BRANCH  73  96
ATOM     96  C   UNL A   1      44.836  28.428  36.163  1.00  0.00     0.023 A 
ATOM     97  C   UNL A   1      46.135  28.711  35.695  1.00  0.00     0.012 A 
ATOM     98  C   UNL A   1      44.653  27.409  37.116  1.00  0.00     0.148 A 
ATOM     99  C   UNL A   1      47.228  27.965  36.135  1.00  0.00     0.002 A 
ATOM    100  C   UNL A   1      45.754  26.697  37.581  1.00  0.00     0.091 A 
ATOM    101  F   UNL A   1      43.408  27.137  37.535  1.00  0.00    -0.205 F 
ATOM    102  C   UNL A   1      47.039  26.965  37.084  1.00  0.00     0.022 A 
BRANCH 100 103
ATOM    103  S   UNL A   1      45.603  25.445  38.860  1.00  0.00     0.127 S 
ATOM    104  O   UNL A   1      46.915  25.511  39.500  1.00  0.00    -0.237 OA
ATOM    105  O   UNL A   1      44.500  25.955  39.676  1.00  0.00    -0.237 OA
ATOM    106  O   UNL A   1      45.303  24.203  38.159  1.00  0.00    -0.744 OA
ENDBRANCH 100 103
ENDBRANCH  73  96
ENDBRANCH  47  48
ENDBRANCH  40  42
ENDBRANCH  39  40
ENDBRANCH  38  39
ENDBRANCH  37  38
ENDBRANCH  36  37
ENDBRANCH  35  36
ENDBRANCH   1  35
TORSDOF 25
ENDMDL
MODEL 2
REMARK VINA RESULT:      -9.7      6.499     12.425
REMARK SMILES O=C(CNC(=O)N1CC(OCCOCCOCCOC(=O)c2ccc(-c3c4nc(c(-c5cccc(S(=O)(=O)[O-])c5F)c5ccc([nH]5)c(-c5cccc(S(=O)(=O)[O-])c5F)c5nc(c(-c6cccc(S(=O)(=O)[O-])c6F)c6ccc3[nH]6)C=C5)C=C4)cc2)=Nc2ccccc21)N[C@H](C(=O)[O-])c1ccccc1
REMARK SMILES IDX 14 1 13 2 12 3 11 4 10 5 9 6 7 7 8 8 91 9 86 10 90 11 85 12
REMARK SMILES IDX 87 13 89 14 88 15 5 16 4 17 6 19 3 20 2 21 1 22 92 23 93 25
REMARK SMILES IDX 97 26 98 27 102 28 99 29 101 30 100 31 94 32 95 33 96 34
REMARK SMILES IDX 15 35 16 36 17 37 18 38 19 39 20 40 21 41 22 42 23 43 84 44
REMARK SMILES IDX 24 45 83 46 25 47 26 48 27 49 77 50 28 51 82 52 76 53 78 54
REMARK SMILES IDX 29 55 81 56 75 57 74 58 30 60 62 61 42 62 61 63 43 64 46 65
REMARK SMILES IDX 60 66 79 67 44 68 45 69 59 71 80 72 47 73 31 74 32 75 40 76
REMARK SMILES IDX 33 77 35 78 41 79 34 80 36 81 37 82 38 83 39 84 63 85 64 86
REMARK SMILES IDX 72 87 65 88 67 89 73 90 66 91 68 92 69 93 70 94 71 95 48 96
REMARK SMILES IDX 49 97 57 98 50 99 52 100 58 101 51 102 53 103 54 104 55 105
REMARK SMILES IDX 56 106
REMARK H PARENT 4 18 92 24 78 59 46 70
REMARK Flexibility Score: inf
ROOT
ATOM      1  C   UNL A   1      49.038  25.973  25.646  1.00  0.00     0.188 C 
ENDROOT
BRANCH   1   2
ATOM      2  O   UNL A   1      48.027  25.070  25.214  1.00  0.00    -0.376 OA
BRANCH   2   3
ATOM      3  C   UNL A   1      46.908  24.828  26.056  1.00  0.00     0.201 C 
BRANCH   3   4
ATOM      4  C   UNL A   1      45.548  25.237  25.485  1.00  0.00     0.259 C 
BRANCH   4   5
ATOM      5  O   UNL A   1      45.219  24.488  24.292  1.00  0.00    -0.477 OA
BRANCH   5   6
ATOM      6  C   UNL A   1      44.809  23.207  24.445  1.00  0.00     0.209 C 
ATOM      7  N   UNL A   1      42.977  21.980  25.535  1.00  0.00    -0.283 N 
ATOM      8  C   UNL A   1      43.318  23.068  24.615  1.00  0.00     0.224 C 
ATOM      9  C   UNL A   1      43.832  20.823  25.442  1.00  0.00     0.072 A 
ATOM     10  C   UNL A   1      45.116  20.974  24.852  1.00  0.00     0.091 A 
ATOM     11  C   UNL A   1      43.450  19.545  25.866  1.00  0.00     0.029 A 
ATOM     12  N   UNL A   1      45.634  22.219  24.465  1.00  0.00    -0.214 NA
ATOM     13  C   UNL A   1      45.987  19.887  24.747  1.00  0.00     0.030 A 
ATOM     14  C   UNL A   1      44.336  18.464  25.757  1.00  0.00     0.002 A 
ATOM     15  C   UNL A   1      45.602  18.635  25.202  1.00  0.00     0.002 A 
BRANCH   7  16
ATOM     16  C   UNL A   1      41.726  22.062  26.100  1.00  0.00     0.322 C 
ATOM     17  N   UNL A   1      41.457  22.931  27.104  1.00  0.00    -0.329 N 
ATOM     18  H   UNL A   1      40.581  22.805  27.535  1.00  0.00     0.165 HD
ATOM     19  O   UNL A   1      40.759  21.458  25.628  1.00  0.00    -0.248 OA
BRANCH  17  20
ATOM     20  C   UNL A   1      42.252  24.014  27.647  1.00  0.00     0.218 C 
BRANCH  20  21
ATOM     21  C   UNL A   1      42.089  25.409  27.017  1.00  0.00     0.240 C 
ATOM     22  O   UNL A   1      41.315  25.583  26.075  1.00  0.00    -0.273 OA
ATOM     23  N   UNL A   1      42.654  26.477  27.673  1.00  0.00    -0.342 N 
ATOM     24  H   UNL A   1      43.394  26.343  28.308  1.00  0.00     0.164 HD
BRANCH  23  25
ATOM     25  C   UNL A   1      42.129  27.832  27.406  1.00  0.00     0.158 C 
BRANCH  25  26
ATOM     26  C   UNL A   1      40.769  28.103  28.069  1.00  0.00    -0.020 A 
ATOM     27  C   UNL A   1      39.767  28.852  27.425  1.00  0.00     0.006 A 
ATOM     28  C   UNL A   1      40.517  27.722  29.403  1.00  0.00     0.006 A 
ATOM     29  C   UNL A   1      38.553  29.145  28.058  1.00  0.00     0.000 A 
ATOM     30  C   UNL A   1      39.304  28.016  30.037  1.00  0.00     0.000 A 
ATOM     31  C   UNL A   1      38.318  28.720  29.360  1.00  0.00     0.000 A 
ENDBRANCH  25  26
BRANCH  25  32
ATOM     32  C   UNL A   1      43.178  28.943  27.680  1.00  0.00     0.068 C 
ATOM     33  O   UNL A   1      42.949  30.060  28.132  1.00  0.00    -0.548 OA
ATOM     34  O   UNL A   1      44.463  28.589  27.460  1.00  0.00    -0.548 OA
ENDBRANCH  25  32
ENDBRANCH  23  25
ENDBRANCH  20  21
ENDBRANCH  17  20
ENDBRANCH   7  16
ENDBRANCH   5   6
ENDBRANCH   4   5
ENDBRANCH   3   4
ENDBRANCH   2   3
ENDBRANCH   1   2
BRANCH   1  35
ATOM     35  C   UNL A   1      50.111  25.449  26.614  1.00  0.00     0.188 C 
BRANCH  35  36
ATOM     36  O   UNL A   1      51.455  25.410  26.143  1.00  0.00    -0.376 OA
BRANCH  36  37
ATOM     37  C   UNL A   1      52.466  25.822  27.058  1.00  0.00     0.202 C 
BRANCH  37  38
ATOM     38  C   UNL A   1      52.052  26.933  28.024  1.00  0.00     0.261 C 
BRANCH  38  39
ATOM     39  O   UNL A   1      52.565  28.212  27.615  1.00  0.00    -0.460 OA
BRANCH  39  40
ATOM     40  C   UNL A   1      51.846  28.818  26.642  1.00  0.00     0.338 C 
ATOM     41  O   UNL A   1      52.165  28.857  25.456  1.00  0.00    -0.246 OA
BRANCH  40  42
ATOM     42  C   UNL A   1      50.599  29.428  27.175  1.00  0.00     0.060 A 
ATOM     43  C   UNL A   1      50.596  30.271  28.287  1.00  0.00     0.016 A 
ATOM     44  C   UNL A   1      49.376  29.052  26.612  1.00  0.00     0.016 A 
ATOM     45  C   UNL A   1      49.391  30.607  28.917  1.00  0.00     0.010 A 
ATOM     46  C   UNL A   1      48.170  29.471  27.187  1.00  0.00     0.010 A 
ATOM     47  C   UNL A   1      48.158  30.203  28.384  1.00  0.00    -0.014 A 
BRANCH  47  48
ATOM     48  C   UNL A   1      46.873  30.499  29.090  1.00  0.00     0.031 A 
ATOM     49  C   UNL A   1      46.327  29.545  30.128  1.00  0.00     0.074 A 
ATOM     50  C   UNL A   1      46.170  31.615  28.806  1.00  0.00     0.049 A 
ATOM     51  N   UNL A   1      45.152  29.537  30.704  1.00  0.00    -0.248 NA
ATOM     52  C   UNL A   1      47.206  28.443  30.553  1.00  0.00     0.031 C 
ATOM     53  C   UNL A   1      46.560  32.623  27.823  1.00  0.00     0.029 A 
ATOM     54  N   UNL A   1      44.986  32.094  29.315  1.00  0.00    -0.354 N 
ATOM     55  C   UNL A   1      45.101  28.367  31.456  1.00  0.00     0.074 A 
ATOM     56  C   UNL A   1      46.389  27.722  31.311  1.00  0.00     0.031 C 
ATOM     57  C   UNL A   1      45.674  33.629  27.848  1.00  0.00     0.029 A 
ATOM     58  C   UNL A   1      44.605  33.306  28.786  1.00  0.00     0.049 A 
ATOM     59  H   UNL A   1      44.459  31.613  29.995  1.00  0.00     0.167 HD
ATOM     60  C   UNL A   1      44.069  27.867  32.179  1.00  0.00     0.034 A 
ATOM     61  C   UNL A   1      43.512  34.066  29.006  1.00  0.00     0.034 A 
ATOM     62  C   UNL A   1      42.818  28.550  32.391  1.00  0.00     0.049 A 
ATOM     63  C   UNL A   1      42.433  33.546  29.916  1.00  0.00     0.074 A 
ATOM     64  C   UNL A   1      41.715  28.124  33.111  1.00  0.00     0.029 A 
ATOM     65  N   UNL A   1      42.510  29.811  31.904  1.00  0.00    -0.354 N 
ATOM     66  N   UNL A   1      42.405  32.435  30.611  1.00  0.00    -0.248 NA
ATOM     67  C   UNL A   1      41.228  34.376  30.057  1.00  0.00     0.031 C 
ATOM     68  C   UNL A   1      40.736  29.126  33.052  1.00  0.00     0.029 A 
ATOM     69  C   UNL A   1      41.240  30.183  32.313  1.00  0.00     0.049 A 
ATOM     70  H   UNL A   1      43.108  30.362  31.348  1.00  0.00     0.167 HD
ATOM     71  C   UNL A   1      41.169  32.419  31.249  1.00  0.00     0.074 A 
ATOM     72  C   UNL A   1      40.512  33.667  30.918  1.00  0.00     0.031 C 
ATOM     73  C   UNL A   1      40.608  31.437  31.997  1.00  0.00     0.034 A 
BRANCH  60  74
ATOM     74  C   UNL A   1      44.235  26.495  32.783  1.00  0.00     0.023 A 
ATOM     75  C   UNL A   1      44.166  25.345  31.974  1.00  0.00     0.012 A 
ATOM     76  C   UNL A   1      44.514  26.356  34.159  1.00  0.00     0.148 A 
ATOM     77  C   UNL A   1      44.342  24.077  32.528  1.00  0.00     0.002 A 
ATOM     78  C   UNL A   1      44.729  25.092  34.697  1.00  0.00     0.091 A 
ATOM     79  F   UNL A   1      44.554  27.460  34.919  1.00  0.00    -0.205 F 
ATOM     80  C   UNL A   1      44.634  23.950  33.885  1.00  0.00     0.022 A 
BRANCH  78  81
ATOM     81  S   UNL A   1      45.188  24.840  36.416  1.00  0.00     0.127 S 
ATOM     82  O   UNL A   1      45.268  23.382  36.489  1.00  0.00    -0.237 OA
ATOM     83  O   UNL A   1      46.479  25.525  36.497  1.00  0.00    -0.237 OA
ATOM     84  O   UNL A   1      44.129  25.452  37.206  1.00  0.00    -0.744 OA
ENDBRANCH  78  81
ENDBRANCH  60  74
BRANCH  61  85
ATOM     85  C   UNL A   1      43.403  35.417  28.381  1.00  0.00     0.023 A 
ATOM     86  C   UNL A   1      42.674  35.565  27.184  1.00  0.00     0.012 A 
ATOM     87  C   UNL A   1      43.946  36.564  28.990  1.00  0.00     0.148 A 
ATOM     88  C   UNL A   1      42.494  36.823  26.606  1.00  0.00     0.002 A 
ATOM     89  C   UNL A   1      43.685  37.823  28.458  1.00  0.00     0.091 A 
ATOM     90  F   UNL A   1      44.682  36.413  30.101  1.00  0.00    -0.205 F 
ATOM     91  C   UNL A   1      42.979  37.955  27.256  1.00  0.00     0.022 A 
BRANCH  89  92
ATOM     92  S   UNL A   1      44.082  39.314  29.379  1.00  0.00     0.127 S 
ATOM     93  O   UNL A   1      45.539  39.337  29.310  1.00  0.00    -0.237 OA
ATOM     94  O   UNL A   1      43.409  40.353  28.598  1.00  0.00    -0.237 OA
ATOM     95  O   UNL A   1      43.498  39.099  30.698  1.00  0.00    -0.744 OA
ENDBRANCH  89  92
ENDBRANCH  61  85
BRANCH  73  96
ATOM     96  C   UNL A   1      39.200  31.668  32.481  1.00  0.00     0.023 A 
ATOM     97  C   UNL A   1      38.118  31.242  31.683  1.00  0.00     0.012 A 
ATOM     98  C   UNL A   1      38.943  32.276  33.724  1.00  0.00     0.148 A 
ATOM     99  C   UNL A   1      36.803  31.454  32.095  1.00  0.00     0.002 A 
ATOM    100  C   UNL A   1      37.628  32.448  34.147  1.00  0.00     0.091 A 
ATOM    101  F   UNL A   1      39.981  32.697  34.460  1.00  0.00    -0.205 F 
ATOM    102  C   UNL A   1      36.559  32.048  33.330  1.00  0.00     0.022 A 
BRANCH 100 103
ATOM    103  S   UNL A   1      37.232  33.135  35.758  1.00  0.00     0.127 S 
ATOM    104  O   UNL A   1      38.168  34.254  35.844  1.00  0.00    -0.237 OA
ATOM    105  O   UNL A   1      35.829  33.525  35.601  1.00  0.00    -0.237 OA
ATOM    106  O   UNL A   1      37.448  32.054  36.709  1.00  0.00    -0.744 OA
ENDBRANCH 100 103
ENDBRANCH  73  96
ENDBRANCH  47  48
ENDBRANCH  40  42
ENDBRANCH  39  40
ENDBRANCH  38  39
ENDBRANCH  37  38
ENDBRANCH  36  37
ENDBRANCH  35  36
ENDBRANCH   1  35
TORSDOF 25
ENDMDL
MODEL 3
REMARK VINA RESULT:      -9.3      2.505      3.148
REMARK SMILES O=C(CNC(=O)N1CC(OCCOCCOCCOC(=O)c2ccc(-c3c4nc(c(-c5cccc(S(=O)(=O)[O-])c5F)c5ccc([nH]5)c(-c5cccc(S(=O)(=O)[O-])c5F)c5nc(c(-c6cccc(S(=O)(=O)[O-])c6F)c6ccc3[nH]6)C=C5)C=C4)cc2)=Nc2ccccc21)N[C@H](C(=O)[O-])c1ccccc1
REMARK SMILES IDX 14 1 13 2 12 3 11 4 10 5 9 6 7 7 8 8 91 9 86 10 90 11 85 12
REMARK SMILES IDX 87 13 89 14 88 15 5 16 4 17 6 19 3 20 2 21 1 22 92 23 93 25
REMARK SMILES IDX 97 26 98 27 102 28 99 29 101 30 100 31 94 32 95 33 96 34
REMARK SMILES IDX 15 35 16 36 17 37 18 38 19 39 20 40 21 41 22 42 23 43 84 44
REMARK SMILES IDX 24 45 83 46 25 47 26 48 27 49 77 50 28 51 82 52 76 53 78 54
REMARK SMILES IDX 29 55 81 56 75 57 74 58 30 60 62 61 42 62 61 63 43 64 46 65
REMARK SMILES IDX 60 66 79 67 44 68 45 69 59 71 80 72 47 73 31 74 32 75 40 76
REMARK SMILES IDX 33 77 35 78 41 79 34 80 36 81 37 82 38 83 39 84 63 85 64 86
REMARK SMILES IDX 72 87 65 88 67 89 73 90 66 91 68 92 69 93 70 94 71 95 48 96
REMARK SMILES IDX 49 97 57 98 50 99 52 100 58 101 51 102 53 103 54 104 55 105
REMARK SMILES IDX 56 106
REMARK H PARENT 4 18 92 24 78 59 46 70
REMARK Flexibility Score: inf
ROOT
ATOM      1  C   UNL A   1      35.891  31.674  29.345  1.00  0.00     0.188 C 
ENDROOT
BRANCH   1   2
ATOM      2  O   UNL A   1      34.753  31.143  28.677  1.00  0.00    -0.376 OA
BRANCH   2   3
ATOM      3  C   UNL A   1      34.940  30.364  27.503  1.00  0.00     0.201 C 
BRANCH   3   4
ATOM      4  C   UNL A   1      33.737  29.525  27.065  1.00  0.00     0.259 C 
BRANCH   4   5
ATOM      5  O   UNL A   1      32.557  30.340  26.873  1.00  0.00    -0.477 OA
BRANCH   5   6
ATOM      6  C   UNL A   1      31.774  30.074  25.801  1.00  0.00     0.209 C 
ATOM      7  N   UNL A   1      31.957  28.938  23.627  1.00  0.00    -0.283 N 
ATOM      8  C   UNL A   1      32.158  28.811  25.074  1.00  0.00     0.224 C 
ATOM      9  C   UNL A   1      30.793  29.698  23.246  1.00  0.00     0.072 A 
ATOM     10  C   UNL A   1      30.226  30.591  24.195  1.00  0.00     0.091 A 
ATOM     11  C   UNL A   1      30.166  29.576  22.001  1.00  0.00     0.029 A 
ATOM     12  N   UNL A   1      30.815  30.853  25.441  1.00  0.00    -0.214 NA
ATOM     13  C   UNL A   1      29.105  31.360  23.871  1.00  0.00     0.030 A 
ATOM     14  C   UNL A   1      29.043  30.356  21.690  1.00  0.00     0.002 A 
ATOM     15  C   UNL A   1      28.516  31.248  22.621  1.00  0.00     0.002 A 
BRANCH   7  16
ATOM     16  C   UNL A   1      32.679  28.056  22.857  1.00  0.00     0.322 C 
ATOM     17  N   UNL A   1      32.221  26.809  22.590  1.00  0.00    -0.329 N 
ATOM     18  H   UNL A   1      32.875  26.212  22.161  1.00  0.00     0.165 HD
ATOM     19  O   UNL A   1      33.702  28.401  22.260  1.00  0.00    -0.248 OA
BRANCH  17  20
ATOM     20  C   UNL A   1      30.923  26.213  22.834  1.00  0.00     0.218 C 
BRANCH  20  21
ATOM     21  C   UNL A   1      30.875  24.908  23.647  1.00  0.00     0.240 C 
ATOM     22  O   UNL A   1      30.471  23.864  23.133  1.00  0.00    -0.273 OA
ATOM     23  N   UNL A   1      31.497  24.895  24.874  1.00  0.00    -0.342 N 
ATOM     24  H   UNL A   1      31.668  25.734  25.359  1.00  0.00     0.164 HD
BRANCH  23  25
ATOM     25  C   UNL A   1      31.904  23.597  25.449  1.00  0.00     0.158 C 
BRANCH  25  26
ATOM     26  C   UNL A   1      33.413  23.323  25.336  1.00  0.00    -0.020 A 
ATOM     27  C   UNL A   1      34.369  24.313  25.629  1.00  0.00     0.006 A 
ATOM     28  C   UNL A   1      33.899  22.109  24.809  1.00  0.00     0.006 A 
ATOM     29  C   UNL A   1      35.740  24.076  25.468  1.00  0.00     0.000 A 
ATOM     30  C   UNL A   1      35.268  21.871  24.647  1.00  0.00     0.000 A 
ATOM     31  C   UNL A   1      36.190  22.852  24.985  1.00  0.00     0.000 A 
ENDBRANCH  25  26
BRANCH  25  32
ATOM     32  C   UNL A   1      31.347  23.377  26.881  1.00  0.00     0.068 C 
ATOM     33  O   UNL A   1      30.195  23.577  27.249  1.00  0.00    -0.548 OA
ATOM     34  O   UNL A   1      32.221  22.843  27.763  1.00  0.00    -0.548 OA
ENDBRANCH  25  32
ENDBRANCH  23  25
ENDBRANCH  20  21
ENDBRANCH  17  20
ENDBRANCH   7  16
ENDBRANCH   5   6
ENDBRANCH   4   5
ENDBRANCH   3   4
ENDBRANCH   2   3
ENDBRANCH   1   2
BRANCH   1  35
ATOM     35  C   UNL A   1      36.168  33.182  29.217  1.00  0.00     0.188 C 
BRANCH  35  36
ATOM     36  O   UNL A   1      35.318  33.932  28.356  1.00  0.00    -0.376 OA
BRANCH  36  37
ATOM     37  C   UNL A   1      34.597  35.009  28.947  1.00  0.00     0.202 C 
BRANCH  37  38
ATOM     38  C   UNL A   1      33.687  34.619  30.112  1.00  0.00     0.261 C 
BRANCH  38  39
ATOM     39  O   UNL A   1      34.224  35.050  31.374  1.00  0.00    -0.460 OA
BRANCH  39  40
ATOM     40  C   UNL A   1      34.265  34.088  32.324  1.00  0.00     0.338 C 
ATOM     41  O   UNL A   1      33.278  33.577  32.848  1.00  0.00    -0.246 OA
BRANCH  40  42
ATOM     42  C   UNL A   1      35.661  33.699  32.656  1.00  0.00     0.060 A 
ATOM     43  C   UNL A   1      36.737  34.575  32.500  1.00  0.00     0.016 A 
ATOM     44  C   UNL A   1      35.918  32.377  33.028  1.00  0.00     0.016 A 
ATOM     45  C   UNL A   1      38.053  34.098  32.565  1.00  0.00     0.010 A 
ATOM     46  C   UNL A   1      37.234  31.926  33.188  1.00  0.00     0.010 A 
ATOM     47  C   UNL A   1      38.323  32.762  32.899  1.00  0.00    -0.014 A 
BRANCH  47  48
ATOM     48  C   UNL A   1      39.721  32.231  32.900  1.00  0.00     0.031 A 
ATOM     49  C   UNL A   1      40.257  31.469  31.709  1.00  0.00     0.074 A 
ATOM     50  C   UNL A   1      40.527  32.410  33.967  1.00  0.00     0.049 A 
ATOM     51  N   UNL A   1      41.364  30.780  31.601  1.00  0.00    -0.248 NA
ATOM     52  C   UNL A   1      39.428  31.458  30.493  1.00  0.00     0.031 C 
ATOM     53  C   UNL A   1      40.151  33.112  35.192  1.00  0.00     0.029 A 
ATOM     54  N   UNL A   1      41.827  32.022  34.196  1.00  0.00    -0.354 N 
ATOM     55  C   UNL A   1      41.305  30.151  30.361  1.00  0.00     0.074 A 
ATOM     56  C   UNL A   1      40.080  30.592  29.728  1.00  0.00     0.031 C 
ATOM     57  C   UNL A   1      41.211  33.166  36.012  1.00  0.00     0.029 A 
ATOM     58  C   UNL A   1      42.320  32.432  35.415  1.00  0.00     0.049 A 
ATOM     59  H   UNL A   1      42.354  31.501  33.549  1.00  0.00     0.167 HD
ATOM     60  C   UNL A   1      42.179  29.272  29.813  1.00  0.00     0.034 A 
ATOM     61  C   UNL A   1      43.517  32.224  36.001  1.00  0.00     0.034 A 
ATOM     62  C   UNL A   1      43.439  28.900  30.406  1.00  0.00     0.049 A 
ATOM     63  C   UNL A   1      44.524  31.344  35.313  1.00  0.00     0.074 A 
ATOM     64  C   UNL A   1      44.392  28.018  29.924  1.00  0.00     0.029 A 
ATOM     65  N   UNL A   1      43.933  29.403  31.600  1.00  0.00    -0.354 N 
ATOM     66  N   UNL A   1      44.444  30.756  34.144  1.00  0.00    -0.248 NA
ATOM     67  C   UNL A   1      45.780  31.084  36.034  1.00  0.00     0.031 C 
ATOM     68  C   UNL A   1      45.459  27.983  30.832  1.00  0.00     0.029 A 
ATOM     69  C   UNL A   1      45.178  28.858  31.868  1.00  0.00     0.049 A 
ATOM     70  H   UNL A   1      43.466  30.052  32.174  1.00  0.00     0.167 HD
ATOM     71  C   UNL A   1      45.624  30.035  34.002  1.00  0.00     0.074 A 
ATOM     72  C   UNL A   1      46.433  30.322  35.168  1.00  0.00     0.031 C 
ATOM     73  C   UNL A   1      45.983  29.171  33.020  1.00  0.00     0.034 A 
BRANCH  60  74
ATOM     74  C   UNL A   1      41.796  28.624  28.506  1.00  0.00     0.023 A 
ATOM     75  C   UNL A   1      42.111  29.243  27.282  1.00  0.00     0.012 A 
ATOM     76  C   UNL A   1      41.164  27.362  28.500  1.00  0.00     0.148 A 
ATOM     77  C   UNL A   1      41.777  28.632  26.073  1.00  0.00     0.002 A 
ATOM     78  C   UNL A   1      40.871  26.741  27.291  1.00  0.00     0.091 A 
ATOM     79  F   UNL A   1      40.850  26.798  29.675  1.00  0.00    -0.205 F 
ATOM     80  C   UNL A   1      41.168  27.379  26.076  1.00  0.00     0.022 A 
BRANCH  78  81
ATOM     81  S   UNL A   1      40.159  25.093  27.200  1.00  0.00     0.127 S 
ATOM     82  O   UNL A   1      40.052  24.898  25.755  1.00  0.00    -0.237 OA
ATOM     83  O   UNL A   1      41.183  24.276  27.852  1.00  0.00    -0.237 OA
ATOM     84  O   UNL A   1      38.895  25.164  27.920  1.00  0.00    -0.744 OA
ENDBRANCH  78  81
ENDBRANCH  60  74
BRANCH  61  85
ATOM     85  C   UNL A   1      43.840  32.893  37.297  1.00  0.00     0.023 A 
ATOM     86  C   UNL A   1      44.259  34.239  37.291  1.00  0.00     0.012 A 
ATOM     87  C   UNL A   1      43.669  32.242  38.532  1.00  0.00     0.148 A 
ATOM     88  C   UNL A   1      44.504  34.917  38.486  1.00  0.00     0.002 A 
ATOM     89  C   UNL A   1      43.827  32.950  39.719  1.00  0.00     0.091 A 
ATOM     90  F   UNL A   1      43.319  30.947  38.533  1.00  0.00    -0.205 F 
ATOM     91  C   UNL A   1      44.265  34.280  39.701  1.00  0.00     0.022 A 
BRANCH  89  92
ATOM     92  S   UNL A   1      43.305  32.249  41.289  1.00  0.00     0.127 S 
ATOM     93  O   UNL A   1      42.051  31.595  40.929  1.00  0.00    -0.237 OA
ATOM     94  O   UNL A   1      44.407  31.340  41.609  1.00  0.00    -0.237 OA
ATOM     95  O   UNL A   1      43.205  33.392  42.188  1.00  0.00    -0.744 OA
ENDBRANCH  89  92
ENDBRANCH  61  85
BRANCH  73  96
ATOM     96  C   UNL A   1      47.298  28.455  33.187  1.00  0.00     0.023 A 
ATOM     97  C   UNL A   1      48.484  29.080  32.752  1.00  0.00     0.012 A 
ATOM     98  C   UNL A   1      47.369  27.187  33.793  1.00  0.00     0.148 A 
ATOM     99  C   UNL A   1      49.715  28.437  32.878  1.00  0.00     0.002 A 
ATOM    100  C   UNL A   1      48.605  26.569  33.953  1.00  0.00     0.091 A 
ATOM    101  F   UNL A   1      46.230  26.595  34.181  1.00  0.00    -0.205 F 
ATOM    102  C   UNL A   1      49.776  27.187  33.487  1.00  0.00     0.022 A 
BRANCH 100 103
ATOM    103  S   UNL A   1      48.777  24.993  34.796  1.00  0.00     0.127 S 
ATOM    104  O   UNL A   1      50.207  24.729  34.650  1.00  0.00    -0.237 OA
ATOM    105  O   UNL A   1      48.352  25.313  36.160  1.00  0.00    -0.237 OA
ATOM    106  O   UNL A   1      47.889  24.075  34.094  1.00  0.00    -0.744 OA
ENDBRANCH 100 103
ENDBRANCH  73  96
ENDBRANCH  47  48
ENDBRANCH  40  42
ENDBRANCH  39  40
ENDBRANCH  38  39
ENDBRANCH  37  38
ENDBRANCH  36  37
ENDBRANCH  35  36
ENDBRANCH   1  35
TORSDOF 25
ENDMDL
