MODEL 1
REMARK VINA RESULT:     -10.3      0.000      0.000
REMARK SMILES Cc1cccc(S(=O)(=O)Nc2cc(C(=O)OCCOCCOCCOC(=O)c3ccc(-c4c5nc(c(-c6cccc(S(=O)(=O)[O-])c6F)c6ccc([nH]6)c(-c6cccc(S(=O)(=O)[O-])c6F)c6nc(c(-c7cccc(S(=O)(=O)[O-])c7F)c7ccc4[nH]7)C=C6)C=C5)cc3)ccc2N2CCC[C@H](C[NH+]3CCCC3)C2)c1
REMARK SMILES IDX 20 1 19 2 18 3 17 4 16 5 14 6 15 7 13 8 11 9 12 10 93 11
REMARK SMILES IDX 92 12 91 13 10 14 7 16 8 17 9 18 6 19 1 20 2 21 3 22 106 23
REMARK SMILES IDX 4 24 5 25 94 26 95 27 105 28 96 29 98 30 97 31 99 32 100 33
REMARK SMILES IDX 101 34 104 35 102 37 103 38 21 39 22 40 23 41 24 42 25 43
REMARK SMILES IDX 26 44 27 45 28 46 29 47 90 48 30 49 89 50 31 51 32 52 33 53
REMARK SMILES IDX 83 54 34 55 88 56 82 57 84 58 35 59 87 60 81 61 80 62 36 64
REMARK SMILES IDX 68 65 48 66 67 67 49 68 52 69 66 70 85 71 50 72 51 73 65 75
REMARK SMILES IDX 86 76 53 77 37 78 38 79 46 80 39 81 41 82 47 83 40 84 42 85
REMARK SMILES IDX 43 86 44 87 45 88 69 89 70 90 78 91 71 92 73 93 79 94 72 95
REMARK SMILES IDX 74 96 75 97 76 98 77 99 54 100 55 101 63 102 56 103 58 104
REMARK SMILES IDX 64 105 57 106 59 107 60 108 61 109 62 110
REMARK H PARENT 10 15 100 36 84 63 52 74
REMARK Flexibility Score: inf
ROOT
ATOM      1  C   UNL A   1      33.718  26.951  24.652  1.00  0.00     0.188 C 
ENDROOT
BRANCH   1   2
ATOM      2  O   UNL A   1      32.911  26.047  23.912  1.00  0.00    -0.376 OA
BRANCH   2   3
ATOM      3  C   UNL A   1      33.433  24.722  23.842  1.00  0.00     0.202 C 
BRANCH   3   4
ATOM      4  C   UNL A   1      34.901  24.373  24.266  1.00  0.00     0.261 C 
BRANCH   4   5
ATOM      5  O   UNL A   1      35.788  24.158  25.580  1.00  0.00    -0.460 OA
BRANCH   5   6
ATOM      6  C   UNL A   1      37.098  23.478  25.790  1.00  0.00     0.338 C 
ATOM      7  O   UNL A   1      37.248  22.342  25.337  1.00  0.00    -0.246 OA
BRANCH   6   8
ATOM      8  C   UNL A   1      38.456  23.809  26.492  1.00  0.00     0.062 A 
ATOM      9  C   UNL A   1      40.332  25.267  27.157  1.00  0.00     0.073 A 
ATOM     10  C   UNL A   1      38.942  25.009  27.099  1.00  0.00     0.044 A 
ATOM     11  C   UNL A   1      41.244  24.220  26.953  1.00  0.00     0.061 A 
ATOM     12  C   UNL A   1      40.717  22.956  26.693  1.00  0.00     0.029 A 
ATOM     13  C   UNL A   1      39.356  22.756  26.476  1.00  0.00     0.018 A 
BRANCH   9  14
ATOM     14  N   UNL A   1      40.843  26.631  27.076  1.00  0.00    -0.277 N 
ATOM     15  H   UNL A   1      41.088  26.954  26.180  1.00  0.00     0.180 HD
BRANCH  14  16
ATOM     16  S   UNL A   1      41.064  27.727  28.363  1.00  0.00     0.261 S 
ATOM     17  O   UNL A   1      41.635  28.921  27.699  1.00  0.00    -0.201 OA
ATOM     18  O   UNL A   1      41.819  27.088  29.373  1.00  0.00    -0.201 OA
BRANCH  16  19
ATOM     19  C   UNL A   1      39.521  28.206  29.050  1.00  0.00     0.088 A 
ATOM     20  C   UNL A   1      37.287  31.151  28.584  1.00  0.00     0.044 C 
ATOM     21  C   UNL A   1      37.747  29.822  29.109  1.00  0.00    -0.050 A 
ATOM     22  C   UNL A   1      37.373  29.328  30.357  1.00  0.00     0.003 A 
ATOM     23  C   UNL A   1      38.712  29.127  28.398  1.00  0.00     0.025 A 
ATOM     24  C   UNL A   1      38.059  28.266  30.940  1.00  0.00     0.002 A 
ATOM     25  C   UNL A   1      39.181  27.744  30.318  1.00  0.00     0.022 A 
ENDBRANCH  16  19
ENDBRANCH  14  16
ENDBRANCH   9  14
BRANCH  11  26
ATOM     26  N   UNL A   1      42.612  24.466  26.954  1.00  0.00    -0.369 N 
ATOM     27  C   UNL A   1      43.189  25.267  25.879  1.00  0.00     0.116 C 
ATOM     28  C   UNL A   1      43.486  23.485  27.606  1.00  0.00     0.126 C 
ATOM     29  C   UNL A   1      43.890  24.381  24.853  1.00  0.00     0.022 C 
ATOM     30  C   UNL A   1      44.140  22.533  26.595  1.00  0.00     0.064 C 
ATOM     31  C   UNL A   1      44.840  23.395  25.532  1.00  0.00     0.013 C 
BRANCH  30  32
ATOM     32  C   UNL A   1      43.096  21.502  26.089  1.00  0.00     0.267 C 
BRANCH  32  33
ATOM     33  N   UNL A   1      43.477  20.460  25.135  1.00  0.00    -0.335 N 
ATOM     34  C   UNL A   1      42.887  19.150  25.375  1.00  0.00     0.262 C 
ATOM     35  C   UNL A   1      44.905  20.285  24.917  1.00  0.00     0.262 C 
ATOM     36  H   UNL A   1      43.073  20.852  24.284  1.00  0.00     0.348 HD
ATOM     37  C   UNL A   1      43.976  18.361  26.070  1.00  0.00     0.067 C 
ATOM     38  C   UNL A   1      45.265  18.917  25.486  1.00  0.00     0.067 C 
ENDBRANCH  32  33
ENDBRANCH  30  32
ENDBRANCH  11  26
ENDBRANCH   6   8
ENDBRANCH   5   6
ENDBRANCH   4   5
ENDBRANCH   3   4
ENDBRANCH   2   3
ENDBRANCH   1   2
BRANCH   1  39
ATOM     39  C   UNL A   1      33.049  27.997  25.586  1.00  0.00     0.188 C 
BRANCH  39  40
ATOM     40  O   UNL A   1      32.809  29.270  25.052  1.00  0.00    -0.376 OA
BRANCH  40  41
ATOM     41  C   UNL A   1      32.581  30.203  26.086  1.00  0.00     0.202 C 
BRANCH  41  42
ATOM     42  C   UNL A   1      33.631  30.424  27.234  1.00  0.00     0.261 C 
BRANCH  42  43
ATOM     43  O   UNL A   1      33.773  31.592  28.205  1.00  0.00    -0.460 OA
BRANCH  43  44
ATOM     44  C   UNL A   1      33.912  32.789  28.816  1.00  0.00     0.338 C 
ATOM     45  O   UNL A   1      33.653  33.797  28.155  1.00  0.00    -0.246 OA
BRANCH  44  46
ATOM     46  C   UNL A   1      34.519  33.033  30.180  1.00  0.00     0.060 A 
ATOM     47  C   UNL A   1      34.634  34.316  30.587  1.00  0.00     0.016 A 
ATOM     48  C   UNL A   1      34.935  32.138  31.186  1.00  0.00     0.016 A 
ATOM     49  C   UNL A   1      35.477  34.583  31.692  1.00  0.00     0.010 A 
ATOM     50  C   UNL A   1      36.031  32.482  32.105  1.00  0.00     0.010 A 
ATOM     51  C   UNL A   1      36.526  33.781  32.206  1.00  0.00    -0.014 A 
BRANCH  51  52
ATOM     52  C   UNL A   1      38.174  34.142  32.636  1.00  0.00     0.031 A 
ATOM     53  C   UNL A   1      39.146  34.259  31.501  1.00  0.00     0.074 A 
ATOM     54  C   UNL A   1      38.944  34.397  33.827  1.00  0.00     0.049 A 
ATOM     55  N   UNL A   1      40.422  34.386  31.679  1.00  0.00    -0.248 NA
ATOM     56  C   UNL A   1      38.779  34.192  30.104  1.00  0.00     0.031 C 
ATOM     57  C   UNL A   1      40.082  35.383  34.013  1.00  0.00     0.029 A 
ATOM     58  N   UNL A   1      38.869  34.070  35.171  1.00  0.00    -0.354 N 
ATOM     59  C   UNL A   1      41.037  34.526  30.482  1.00  0.00     0.074 A 
ATOM     60  C   UNL A   1      39.936  34.545  29.534  1.00  0.00     0.031 C 
ATOM     61  C   UNL A   1      40.495  35.480  35.301  1.00  0.00     0.029 A 
ATOM     62  C   UNL A   1      39.714  34.594  36.118  1.00  0.00     0.049 A 
ATOM     63  H   UNL A   1      38.178  33.431  35.460  1.00  0.00     0.167 HD
ATOM     64  C   UNL A   1      42.400  34.564  30.426  1.00  0.00     0.034 A 
ATOM     65  C   UNL A   1      39.926  33.978  37.328  1.00  0.00     0.034 A 
ATOM     66  C   UNL A   1      43.056  34.597  31.773  1.00  0.00     0.049 A 
ATOM     67  C   UNL A   1      41.244  33.269  37.130  1.00  0.00     0.074 A 
ATOM     68  C   UNL A   1      43.322  35.614  32.683  1.00  0.00     0.029 A 
ATOM     69  N   UNL A   1      43.320  33.426  32.492  1.00  0.00    -0.354 N 
ATOM     70  N   UNL A   1      42.046  33.576  36.141  1.00  0.00    -0.248 NA
ATOM     71  C   UNL A   1      41.794  32.210  37.962  1.00  0.00     0.031 C 
ATOM     72  C   UNL A   1      43.623  35.025  33.958  1.00  0.00     0.029 A 
ATOM     73  C   UNL A   1      43.578  33.642  33.851  1.00  0.00     0.049 A 
ATOM     74  H   UNL A   1      43.323  32.533  32.080  1.00  0.00     0.167 HD
ATOM     75  C   UNL A   1      43.023  32.641  36.012  1.00  0.00     0.074 A 
ATOM     76  C   UNL A   1      42.916  31.914  37.275  1.00  0.00     0.031 C 
ATOM     77  C   UNL A   1      43.745  32.524  34.841  1.00  0.00     0.034 A 
BRANCH  64  78
ATOM     78  C   UNL A   1      43.103  34.697  29.085  1.00  0.00     0.023 A 
ATOM     79  C   UNL A   1      43.051  35.914  28.390  1.00  0.00     0.012 A 
ATOM     80  C   UNL A   1      43.818  33.651  28.439  1.00  0.00     0.148 A 
ATOM     81  C   UNL A   1      43.592  36.045  27.098  1.00  0.00     0.002 A 
ATOM     82  C   UNL A   1      44.233  33.733  27.114  1.00  0.00     0.091 A 
ATOM     83  F   UNL A   1      44.219  32.590  29.144  1.00  0.00    -0.205 F 
ATOM     84  C   UNL A   1      44.137  34.943  26.439  1.00  0.00     0.022 A 
BRANCH  82  85
ATOM     85  S   UNL A   1      44.812  32.287  26.205  1.00  0.00     0.127 S 
ATOM     86  O   UNL A   1      44.845  32.792  24.831  1.00  0.00    -0.237 OA
ATOM     87  O   UNL A   1      46.124  32.040  26.797  1.00  0.00    -0.237 OA
ATOM     88  O   UNL A   1      43.824  31.238  26.430  1.00  0.00    -0.744 OA
ENDBRANCH  82  85
ENDBRANCH  64  78
BRANCH  65  89
ATOM     89  C   UNL A   1      38.658  33.556  38.123  1.00  0.00     0.023 A 
ATOM     90  C   UNL A   1      38.075  32.350  37.643  1.00  0.00     0.012 A 
ATOM     91  C   UNL A   1      38.211  33.979  39.408  1.00  0.00     0.148 A 
ATOM     92  C   UNL A   1      37.319  31.490  38.458  1.00  0.00     0.002 A 
ATOM     93  C   UNL A   1      37.529  33.062  40.259  1.00  0.00     0.091 A 
ATOM     94  F   UNL A   1      38.599  35.180  39.865  1.00  0.00    -0.205 F 
ATOM     95  C   UNL A   1      37.115  31.810  39.786  1.00  0.00     0.022 A 
BRANCH  93  96
ATOM     96  S   UNL A   1      37.373  33.239  42.067  1.00  0.00     0.127 S 
ATOM     97  O   UNL A   1      36.747  31.975  42.458  1.00  0.00    -0.237 OA
ATOM     98  O   UNL A   1      38.765  33.359  42.503  1.00  0.00    -0.237 OA
ATOM     99  O   UNL A   1      36.543  34.416  42.284  1.00  0.00    -0.744 OA
ENDBRANCH  93  96
ENDBRANCH  65  89
BRANCH  77 100
ATOM    100  C   UNL A   1      44.671  31.328  34.583  1.00  0.00     0.023 A 
ATOM    101  C   UNL A   1      46.079  31.419  34.693  1.00  0.00     0.012 A 
ATOM    102  C   UNL A   1      44.179  30.040  34.274  1.00  0.00     0.148 A 
ATOM    103  C   UNL A   1      46.949  30.374  34.361  1.00  0.00     0.002 A 
ATOM    104  C   UNL A   1      45.044  28.962  34.061  1.00  0.00     0.091 A 
ATOM    105  F   UNL A   1      42.861  29.837  34.172  1.00  0.00    -0.205 F 
ATOM    106  C   UNL A   1      46.428  29.137  34.047  1.00  0.00     0.022 A 
BRANCH 104 107
ATOM    107  S   UNL A   1      44.432  27.280  33.917  1.00  0.00     0.127 S 
ATOM    108  O   UNL A   1      44.414  27.093  32.468  1.00  0.00    -0.237 OA
ATOM    109  O   UNL A   1      45.462  26.515  34.621  1.00  0.00    -0.237 OA
ATOM    110  O   UNL A   1      43.135  27.292  34.582  1.00  0.00    -0.744 OA
ENDBRANCH 104 107
ENDBRANCH  77 100
ENDBRANCH  51  52
ENDBRANCH  44  46
ENDBRANCH  43  44
ENDBRANCH  42  43
ENDBRANCH  41  42
ENDBRANCH  40  41
ENDBRANCH  39  40
ENDBRANCH   1  39
TORSDOF 26
ENDMDL
MODEL 2
REMARK VINA RESULT:     -10.1      1.811      2.490
REMARK SMILES Cc1cccc(S(=O)(=O)Nc2cc(C(=O)OCCOCCOCCOC(=O)c3ccc(-c4c5nc(c(-c6cccc(S(=O)(=O)[O-])c6F)c6ccc([nH]6)c(-c6cccc(S(=O)(=O)[O-])c6F)c6nc(c(-c7cccc(S(=O)(=O)[O-])c7F)c7ccc4[nH]7)C=C6)C=C5)cc3)ccc2N2CCC[C@H](C[NH+]3CCCC3)C2)c1
REMARK SMILES IDX 20 1 19 2 18 3 17 4 16 5 14 6 15 7 13 8 11 9 12 10 93 11
REMARK SMILES IDX 92 12 91 13 10 14 7 16 8 17 9 18 6 19 1 20 2 21 3 22 106 23
REMARK SMILES IDX 4 24 5 25 94 26 95 27 105 28 96 29 98 30 97 31 99 32 100 33
REMARK SMILES IDX 101 34 104 35 102 37 103 38 21 39 22 40 23 41 24 42 25 43
REMARK SMILES IDX 26 44 27 45 28 46 29 47 90 48 30 49 89 50 31 51 32 52 33 53
REMARK SMILES IDX 83 54 34 55 88 56 82 57 84 58 35 59 87 60 81 61 80 62 36 64
REMARK SMILES IDX 68 65 48 66 67 67 49 68 52 69 66 70 85 71 50 72 51 73 65 75
REMARK SMILES IDX 86 76 53 77 37 78 38 79 46 80 39 81 41 82 47 83 40 84 42 85
REMARK SMILES IDX 43 86 44 87 45 88 69 89 70 90 78 91 71 92 73 93 79 94 72 95
REMARK SMILES IDX 74 96 75 97 76 98 77 99 54 100 55 101 63 102 56 103 58 104
REMARK SMILES IDX 64 105 57 106 59 107 60 108 61 109 62 110
REMARK H PARENT 10 15 100 36 84 63 52 74
REMARK Flexibility Score: inf
ROOT
ATOM      1  C   UNL A   1      33.973  26.021  25.326  1.00  0.00     0.188 C 
ENDROOT
BRANCH   1   2
ATOM      2  O   UNL A   1      33.736  24.722  25.850  1.00  0.00    -0.376 OA
BRANCH   2   3
ATOM      3  C   UNL A   1      34.909  24.059  26.316  1.00  0.00     0.202 C 
BRANCH   3   4
ATOM      4  C   UNL A   1      35.955  23.416  25.342  1.00  0.00     0.261 C 
BRANCH   4   5
ATOM      5  O   UNL A   1      37.538  23.297  25.134  1.00  0.00    -0.460 OA
BRANCH   5   6
ATOM      6  C   UNL A   1      38.661  23.217  26.110  1.00  0.00     0.338 C 
ATOM      7  O   UNL A   1      39.178  22.119  26.321  1.00  0.00    -0.246 OA
BRANCH   6   8
ATOM      8  C   UNL A   1      39.439  24.207  27.038  1.00  0.00     0.062 A 
ATOM      9  C   UNL A   1      39.771  26.312  28.283  1.00  0.00     0.073 A 
ATOM     10  C   UNL A   1      38.982  25.176  27.987  1.00  0.00     0.044 A 
ATOM     11  C   UNL A   1      41.131  26.325  27.937  1.00  0.00     0.061 A 
ATOM     12  C   UNL A   1      41.638  25.193  27.299  1.00  0.00     0.029 A 
ATOM     13  C   UNL A   1      40.813  24.158  26.869  1.00  0.00     0.018 A 
BRANCH   9  14
ATOM     14  N   UNL A   1      39.149  27.589  28.617  1.00  0.00    -0.277 N 
ATOM     15  H   UNL A   1      39.034  28.226  27.876  1.00  0.00     0.180 HD
BRANCH  14  16
ATOM     16  S   UNL A   1      38.597  28.098  30.147  1.00  0.00     0.261 S 
ATOM     17  O   UNL A   1      38.587  26.848  30.939  1.00  0.00    -0.201 OA
ATOM     18  O   UNL A   1      37.383  28.802  29.976  1.00  0.00    -0.201 OA
BRANCH  16  19
ATOM     19  C   UNL A   1      39.756  29.179  30.903  1.00  0.00     0.088 A 
ATOM     20  C   UNL A   1      39.971  30.810  34.246  1.00  0.00     0.044 C 
ATOM     21  C   UNL A   1      40.388  30.421  32.858  1.00  0.00    -0.050 A 
ATOM     22  C   UNL A   1      41.196  31.223  32.055  1.00  0.00     0.003 A 
ATOM     23  C   UNL A   1      39.818  29.296  32.285  1.00  0.00     0.025 A 
ATOM     24  C   UNL A   1      41.297  30.993  30.685  1.00  0.00     0.002 A 
ATOM     25  C   UNL A   1      40.522  30.011  30.091  1.00  0.00     0.022 A 
ENDBRANCH  16  19
ENDBRANCH  14  16
ENDBRANCH   9  14
BRANCH  11  26
ATOM     26  N   UNL A   1      41.909  27.453  28.173  1.00  0.00    -0.369 N 
ATOM     27  C   UNL A   1      42.143  28.393  27.081  1.00  0.00     0.116 C 
ATOM     28  C   UNL A   1      42.924  27.379  29.228  1.00  0.00     0.126 C 
ATOM     29  C   UNL A   1      43.540  28.209  26.493  1.00  0.00     0.022 C 
ATOM     30  C   UNL A   1      44.326  27.117  28.662  1.00  0.00     0.064 C 
ATOM     31  C   UNL A   1      44.602  28.186  27.592  1.00  0.00     0.013 C 
BRANCH  30  32
ATOM     32  C   UNL A   1      44.449  25.633  28.221  1.00  0.00     0.267 C 
BRANCH  32  33
ATOM     33  N   UNL A   1      45.124  24.654  29.072  1.00  0.00    -0.335 N 
ATOM     34  C   UNL A   1      44.497  23.341  29.130  1.00  0.00     0.262 C 
ATOM     35  C   UNL A   1      45.415  25.082  30.432  1.00  0.00     0.262 C 
ATOM     36  H   UNL A   1      46.009  24.573  28.570  1.00  0.00     0.348 HD
ATOM     37  C   UNL A   1      43.719  23.346  30.429  1.00  0.00     0.067 C 
ATOM     38  C   UNL A   1      44.540  24.234  31.349  1.00  0.00     0.067 C 
ENDBRANCH  32  33
ENDBRANCH  30  32
ENDBRANCH  11  26
ENDBRANCH   6   8
ENDBRANCH   5   6
ENDBRANCH   4   5
ENDBRANCH   3   4
ENDBRANCH   2   3
ENDBRANCH   1   2
BRANCH   1  39
ATOM     39  C   UNL A   1      33.622  27.273  26.176  1.00  0.00     0.188 C 
BRANCH  39  40
ATOM     40  O   UNL A   1      32.586  28.093  25.709  1.00  0.00    -0.376 OA
BRANCH  40  41
ATOM     41  C   UNL A   1      32.869  29.448  25.983  1.00  0.00     0.202 C 
BRANCH  41  42
ATOM     42  C   UNL A   1      33.711  29.868  27.241  1.00  0.00     0.261 C 
BRANCH  42  43
ATOM     43  O   UNL A   1      33.796  31.221  27.943  1.00  0.00    -0.460 OA
BRANCH  43  44
ATOM     44  C   UNL A   1      34.147  32.422  28.453  1.00  0.00     0.338 C 
ATOM     45  O   UNL A   1      34.164  33.383  27.682  1.00  0.00    -0.246 OA
BRANCH  44  46
ATOM     46  C   UNL A   1      34.690  32.680  29.841  1.00  0.00     0.060 A 
ATOM     47  C   UNL A   1      34.699  33.960  30.275  1.00  0.00     0.016 A 
ATOM     48  C   UNL A   1      35.136  31.797  30.845  1.00  0.00     0.016 A 
ATOM     49  C   UNL A   1      35.484  34.263  31.413  1.00  0.00     0.010 A 
ATOM     50  C   UNL A   1      36.173  32.199  31.806  1.00  0.00     0.010 A 
ATOM     51  C   UNL A   1      36.570  33.528  31.948  1.00  0.00    -0.014 A 
BRANCH  51  52
ATOM     52  C   UNL A   1      38.172  33.996  32.441  1.00  0.00     0.031 A 
ATOM     53  C   UNL A   1      39.175  34.192  31.342  1.00  0.00     0.074 A 
ATOM     54  C   UNL A   1      38.880  34.290  33.661  1.00  0.00     0.049 A 
ATOM     55  N   UNL A   1      40.431  34.405  31.568  1.00  0.00    -0.248 NA
ATOM     56  C   UNL A   1      38.863  34.115  29.932  1.00  0.00     0.031 C 
ATOM     57  C   UNL A   1      39.940  35.350  33.897  1.00  0.00     0.029 A 
ATOM     58  N   UNL A   1      38.780  33.944  34.998  1.00  0.00    -0.354 N 
ATOM     59  C   UNL A   1      41.077  34.599  30.396  1.00  0.00     0.074 A 
ATOM     60  C   UNL A   1      40.012  34.553  29.408  1.00  0.00     0.031 C 
ATOM     61  C   UNL A   1      40.299  35.461  35.200  1.00  0.00     0.029 A 
ATOM     62  C   UNL A   1      39.553  34.515  35.980  1.00  0.00     0.049 A 
ATOM     63  H   UNL A   1      38.125  33.256  35.256  1.00  0.00     0.167 HD
ATOM     64  C   UNL A   1      42.435  34.731  30.390  1.00  0.00     0.034 A 
ATOM     65  C   UNL A   1      39.763  33.901  37.192  1.00  0.00     0.034 A 
ATOM     66  C   UNL A   1      43.039  34.795  31.760  1.00  0.00     0.049 A 
ATOM     67  C   UNL A   1      41.133  33.286  37.036  1.00  0.00     0.074 A 
ATOM     68  C   UNL A   1      43.202  35.817  32.688  1.00  0.00     0.029 A 
ATOM     69  N   UNL A   1      43.357  33.637  32.477  1.00  0.00    -0.354 N 
ATOM     70  N   UNL A   1      41.947  33.659  36.079  1.00  0.00    -0.248 NA
ATOM     71  C   UNL A   1      41.725  32.258  37.878  1.00  0.00     0.031 C 
ATOM     72  C   UNL A   1      43.497  35.237  33.967  1.00  0.00     0.029 A 
ATOM     73  C   UNL A   1      43.551  33.855  33.847  1.00  0.00     0.049 A 
ATOM     74  H   UNL A   1      43.437  32.750  32.058  1.00  0.00     0.167 HD
ATOM     75  C   UNL A   1      42.991  32.795  35.977  1.00  0.00     0.074 A 
ATOM     76  C   UNL A   1      42.888  32.048  37.230  1.00  0.00     0.031 C 
ATOM     77  C   UNL A   1      43.760  32.740  34.833  1.00  0.00     0.034 A 
BRANCH  64  78
ATOM     78  C   UNL A   1      43.175  34.927  29.076  1.00  0.00     0.023 A 
ATOM     79  C   UNL A   1      43.218  36.199  28.485  1.00  0.00     0.012 A 
ATOM     80  C   UNL A   1      43.835  33.893  28.357  1.00  0.00     0.148 A 
ATOM     81  C   UNL A   1      43.795  36.398  27.217  1.00  0.00     0.002 A 
ATOM     82  C   UNL A   1      44.282  34.056  27.050  1.00  0.00     0.091 A 
ATOM     83  F   UNL A   1      44.149  32.752  28.977  1.00  0.00    -0.205 F 
ATOM     84  C   UNL A   1      44.281  35.321  26.477  1.00  0.00     0.022 A 
BRANCH  82  85
ATOM     85  S   UNL A   1      44.786  32.654  26.032  1.00  0.00     0.127 S 
ATOM     86  O   UNL A   1      46.077  32.303  26.627  1.00  0.00    -0.237 OA
ATOM     87  O   UNL A   1      43.719  31.686  26.270  1.00  0.00    -0.237 OA
ATOM     88  O   UNL A   1      44.876  33.152  24.664  1.00  0.00    -0.744 OA
ENDBRANCH  82  85
ENDBRANCH  64  78
BRANCH  65  89
ATOM     89  C   UNL A   1      38.500  33.384  37.936  1.00  0.00     0.023 A 
ATOM     90  C   UNL A   1      38.005  32.158  37.410  1.00  0.00     0.012 A 
ATOM     91  C   UNL A   1      37.991  33.747  39.217  1.00  0.00     0.148 A 
ATOM     92  C   UNL A   1      37.278  31.234  38.179  1.00  0.00     0.002 A 
ATOM     93  C   UNL A   1      37.340  32.770  40.024  1.00  0.00     0.091 A 
ATOM     94  F   UNL A   1      38.292  34.957  39.714  1.00  0.00    -0.205 F 
ATOM     95  C   UNL A   1      37.016  31.508  39.508  1.00  0.00     0.022 A 
BRANCH  93  96
ATOM     96  S   UNL A   1      37.119  32.890  41.830  1.00  0.00     0.127 S 
ATOM     97  O   UNL A   1      38.498  32.877  42.321  1.00  0.00    -0.237 OA
ATOM     98  O   UNL A   1      36.457  34.186  41.990  1.00  0.00    -0.237 OA
ATOM     99  O   UNL A   1      36.330  31.730  42.216  1.00  0.00    -0.744 OA
ENDBRANCH  93  96
ENDBRANCH  65  89
BRANCH  77 100
ATOM    100  C   UNL A   1      44.775  31.614  34.598  1.00  0.00     0.023 A 
ATOM    101  C   UNL A   1      46.173  31.828  34.640  1.00  0.00     0.012 A 
ATOM    102  C   UNL A   1      44.384  30.273  34.382  1.00  0.00     0.148 A 
ATOM    103  C   UNL A   1      47.116  30.844  34.326  1.00  0.00     0.002 A 
ATOM    104  C   UNL A   1      45.330  29.262  34.188  1.00  0.00     0.091 A 
ATOM    105  F   UNL A   1      43.085  29.954  34.350  1.00  0.00    -0.205 F 
ATOM    106  C   UNL A   1      46.691  29.551  34.103  1.00  0.00     0.022 A 
BRANCH 104 107
ATOM    107  S   UNL A   1      44.860  27.528  34.164  1.00  0.00     0.127 S 
ATOM    108  O   UNL A   1      44.274  27.399  32.832  1.00  0.00    -0.237 OA
ATOM    109  O   UNL A   1      46.149  26.856  34.333  1.00  0.00    -0.237 OA
ATOM    110  O   UNL A   1      43.948  27.368  35.289  1.00  0.00    -0.744 OA
ENDBRANCH 104 107
ENDBRANCH  77 100
ENDBRANCH  51  52
ENDBRANCH  44  46
ENDBRANCH  43  44
ENDBRANCH  42  43
ENDBRANCH  41  42
ENDBRANCH  40  41
ENDBRANCH  39  40
ENDBRANCH   1  39
TORSDOF 26
ENDMDL
MODEL 3
REMARK VINA RESULT:      -9.6      4.330      9.410
REMARK SMILES Cc1cccc(S(=O)(=O)Nc2cc(C(=O)OCCOCCOCCOC(=O)c3ccc(-c4c5nc(c(-c6cccc(S(=O)(=O)[O-])c6F)c6ccc([nH]6)c(-c6cccc(S(=O)(=O)[O-])c6F)c6nc(c(-c7cccc(S(=O)(=O)[O-])c7F)c7ccc4[nH]7)C=C6)C=C5)cc3)ccc2N2CCC[C@H](C[NH+]3CCCC3)C2)c1
REMARK SMILES IDX 20 1 19 2 18 3 17 4 16 5 14 6 15 7 13 8 11 9 12 10 93 11
REMARK SMILES IDX 92 12 91 13 10 14 7 16 8 17 9 18 6 19 1 20 2 21 3 22 106 23
REMARK SMILES IDX 4 24 5 25 94 26 95 27 105 28 96 29 98 30 97 31 99 32 100 33
REMARK SMILES IDX 101 34 104 35 102 37 103 38 21 39 22 40 23 41 24 42 25 43
REMARK SMILES IDX 26 44 27 45 28 46 29 47 90 48 30 49 89 50 31 51 32 52 33 53
REMARK SMILES IDX 83 54 34 55 88 56 82 57 84 58 35 59 87 60 81 61 80 62 36 64
REMARK SMILES IDX 68 65 48 66 67 67 49 68 52 69 66 70 85 71 50 72 51 73 65 75
REMARK SMILES IDX 86 76 53 77 37 78 38 79 46 80 39 81 41 82 47 83 40 84 42 85
REMARK SMILES IDX 43 86 44 87 45 88 69 89 70 90 78 91 71 92 73 93 79 94 72 95
REMARK SMILES IDX 74 96 75 97 76 98 77 99 54 100 55 101 63 102 56 103 58 104
REMARK SMILES IDX 64 105 57 106 59 107 60 108 61 109 62 110
REMARK H PARENT 10 15 100 36 84 63 52 74
REMARK Flexibility Score: inf
ROOT
ATOM      1  C   UNL A   1      40.580  26.455  26.546  1.00  0.00     0.188 C 
ENDROOT
BRANCH   1   2
ATOM      2  O   UNL A   1      40.565  25.280  27.343  1.00  0.00    -0.376 OA
BRANCH   2   3
ATOM      3  C   UNL A   1      39.332  24.565  27.304  1.00  0.00     0.202 C 
BRANCH   3   4
ATOM      4  C   UNL A   1      39.151  23.242  26.483  1.00  0.00     0.261 C 
BRANCH   4   5
ATOM      5  O   UNL A   1      38.045  22.456  25.635  1.00  0.00    -0.460 OA
BRANCH   5   6
ATOM      6  C   UNL A   1      36.986  22.937  24.703  1.00  0.00     0.338 C 
ATOM      7  O   UNL A   1      36.987  22.513  23.546  1.00  0.00    -0.246 OA
BRANCH   6   8
ATOM      8  C   UNL A   1      35.772  23.921  24.765  1.00  0.00     0.062 A 
ATOM      9  C   UNL A   1      33.612  24.755  25.617  1.00  0.00     0.073 A 
ATOM     10  C   UNL A   1      34.942  24.335  25.854  1.00  0.00     0.044 A 
ATOM     11  C   UNL A   1      33.212  25.106  24.318  1.00  0.00     0.061 A 
ATOM     12  C   UNL A   1      34.171  25.013  23.309  1.00  0.00     0.029 A 
ATOM     13  C   UNL A   1      35.421  24.442  23.531  1.00  0.00     0.018 A 
BRANCH   9  14
ATOM     14  N   UNL A   1      32.562  24.505  26.599  1.00  0.00    -0.277 N 
ATOM     15  H   UNL A   1      32.227  25.289  27.091  1.00  0.00     0.180 HD
BRANCH  14  16
ATOM     16  S   UNL A   1      31.851  23.006  26.990  1.00  0.00     0.261 S 
ATOM     17  O   UNL A   1      30.401  23.270  26.854  1.00  0.00    -0.201 OA
ATOM     18  O   UNL A   1      32.349  22.586  28.245  1.00  0.00    -0.201 OA
BRANCH  16  19
ATOM     19  C   UNL A   1      32.267  21.785  25.798  1.00  0.00     0.088 A 
ATOM     20  C   UNL A   1      35.359  19.842  25.061  1.00  0.00     0.044 C 
ATOM     21  C   UNL A   1      33.933  20.288  24.932  1.00  0.00    -0.050 A 
ATOM     22  C   UNL A   1      33.227  20.238  23.732  1.00  0.00     0.003 A 
ATOM     23  C   UNL A   1      33.339  20.927  26.009  1.00  0.00     0.025 A 
ATOM     24  C   UNL A   1      32.037  20.945  23.572  1.00  0.00     0.002 A 
ATOM     25  C   UNL A   1      31.588  21.778  24.583  1.00  0.00     0.022 A 
ENDBRANCH  16  19
ENDBRANCH  14  16
ENDBRANCH   9  14
BRANCH  11  26
ATOM     26  N   UNL A   1      31.896  25.470  24.058  1.00  0.00    -0.369 N 
ATOM     27  C   UNL A   1      31.340  25.219  22.732  1.00  0.00     0.116 C 
ATOM     28  C   UNL A   1      31.326  26.579  24.829  1.00  0.00     0.126 C 
ATOM     29  C   UNL A   1      31.296  26.502  21.907  1.00  0.00     0.022 C 
ATOM     30  C   UNL A   1      31.344  27.898  24.043  1.00  0.00     0.064 C 
ATOM     31  C   UNL A   1      30.651  27.643  22.693  1.00  0.00     0.013 C 
BRANCH  30  32
ATOM     32  C   UNL A   1      32.788  28.465  23.996  1.00  0.00     0.267 C 
BRANCH  32  33
ATOM     33  N   UNL A   1      33.276  29.355  25.050  1.00  0.00    -0.335 N 
ATOM     34  C   UNL A   1      34.198  28.749  26.000  1.00  0.00     0.262 C 
ATOM     35  C   UNL A   1      32.257  30.077  25.798  1.00  0.00     0.262 C 
ATOM     36  H   UNL A   1      33.787  30.029  24.480  1.00  0.00     0.348 HD
ATOM     37  C   UNL A   1      33.345  28.429  27.209  1.00  0.00     0.067 C 
ATOM     38  C   UNL A   1      32.290  29.523  27.218  1.00  0.00     0.067 C 
ENDBRANCH  32  33
ENDBRANCH  30  32
ENDBRANCH  11  26
ENDBRANCH   6   8
ENDBRANCH   5   6
ENDBRANCH   4   5
ENDBRANCH   3   4
ENDBRANCH   2   3
ENDBRANCH   1   2
BRANCH   1  39
ATOM     39  C   UNL A   1      40.614  27.851  27.229  1.00  0.00     0.188 C 
BRANCH  39  40
ATOM     40  O   UNL A   1      41.867  28.334  27.631  1.00  0.00    -0.376 OA
BRANCH  40  41
ATOM     41  C   UNL A   1      42.457  29.091  26.596  1.00  0.00     0.202 C 
BRANCH  41  42
ATOM     42  C   UNL A   1      43.692  30.024  26.869  1.00  0.00     0.261 C 
BRANCH  42  43
ATOM     43  O   UNL A   1      44.021  31.392  26.278  1.00  0.00    -0.460 OA
BRANCH  43  44
ATOM     44  C   UNL A   1      44.181  32.705  26.001  1.00  0.00     0.338 C 
ATOM     45  O   UNL A   1      44.505  33.007  24.851  1.00  0.00    -0.246 OA
BRANCH  44  46
ATOM     46  C   UNL A   1      44.170  33.838  27.004  1.00  0.00     0.060 A 
ATOM     47  C   UNL A   1      45.185  33.887  27.895  1.00  0.00     0.016 A 
ATOM     48  C   UNL A   1      43.311  34.946  27.146  1.00  0.00     0.016 A 
ATOM     49  C   UNL A   1      45.029  34.726  29.024  1.00  0.00     0.010 A 
ATOM     50  C   UNL A   1      43.052  35.544  28.464  1.00  0.00     0.010 A 
ATOM     51  C   UNL A   1      43.828  35.231  29.579  1.00  0.00    -0.014 A 
BRANCH  51  52
ATOM     52  C   UNL A   1      43.213  35.263  31.207  1.00  0.00     0.031 A 
ATOM     53  C   UNL A   1      43.865  36.235  32.145  1.00  0.00     0.074 A 
ATOM     54  C   UNL A   1      42.190  34.611  31.984  1.00  0.00     0.049 A 
ATOM     55  N   UNL A   1      43.605  36.270  33.412  1.00  0.00    -0.248 NA
ATOM     56  C   UNL A   1      44.876  37.191  31.753  1.00  0.00     0.031 C 
ATOM     57  C   UNL A   1      41.301  35.213  33.056  1.00  0.00     0.029 A 
ATOM     58  N   UNL A   1      41.518  33.400  31.961  1.00  0.00    -0.354 N 
ATOM     59  C   UNL A   1      44.295  37.281  33.990  1.00  0.00     0.074 A 
ATOM     60  C   UNL A   1      44.964  37.920  32.871  1.00  0.00     0.031 C 
ATOM     61  C   UNL A   1      40.339  34.360  33.489  1.00  0.00     0.029 A 
ATOM     62  C   UNL A   1      40.461  33.113  32.789  1.00  0.00     0.049 A 
ATOM     63  H   UNL A   1      41.815  32.712  31.322  1.00  0.00     0.167 HD
ATOM     64  C   UNL A   1      44.257  37.432  35.346  1.00  0.00     0.034 A 
ATOM     65  C   UNL A   1      40.082  31.821  33.068  1.00  0.00     0.034 A 
ATOM     66  C   UNL A   1      43.294  36.508  36.027  1.00  0.00     0.049 A 
ATOM     67  C   UNL A   1      40.690  31.568  34.427  1.00  0.00     0.074 A 
ATOM     68  C   UNL A   1      41.921  36.546  36.243  1.00  0.00     0.029 A 
ATOM     69  N   UNL A   1      43.654  35.205  36.386  1.00  0.00    -0.354 N 
ATOM     70  N   UNL A   1      41.109  32.551  35.185  1.00  0.00    -0.248 NA
ATOM     71  C   UNL A   1      40.881  30.276  35.067  1.00  0.00     0.031 C 
ATOM     72  C   UNL A   1      41.475  35.232  36.611  1.00  0.00     0.029 A 
ATOM     73  C   UNL A   1      42.563  34.371  36.658  1.00  0.00     0.049 A 
ATOM     74  H   UNL A   1      44.588  34.902  36.441  1.00  0.00     0.167 HD
ATOM     75  C   UNL A   1      41.847  32.074  36.221  1.00  0.00     0.074 A 
ATOM     76  C   UNL A   1      41.525  30.648  36.190  1.00  0.00     0.031 C 
ATOM     77  C   UNL A   1      42.703  32.898  36.923  1.00  0.00     0.034 A 
BRANCH  64  78
ATOM     78  C   UNL A   1      45.046  38.550  36.009  1.00  0.00     0.023 A 
ATOM     79  C   UNL A   1      46.178  38.240  36.778  1.00  0.00     0.012 A 
ATOM     80  C   UNL A   1      44.714  39.930  35.933  1.00  0.00     0.148 A 
ATOM     81  C   UNL A   1      46.868  39.232  37.499  1.00  0.00     0.002 A 
ATOM     82  C   UNL A   1      45.306  40.890  36.748  1.00  0.00     0.091 A 
ATOM     83  F   UNL A   1      43.890  40.361  34.975  1.00  0.00    -0.205 F 
ATOM     84  C   UNL A   1      46.404  40.546  37.526  1.00  0.00     0.022 A 
BRANCH  82  85
ATOM     85  S   UNL A   1      44.636  42.558  36.899  1.00  0.00     0.127 S 
ATOM     86  O   UNL A   1      45.174  43.204  35.701  1.00  0.00    -0.237 OA
ATOM     87  O   UNL A   1      43.194  42.327  36.875  1.00  0.00    -0.237 OA
ATOM     88  O   UNL A   1      45.156  43.097  38.151  1.00  0.00    -0.744 OA
ENDBRANCH  82  85
ENDBRANCH  64  78
BRANCH  65  89
ATOM     89  C   UNL A   1      39.896  30.874  31.850  1.00  0.00     0.023 A 
ATOM     90  C   UNL A   1      40.203  29.516  32.147  1.00  0.00     0.012 A 
ATOM     91  C   UNL A   1      39.173  31.084  30.640  1.00  0.00     0.148 A 
ATOM     92  C   UNL A   1      39.625  28.435  31.460  1.00  0.00     0.002 A 
ATOM     93  C   UNL A   1      38.514  29.990  30.009  1.00  0.00     0.091 A 
ATOM     94  F   UNL A   1      38.977  32.342  30.214  1.00  0.00    -0.205 F 
ATOM     95  C   UNL A   1      38.720  28.675  30.444  1.00  0.00     0.022 A 
BRANCH  93  96
ATOM     96  S   UNL A   1      37.146  30.149  28.813  1.00  0.00     0.127 S 
ATOM     97  O   UNL A   1      36.038  29.491  29.507  1.00  0.00    -0.237 OA
ATOM     98  O   UNL A   1      36.981  31.600  28.699  1.00  0.00    -0.237 OA
ATOM     99  O   UNL A   1      37.590  29.471  27.604  1.00  0.00    -0.744 OA
ENDBRANCH  93  96
ENDBRANCH  65  89
BRANCH  77 100
ATOM    100  C   UNL A   1      43.722  32.336  37.923  1.00  0.00     0.023 A 
ATOM    101  C   UNL A   1      45.081  32.127  37.589  1.00  0.00     0.012 A 
ATOM    102  C   UNL A   1      43.386  32.042  39.264  1.00  0.00     0.148 A 
ATOM    103  C   UNL A   1      46.003  31.519  38.448  1.00  0.00     0.002 A 
ATOM    104  C   UNL A   1      44.337  31.546  40.161  1.00  0.00     0.091 A 
ATOM    105  F   UNL A   1      42.132  32.228  39.693  1.00  0.00    -0.205 F 
ATOM    106  C   UNL A   1      45.629  31.230  39.743  1.00  0.00     0.022 A 
BRANCH 104 107
ATOM    107  S   UNL A   1      43.989  31.408  41.918  1.00  0.00     0.127 S 
ATOM    108  O   UNL A   1      45.276  30.952  42.440  1.00  0.00    -0.237 OA
ATOM    109  O   UNL A   1      43.637  32.783  42.273  1.00  0.00    -0.237 OA
ATOM    110  O   UNL A   1      42.885  30.462  42.011  1.00  0.00    -0.744 OA
ENDBRANCH 104 107
ENDBRANCH  77 100
ENDBRANCH  51  52
ENDBRANCH  44  46
ENDBRANCH  43  44
ENDBRANCH  42  43
ENDBRANCH  41  42
ENDBRANCH  40  41
ENDBRANCH  39  40
ENDBRANCH   1  39
TORSDOF 26
ENDMDL
