MODEL 1
REMARK VINA RESULT:      -9.4      0.000      0.000
REMARK SMILES CC(C)[C@@H](CNC(=O)[C@@H]1CC[C@@H]2CCCC[C@@H]2[NH2+]1)C(=O)OCCOCCOCCOC(=O)c1ccc(-c2c3nc(c(-c4cccc(S(=O)(=O)[O-])c4F)c4ccc([nH]4)c(-c4cccc(S(=O)(=O)[O-])c4F)c4nc(c(-c5cccc(S(=O)(=O)[O-])c5F)c5ccc2[nH]5)C=C4)C=C3)cc1
REMARK SMILES IDX 25 1 24 2 23 3 22 4 21 5 19 6 20 7 4 8 2 9 1 10 3 11 5 12
REMARK SMILES IDX 6 13 7 14 8 16 9 17 10 18 18 19 11 20 17 21 12 24 16 25
REMARK SMILES IDX 13 26 15 27 14 28 26 29 27 30 28 31 29 32 30 33 31 34 32 35
REMARK SMILES IDX 33 36 34 37 95 38 35 39 94 40 36 41 37 42 38 43 88 44 39 45
REMARK SMILES IDX 93 46 87 47 89 48 40 49 92 50 86 51 85 52 41 54 73 55 53 56
REMARK SMILES IDX 72 57 54 58 57 59 71 60 90 61 55 62 56 63 70 65 91 66 58 67
REMARK SMILES IDX 42 68 43 69 51 70 44 71 46 72 52 73 45 74 47 75 48 76 49 77
REMARK SMILES IDX 50 78 74 79 75 80 83 81 76 82 78 83 84 84 77 85 79 86 80 87
REMARK SMILES IDX 81 88 82 89 59 90 60 91 68 92 61 93 63 94 69 95 62 96 64 97
REMARK SMILES IDX 65 98 66 99 67 100
REMARK H PARENT 6 15 18 22 18 23 89 53 57 64
REMARK Flexibility Score: inf
ROOT
ATOM      1  C   UNL A   1      34.414  32.719  28.456  1.00  0.00     0.188 C 
ENDROOT
BRANCH   1   2
ATOM      2  O   UNL A   1      34.265  31.310  28.442  1.00  0.00    -0.376 OA
BRANCH   2   3
ATOM      3  C   UNL A   1      34.523  30.594  27.238  1.00  0.00     0.202 C 
BRANCH   3   4
ATOM      4  C   UNL A   1      33.477  29.589  26.720  1.00  0.00     0.261 C 
BRANCH   4   5
ATOM      5  O   UNL A   1      32.946  29.814  25.381  1.00  0.00    -0.463 OA
BRANCH   5   6
ATOM      6  C   UNL A   1      33.069  28.778  24.512  1.00  0.00     0.311 C 
ATOM      7  O   UNL A   1      33.869  28.773  23.578  1.00  0.00    -0.252 OA
BRANCH   6   8
ATOM      8  C   UNL A   1      32.030  27.655  24.623  1.00  0.00     0.121 C 
BRANCH   8   9
ATOM      9  C   UNL A   1      30.507  27.770  24.298  1.00  0.00    -0.001 C 
ATOM     10  C   UNL A   1      30.295  28.753  23.119  1.00  0.00     0.008 C 
ATOM     11  C   UNL A   1      29.837  26.469  23.863  1.00  0.00     0.008 C 
ENDBRANCH   8   9
BRANCH   8  12
ATOM     12  C   UNL A   1      32.696  26.559  23.788  1.00  0.00     0.131 C 
BRANCH  12  13
ATOM     13  N   UNL A   1      33.885  26.066  24.462  1.00  0.00    -0.350 N 
ATOM     14  C   UNL A   1      34.009  24.990  25.290  1.00  0.00     0.278 C 
ATOM     15  H   UNL A   1      34.710  26.577  24.300  1.00  0.00     0.163 HD
ATOM     16  O   UNL A   1      34.977  24.982  26.054  1.00  0.00    -0.268 OA
BRANCH  14  17
ATOM     17  C   UNL A   1      32.951  23.866  25.254  1.00  0.00     0.272 C 
ATOM     18  C   UNL A   1      33.066  22.960  26.481  1.00  0.00     0.076 C 
ATOM     19  N   UNL A   1      33.025  23.031  24.041  1.00  0.00    -0.333 N 
ATOM     20  C   UNL A   1      34.365  22.154  26.460  1.00  0.00     0.016 C 
ATOM     21  C   UNL A   1      34.232  22.232  23.879  1.00  0.00     0.186 C 
ATOM     22  H   UNL A   1      32.950  23.650  23.232  1.00  0.00     0.347 HD
ATOM     23  H   UNL A   1      32.263  22.358  24.127  1.00  0.00     0.347 HD
ATOM     24  C   UNL A   1      34.556  21.403  25.131  1.00  0.00     0.048 C 
ATOM     25  C   UNL A   1      35.435  22.955  23.230  1.00  0.00     0.065 C 
ATOM     26  C   UNL A   1      35.961  20.817  24.994  1.00  0.00     0.010 C 
ATOM     27  C   UNL A   1      36.662  23.129  24.115  1.00  0.00     0.006 C 
ATOM     28  C   UNL A   1      37.050  21.885  24.914  1.00  0.00     0.001 C 
ENDBRANCH  14  17
ENDBRANCH  12  13
ENDBRANCH   8  12
ENDBRANCH   6   8
ENDBRANCH   5   6
ENDBRANCH   4   5
ENDBRANCH   3   4
ENDBRANCH   2   3
ENDBRANCH   1   2
BRANCH   1  29
ATOM     29  C   UNL A   1      33.291  33.566  27.867  1.00  0.00     0.188 C 
BRANCH  29  30
ATOM     30  O   UNL A   1      32.698  34.471  28.774  1.00  0.00    -0.376 OA
BRANCH  30  31
ATOM     31  C   UNL A   1      33.184  35.801  28.831  1.00  0.00     0.202 C 
BRANCH  31  32
ATOM     32  C   UNL A   1      32.509  36.689  29.885  1.00  0.00     0.261 C 
BRANCH  32  33
ATOM     33  O   UNL A   1      33.131  36.686  31.187  1.00  0.00    -0.460 OA
BRANCH  33  34
ATOM     34  C   UNL A   1      32.891  35.621  31.992  1.00  0.00     0.338 C 
ATOM     35  O   UNL A   1      31.818  35.307  32.485  1.00  0.00    -0.246 OA
BRANCH  34  36
ATOM     36  C   UNL A   1      34.072  34.721  31.928  1.00  0.00     0.060 A 
ATOM     37  C   UNL A   1      33.926  33.399  32.378  1.00  0.00     0.016 A 
ATOM     38  C   UNL A   1      35.281  35.142  31.373  1.00  0.00     0.016 A 
ATOM     39  C   UNL A   1      35.005  32.516  32.340  1.00  0.00     0.010 A 
ATOM     40  C   UNL A   1      36.371  34.265  31.357  1.00  0.00     0.010 A 
ATOM     41  C   UNL A   1      36.252  32.967  31.892  1.00  0.00    -0.014 A 
BRANCH  41  42
ATOM     42  C   UNL A   1      37.472  32.202  32.257  1.00  0.00     0.031 A 
ATOM     43  C   UNL A   1      38.062  32.450  33.622  1.00  0.00     0.074 A 
ATOM     44  C   UNL A   1      38.029  31.292  31.437  1.00  0.00     0.049 A 
ATOM     45  N   UNL A   1      39.139  31.950  34.168  1.00  0.00    -0.248 NA
ATOM     46  C   UNL A   1      37.334  33.395  34.487  1.00  0.00     0.031 C 
ATOM     47  C   UNL A   1      37.541  30.932  30.108  1.00  0.00     0.029 A 
ATOM     48  N   UNL A   1      39.150  30.517  31.609  1.00  0.00    -0.354 N 
ATOM     49  C   UNL A   1      39.240  32.550  35.418  1.00  0.00     0.074 A 
ATOM     50  C   UNL A   1      38.125  33.461  35.546  1.00  0.00     0.031 C 
ATOM     51  C   UNL A   1      38.376  30.023  29.572  1.00  0.00     0.029 A 
ATOM     52  C   UNL A   1      39.470  29.759  30.507  1.00  0.00     0.049 A 
ATOM     53  H   UNL A   1      39.675  30.505  32.442  1.00  0.00     0.167 HD
ATOM     54  C   UNL A   1      40.166  32.355  36.384  1.00  0.00     0.034 A 
ATOM     55  C   UNL A   1      40.536  28.966  30.274  1.00  0.00     0.034 A 
ATOM     56  C   UNL A   1      41.264  31.436  36.270  1.00  0.00     0.049 A 
ATOM     57  C   UNL A   1      41.576  28.790  31.355  1.00  0.00     0.074 A 
ATOM     58  C   UNL A   1      42.241  31.143  37.205  1.00  0.00     0.029 A 
ATOM     59  N   UNL A   1      41.538  30.667  35.151  1.00  0.00    -0.354 N 
ATOM     60  N   UNL A   1      41.612  29.297  32.563  1.00  0.00    -0.248 NA
ATOM     61  C   UNL A   1      42.707  27.900  31.048  1.00  0.00     0.031 C 
ATOM     62  C   UNL A   1      43.126  30.221  36.637  1.00  0.00     0.029 A 
ATOM     63  C   UNL A   1      42.673  29.905  35.366  1.00  0.00     0.049 A 
ATOM     64  H   UNL A   1      41.003  30.663  34.324  1.00  0.00     0.167 HD
ATOM     65  C   UNL A   1      42.741  28.756  33.173  1.00  0.00     0.074 A 
ATOM     66  C   UNL A   1      43.348  27.864  32.208  1.00  0.00     0.031 C 
ATOM     67  C   UNL A   1      43.238  28.983  34.415  1.00  0.00     0.034 A 
BRANCH  54  68
ATOM     68  C   UNL A   1      40.027  33.156  37.652  1.00  0.00     0.023 A 
ATOM     69  C   UNL A   1      40.901  34.233  37.905  1.00  0.00     0.012 A 
ATOM     70  C   UNL A   1      39.010  32.858  38.579  1.00  0.00     0.148 A 
ATOM     71  C   UNL A   1      40.788  34.978  39.079  1.00  0.00     0.002 A 
ATOM     72  C   UNL A   1      38.871  33.636  39.721  1.00  0.00     0.091 A 
ATOM     73  F   UNL A   1      38.206  31.813  38.332  1.00  0.00    -0.205 F 
ATOM     74  C   UNL A   1      39.767  34.686  39.980  1.00  0.00     0.022 A 
BRANCH  72  75
ATOM     75  S   UNL A   1      37.540  33.393  40.901  1.00  0.00     0.127 S 
ATOM     76  O   UNL A   1      36.420  33.065  40.019  1.00  0.00    -0.237 OA
ATOM     77  O   UNL A   1      38.039  32.270  41.697  1.00  0.00    -0.237 OA
ATOM     78  O   UNL A   1      37.413  34.647  41.629  1.00  0.00    -0.744 OA
ENDBRANCH  72  75
ENDBRANCH  54  68
BRANCH  55  79
ATOM     79  C   UNL A   1      40.678  28.255  28.970  1.00  0.00     0.023 A 
ATOM     80  C   UNL A   1      41.244  28.925  27.867  1.00  0.00     0.012 A 
ATOM     81  C   UNL A   1      40.237  26.927  28.813  1.00  0.00     0.148 A 
ATOM     82  C   UNL A   1      41.332  28.298  26.622  1.00  0.00     0.002 A 
ATOM     83  C   UNL A   1      40.381  26.289  27.586  1.00  0.00     0.091 A 
ATOM     84  F   UNL A   1      39.684  26.313  29.868  1.00  0.00    -0.205 F 
ATOM     85  C   UNL A   1      40.909  26.979  26.484  1.00  0.00     0.022 A 
BRANCH  83  86
ATOM     86  S   UNL A   1      39.973  24.557  27.345  1.00  0.00     0.127 S 
ATOM     87  O   UNL A   1      40.804  23.910  28.358  1.00  0.00    -0.237 OA
ATOM     88  O   UNL A   1      38.538  24.547  27.627  1.00  0.00    -0.237 OA
ATOM     89  O   UNL A   1      40.319  24.258  25.963  1.00  0.00    -0.744 OA
ENDBRANCH  83  86
ENDBRANCH  55  79
BRANCH  67  90
ATOM     90  C   UNL A   1      44.467  28.214  34.832  1.00  0.00     0.023 A 
ATOM     91  C   UNL A   1      45.744  28.796  34.710  1.00  0.00     0.012 A 
ATOM     92  C   UNL A   1      44.347  26.928  35.397  1.00  0.00     0.148 A 
ATOM     93  C   UNL A   1      46.886  28.091  35.096  1.00  0.00     0.002 A 
ATOM     94  C   UNL A   1      45.483  26.254  35.832  1.00  0.00     0.091 A 
ATOM     95  F   UNL A   1      43.127  26.382  35.493  1.00  0.00    -0.205 F 
ATOM     96  C   UNL A   1      46.754  26.827  35.666  1.00  0.00     0.022 A 
BRANCH  94  97
ATOM     97  S   UNL A   1      45.397  24.669  36.670  1.00  0.00     0.127 S 
ATOM     98  O   UNL A   1      44.917  23.792  35.602  1.00  0.00    -0.237 OA
ATOM     99  O   UNL A   1      46.790  24.448  37.061  1.00  0.00    -0.237 OA
ATOM    100  O   UNL A   1      44.481  24.855  37.787  1.00  0.00    -0.744 OA
ENDBRANCH  94  97
ENDBRANCH  67  90
ENDBRANCH  41  42
ENDBRANCH  34  36
ENDBRANCH  33  34
ENDBRANCH  32  33
ENDBRANCH  31  32
ENDBRANCH  30  31
ENDBRANCH  29  30
ENDBRANCH   1  29
TORSDOF 24
ENDMDL
MODEL 2
REMARK VINA RESULT:      -9.2      5.458      6.717
REMARK SMILES CC(C)[C@@H](CNC(=O)[C@@H]1CC[C@@H]2CCCC[C@@H]2[NH2+]1)C(=O)OCCOCCOCCOC(=O)c1ccc(-c2c3nc(c(-c4cccc(S(=O)(=O)[O-])c4F)c4ccc([nH]4)c(-c4cccc(S(=O)(=O)[O-])c4F)c4nc(c(-c5cccc(S(=O)(=O)[O-])c5F)c5ccc2[nH]5)C=C4)C=C3)cc1
REMARK SMILES IDX 25 1 24 2 23 3 22 4 21 5 19 6 20 7 4 8 2 9 1 10 3 11 5 12
REMARK SMILES IDX 6 13 7 14 8 16 9 17 10 18 18 19 11 20 17 21 12 24 16 25
REMARK SMILES IDX 13 26 15 27 14 28 26 29 27 30 28 31 29 32 30 33 31 34 32 35
REMARK SMILES IDX 33 36 34 37 95 38 35 39 94 40 36 41 37 42 38 43 88 44 39 45
REMARK SMILES IDX 93 46 87 47 89 48 40 49 92 50 86 51 85 52 41 54 73 55 53 56
REMARK SMILES IDX 72 57 54 58 57 59 71 60 90 61 55 62 56 63 70 65 91 66 58 67
REMARK SMILES IDX 42 68 43 69 51 70 44 71 46 72 52 73 45 74 47 75 48 76 49 77
REMARK SMILES IDX 50 78 74 79 75 80 83 81 76 82 78 83 84 84 77 85 79 86 80 87
REMARK SMILES IDX 81 88 82 89 59 90 60 91 68 92 61 93 63 94 69 95 62 96 64 97
REMARK SMILES IDX 65 98 66 99 67 100
REMARK H PARENT 6 15 18 22 18 23 89 53 57 64
REMARK Flexibility Score: inf
ROOT
ATOM      1  C   UNL A   1      33.996  32.969  27.839  1.00  0.00     0.188 C 
ENDROOT
BRANCH   1   2
ATOM      2  O   UNL A   1      33.989  31.658  28.376  1.00  0.00    -0.376 OA
BRANCH   2   3
ATOM      3  C   UNL A   1      34.096  30.544  27.496  1.00  0.00     0.202 C 
BRANCH   3   4
ATOM      4  C   UNL A   1      32.870  29.640  27.270  1.00  0.00     0.261 C 
BRANCH   4   5
ATOM      5  O   UNL A   1      32.448  29.425  25.891  1.00  0.00    -0.463 OA
BRANCH   5   6
ATOM      6  C   UNL A   1      32.876  28.274  25.312  1.00  0.00     0.311 C 
ATOM      7  O   UNL A   1      33.945  27.735  25.595  1.00  0.00    -0.252 OA
BRANCH   6   8
ATOM      8  C   UNL A   1      32.050  27.743  24.135  1.00  0.00     0.121 C 
BRANCH   8   9
ATOM      9  C   UNL A   1      32.604  26.997  22.879  1.00  0.00    -0.001 C 
ATOM     10  C   UNL A   1      31.456  26.746  21.870  1.00  0.00     0.008 C 
ATOM     11  C   UNL A   1      33.673  27.755  22.094  1.00  0.00     0.008 C 
ENDBRANCH   8   9
BRANCH   8  12
ATOM     12  C   UNL A   1      31.007  26.897  24.868  1.00  0.00     0.131 C 
BRANCH  12  13
ATOM     13  N   UNL A   1      31.642  26.115  25.917  1.00  0.00    -0.350 N 
ATOM     14  C   UNL A   1      31.493  24.789  26.196  1.00  0.00     0.278 C 
ATOM     15  H   UNL A   1      32.260  26.608  26.502  1.00  0.00     0.163 HD
ATOM     16  O   UNL A   1      31.792  24.422  27.336  1.00  0.00    -0.268 OA
BRANCH  14  17
ATOM     17  C   UNL A   1      30.950  23.831  25.115  1.00  0.00     0.272 C 
ATOM     18  C   UNL A   1      30.838  22.401  25.649  1.00  0.00     0.076 C 
ATOM     19  N   UNL A   1      31.764  23.813  23.886  1.00  0.00    -0.333 N 
ATOM     20  C   UNL A   1      32.215  21.799  25.924  1.00  0.00     0.016 C 
ATOM     21  C   UNL A   1      33.118  23.291  24.015  1.00  0.00     0.186 C 
ATOM     22  H   UNL A   1      31.832  24.773  23.544  1.00  0.00     0.347 HD
ATOM     23  H   UNL A   1      31.285  23.174  23.251  1.00  0.00     0.347 HD
ATOM     24  C   UNL A   1      33.151  21.920  24.709  1.00  0.00     0.048 C 
ATOM     25  C   UNL A   1      34.187  24.303  24.487  1.00  0.00     0.065 C 
ATOM     26  C   UNL A   1      34.598  21.569  25.055  1.00  0.00     0.010 C 
ATOM     27  C   UNL A   1      34.830  24.007  25.836  1.00  0.00     0.006 C 
ATOM     28  C   UNL A   1      35.231  22.548  26.042  1.00  0.00     0.001 C 
ENDBRANCH  14  17
ENDBRANCH  12  13
ENDBRANCH   8  12
ENDBRANCH   6   8
ENDBRANCH   5   6
ENDBRANCH   4   5
ENDBRANCH   3   4
ENDBRANCH   2   3
ENDBRANCH   1   2
BRANCH   1  29
ATOM     29  C   UNL A   1      32.673  33.724  27.769  1.00  0.00     0.188 C 
BRANCH  29  30
ATOM     30  O   UNL A   1      32.559  34.799  28.678  1.00  0.00    -0.376 OA
BRANCH  30  31
ATOM     31  C   UNL A   1      33.733  35.304  29.290  1.00  0.00     0.202 C 
BRANCH  31  32
ATOM     32  C   UNL A   1      33.879  34.967  30.781  1.00  0.00     0.261 C 
BRANCH  32  33
ATOM     33  O   UNL A   1      35.144  34.386  31.163  1.00  0.00    -0.460 OA
BRANCH  33  34
ATOM     34  C   UNL A   1      35.147  33.082  31.531  1.00  0.00     0.338 C 
ATOM     35  O   UNL A   1      34.181  32.421  31.883  1.00  0.00    -0.246 OA
BRANCH  34  36
ATOM     36  C   UNL A   1      36.458  32.498  31.145  1.00  0.00     0.060 A 
ATOM     37  C   UNL A   1      37.281  31.981  32.159  1.00  0.00     0.016 A 
ATOM     38  C   UNL A   1      36.845  32.393  29.809  1.00  0.00     0.016 A 
ATOM     39  C   UNL A   1      38.521  31.424  31.848  1.00  0.00     0.010 A 
ATOM     40  C   UNL A   1      38.099  31.857  29.498  1.00  0.00     0.010 A 
ATOM     41  C   UNL A   1      38.964  31.422  30.520  1.00  0.00    -0.014 A 
BRANCH  41  42
ATOM     42  C   UNL A   1      40.414  31.254  30.242  1.00  0.00     0.031 A 
ATOM     43  C   UNL A   1      41.253  32.504  30.160  1.00  0.00     0.074 A 
ATOM     44  C   UNL A   1      40.989  30.046  30.101  1.00  0.00     0.049 A 
ATOM     45  N   UNL A   1      42.524  32.638  29.888  1.00  0.00    -0.248 NA
ATOM     46  C   UNL A   1      40.556  33.777  30.418  1.00  0.00     0.031 C 
ATOM     47  C   UNL A   1      40.302  28.760  30.192  1.00  0.00     0.029 A 
ATOM     48  N   UNL A   1      42.294  29.714  29.830  1.00  0.00    -0.354 N 
ATOM     49  C   UNL A   1      42.768  34.006  29.901  1.00  0.00     0.074 A 
ATOM     50  C   UNL A   1      41.514  34.662  30.193  1.00  0.00     0.031 C 
ATOM     51  C   UNL A   1      41.189  27.777  29.953  1.00  0.00     0.029 A 
ATOM     52  C   UNL A   1      42.498  28.364  29.666  1.00  0.00     0.049 A 
ATOM     53  H   UNL A   1      43.016  30.380  29.761  1.00  0.00     0.167 HD
ATOM     54  C   UNL A   1      43.933  34.665  29.703  1.00  0.00     0.034 A 
ATOM     55  C   UNL A   1      43.606  27.688  29.301  1.00  0.00     0.034 A 
ATOM     56  C   UNL A   1      45.186  34.018  29.435  1.00  0.00     0.049 A 
ATOM     57  C   UNL A   1      44.887  28.448  29.052  1.00  0.00     0.074 A 
ATOM     58  C   UNL A   1      46.430  34.595  29.248  1.00  0.00     0.029 A 
ATOM     59  N   UNL A   1      45.357  32.649  29.303  1.00  0.00    -0.354 N 
ATOM     60  N   UNL A   1      45.123  29.734  29.152  1.00  0.00    -0.248 NA
ATOM     61  C   UNL A   1      46.066  27.654  28.673  1.00  0.00     0.031 C 
ATOM     62  C   UNL A   1      47.346  33.576  28.970  1.00  0.00     0.029 A 
ATOM     63  C   UNL A   1      46.682  32.361  29.030  1.00  0.00     0.049 A 
ATOM     64  H   UNL A   1      44.639  31.980  29.392  1.00  0.00     0.167 HD
ATOM     65  C   UNL A   1      46.480  29.897  28.891  1.00  0.00     0.074 A 
ATOM     66  C   UNL A   1      47.019  28.574  28.651  1.00  0.00     0.031 C 
ATOM     67  C   UNL A   1      47.215  31.036  28.844  1.00  0.00     0.034 A 
BRANCH  54  68
ATOM     68  C   UNL A   1      43.901  36.170  29.773  1.00  0.00     0.023 A 
ATOM     69  C   UNL A   1      44.157  36.824  30.996  1.00  0.00     0.012 A 
ATOM     70  C   UNL A   1      43.646  36.935  28.619  1.00  0.00     0.148 A 
ATOM     71  C   UNL A   1      44.122  38.216  31.077  1.00  0.00     0.002 A 
ATOM     72  C   UNL A   1      43.664  38.321  28.696  1.00  0.00     0.091 A 
ATOM     73  F   UNL A   1      43.380  36.293  27.472  1.00  0.00    -0.205 F 
ATOM     74  C   UNL A   1      43.887  38.963  29.925  1.00  0.00     0.022 A 
BRANCH  72  75
ATOM     75  S   UNL A   1      43.455  39.373  27.256  1.00  0.00     0.127 S 
ATOM     76  O   UNL A   1      43.542  40.707  27.850  1.00  0.00    -0.237 OA
ATOM     77  O   UNL A   1      44.605  38.996  26.433  1.00  0.00    -0.237 OA
ATOM     78  O   UNL A   1      42.160  39.027  26.689  1.00  0.00    -0.744 OA
ENDBRANCH  72  75
ENDBRANCH  54  68
BRANCH  55  79
ATOM     79  C   UNL A   1      43.573  26.203  29.163  1.00  0.00     0.023 A 
ATOM     80  C   UNL A   1      43.994  25.391  30.236  1.00  0.00     0.012 A 
ATOM     81  C   UNL A   1      43.147  25.591  27.968  1.00  0.00     0.148 A 
ATOM     82  C   UNL A   1      44.027  24.002  30.107  1.00  0.00     0.002 A 
ATOM     83  C   UNL A   1      43.127  24.205  27.867  1.00  0.00     0.091 A 
ATOM     84  F   UNL A   1      42.769  26.380  26.952  1.00  0.00    -0.205 F 
ATOM     85  C   UNL A   1      43.585  23.408  28.927  1.00  0.00     0.022 A 
BRANCH  83  86
ATOM     86  S   UNL A   1      42.466  23.351  26.432  1.00  0.00     0.127 S 
ATOM     87  O   UNL A   1      41.061  23.752  26.467  1.00  0.00    -0.237 OA
ATOM     88  O   UNL A   1      43.249  23.943  25.347  1.00  0.00    -0.237 OA
ATOM     89  O   UNL A   1      42.724  21.937  26.660  1.00  0.00    -0.744 OA
ENDBRANCH  83  86
ENDBRANCH  55  79
BRANCH  67  90
ATOM     90  C   UNL A   1      48.695  30.908  28.580  1.00  0.00     0.023 A 
ATOM     91  C   UNL A   1      49.190  30.973  27.262  1.00  0.00     0.012 A 
ATOM     92  C   UNL A   1      49.603  30.777  29.651  1.00  0.00     0.148 A 
ATOM     93  C   UNL A   1      50.558  30.858  27.011  1.00  0.00     0.002 A 
ATOM     94  C   UNL A   1      50.968  30.721  29.398  1.00  0.00     0.091 A 
ATOM     95  F   UNL A   1      49.116  30.703  30.898  1.00  0.00    -0.205 F 
ATOM     96  C   UNL A   1      51.446  30.743  28.078  1.00  0.00     0.022 A 
BRANCH  94  97
ATOM     97  S   UNL A   1      52.188  30.675  30.715  1.00  0.00     0.127 S 
ATOM     98  O   UNL A   1      51.851  31.878  31.475  1.00  0.00    -0.237 OA
ATOM     99  O   UNL A   1      51.870  29.417  31.390  1.00  0.00    -0.237 OA
ATOM    100  O   UNL A   1      53.488  30.693  30.058  1.00  0.00    -0.744 OA
ENDBRANCH  94  97
ENDBRANCH  67  90
ENDBRANCH  41  42
ENDBRANCH  34  36
ENDBRANCH  33  34
ENDBRANCH  32  33
ENDBRANCH  31  32
ENDBRANCH  30  31
ENDBRANCH  29  30
ENDBRANCH   1  29
TORSDOF 24
ENDMDL
MODEL 3
REMARK VINA RESULT:      -8.8      6.778      8.049
REMARK SMILES CC(C)[C@@H](CNC(=O)[C@@H]1CC[C@@H]2CCCC[C@@H]2[NH2+]1)C(=O)OCCOCCOCCOC(=O)c1ccc(-c2c3nc(c(-c4cccc(S(=O)(=O)[O-])c4F)c4ccc([nH]4)c(-c4cccc(S(=O)(=O)[O-])c4F)c4nc(c(-c5cccc(S(=O)(=O)[O-])c5F)c5ccc2[nH]5)C=C4)C=C3)cc1
REMARK SMILES IDX 25 1 24 2 23 3 22 4 21 5 19 6 20 7 4 8 2 9 1 10 3 11 5 12
REMARK SMILES IDX 6 13 7 14 8 16 9 17 10 18 18 19 11 20 17 21 12 24 16 25
REMARK SMILES IDX 13 26 15 27 14 28 26 29 27 30 28 31 29 32 30 33 31 34 32 35
REMARK SMILES IDX 33 36 34 37 95 38 35 39 94 40 36 41 37 42 38 43 88 44 39 45
REMARK SMILES IDX 93 46 87 47 89 48 40 49 92 50 86 51 85 52 41 54 73 55 53 56
REMARK SMILES IDX 72 57 54 58 57 59 71 60 90 61 55 62 56 63 70 65 91 66 58 67
REMARK SMILES IDX 42 68 43 69 51 70 44 71 46 72 52 73 45 74 47 75 48 76 49 77
REMARK SMILES IDX 50 78 74 79 75 80 83 81 76 82 78 83 84 84 77 85 79 86 80 87
REMARK SMILES IDX 81 88 82 89 59 90 60 91 68 92 61 93 63 94 69 95 62 96 64 97
REMARK SMILES IDX 65 98 66 99 67 100
REMARK H PARENT 6 15 18 22 18 23 89 53 57 64
REMARK Flexibility Score: inf
ROOT
ATOM      1  C   UNL A   1      33.037  31.287  27.269  1.00  0.00     0.188 C 
ENDROOT
BRANCH   1   2
ATOM      2  O   UNL A   1      33.124  30.322  26.235  1.00  0.00    -0.376 OA
BRANCH   2   3
ATOM      3  C   UNL A   1      34.111  29.299  26.317  1.00  0.00     0.202 C 
BRANCH   3   4
ATOM      4  C   UNL A   1      33.667  27.833  26.478  1.00  0.00     0.261 C 
BRANCH   4   5
ATOM      5  O   UNL A   1      32.655  27.340  25.552  1.00  0.00    -0.463 OA
BRANCH   5   6
ATOM      6  C   UNL A   1      31.393  27.251  26.044  1.00  0.00     0.311 C 
ATOM      7  O   UNL A   1      31.143  27.119  27.241  1.00  0.00    -0.252 OA
BRANCH   6   8
ATOM      8  C   UNL A   1      30.257  27.141  25.020  1.00  0.00     0.121 C 
BRANCH   8   9
ATOM      9  C   UNL A   1      30.192  27.853  23.632  1.00  0.00    -0.001 C 
ATOM     10  C   UNL A   1      28.734  27.854  23.110  1.00  0.00     0.008 C 
ATOM     11  C   UNL A   1      30.620  29.319  23.634  1.00  0.00     0.008 C 
ENDBRANCH   8   9
BRANCH   8  12
ATOM     12  C   UNL A   1      30.145  25.622  24.871  1.00  0.00     0.131 C 
BRANCH  12  13
ATOM     13  N   UNL A   1      31.197  24.964  25.630  1.00  0.00    -0.350 N 
ATOM     14  C   UNL A   1      31.716  23.715  25.457  1.00  0.00     0.278 C 
ATOM     15  H   UNL A   1      31.584  25.490  26.366  1.00  0.00     0.163 HD
ATOM     16  O   UNL A   1      32.293  23.212  26.425  1.00  0.00    -0.268 OA
BRANCH  14  17
ATOM     17  C   UNL A   1      31.549  22.993  24.104  1.00  0.00     0.272 C 
ATOM     18  C   UNL A   1      32.148  21.587  24.150  1.00  0.00     0.076 C 
ATOM     19  N   UNL A   1      32.146  23.725  22.972  1.00  0.00    -0.333 N 
ATOM     20  C   UNL A   1      33.671  21.633  24.282  1.00  0.00     0.016 C 
ATOM     21  C   UNL A   1      33.596  23.871  22.990  1.00  0.00     0.186 C 
ATOM     22  H   UNL A   1      31.739  24.661  22.957  1.00  0.00     0.347 HD
ATOM     23  H   UNL A   1      31.940  23.163  22.145  1.00  0.00     0.347 HD
ATOM     24  C   UNL A   1      34.315  22.532  23.214  1.00  0.00     0.048 C 
ATOM     25  C   UNL A   1      34.141  25.064  23.808  1.00  0.00     0.065 C 
ATOM     26  C   UNL A   1      35.794  22.799  23.496  1.00  0.00     0.010 C 
ATOM     27  C   UNL A   1      34.989  24.705  25.021  1.00  0.00     0.006 C 
ATOM     28  C   UNL A   1      36.022  23.608  24.771  1.00  0.00     0.001 C 
ENDBRANCH  14  17
ENDBRANCH  12  13
ENDBRANCH   8  12
ENDBRANCH   6   8
ENDBRANCH   5   6
ENDBRANCH   4   5
ENDBRANCH   3   4
ENDBRANCH   2   3
ENDBRANCH   1   2
BRANCH   1  29
ATOM     29  C   UNL A   1      34.260  31.507  28.152  1.00  0.00     0.188 C 
BRANCH  29  30
ATOM     30  O   UNL A   1      34.680  32.852  28.252  1.00  0.00    -0.376 OA
BRANCH  30  31
ATOM     31  C   UNL A   1      34.532  33.525  29.490  1.00  0.00     0.202 C 
BRANCH  31  32
ATOM     32  C   UNL A   1      35.848  33.823  30.223  1.00  0.00     0.261 C 
BRANCH  32  33
ATOM     33  O   UNL A   1      35.973  33.236  31.535  1.00  0.00    -0.460 OA
BRANCH  33  34
ATOM     34  C   UNL A   1      36.303  31.923  31.602  1.00  0.00     0.338 C 
ATOM     35  O   UNL A   1      35.536  30.985  31.757  1.00  0.00    -0.246 OA
BRANCH  34  36
ATOM     36  C   UNL A   1      37.711  31.780  31.150  1.00  0.00     0.060 A 
ATOM     37  C   UNL A   1      38.737  32.080  32.061  1.00  0.00     0.016 A 
ATOM     38  C   UNL A   1      38.025  31.293  29.881  1.00  0.00     0.016 A 
ATOM     39  C   UNL A   1      40.074  31.963  31.684  1.00  0.00     0.010 A 
ATOM     40  C   UNL A   1      39.365  31.198  29.494  1.00  0.00     0.010 A 
ATOM     41  C   UNL A   1      40.393  31.586  30.374  1.00  0.00    -0.014 A 
BRANCH  41  42
ATOM     42  C   UNL A   1      41.749  31.884  29.846  1.00  0.00     0.031 A 
ATOM     43  C   UNL A   1      42.084  33.329  29.576  1.00  0.00     0.074 A 
ATOM     44  C   UNL A   1      42.673  30.928  29.641  1.00  0.00     0.049 A 
ATOM     45  N   UNL A   1      43.172  33.853  29.076  1.00  0.00    -0.248 NA
ATOM     46  C   UNL A   1      41.044  34.316  29.916  1.00  0.00     0.031 C 
ATOM     47  C   UNL A   1      42.492  29.500  29.892  1.00  0.00     0.029 A 
ATOM     48  N   UNL A   1      43.952  31.026  29.150  1.00  0.00    -0.354 N 
ATOM     49  C   UNL A   1      42.932  35.220  29.003  1.00  0.00     0.074 A 
ATOM     50  C   UNL A   1      41.592  35.445  29.495  1.00  0.00     0.031 C 
ATOM     51  C   UNL A   1      43.612  28.851  29.528  1.00  0.00     0.029 A 
ATOM     52  C   UNL A   1      44.577  29.811  28.993  1.00  0.00     0.049 A 
ATOM     53  H   UNL A   1      44.381  31.884  28.932  1.00  0.00     0.167 HD
ATOM     54  C   UNL A   1      43.753  36.207  28.579  1.00  0.00     0.034 A 
ATOM     55  C   UNL A   1      45.777  29.511  28.455  1.00  0.00     0.034 A 
ATOM     56  C   UNL A   1      45.093  35.991  28.109  1.00  0.00     0.049 A 
ATOM     57  C   UNL A   1      46.664  30.628  27.957  1.00  0.00     0.074 A 
ATOM     58  C   UNL A   1      46.017  36.930  27.685  1.00  0.00     0.029 A 
ATOM     59  N   UNL A   1      45.699  34.751  27.991  1.00  0.00    -0.354 N 
ATOM     60  N   UNL A   1      46.457  31.922  27.973  1.00  0.00    -0.248 NA
ATOM     61  C   UNL A   1      47.967  30.239  27.396  1.00  0.00     0.031 C 
ATOM     62  C   UNL A   1      47.171  36.252  27.278  1.00  0.00     0.029 A 
ATOM     63  C   UNL A   1      46.982  34.896  27.493  1.00  0.00     0.049 A 
ATOM     64  H   UNL A   1      45.278  33.892  28.227  1.00  0.00     0.167 HD
ATOM     65  C   UNL A   1      47.617  32.503  27.468  1.00  0.00     0.074 A 
ATOM     66  C   UNL A   1      48.531  31.418  27.176  1.00  0.00     0.031 C 
ATOM     67  C   UNL A   1      47.900  33.812  27.254  1.00  0.00     0.034 A 
BRANCH  54  68
ATOM     68  C   UNL A   1      43.219  37.615  28.607  1.00  0.00     0.023 A 
ATOM     69  C   UNL A   1      42.362  38.065  27.581  1.00  0.00     0.012 A 
ATOM     70  C   UNL A   1      43.543  38.483  29.667  1.00  0.00     0.148 A 
ATOM     71  C   UNL A   1      41.867  39.369  27.591  1.00  0.00     0.002 A 
ATOM     72  C   UNL A   1      43.005  39.763  29.697  1.00  0.00     0.091 A 
ATOM     73  F   UNL A   1      44.380  38.045  30.619  1.00  0.00    -0.205 F 
ATOM     74  C   UNL A   1      42.179  40.212  28.654  1.00  0.00     0.022 A 
BRANCH  72  75
ATOM     75  S   UNL A   1      43.280  40.897  31.062  1.00  0.00     0.127 S 
ATOM     76  O   UNL A   1      42.553  42.083  30.611  1.00  0.00    -0.237 OA
ATOM     77  O   UNL A   1      42.654  40.187  32.179  1.00  0.00    -0.237 OA
ATOM     78  O   UNL A   1      44.722  41.055  31.171  1.00  0.00    -0.744 OA
ENDBRANCH  72  75
ENDBRANCH  54  68
BRANCH  55  79
ATOM     79  C   UNL A   1      46.234  28.093  28.371  1.00  0.00     0.023 A 
ATOM     80  C   UNL A   1      46.912  27.511  29.461  1.00  0.00     0.012 A 
ATOM     81  C   UNL A   1      46.018  27.326  27.210  1.00  0.00     0.148 A 
ATOM     82  C   UNL A   1      47.399  26.205  29.380  1.00  0.00     0.002 A 
ATOM     83  C   UNL A   1      46.455  26.007  27.158  1.00  0.00     0.091 A 
ATOM     84  F   UNL A   1      45.389  27.904  26.176  1.00  0.00    -0.205 F 
ATOM     85  C   UNL A   1      47.163  25.451  28.234  1.00  0.00     0.022 A 
BRANCH  83  86
ATOM     86  S   UNL A   1      46.094  24.925  25.771  1.00  0.00     0.127 S 
ATOM     87  O   UNL A   1      46.551  25.727  24.639  1.00  0.00    -0.237 OA
ATOM     88  O   UNL A   1      46.927  23.761  26.078  1.00  0.00    -0.237 OA
ATOM     89  O   UNL A   1      44.661  24.674  25.829  1.00  0.00    -0.744 OA
ENDBRANCH  83  86
ENDBRANCH  55  79
BRANCH  67  90
ATOM     90  C   UNL A   1      49.272  34.160  26.733  1.00  0.00     0.023 A 
ATOM     91  C   UNL A   1      49.462  34.439  25.365  1.00  0.00     0.012 A 
ATOM     92  C   UNL A   1      50.366  34.262  27.616  1.00  0.00     0.148 A 
ATOM     93  C   UNL A   1      50.729  34.764  24.876  1.00  0.00     0.002 A 
ATOM     94  C   UNL A   1      51.613  34.642  27.131  1.00  0.00     0.091 A 
ATOM     95  F   UNL A   1      50.173  33.979  28.912  1.00  0.00    -0.205 F 
ATOM     96  C   UNL A   1      51.799  34.876  25.760  1.00  0.00     0.022 A 
BRANCH  94  97
ATOM     97  S   UNL A   1      53.022  34.909  28.212  1.00  0.00     0.127 S 
ATOM     98  O   UNL A   1      53.256  33.564  28.735  1.00  0.00    -0.237 OA
ATOM     99  O   UNL A   1      54.043  35.387  27.279  1.00  0.00    -0.237 OA
ATOM    100  O   UNL A   1      52.593  35.897  29.192  1.00  0.00    -0.744 OA
ENDBRANCH  94  97
ENDBRANCH  67  90
ENDBRANCH  41  42
ENDBRANCH  34  36
ENDBRANCH  33  34
ENDBRANCH  32  33
ENDBRANCH  31  32
ENDBRANCH  30  31
ENDBRANCH  29  30
ENDBRANCH   1  29
TORSDOF 24
ENDMDL
