MODEL 1
REMARK VINA RESULT:     -10.4      0.000      0.000
REMARK SMILES CC1(C)CSC[C@H](Nc2cc(C(=O)OCCOCCOCCOC(=O)c3ccc(-c4c5nc(c(-c6cccc(S(=O)(=O)[O-])c6F)c6ccc([nH]6)c(-c6cccc(S(=O)(=O)[O-])c6F)c6nc(c(-c7cccc(S(=O)(=O)[O-])c7F)c7ccc4[nH]7)C=C6)C=C5)cc3)ccc2F)C1
REMARK SMILES IDX 19 1 18 2 17 3 16 4 15 5 14 6 12 7 13 8 11 9 9 10 10 11
REMARK SMILES IDX 91 12 90 13 92 14 89 15 8 16 7 18 1 19 2 20 3 21 4 22 93 23
REMARK SMILES IDX 5 24 6 25 20 26 21 27 22 28 23 29 24 30 25 31 26 32 27 33
REMARK SMILES IDX 88 34 28 35 87 36 29 37 30 38 31 39 81 40 32 41 86 42 80 43
REMARK SMILES IDX 82 44 33 45 85 46 79 47 78 48 34 50 66 51 46 52 65 53 47 54
REMARK SMILES IDX 50 55 64 56 83 57 48 58 49 59 63 61 84 62 51 63 35 64 36 65
REMARK SMILES IDX 44 66 37 67 39 68 45 69 38 70 40 71 41 72 42 73 43 74 67 75
REMARK SMILES IDX 68 76 76 77 69 78 71 79 77 80 70 81 72 82 73 83 74 84 75 85
REMARK SMILES IDX 52 86 53 87 61 88 54 89 56 90 62 91 55 92 57 93 58 94 59 95
REMARK SMILES IDX 60 96
REMARK H PARENT 8 17 82 49 50 60
REMARK Flexibility Score: inf
ROOT
ATOM      1  C   UNL A   1      40.897  20.803  26.907  1.00  0.00     0.188 C 
ENDROOT
BRANCH   1   2
ATOM      2  C   UNL A   1      39.585  21.497  26.491  1.00  0.00     0.188 C 
BRANCH   2   3
ATOM      3  O   UNL A   1      39.646  22.833  26.046  1.00  0.00    -0.376 OA
BRANCH   3   4
ATOM      4  C   UNL A   1      38.739  23.807  26.533  1.00  0.00     0.202 C 
BRANCH   4   5
ATOM      5  C   UNL A   1      37.219  23.816  26.285  1.00  0.00     0.261 C 
BRANCH   5   6
ATOM      6  O   UNL A   1      36.782  23.797  24.923  1.00  0.00    -0.460 OA
BRANCH   6   7
ATOM      7  C   UNL A   1      36.336  22.597  24.479  1.00  0.00     0.338 C 
ATOM      8  O   UNL A   1      37.013  21.639  24.134  1.00  0.00    -0.246 OA
BRANCH   7   9
ATOM      9  C   UNL A   1      34.873  22.518  24.646  1.00  0.00     0.062 A 
ATOM     10  C   UNL A   1      32.809  23.695  25.184  1.00  0.00     0.071 A 
ATOM     11  C   UNL A   1      34.193  23.699  24.978  1.00  0.00     0.044 A 
ATOM     12  C   UNL A   1      32.133  22.470  25.061  1.00  0.00     0.146 A 
ATOM     13  C   UNL A   1      32.799  21.300  24.687  1.00  0.00     0.042 A 
ATOM     14  F   UNL A   1      30.815  22.400  25.300  1.00  0.00    -0.205 F 
ATOM     15  C   UNL A   1      34.178  21.319  24.474  1.00  0.00     0.019 A 
BRANCH  10  16
ATOM     16  N   UNL A   1      32.196  24.859  25.664  1.00  0.00    -0.379 N 
ATOM     17  H   UNL A   1      31.774  24.891  26.553  1.00  0.00     0.160 HD
BRANCH  16  18
ATOM     18  C   UNL A   1      32.212  26.036  24.772  1.00  0.00     0.089 C 
ATOM     19  C   UNL A   1      33.298  28.977  24.214  1.00  0.00     0.012 C 
ATOM     20  C   UNL A   1      31.931  28.638  24.844  1.00  0.00    -0.024 C 
ATOM     21  C   UNL A   1      31.581  29.774  25.830  1.00  0.00     0.012 C 
ATOM     22  C   UNL A   1      30.818  28.599  23.776  1.00  0.00     0.076 C 
ATOM     23  C   UNL A   1      32.005  27.301  25.633  1.00  0.00     0.033 C 
ATOM     24  S   UNL A   1      31.036  27.286  22.547  1.00  0.00    -0.159 SA
ATOM     25  C   UNL A   1      31.113  25.890  23.698  1.00  0.00     0.094 C 
ENDBRANCH  16  18
ENDBRANCH  10  16
ENDBRANCH   7   9
ENDBRANCH   6   7
ENDBRANCH   5   6
ENDBRANCH   4   5
ENDBRANCH   3   4
ENDBRANCH   2   3
ENDBRANCH   1   2
BRANCH   1  26
ATOM     26  O   UNL A   1      41.684  20.143  25.939  1.00  0.00    -0.376 OA
BRANCH  26  27
ATOM     27  C   UNL A   1      43.098  20.212  26.008  1.00  0.00     0.202 C 
BRANCH  27  28
ATOM     28  C   UNL A   1      43.966  21.266  25.293  1.00  0.00     0.261 C 
BRANCH  28  29
ATOM     29  O   UNL A   1      44.375  22.413  26.043  1.00  0.00    -0.460 OA
BRANCH  29  30
ATOM     30  C   UNL A   1      44.259  23.600  25.397  1.00  0.00     0.338 C 
ATOM     31  O   UNL A   1      44.558  23.841  24.238  1.00  0.00    -0.246 OA
BRANCH  30  32
ATOM     32  C   UNL A   1      43.535  24.550  26.259  1.00  0.00     0.060 A 
ATOM     33  C   UNL A   1      43.881  25.907  26.209  1.00  0.00     0.016 A 
ATOM     34  C   UNL A   1      42.553  24.099  27.141  1.00  0.00     0.016 A 
ATOM     35  C   UNL A   1      43.259  26.819  27.059  1.00  0.00     0.010 A 
ATOM     36  C   UNL A   1      41.945  25.012  28.009  1.00  0.00     0.010 A 
ATOM     37  C   UNL A   1      42.317  26.369  27.993  1.00  0.00    -0.014 A 
BRANCH  37  38
ATOM     38  C   UNL A   1      41.839  27.280  29.059  1.00  0.00     0.031 A 
ATOM     39  C   UNL A   1      42.630  27.376  30.334  1.00  0.00     0.074 A 
ATOM     40  C   UNL A   1      40.718  28.006  28.902  1.00  0.00     0.049 A 
ATOM     41  N   UNL A   1      42.371  28.056  31.420  1.00  0.00    -0.248 NA
ATOM     42  C   UNL A   1      43.880  26.598  30.396  1.00  0.00     0.031 C 
ATOM     43  C   UNL A   1      39.874  28.010  27.709  1.00  0.00     0.029 A 
ATOM     44  N   UNL A   1      40.083  28.861  29.770  1.00  0.00    -0.354 N 
ATOM     45  C   UNL A   1      43.404  27.768  32.302  1.00  0.00     0.074 A 
ATOM     46  C   UNL A   1      44.291  26.842  31.632  1.00  0.00     0.031 C 
ATOM     47  C   UNL A   1      38.815  28.807  27.929  1.00  0.00     0.029 A 
ATOM     48  C   UNL A   1      38.889  29.344  29.288  1.00  0.00     0.049 A 
ATOM     49  H   UNL A   1      40.448  29.105  30.651  1.00  0.00     0.167 HD
ATOM     50  C   UNL A   1      43.603  28.242  33.553  1.00  0.00     0.034 A 
ATOM     51  C   UNL A   1      37.951  30.107  29.885  1.00  0.00     0.034 A 
ATOM     52  C   UNL A   1      42.731  29.175  34.210  1.00  0.00     0.049 A 
ATOM     53  C   UNL A   1      38.174  30.591  31.296  1.00  0.00     0.074 A 
ATOM     54  C   UNL A   1      42.876  29.748  35.462  1.00  0.00     0.029 A 
ATOM     55  N   UNL A   1      41.546  29.662  33.682  1.00  0.00    -0.354 N 
ATOM     56  N   UNL A   1      39.204  30.390  32.082  1.00  0.00    -0.248 NA
ATOM     57  C   UNL A   1      37.121  31.428  31.892  1.00  0.00     0.031 C 
ATOM     58  C   UNL A   1      41.758  30.549  35.706  1.00  0.00     0.029 A 
ATOM     59  C   UNL A   1      40.941  30.515  34.588  1.00  0.00     0.049 A 
ATOM     60  H   UNL A   1      41.188  29.434  32.793  1.00  0.00     0.167 HD
ATOM     61  C   UNL A   1      38.941  31.102  33.248  1.00  0.00     0.074 A 
ATOM     62  C   UNL A   1      37.661  31.751  33.062  1.00  0.00     0.031 C 
ATOM     63  C   UNL A   1      39.690  31.200  34.374  1.00  0.00     0.034 A 
BRANCH  50  64
ATOM     64  C   UNL A   1      44.829  27.781  34.297  1.00  0.00     0.023 A 
ATOM     65  C   UNL A   1      46.000  28.563  34.268  1.00  0.00     0.012 A 
ATOM     66  C   UNL A   1      44.790  26.623  35.099  1.00  0.00     0.148 A 
ATOM     67  C   UNL A   1      47.122  28.191  35.008  1.00  0.00     0.002 A 
ATOM     68  C   UNL A   1      45.894  26.284  35.873  1.00  0.00     0.091 A 
ATOM     69  F   UNL A   1      43.674  25.881  35.096  1.00  0.00    -0.205 F 
ATOM     70  C   UNL A   1      47.063  27.061  35.820  1.00  0.00     0.022 A 
BRANCH  68  71
ATOM     71  S   UNL A   1      45.889  24.902  37.019  1.00  0.00     0.127 S 
ATOM     72  O   UNL A   1      47.255  24.944  37.539  1.00  0.00    -0.237 OA
ATOM     73  O   UNL A   1      44.859  25.304  37.977  1.00  0.00    -0.237 OA
ATOM     74  O   UNL A   1      45.561  23.724  36.229  1.00  0.00    -0.744 OA
ENDBRANCH  68  71
ENDBRANCH  50  64
BRANCH  51  75
ATOM     75  C   UNL A   1      36.724  30.490  29.129  1.00  0.00     0.023 A 
ATOM     76  C   UNL A   1      35.949  29.490  28.510  1.00  0.00     0.012 A 
ATOM     77  C   UNL A   1      36.296  31.830  29.065  1.00  0.00     0.148 A 
ATOM     78  C   UNL A   1      34.777  29.819  27.829  1.00  0.00     0.002 A 
ATOM     79  C   UNL A   1      35.099  32.144  28.434  1.00  0.00     0.091 A 
ATOM     80  F   UNL A   1      37.057  32.767  29.647  1.00  0.00    -0.205 F 
ATOM     81  C   UNL A   1      34.345  31.143  27.803  1.00  0.00     0.022 A 
BRANCH  79  82
ATOM     82  S   UNL A   1      34.395  33.797  28.461  1.00  0.00     0.127 S 
ATOM     83  O   UNL A   1      35.409  34.566  27.746  1.00  0.00    -0.237 OA
ATOM     84  O   UNL A   1      33.143  33.596  27.731  1.00  0.00    -0.237 OA
ATOM     85  O   UNL A   1      34.227  34.133  29.868  1.00  0.00    -0.744 OA
ENDBRANCH  79  82
ENDBRANCH  51  75
BRANCH  63  86
ATOM     86  C   UNL A   1      39.185  32.068  35.500  1.00  0.00     0.023 A 
ATOM     87  C   UNL A   1      38.311  31.530  36.465  1.00  0.00     0.012 A 
ATOM     88  C   UNL A   1      39.689  33.374  35.675  1.00  0.00     0.148 A 
ATOM     89  C   UNL A   1      37.931  32.284  37.575  1.00  0.00     0.002 A 
ATOM     90  C   UNL A   1      39.349  34.098  36.810  1.00  0.00     0.091 A 
ATOM     91  F   UNL A   1      40.511  33.871  34.739  1.00  0.00    -0.205 F 
ATOM     92  C   UNL A   1      38.461  33.561  37.756  1.00  0.00     0.022 A 
BRANCH  90  93
ATOM     93  S   UNL A   1      40.066  35.703  37.184  1.00  0.00     0.127 S 
ATOM     94  O   UNL A   1      39.442  36.015  38.470  1.00  0.00    -0.237 OA
ATOM     95  O   UNL A   1      41.494  35.394  37.259  1.00  0.00    -0.237 OA
ATOM     96  O   UNL A   1      39.690  36.581  36.085  1.00  0.00    -0.744 OA
ENDBRANCH  90  93
ENDBRANCH  63  86
ENDBRANCH  37  38
ENDBRANCH  30  32
ENDBRANCH  29  30
ENDBRANCH  28  29
ENDBRANCH  27  28
ENDBRANCH  26  27
ENDBRANCH   1  26
TORSDOF 22
ENDMDL
MODEL 2
REMARK VINA RESULT:     -10.2      3.221      9.400
REMARK SMILES CC1(C)CSC[C@H](Nc2cc(C(=O)OCCOCCOCCOC(=O)c3ccc(-c4c5nc(c(-c6cccc(S(=O)(=O)[O-])c6F)c6ccc([nH]6)c(-c6cccc(S(=O)(=O)[O-])c6F)c6nc(c(-c7cccc(S(=O)(=O)[O-])c7F)c7ccc4[nH]7)C=C6)C=C5)cc3)ccc2F)C1
REMARK SMILES IDX 19 1 18 2 17 3 16 4 15 5 14 6 12 7 13 8 11 9 9 10 10 11
REMARK SMILES IDX 91 12 90 13 92 14 89 15 8 16 7 18 1 19 2 20 3 21 4 22 93 23
REMARK SMILES IDX 5 24 6 25 20 26 21 27 22 28 23 29 24 30 25 31 26 32 27 33
REMARK SMILES IDX 88 34 28 35 87 36 29 37 30 38 31 39 81 40 32 41 86 42 80 43
REMARK SMILES IDX 82 44 33 45 85 46 79 47 78 48 34 50 66 51 46 52 65 53 47 54
REMARK SMILES IDX 50 55 64 56 83 57 48 58 49 59 63 61 84 62 51 63 35 64 36 65
REMARK SMILES IDX 44 66 37 67 39 68 45 69 38 70 40 71 41 72 42 73 43 74 67 75
REMARK SMILES IDX 68 76 76 77 69 78 71 79 77 80 70 81 72 82 73 83 74 84 75 85
REMARK SMILES IDX 52 86 53 87 61 88 54 89 56 90 62 91 55 92 57 93 58 94 59 95
REMARK SMILES IDX 60 96
REMARK H PARENT 8 17 82 49 50 60
REMARK Flexibility Score: inf
ROOT
ATOM      1  C   UNL A   1      34.795  32.573  29.006  1.00  0.00     0.188 C 
ENDROOT
BRANCH   1   2
ATOM      2  C   UNL A   1      35.554  31.750  27.946  1.00  0.00     0.188 C 
BRANCH   2   3
ATOM      3  O   UNL A   1      35.622  30.351  28.105  1.00  0.00    -0.376 OA
BRANCH   3   4
ATOM      4  C   UNL A   1      34.571  29.513  27.660  1.00  0.00     0.202 C 
BRANCH   4   5
ATOM      5  C   UNL A   1      33.728  29.734  26.390  1.00  0.00     0.261 C 
BRANCH   5   6
ATOM      6  O   UNL A   1      32.952  28.628  25.923  1.00  0.00    -0.460 OA
BRANCH   6   7
ATOM      7  C   UNL A   1      32.822  28.542  24.578  1.00  0.00     0.338 C 
ATOM      8  O   UNL A   1      33.368  29.241  23.737  1.00  0.00    -0.246 OA
BRANCH   7   9
ATOM      9  C   UNL A   1      32.056  27.331  24.229  1.00  0.00     0.062 A 
ATOM     10  C   UNL A   1      32.122  24.987  23.565  1.00  0.00     0.071 A 
ATOM     11  C   UNL A   1      32.780  26.166  23.935  1.00  0.00     0.044 A 
ATOM     12  C   UNL A   1      30.721  25.019  23.485  1.00  0.00     0.146 A 
ATOM     13  C   UNL A   1      29.993  26.163  23.819  1.00  0.00     0.042 A 
ATOM     14  F   UNL A   1      30.044  23.932  23.084  1.00  0.00    -0.205 F 
ATOM     15  C   UNL A   1      30.660  27.329  24.197  1.00  0.00     0.019 A 
BRANCH  10  16
ATOM     16  N   UNL A   1      32.887  23.897  23.133  1.00  0.00    -0.379 N 
ATOM     17  H   UNL A   1      33.258  23.856  22.221  1.00  0.00     0.160 HD
BRANCH  16  18
ATOM     18  C   UNL A   1      33.110  22.812  24.109  1.00  0.00     0.089 C 
ATOM     19  C   UNL A   1      34.731  21.758  26.640  1.00  0.00     0.012 C 
ATOM     20  C   UNL A   1      35.049  21.408  25.171  1.00  0.00    -0.024 C 
ATOM     21  C   UNL A   1      36.577  21.210  25.063  1.00  0.00     0.012 C 
ATOM     22  C   UNL A   1      34.384  20.079  24.756  1.00  0.00     0.076 C 
ATOM     23  C   UNL A   1      34.631  22.569  24.227  1.00  0.00     0.033 C 
ATOM     24  S   UNL A   1      32.573  20.136  24.778  1.00  0.00    -0.159 SA
ATOM     25  C   UNL A   1      32.364  21.540  23.654  1.00  0.00     0.094 C 
ENDBRANCH  16  18
ENDBRANCH  10  16
ENDBRANCH   7   9
ENDBRANCH   6   7
ENDBRANCH   5   6
ENDBRANCH   4   5
ENDBRANCH   3   4
ENDBRANCH   2   3
ENDBRANCH   1   2
BRANCH   1  26
ATOM     26  O   UNL A   1      34.555  33.947  28.794  1.00  0.00    -0.376 OA
BRANCH  26  27
ATOM     27  C   UNL A   1      33.242  34.465  28.925  1.00  0.00     0.202 C 
BRANCH  27  28
ATOM     28  C   UNL A   1      32.898  35.882  29.424  1.00  0.00     0.261 C 
BRANCH  28  29
ATOM     29  O   UNL A   1      33.421  36.288  30.691  1.00  0.00    -0.460 OA
BRANCH  29  30
ATOM     30  C   UNL A   1      32.982  35.573  31.757  1.00  0.00     0.338 C 
ATOM     31  O   UNL A   1      31.823  35.361  32.075  1.00  0.00    -0.246 OA
BRANCH  30  32
ATOM     32  C   UNL A   1      34.132  34.916  32.403  1.00  0.00     0.060 A 
ATOM     33  C   UNL A   1      35.421  35.400  32.141  1.00  0.00     0.016 A 
ATOM     34  C   UNL A   1      33.943  33.805  33.226  1.00  0.00     0.016 A 
ATOM     35  C   UNL A   1      36.533  34.759  32.686  1.00  0.00     0.010 A 
ATOM     36  C   UNL A   1      35.060  33.150  33.753  1.00  0.00     0.010 A 
ATOM     37  C   UNL A   1      36.359  33.606  33.461  1.00  0.00    -0.014 A 
BRANCH  37  38
ATOM     38  C   UNL A   1      37.533  32.782  33.833  1.00  0.00     0.031 A 
ATOM     39  C   UNL A   1      38.323  33.161  35.055  1.00  0.00     0.074 A 
ATOM     40  C   UNL A   1      37.897  31.717  33.096  1.00  0.00     0.049 A 
ATOM     41  N   UNL A   1      39.415  32.627  35.534  1.00  0.00    -0.248 NA
ATOM     42  C   UNL A   1      37.816  34.300  35.841  1.00  0.00     0.031 C 
ATOM     43  C   UNL A   1      37.205  31.241  31.901  1.00  0.00     0.029 A 
ATOM     44  N   UNL A   1      38.963  30.862  33.234  1.00  0.00    -0.354 N 
ATOM     45  C   UNL A   1      39.743  33.377  36.656  1.00  0.00     0.074 A 
ATOM     46  C   UNL A   1      38.741  34.413  36.783  1.00  0.00     0.031 C 
ATOM     47  C   UNL A   1      37.880  30.194  31.397  1.00  0.00     0.029 A 
ATOM     48  C   UNL A   1      39.067  29.946  32.214  1.00  0.00     0.049 A 
ATOM     49  H   UNL A   1      39.591  30.900  33.992  1.00  0.00     0.167 HD
ATOM     50  C   UNL A   1      40.778  33.210  37.511  1.00  0.00     0.034 A 
ATOM     51  C   UNL A   1      40.025  29.033  31.954  1.00  0.00     0.034 A 
ATOM     52  C   UNL A   1      41.762  32.169  37.392  1.00  0.00     0.049 A 
ATOM     53  C   UNL A   1      41.192  28.891  32.899  1.00  0.00     0.074 A 
ATOM     54  C   UNL A   1      42.821  31.893  38.238  1.00  0.00     0.029 A 
ATOM     55  N   UNL A   1      41.820  31.245  36.362  1.00  0.00    -0.354 N 
ATOM     56  N   UNL A   1      41.436  29.543  34.010  1.00  0.00    -0.248 NA
ATOM     57  C   UNL A   1      42.201  27.872  32.570  1.00  0.00     0.031 C 
ATOM     58  C   UNL A   1      43.543  30.827  37.697  1.00  0.00     0.029 A 
ATOM     59  C   UNL A   1      42.907  30.407  36.540  1.00  0.00     0.049 A 
ATOM     60  H   UNL A   1      41.182  31.192  35.613  1.00  0.00     0.167 HD
ATOM     61  C   UNL A   1      42.602  28.990  34.531  1.00  0.00     0.074 A 
ATOM     62  C   UNL A   1      43.010  27.942  33.620  1.00  0.00     0.031 C 
ATOM     63  C   UNL A   1      43.277  29.330  35.657  1.00  0.00     0.034 A 
BRANCH  50  64
ATOM     64  C   UNL A   1      40.895  34.160  38.674  1.00  0.00     0.023 A 
ATOM     65  C   UNL A   1      41.782  35.252  38.599  1.00  0.00     0.012 A 
ATOM     66  C   UNL A   1      40.059  34.024  39.799  1.00  0.00     0.148 A 
ATOM     67  C   UNL A   1      41.852  36.182  39.634  1.00  0.00     0.002 A 
ATOM     68  C   UNL A   1      40.099  34.982  40.806  1.00  0.00     0.091 A 
ATOM     69  F   UNL A   1      39.237  32.967  39.862  1.00  0.00    -0.205 F 
ATOM     70  C   UNL A   1      41.001  36.055  40.729  1.00  0.00     0.022 A 
BRANCH  68  71
ATOM     71  S   UNL A   1      38.982  34.959  42.212  1.00  0.00     0.127 S 
ATOM     72  O   UNL A   1      39.063  33.560  42.630  1.00  0.00    -0.237 OA
ATOM     73  O   UNL A   1      39.623  35.906  43.126  1.00  0.00    -0.237 OA
ATOM     74  O   UNL A   1      37.685  35.383  41.706  1.00  0.00    -0.744 OA
ENDBRANCH  68  71
ENDBRANCH  50  64
BRANCH  51  75
ATOM     75  C   UNL A   1      39.898  28.154  30.757  1.00  0.00     0.023 A 
ATOM     76  C   UNL A   1      39.008  27.062  30.788  1.00  0.00     0.012 A 
ATOM     77  C   UNL A   1      40.614  28.424  29.575  1.00  0.00     0.148 A 
ATOM     78  C   UNL A   1      38.844  26.247  29.668  1.00  0.00     0.002 A 
ATOM     79  C   UNL A   1      40.403  27.642  28.445  1.00  0.00     0.091 A 
ATOM     80  F   UNL A   1      41.466  29.458  29.572  1.00  0.00    -0.205 F 
ATOM     81  C   UNL A   1      39.530  26.545  28.494  1.00  0.00     0.022 A 
BRANCH  79  82
ATOM     82  S   UNL A   1      41.139  28.027  26.852  1.00  0.00     0.127 S 
ATOM     83  O   UNL A   1      42.548  28.182  27.202  1.00  0.00    -0.237 OA
ATOM     84  O   UNL A   1      40.823  26.823  26.083  1.00  0.00    -0.237 OA
ATOM     85  O   UNL A   1      40.471  29.234  26.387  1.00  0.00    -0.744 OA
ENDBRANCH  79  82
ENDBRANCH  51  75
BRANCH  63  86
ATOM     86  C   UNL A   1      44.517  28.548  36.015  1.00  0.00     0.023 A 
ATOM     87  C   UNL A   1      45.785  29.028  35.635  1.00  0.00     0.012 A 
ATOM     88  C   UNL A   1      44.427  27.412  36.847  1.00  0.00     0.148 A 
ATOM     89  C   UNL A   1      46.944  28.379  36.061  1.00  0.00     0.002 A 
ATOM     90  C   UNL A   1      45.586  26.804  37.311  1.00  0.00     0.091 A 
ATOM     91  F   UNL A   1      43.209  26.965  37.187  1.00  0.00    -0.205 F 
ATOM     92  C   UNL A   1      46.846  27.278  36.911  1.00  0.00     0.022 A 
BRANCH  90  93
ATOM     93  S   UNL A   1      45.562  25.451  38.494  1.00  0.00     0.127 S 
ATOM     94  O   UNL A   1      44.652  24.506  37.846  1.00  0.00    -0.237 OA
ATOM     95  O   UNL A   1      46.964  25.032  38.514  1.00  0.00    -0.237 OA
ATOM     96  O   UNL A   1      45.078  26.016  39.746  1.00  0.00    -0.744 OA
ENDBRANCH  90  93
ENDBRANCH  63  86
ENDBRANCH  37  38
ENDBRANCH  30  32
ENDBRANCH  29  30
ENDBRANCH  28  29
ENDBRANCH  27  28
ENDBRANCH  26  27
ENDBRANCH   1  26
TORSDOF 22
ENDMDL
MODEL 3
REMARK VINA RESULT:     -10.2      3.499      9.432
REMARK SMILES CC1(C)CSC[C@H](Nc2cc(C(=O)OCCOCCOCCOC(=O)c3ccc(-c4c5nc(c(-c6cccc(S(=O)(=O)[O-])c6F)c6ccc([nH]6)c(-c6cccc(S(=O)(=O)[O-])c6F)c6nc(c(-c7cccc(S(=O)(=O)[O-])c7F)c7ccc4[nH]7)C=C6)C=C5)cc3)ccc2F)C1
REMARK SMILES IDX 19 1 18 2 17 3 16 4 15 5 14 6 12 7 13 8 11 9 9 10 10 11
REMARK SMILES IDX 91 12 90 13 92 14 89 15 8 16 7 18 1 19 2 20 3 21 4 22 93 23
REMARK SMILES IDX 5 24 6 25 20 26 21 27 22 28 23 29 24 30 25 31 26 32 27 33
REMARK SMILES IDX 88 34 28 35 87 36 29 37 30 38 31 39 81 40 32 41 86 42 80 43
REMARK SMILES IDX 82 44 33 45 85 46 79 47 78 48 34 50 66 51 46 52 65 53 47 54
REMARK SMILES IDX 50 55 64 56 83 57 48 58 49 59 63 61 84 62 51 63 35 64 36 65
REMARK SMILES IDX 44 66 37 67 39 68 45 69 38 70 40 71 41 72 42 73 43 74 67 75
REMARK SMILES IDX 68 76 76 77 69 78 71 79 77 80 70 81 72 82 73 83 74 84 75 85
REMARK SMILES IDX 52 86 53 87 61 88 54 89 56 90 62 91 55 92 57 93 58 94 59 95
REMARK SMILES IDX 60 96
REMARK H PARENT 8 17 82 49 50 60
REMARK Flexibility Score: inf
ROOT
ATOM      1  C   UNL A   1      33.791  33.387  27.968  1.00  0.00     0.188 C 
ENDROOT
BRANCH   1   2
ATOM      2  C   UNL A   1      34.513  32.127  28.485  1.00  0.00     0.188 C 
BRANCH   2   3
ATOM      3  O   UNL A   1      35.303  31.389  27.581  1.00  0.00    -0.376 OA
BRANCH   3   4
ATOM      4  C   UNL A   1      35.419  29.982  27.693  1.00  0.00     0.202 C 
BRANCH   4   5
ATOM      5  C   UNL A   1      34.430  28.954  27.111  1.00  0.00     0.261 C 
BRANCH   5   6
ATOM      6  O   UNL A   1      33.067  29.051  27.533  1.00  0.00    -0.460 OA
BRANCH   6   7
ATOM      7  C   UNL A   1      32.214  29.559  26.612  1.00  0.00     0.338 C 
ATOM      8  O   UNL A   1      32.105  30.728  26.271  1.00  0.00    -0.246 OA
BRANCH   7   9
ATOM      9  C   UNL A   1      31.533  28.458  25.906  1.00  0.00     0.062 A 
ATOM     10  C   UNL A   1      30.890  26.107  25.919  1.00  0.00     0.071 A 
ATOM     11  C   UNL A   1      31.491  27.207  26.541  1.00  0.00     0.044 A 
ATOM     12  C   UNL A   1      30.348  26.297  24.637  1.00  0.00     0.146 A 
ATOM     13  C   UNL A   1      30.347  27.550  24.020  1.00  0.00     0.042 A 
ATOM     14  F   UNL A   1      29.807  25.264  23.974  1.00  0.00    -0.205 F 
ATOM     15  C   UNL A   1      30.940  28.642  24.655  1.00  0.00     0.019 A 
BRANCH  10  16
ATOM     16  N   UNL A   1      31.007  24.848  26.519  1.00  0.00    -0.379 N 
ATOM     17  H   UNL A   1      30.229  24.388  26.911  1.00  0.00     0.160 HD
BRANCH  16  18
ATOM     18  C   UNL A   1      32.354  24.241  26.536  1.00  0.00     0.089 C 
ATOM     19  C   UNL A   1      35.332  24.265  25.408  1.00  0.00     0.012 C 
ATOM     20  C   UNL A   1      34.196  23.351  24.902  1.00  0.00    -0.024 C 
ATOM     21  C   UNL A   1      34.439  23.102  23.397  1.00  0.00     0.012 C 
ATOM     22  C   UNL A   1      34.229  21.978  25.605  1.00  0.00     0.076 C 
ATOM     23  C   UNL A   1      32.816  24.042  25.075  1.00  0.00     0.033 C 
ATOM     24  S   UNL A   1      33.916  22.067  27.387  1.00  0.00    -0.159 SA
ATOM     25  C   UNL A   1      32.313  22.906  27.308  1.00  0.00     0.094 C 
ENDBRANCH  16  18
ENDBRANCH  10  16
ENDBRANCH   7   9
ENDBRANCH   6   7
ENDBRANCH   5   6
ENDBRANCH   4   5
ENDBRANCH   3   4
ENDBRANCH   2   3
ENDBRANCH   1   2
BRANCH   1  26
ATOM     26  O   UNL A   1      34.501  34.598  27.824  1.00  0.00    -0.376 OA
BRANCH  26  27
ATOM     27  C   UNL A   1      33.990  35.791  28.395  1.00  0.00     0.202 C 
BRANCH  27  28
ATOM     28  C   UNL A   1      32.928  35.851  29.510  1.00  0.00     0.261 C 
BRANCH  28  29
ATOM     29  O   UNL A   1      33.330  36.353  30.787  1.00  0.00    -0.460 OA
BRANCH  29  30
ATOM     30  C   UNL A   1      32.895  35.639  31.855  1.00  0.00     0.338 C 
ATOM     31  O   UNL A   1      31.736  35.424  32.176  1.00  0.00    -0.246 OA
BRANCH  30  32
ATOM     32  C   UNL A   1      34.047  34.985  32.500  1.00  0.00     0.060 A 
ATOM     33  C   UNL A   1      35.333  35.480  32.245  1.00  0.00     0.016 A 
ATOM     34  C   UNL A   1      33.863  33.868  33.315  1.00  0.00     0.016 A 
ATOM     35  C   UNL A   1      36.448  34.843  32.788  1.00  0.00     0.010 A 
ATOM     36  C   UNL A   1      34.983  33.217  33.841  1.00  0.00     0.010 A 
ATOM     37  C   UNL A   1      36.280  33.683  33.556  1.00  0.00    -0.014 A 
BRANCH  37  38
ATOM     38  C   UNL A   1      37.459  32.865  33.925  1.00  0.00     0.031 A 
ATOM     39  C   UNL A   1      38.246  33.245  35.149  1.00  0.00     0.074 A 
ATOM     40  C   UNL A   1      37.829  31.804  33.186  1.00  0.00     0.049 A 
ATOM     41  N   UNL A   1      39.341  32.715  35.626  1.00  0.00    -0.248 NA
ATOM     42  C   UNL A   1      37.732  34.378  35.938  1.00  0.00     0.031 C 
ATOM     43  C   UNL A   1      37.140  31.328  31.989  1.00  0.00     0.029 A 
ATOM     44  N   UNL A   1      38.899  30.955  33.321  1.00  0.00    -0.354 N 
ATOM     45  C   UNL A   1      39.664  33.464  36.750  1.00  0.00     0.074 A 
ATOM     46  C   UNL A   1      38.656  34.494  36.880  1.00  0.00     0.031 C 
ATOM     47  C   UNL A   1      37.820  30.286  31.482  1.00  0.00     0.029 A 
ATOM     48  C   UNL A   1      39.009  30.042  32.299  1.00  0.00     0.049 A 
ATOM     49  H   UNL A   1      39.527  30.994  34.079  1.00  0.00     0.167 HD
ATOM     50  C   UNL A   1      40.700  33.300  37.605  1.00  0.00     0.034 A 
ATOM     51  C   UNL A   1      39.972  29.136  32.036  1.00  0.00     0.034 A 
ATOM     52  C   UNL A   1      41.689  32.266  37.484  1.00  0.00     0.049 A 
ATOM     53  C   UNL A   1      41.140  28.998  32.981  1.00  0.00     0.074 A 
ATOM     54  C   UNL A   1      42.750  31.993  38.329  1.00  0.00     0.029 A 
ATOM     55  N   UNL A   1      41.753  31.345  36.451  1.00  0.00    -0.354 N 
ATOM     56  N   UNL A   1      41.379  29.647  34.094  1.00  0.00    -0.248 NA
ATOM     57  C   UNL A   1      42.154  27.985  32.649  1.00  0.00     0.031 C 
ATOM     58  C   UNL A   1      43.478  30.932  37.785  1.00  0.00     0.029 A 
ATOM     59  C   UNL A   1      42.845  30.512  36.627  1.00  0.00     0.049 A 
ATOM     60  H   UNL A   1      41.115  31.290  35.702  1.00  0.00     0.167 HD
ATOM     61  C   UNL A   1      42.549  29.100  34.613  1.00  0.00     0.074 A 
ATOM     62  C   UNL A   1      42.963  28.056  33.700  1.00  0.00     0.031 C 
ATOM     63  C   UNL A   1      43.221  29.440  35.740  1.00  0.00     0.034 A 
BRANCH  50  64
ATOM     64  C   UNL A   1      40.811  34.247  38.771  1.00  0.00     0.023 A 
ATOM     65  C   UNL A   1      41.724  35.319  38.716  1.00  0.00     0.012 A 
ATOM     66  C   UNL A   1      39.947  34.130  39.877  1.00  0.00     0.148 A 
ATOM     67  C   UNL A   1      41.791  36.248  39.754  1.00  0.00     0.002 A 
ATOM     68  C   UNL A   1      39.985  35.088  40.885  1.00  0.00     0.091 A 
ATOM     69  F   UNL A   1      39.101  33.091  39.920  1.00  0.00    -0.205 F 
ATOM     70  C   UNL A   1      40.913  36.139  40.829  1.00  0.00     0.022 A 
BRANCH  68  71
ATOM     71  S   UNL A   1      38.837  35.089  42.265  1.00  0.00     0.127 S 
ATOM     72  O   UNL A   1      39.057  33.760  42.833  1.00  0.00    -0.237 OA
ATOM     73  O   UNL A   1      39.344  36.192  43.082  1.00  0.00    -0.237 OA
ATOM     74  O   UNL A   1      37.516  35.310  41.693  1.00  0.00    -0.744 OA
ENDBRANCH  68  71
ENDBRANCH  50  64
BRANCH  51  75
ATOM     75  C   UNL A   1      39.850  28.259  30.837  1.00  0.00     0.023 A 
ATOM     76  C   UNL A   1      39.004  27.133  30.882  1.00  0.00     0.012 A 
ATOM     77  C   UNL A   1      40.525  28.564  29.639  1.00  0.00     0.148 A 
ATOM     78  C   UNL A   1      38.845  26.319  29.761  1.00  0.00     0.002 A 
ATOM     79  C   UNL A   1      40.317  27.782  28.509  1.00  0.00     0.091 A 
ATOM     80  F   UNL A   1      41.336  29.631  29.623  1.00  0.00    -0.205 F 
ATOM     81  C   UNL A   1      39.490  26.651  28.572  1.00  0.00     0.022 A 
BRANCH  79  82
ATOM     82  S   UNL A   1      40.998  28.204  26.901  1.00  0.00     0.127 S 
ATOM     83  O   UNL A   1      42.383  28.525  27.237  1.00  0.00    -0.237 OA
ATOM     84  O   UNL A   1      40.816  26.952  26.166  1.00  0.00    -0.237 OA
ATOM     85  O   UNL A   1      40.197  29.317  26.411  1.00  0.00    -0.744 OA
ENDBRANCH  79  82
ENDBRANCH  51  75
BRANCH  63  86
ATOM     86  C   UNL A   1      44.465  28.664  36.097  1.00  0.00     0.023 A 
ATOM     87  C   UNL A   1      44.366  27.500  36.883  1.00  0.00     0.012 A 
ATOM     88  C   UNL A   1      45.711  29.017  35.537  1.00  0.00     0.148 A 
ATOM     89  C   UNL A   1      45.491  26.709  37.121  1.00  0.00     0.002 A 
ATOM     90  C   UNL A   1      46.813  28.196  35.733  1.00  0.00     0.091 A 
ATOM     91  F   UNL A   1      45.785  30.136  34.801  1.00  0.00    -0.205 F 
ATOM     92  C   UNL A   1      46.709  27.047  36.534  1.00  0.00     0.022 A 
BRANCH  90  93
ATOM     93  S   UNL A   1      48.394  28.489  34.930  1.00  0.00     0.127 S 
ATOM     94  O   UNL A   1      48.844  29.712  35.596  1.00  0.00    -0.237 OA
ATOM     95  O   UNL A   1      49.150  27.288  35.286  1.00  0.00    -0.237 OA
ATOM     96  O   UNL A   1      48.107  28.629  33.509  1.00  0.00    -0.744 OA
ENDBRANCH  90  93
ENDBRANCH  63  86
ENDBRANCH  37  38
ENDBRANCH  30  32
ENDBRANCH  29  30
ENDBRANCH  28  29
ENDBRANCH  27  28
ENDBRANCH  26  27
ENDBRANCH   1  26
TORSDOF 22
ENDMDL
