MODEL 1
REMARK VINA RESULT:     -10.9      0.000      0.000
REMARK SMILES Cc1ccccc1OC1(C(=O)OCCOCCOCCOC(=O)c2ccc(-c3c4nc(c(-c5cccc(S(=O)(=O)[O-])c5F)c5ccc([nH]5)c(-c5cccc(S(=O)(=O)[O-])c5F)c5nc(c(-c6cccc(S(=O)(=O)[O-])c6F)c6ccc3[nH]6)C=C5)C=C4)cc2)CCN(C(=O)[C@H]2CCCCO2)CC1
REMARK SMILES IDX 17 1 16 2 15 3 14 4 13 5 12 6 10 7 11 8 9 9 87 10 99 11
REMARK SMILES IDX 88 12 98 13 89 14 90 15 91 16 8 17 7 18 1 19 2 20 3 21 4 22
REMARK SMILES IDX 6 23 5 24 92 25 93 26 97 27 94 28 96 29 95 30 18 31 19 32
REMARK SMILES IDX 20 33 21 34 22 35 23 36 24 37 25 38 86 39 26 40 85 41 27 42
REMARK SMILES IDX 28 43 29 44 79 45 30 46 84 47 78 48 80 49 31 50 83 51 77 52
REMARK SMILES IDX 76 53 32 55 64 56 44 57 63 58 45 59 48 60 62 61 81 62 46 63
REMARK SMILES IDX 47 64 61 66 82 67 49 68 33 69 34 70 42 71 35 72 37 73 43 74
REMARK SMILES IDX 36 75 38 76 39 77 40 78 41 79 65 80 66 81 74 82 67 83 69 84
REMARK SMILES IDX 75 85 68 86 70 87 71 88 72 89 73 90 50 91 51 92 59 93 52 94
REMARK SMILES IDX 54 95 60 96 53 97 55 98 56 99 57 100 58 101
REMARK H PARENT 80 54 48 65
REMARK Flexibility Score: inf
ROOT
ATOM      1  C   UNL A   1      36.301  32.024  28.357  1.00  0.00     0.188 C 
ENDROOT
BRANCH   1   2
ATOM      2  C   UNL A   1      35.754  33.422  28.486  1.00  0.00     0.188 C 
BRANCH   2   3
ATOM      3  O   UNL A   1      34.790  33.849  27.545  1.00  0.00    -0.376 OA
BRANCH   3   4
ATOM      4  C   UNL A   1      33.505  33.552  28.152  1.00  0.00     0.202 C 
BRANCH   4   5
ATOM      5  C   UNL A   1      32.736  32.451  27.286  1.00  0.00     0.261 C 
BRANCH   5   6
ATOM      6  O   UNL A   1      32.951  30.716  27.106  1.00  0.00    -0.460 OA
BRANCH   6   7
ATOM      7  C   UNL A   1      33.675  29.531  26.586  1.00  0.00     0.350 C 
ATOM      8  O   UNL A   1      34.875  29.265  26.704  1.00  0.00    -0.247 OA
BRANCH   7   9
ATOM      9  C   UNL A   1      32.913  28.579  25.655  1.00  0.00     0.209 C 
ATOM     10  C   UNL A   1      33.692  28.591  24.372  1.00  0.00     0.082 C 
ATOM     11  C   UNL A   1      32.800  27.334  26.536  1.00  0.00     0.082 C 
ATOM     12  C   UNL A   1      33.863  27.265  23.732  1.00  0.00     0.124 C 
ATOM     13  C   UNL A   1      33.408  26.087  25.974  1.00  0.00     0.124 C 
ATOM     14  N   UNL A   1      33.800  26.080  24.565  1.00  0.00    -0.340 N 
ATOM     15  C   UNL A   1      33.980  24.898  23.848  1.00  0.00     0.251 C 
ATOM     16  O   UNL A   1      34.345  24.926  22.668  1.00  0.00    -0.272 OA
BRANCH   9  17
ATOM     17  O   UNL A   1      31.604  29.203  25.484  1.00  0.00    -0.475 OA
BRANCH  17  18
ATOM     18  C   UNL A   1      30.617  29.105  24.541  1.00  0.00     0.123 A 
ATOM     19  C   UNL A   1      30.241  26.593  24.162  1.00  0.00     0.048 C 
ATOM     20  C   UNL A   1      30.068  28.026  23.842  1.00  0.00    -0.009 A 
ATOM     21  C   UNL A   1      29.251  28.243  22.697  1.00  0.00     0.007 A 
ATOM     22  C   UNL A   1      28.881  29.512  22.283  1.00  0.00     0.001 A 
ATOM     23  C   UNL A   1      30.164  30.367  24.133  1.00  0.00     0.047 A 
ATOM     24  C   UNL A   1      29.309  30.584  23.038  1.00  0.00     0.004 A 
ENDBRANCH  17  18
ENDBRANCH   9  17
BRANCH  15  25
ATOM     25  C   UNL A   1      33.559  23.595  24.532  1.00  0.00     0.207 C 
ATOM     26  C   UNL A   1      33.123  22.605  23.434  1.00  0.00     0.042 C 
ATOM     27  O   UNL A   1      34.698  23.096  25.234  1.00  0.00    -0.368 OA
ATOM     28  C   UNL A   1      32.952  21.196  23.971  1.00  0.00     0.006 C 
ATOM     29  C   UNL A   1      34.437  21.850  25.857  1.00  0.00     0.161 C 
ATOM     30  C   UNL A   1      34.171  20.803  24.788  1.00  0.00     0.029 C 
ENDBRANCH  15  25
ENDBRANCH   7   9
ENDBRANCH   6   7
ENDBRANCH   5   6
ENDBRANCH   4   5
ENDBRANCH   3   4
ENDBRANCH   2   3
ENDBRANCH   1   2
BRANCH   1  31
ATOM     31  O   UNL A   1      37.351  31.670  29.241  1.00  0.00    -0.376 OA
BRANCH  31  32
ATOM     32  C   UNL A   1      36.961  30.867  30.351  1.00  0.00     0.202 C 
BRANCH  32  33
ATOM     33  C   UNL A   1      36.889  29.315  30.135  1.00  0.00     0.261 C 
BRANCH  33  34
ATOM     34  O   UNL A   1      37.707  28.817  29.037  1.00  0.00    -0.460 OA
BRANCH  34  35
ATOM     35  C   UNL A   1      38.904  28.182  29.277  1.00  0.00     0.338 C 
ATOM     36  O   UNL A   1      39.021  27.049  29.705  1.00  0.00    -0.246 OA
BRANCH  35  37
ATOM     37  C   UNL A   1      40.010  29.033  28.760  1.00  0.00     0.060 A 
ATOM     38  C   UNL A   1      40.640  28.975  27.533  1.00  0.00     0.016 A 
ATOM     39  C   UNL A   1      40.519  29.973  29.583  1.00  0.00     0.016 A 
ATOM     40  C   UNL A   1      42.015  29.383  27.395  1.00  0.00     0.010 A 
ATOM     41  C   UNL A   1      41.883  30.263  29.445  1.00  0.00     0.010 A 
ATOM     42  C   UNL A   1      42.807  29.729  28.487  1.00  0.00    -0.014 A 
BRANCH  42  43
ATOM     43  C   UNL A   1      44.566  29.519  28.496  1.00  0.00     0.031 A 
ATOM     44  C   UNL A   1      45.972  30.541  27.975  1.00  0.00     0.074 A 
ATOM     45  C   UNL A   1      44.939  28.310  29.003  1.00  0.00     0.049 A 
ATOM     46  N   UNL A   1      47.138  30.069  27.584  1.00  0.00    -0.248 NA
ATOM     47  C   UNL A   1      46.139  32.075  27.753  1.00  0.00     0.031 C 
ATOM     48  C   UNL A   1      46.281  27.824  29.300  1.00  0.00     0.029 A 
ATOM     49  N   UNL A   1      44.157  27.171  29.240  1.00  0.00    -0.354 N 
ATOM     50  C   UNL A   1      48.014  31.154  27.296  1.00  0.00     0.074 A 
ATOM     51  C   UNL A   1      47.265  32.308  27.129  1.00  0.00     0.031 C 
ATOM     52  C   UNL A   1      46.252  26.477  29.313  1.00  0.00     0.029 A 
ATOM     53  C   UNL A   1      44.930  26.073  28.871  1.00  0.00     0.049 A 
ATOM     54  H   UNL A   1      43.239  27.152  29.597  1.00  0.00     0.167 HD
ATOM     55  C   UNL A   1      49.366  31.119  27.381  1.00  0.00     0.034 A 
ATOM     56  C   UNL A   1      44.631  25.309  27.774  1.00  0.00     0.034 A 
ATOM     57  C   UNL A   1      49.729  29.729  27.333  1.00  0.00     0.049 A 
ATOM     58  C   UNL A   1      45.771  25.365  26.737  1.00  0.00     0.074 A 
ATOM     59  C   UNL A   1      49.921  28.788  28.319  1.00  0.00     0.029 A 
ATOM     60  N   UNL A   1      49.387  29.046  26.175  1.00  0.00    -0.354 N 
ATOM     61  N   UNL A   1      46.833  26.132  26.816  1.00  0.00    -0.248 NA
ATOM     62  C   UNL A   1      45.790  24.551  25.525  1.00  0.00     0.031 C 
ATOM     63  C   UNL A   1      49.507  27.535  27.774  1.00  0.00     0.029 A 
ATOM     64  C   UNL A   1      49.148  27.709  26.444  1.00  0.00     0.049 A 
ATOM     65  H   UNL A   1      49.324  29.456  25.282  1.00  0.00     0.167 HD
ATOM     66  C   UNL A   1      47.579  26.036  25.663  1.00  0.00     0.074 A 
ATOM     67  C   UNL A   1      46.913  24.977  24.923  1.00  0.00     0.031 C 
ATOM     68  C   UNL A   1      48.648  26.851  25.367  1.00  0.00     0.034 A 
BRANCH  55  69
ATOM     69  C   UNL A   1      50.311  32.327  27.622  1.00  0.00     0.023 A 
ATOM     70  C   UNL A   1      50.862  32.414  28.915  1.00  0.00     0.012 A 
ATOM     71  C   UNL A   1      50.612  33.448  26.768  1.00  0.00     0.148 A 
ATOM     72  C   UNL A   1      51.627  33.513  29.347  1.00  0.00     0.002 A 
ATOM     73  C   UNL A   1      51.440  34.510  27.179  1.00  0.00     0.091 A 
ATOM     74  F   UNL A   1      50.025  33.585  25.576  1.00  0.00    -0.205 F 
ATOM     75  C   UNL A   1      51.930  34.554  28.480  1.00  0.00     0.022 A 
BRANCH  73  76
ATOM     76  S   UNL A   1      51.910  35.891  26.097  1.00  0.00     0.127 S 
ATOM     77  O   UNL A   1      52.603  35.208  25.005  1.00  0.00    -0.237 OA
ATOM     78  O   UNL A   1      50.613  36.460  25.727  1.00  0.00    -0.237 OA
ATOM     79  O   UNL A   1      52.743  36.774  26.904  1.00  0.00    -0.744 OA
ENDBRANCH  73  76
ENDBRANCH  55  69
BRANCH  56  80
ATOM     80  C   UNL A   1      43.150  25.137  27.466  1.00  0.00     0.023 A 
ATOM     81  C   UNL A   1      42.485  26.157  26.726  1.00  0.00     0.012 A 
ATOM     82  C   UNL A   1      42.462  23.927  27.623  1.00  0.00     0.148 A 
ATOM     83  C   UNL A   1      41.275  25.925  26.050  1.00  0.00     0.002 A 
ATOM     84  C   UNL A   1      41.269  23.689  26.925  1.00  0.00     0.091 A 
ATOM     85  F   UNL A   1      42.990  22.973  28.399  1.00  0.00    -0.205 F 
ATOM     86  C   UNL A   1      40.676  24.676  26.131  1.00  0.00     0.022 A 
BRANCH  84  87
ATOM     87  S   UNL A   1      40.664  22.002  26.756  1.00  0.00     0.127 S 
ATOM     88  O   UNL A   1      40.634  21.536  28.159  1.00  0.00    -0.237 OA
ATOM     89  O   UNL A   1      39.320  22.216  26.185  1.00  0.00    -0.237 OA
ATOM     90  O   UNL A   1      41.621  21.387  25.913  1.00  0.00    -0.744 OA
ENDBRANCH  84  87
ENDBRANCH  56  80
BRANCH  68  91
ATOM     91  C   UNL A   1      49.322  26.944  23.992  1.00  0.00     0.023 A 
ATOM     92  C   UNL A   1      48.626  27.335  22.832  1.00  0.00     0.012 A 
ATOM     93  C   UNL A   1      50.730  26.793  23.842  1.00  0.00     0.148 A 
ATOM     94  C   UNL A   1      49.254  27.451  21.585  1.00  0.00     0.002 A 
ATOM     95  C   UNL A   1      51.371  27.079  22.638  1.00  0.00     0.091 A 
ATOM     96  F   UNL A   1      51.478  26.352  24.863  1.00  0.00    -0.205 F 
ATOM     97  C   UNL A   1      50.633  27.348  21.490  1.00  0.00     0.022 A 
BRANCH  95  98
ATOM     98  S   UNL A   1      53.155  27.329  22.599  1.00  0.00     0.127 S 
ATOM     99  O   UNL A   1      53.603  26.251  21.723  1.00  0.00    -0.237 OA
ATOM    100  O   UNL A   1      53.280  28.672  22.027  1.00  0.00    -0.237 OA
ATOM    101  O   UNL A   1      53.559  27.244  23.998  1.00  0.00    -0.744 OA
ENDBRANCH  95  98
ENDBRANCH  68  91
ENDBRANCH  42  43
ENDBRANCH  35  37
ENDBRANCH  34  35
ENDBRANCH  33  34
ENDBRANCH  32  33
ENDBRANCH  31  32
ENDBRANCH   1  31
TORSDOF 23
ENDMDL
MODEL 2
REMARK VINA RESULT:     -10.5      5.592      8.609
REMARK SMILES Cc1ccccc1OC1(C(=O)OCCOCCOCCOC(=O)c2ccc(-c3c4nc(c(-c5cccc(S(=O)(=O)[O-])c5F)c5ccc([nH]5)c(-c5cccc(S(=O)(=O)[O-])c5F)c5nc(c(-c6cccc(S(=O)(=O)[O-])c6F)c6ccc3[nH]6)C=C5)C=C4)cc2)CCN(C(=O)[C@H]2CCCCO2)CC1
REMARK SMILES IDX 17 1 16 2 15 3 14 4 13 5 12 6 10 7 11 8 9 9 87 10 99 11
REMARK SMILES IDX 88 12 98 13 89 14 90 15 91 16 8 17 7 18 1 19 2 20 3 21 4 22
REMARK SMILES IDX 6 23 5 24 92 25 93 26 97 27 94 28 96 29 95 30 18 31 19 32
REMARK SMILES IDX 20 33 21 34 22 35 23 36 24 37 25 38 86 39 26 40 85 41 27 42
REMARK SMILES IDX 28 43 29 44 79 45 30 46 84 47 78 48 80 49 31 50 83 51 77 52
REMARK SMILES IDX 76 53 32 55 64 56 44 57 63 58 45 59 48 60 62 61 81 62 46 63
REMARK SMILES IDX 47 64 61 66 82 67 49 68 33 69 34 70 42 71 35 72 37 73 43 74
REMARK SMILES IDX 36 75 38 76 39 77 40 78 41 79 65 80 66 81 74 82 67 83 69 84
REMARK SMILES IDX 75 85 68 86 70 87 71 88 72 89 73 90 50 91 51 92 59 93 52 94
REMARK SMILES IDX 54 95 60 96 53 97 55 98 56 99 57 100 58 101
REMARK H PARENT 80 54 48 65
REMARK Flexibility Score: inf
ROOT
ATOM      1  C   UNL A   1      36.362  33.092  29.298  1.00  0.00     0.188 C 
ENDROOT
BRANCH   1   2
ATOM      2  C   UNL A   1      34.895  33.378  29.484  1.00  0.00     0.188 C 
BRANCH   2   3
ATOM      3  O   UNL A   1      34.016  33.063  28.425  1.00  0.00    -0.376 OA
BRANCH   3   4
ATOM      4  C   UNL A   1      34.531  31.831  27.853  1.00  0.00     0.202 C 
BRANCH   4   5
ATOM      5  C   UNL A   1      33.320  30.851  27.495  1.00  0.00     0.261 C 
BRANCH   5   6
ATOM      6  O   UNL A   1      33.156  29.539  26.337  1.00  0.00    -0.460 OA
BRANCH   6   7
ATOM      7  C   UNL A   1      33.305  28.121  25.933  1.00  0.00     0.350 C 
ATOM      8  O   UNL A   1      34.073  27.276  26.403  1.00  0.00    -0.247 OA
BRANCH   7   9
ATOM      9  C   UNL A   1      32.547  27.650  24.685  1.00  0.00     0.209 C 
ATOM     10  C   UNL A   1      31.558  26.642  25.193  1.00  0.00     0.082 C 
ATOM     11  C   UNL A   1      32.119  28.987  24.079  1.00  0.00     0.082 C 
ATOM     12  C   UNL A   1      30.205  26.736  24.596  1.00  0.00     0.124 C 
ATOM     13  C   UNL A   1      30.644  29.176  23.905  1.00  0.00     0.124 C 
ATOM     14  N   UNL A   1      29.772  28.011  24.056  1.00  0.00    -0.340 N 
ATOM     15  C   UNL A   1      28.484  27.972  23.528  1.00  0.00     0.251 C 
ATOM     16  O   UNL A   1      27.760  26.986  23.704  1.00  0.00    -0.272 OA
BRANCH   9  17
ATOM     17  O   UNL A   1      33.566  27.016  23.853  1.00  0.00    -0.475 OA
BRANCH  17  18
ATOM     18  C   UNL A   1      33.676  25.796  23.243  1.00  0.00     0.123 A 
ATOM     19  C   UNL A   1      32.114  25.875  21.207  1.00  0.00     0.048 C 
ATOM     20  C   UNL A   1      32.997  25.197  22.179  1.00  0.00    -0.009 A 
ATOM     21  C   UNL A   1      33.113  23.798  21.939  1.00  0.00     0.007 A 
ATOM     22  C   UNL A   1      33.968  22.992  22.671  1.00  0.00     0.001 A 
ATOM     23  C   UNL A   1      34.580  24.961  23.914  1.00  0.00     0.047 A 
ATOM     24  C   UNL A   1      34.742  23.592  23.643  1.00  0.00     0.004 A 
ENDBRANCH  17  18
ENDBRANCH   9  17
BRANCH  15  25
ATOM     25  C   UNL A   1      28.072  29.120  22.605  1.00  0.00     0.207 C 
ATOM     26  C   UNL A   1      27.694  30.325  23.489  1.00  0.00     0.042 C 
ATOM     27  O   UNL A   1      29.198  29.434  21.786  1.00  0.00    -0.368 OA
ATOM     28  C   UNL A   1      27.538  31.600  22.681  1.00  0.00     0.006 C 
ATOM     29  C   UNL A   1      28.946  30.534  20.929  1.00  0.00     0.161 C 
ATOM     30  C   UNL A   1      28.739  31.783  21.769  1.00  0.00     0.029 C 
ENDBRANCH  15  25
ENDBRANCH   7   9
ENDBRANCH   6   7
ENDBRANCH   5   6
ENDBRANCH   4   5
ENDBRANCH   3   4
ENDBRANCH   2   3
ENDBRANCH   1   2
BRANCH   1  31
ATOM     31  O   UNL A   1      36.977  32.270  30.275  1.00  0.00    -0.376 OA
BRANCH  31  32
ATOM     32  C   UNL A   1      36.092  31.727  31.251  1.00  0.00     0.202 C 
BRANCH  32  33
ATOM     33  C   UNL A   1      36.359  30.260  31.738  1.00  0.00     0.261 C 
BRANCH  33  34
ATOM     34  O   UNL A   1      37.751  29.840  31.661  1.00  0.00    -0.460 OA
BRANCH  34  35
ATOM     35  C   UNL A   1      38.274  28.950  32.571  1.00  0.00     0.338 C 
ATOM     36  O   UNL A   1      37.648  28.069  33.128  1.00  0.00    -0.246 OA
BRANCH  35  37
ATOM     37  C   UNL A   1      39.750  29.130  32.622  1.00  0.00     0.060 A 
ATOM     38  C   UNL A   1      40.539  29.480  33.700  1.00  0.00     0.016 A 
ATOM     39  C   UNL A   1      40.445  28.977  31.476  1.00  0.00     0.016 A 
ATOM     40  C   UNL A   1      41.771  30.200  33.505  1.00  0.00     0.010 A 
ATOM     41  C   UNL A   1      41.591  29.768  31.320  1.00  0.00     0.010 A 
ATOM     42  C   UNL A   1      42.167  30.684  32.260  1.00  0.00    -0.014 A 
BRANCH  42  43
ATOM     43  C   UNL A   1      43.192  32.117  32.074  1.00  0.00     0.031 A 
ATOM     44  C   UNL A   1      43.075  33.844  32.620  1.00  0.00     0.074 A 
ATOM     45  C   UNL A   1      44.317  31.857  31.351  1.00  0.00     0.049 A 
ATOM     46  N   UNL A   1      43.630  34.865  32.000  1.00  0.00    -0.248 NA
ATOM     47  C   UNL A   1      42.280  34.539  33.767  1.00  0.00     0.031 C 
ATOM     48  C   UNL A   1      45.459  32.728  31.102  1.00  0.00     0.029 A 
ATOM     49  N   UNL A   1      44.614  30.749  30.545  1.00  0.00    -0.354 N 
ATOM     50  C   UNL A   1      43.371  36.059  32.732  1.00  0.00     0.074 A 
ATOM     51  C   UNL A   1      42.317  35.836  33.603  1.00  0.00     0.031 C 
ATOM     52  C   UNL A   1      46.089  32.296  29.992  1.00  0.00     0.029 A 
ATOM     53  C   UNL A   1      45.274  31.239  29.421  1.00  0.00     0.049 A 
ATOM     54  H   UNL A   1      44.397  29.808  30.737  1.00  0.00     0.167 HD
ATOM     55  C   UNL A   1      44.155  37.164  32.738  1.00  0.00     0.034 A 
ATOM     56  C   UNL A   1      44.700  31.229  28.178  1.00  0.00     0.034 A 
ATOM     57  C   UNL A   1      44.967  37.080  31.555  1.00  0.00     0.049 A 
ATOM     58  C   UNL A   1      44.533  32.663  27.636  1.00  0.00     0.074 A 
ATOM     59  C   UNL A   1      46.211  36.540  31.323  1.00  0.00     0.029 A 
ATOM     60  N   UNL A   1      44.288  37.083  30.345  1.00  0.00    -0.354 N 
ATOM     61  N   UNL A   1      44.783  33.762  28.307  1.00  0.00    -0.248 NA
ATOM     62  C   UNL A   1      44.068  32.957  26.284  1.00  0.00     0.031 C 
ATOM     63  C   UNL A   1      46.199  36.047  29.983  1.00  0.00     0.029 A 
ATOM     64  C   UNL A   1      44.986  36.366  29.388  1.00  0.00     0.049 A 
ATOM     65  H   UNL A   1      43.428  37.536  30.188  1.00  0.00     0.167 HD
ATOM     66  C   UNL A   1      44.400  34.865  27.578  1.00  0.00     0.074 A 
ATOM     67  C   UNL A   1      44.026  34.300  26.291  1.00  0.00     0.031 C 
ATOM     68  C   UNL A   1      44.364  36.146  28.080  1.00  0.00     0.034 A 
BRANCH  55  69
ATOM     69  C   UNL A   1      44.250  38.226  33.866  1.00  0.00     0.023 A 
ATOM     70  C   UNL A   1      44.663  37.739  35.121  1.00  0.00     0.012 A 
ATOM     71  C   UNL A   1      43.857  39.613  33.865  1.00  0.00     0.148 A 
ATOM     72  C   UNL A   1      44.673  38.532  36.284  1.00  0.00     0.002 A 
ATOM     73  C   UNL A   1      43.939  40.424  35.013  1.00  0.00     0.091 A 
ATOM     74  F   UNL A   1      43.287  40.167  32.792  1.00  0.00    -0.205 F 
ATOM     75  C   UNL A   1      44.326  39.875  36.232  1.00  0.00     0.022 A 
BRANCH  73  76
ATOM     76  S   UNL A   1      43.535  42.194  35.021  1.00  0.00     0.127 S 
ATOM     77  O   UNL A   1      44.509  42.738  34.076  1.00  0.00    -0.237 OA
ATOM     78  O   UNL A   1      42.153  42.207  34.539  1.00  0.00    -0.237 OA
ATOM     79  O   UNL A   1      43.693  42.640  36.400  1.00  0.00    -0.744 OA
ENDBRANCH  73  76
ENDBRANCH  55  69
BRANCH  56  80
ATOM     80  C   UNL A   1      43.788  30.047  27.876  1.00  0.00     0.023 A 
ATOM     81  C   UNL A   1      42.379  30.258  27.869  1.00  0.00     0.012 A 
ATOM     82  C   UNL A   1      44.243  28.835  27.340  1.00  0.00     0.148 A 
ATOM     83  C   UNL A   1      41.492  29.382  27.222  1.00  0.00     0.002 A 
ATOM     84  C   UNL A   1      43.360  27.975  26.671  1.00  0.00     0.091 A 
ATOM     85  F   UNL A   1      45.545  28.536  27.418  1.00  0.00    -0.205 F 
ATOM     86  C   UNL A   1      41.989  28.246  26.598  1.00  0.00     0.022 A 
BRANCH  84  87
ATOM     87  S   UNL A   1      44.020  26.694  25.593  1.00  0.00     0.127 S 
ATOM     88  O   UNL A   1      42.802  26.176  24.934  1.00  0.00    -0.237 OA
ATOM     89  O   UNL A   1      44.885  27.474  24.687  1.00  0.00    -0.237 OA
ATOM     90  O   UNL A   1      44.672  25.810  26.486  1.00  0.00    -0.744 OA
ENDBRANCH  84  87
ENDBRANCH  56  80
BRANCH  68  91
ATOM     91  C   UNL A   1      43.696  37.339  27.383  1.00  0.00     0.023 A 
ATOM     92  C   UNL A   1      42.305  37.548  27.407  1.00  0.00     0.012 A 
ATOM     93  C   UNL A   1      44.466  38.390  26.807  1.00  0.00     0.148 A 
ATOM     94  C   UNL A   1      41.703  38.659  26.799  1.00  0.00     0.002 A 
ATOM     95  C   UNL A   1      43.873  39.569  26.360  1.00  0.00     0.091 A 
ATOM     96  F   UNL A   1      45.793  38.261  26.666  1.00  0.00    -0.205 F 
ATOM     97  C   UNL A   1      42.488  39.684  26.296  1.00  0.00     0.022 A 
BRANCH  95  98
ATOM     98  S   UNL A   1      44.877  41.037  26.075  1.00  0.00     0.127 S 
ATOM     99  O   UNL A   1      43.887  42.016  25.637  1.00  0.00    -0.237 OA
ATOM    100  O   UNL A   1      45.451  41.298  27.397  1.00  0.00    -0.237 OA
ATOM    101  O   UNL A   1      45.858  40.612  25.081  1.00  0.00    -0.744 OA
ENDBRANCH  95  98
ENDBRANCH  68  91
ENDBRANCH  42  43
ENDBRANCH  35  37
ENDBRANCH  34  35
ENDBRANCH  33  34
ENDBRANCH  32  33
ENDBRANCH  31  32
ENDBRANCH   1  31
TORSDOF 23
ENDMDL
MODEL 3
REMARK VINA RESULT:     -10.4      4.160      9.264
REMARK SMILES Cc1ccccc1OC1(C(=O)OCCOCCOCCOC(=O)c2ccc(-c3c4nc(c(-c5cccc(S(=O)(=O)[O-])c5F)c5ccc([nH]5)c(-c5cccc(S(=O)(=O)[O-])c5F)c5nc(c(-c6cccc(S(=O)(=O)[O-])c6F)c6ccc3[nH]6)C=C5)C=C4)cc2)CCN(C(=O)[C@H]2CCCCO2)CC1
REMARK SMILES IDX 17 1 16 2 15 3 14 4 13 5 12 6 10 7 11 8 9 9 87 10 99 11
REMARK SMILES IDX 88 12 98 13 89 14 90 15 91 16 8 17 7 18 1 19 2 20 3 21 4 22
REMARK SMILES IDX 6 23 5 24 92 25 93 26 97 27 94 28 96 29 95 30 18 31 19 32
REMARK SMILES IDX 20 33 21 34 22 35 23 36 24 37 25 38 86 39 26 40 85 41 27 42
REMARK SMILES IDX 28 43 29 44 79 45 30 46 84 47 78 48 80 49 31 50 83 51 77 52
REMARK SMILES IDX 76 53 32 55 64 56 44 57 63 58 45 59 48 60 62 61 81 62 46 63
REMARK SMILES IDX 47 64 61 66 82 67 49 68 33 69 34 70 42 71 35 72 37 73 43 74
REMARK SMILES IDX 36 75 38 76 39 77 40 78 41 79 65 80 66 81 74 82 67 83 69 84
REMARK SMILES IDX 75 85 68 86 70 87 71 88 72 89 73 90 50 91 51 92 59 93 52 94
REMARK SMILES IDX 54 95 60 96 53 97 55 98 56 99 57 100 58 101
REMARK H PARENT 80 54 48 65
REMARK Flexibility Score: inf
ROOT
ATOM      1  C   UNL A   1      41.229  26.391  26.252  1.00  0.00     0.188 C 
ENDROOT
BRANCH   1   2
ATOM      2  C   UNL A   1      40.171  25.327  26.388  1.00  0.00     0.188 C 
BRANCH   2   3
ATOM      3  O   UNL A   1      40.550  24.075  26.921  1.00  0.00    -0.376 OA
BRANCH   3   4
ATOM      4  C   UNL A   1      39.357  23.252  26.851  1.00  0.00     0.202 C 
BRANCH   4   5
ATOM      5  C   UNL A   1      38.163  24.080  26.185  1.00  0.00     0.261 C 
BRANCH   5   6
ATOM      6  O   UNL A   1      36.559  23.620  25.634  1.00  0.00    -0.460 OA
BRANCH   6   7
ATOM      7  C   UNL A   1      35.312  23.871  24.873  1.00  0.00     0.350 C 
ATOM      8  O   UNL A   1      35.073  24.799  24.095  1.00  0.00    -0.247 OA
BRANCH   7   9
ATOM      9  C   UNL A   1      34.097  22.985  25.179  1.00  0.00     0.209 C 
ATOM     10  C   UNL A   1      33.440  22.761  23.848  1.00  0.00     0.082 C 
ATOM     11  C   UNL A   1      34.753  21.852  25.971  1.00  0.00     0.082 C 
ATOM     12  C   UNL A   1      32.968  21.377  23.608  1.00  0.00     0.124 C 
ATOM     13  C   UNL A   1      34.583  20.480  25.398  1.00  0.00     0.124 C 
ATOM     14  N   UNL A   1      33.610  20.291  24.323  1.00  0.00    -0.340 N 
ATOM     15  C   UNL A   1      33.081  19.041  24.008  1.00  0.00     0.251 C 
ATOM     16  O   UNL A   1      32.287  18.910  23.070  1.00  0.00    -0.272 OA
BRANCH   9  17
ATOM     17  O   UNL A   1      33.258  23.800  26.052  1.00  0.00    -0.475 OA
BRANCH  17  18
ATOM     18  C   UNL A   1      31.915  24.058  26.115  1.00  0.00     0.123 A 
ATOM     19  C   UNL A   1      31.603  26.433  25.191  1.00  0.00     0.048 C 
ATOM     20  C   UNL A   1      31.152  25.203  25.876  1.00  0.00    -0.009 A 
ATOM     21  C   UNL A   1      29.796  25.274  26.303  1.00  0.00     0.007 A 
ATOM     22  C   UNL A   1      29.146  24.194  26.877  1.00  0.00     0.001 A 
ATOM     23  C   UNL A   1      31.203  22.968  26.633  1.00  0.00     0.047 A 
ATOM     24  C   UNL A   1      29.847  23.014  27.004  1.00  0.00     0.004 A 
ENDBRANCH  17  18
ENDBRANCH   9  17
BRANCH  15  25
ATOM     25  C   UNL A   1      33.403  17.887  24.960  1.00  0.00     0.207 C 
ATOM     26  C   UNL A   1      32.150  16.993  25.059  1.00  0.00     0.042 C 
ATOM     27  O   UNL A   1      34.493  17.159  24.394  1.00  0.00    -0.368 OA
ATOM     28  C   UNL A   1      32.442  15.675  25.752  1.00  0.00     0.006 C 
ATOM     29  C   UNL A   1      34.836  16.023  25.168  1.00  0.00     0.161 C 
ATOM     30  C   UNL A   1      33.680  15.036  25.144  1.00  0.00     0.029 C 
ENDBRANCH  15  25
ENDBRANCH   7   9
ENDBRANCH   6   7
ENDBRANCH   5   6
ENDBRANCH   4   5
ENDBRANCH   3   4
ENDBRANCH   2   3
ENDBRANCH   1   2
BRANCH   1  31
ATOM     31  O   UNL A   1      41.982  26.386  25.050  1.00  0.00    -0.376 OA
BRANCH  31  32
ATOM     32  C   UNL A   1      43.272  25.790  25.149  1.00  0.00     0.202 C 
BRANCH  32  33
ATOM     33  C   UNL A   1      43.382  24.247  24.887  1.00  0.00     0.261 C 
BRANCH  33  34
ATOM     34  O   UNL A   1      44.642  23.649  25.307  1.00  0.00    -0.460 OA
BRANCH  34  35
ATOM     35  C   UNL A   1      44.663  22.559  26.146  1.00  0.00     0.338 C 
ATOM     36  O   UNL A   1      44.814  21.405  25.792  1.00  0.00    -0.246 OA
BRANCH  35  37
ATOM     37  C   UNL A   1      44.653  23.039  27.555  1.00  0.00     0.060 A 
ATOM     38  C   UNL A   1      43.655  22.911  28.501  1.00  0.00     0.016 A 
ATOM     39  C   UNL A   1      45.725  23.729  27.994  1.00  0.00     0.016 A 
ATOM     40  C   UNL A   1      43.500  23.896  29.540  1.00  0.00     0.010 A 
ATOM     41  C   UNL A   1      45.488  24.727  28.949  1.00  0.00     0.010 A 
ATOM     42  C   UNL A   1      44.247  25.072  29.576  1.00  0.00    -0.014 A 
BRANCH  42  43
ATOM     43  C   UNL A   1      43.642  26.565  30.313  1.00  0.00     0.031 A 
ATOM     44  C   UNL A   1      42.204  27.634  30.025  1.00  0.00     0.074 A 
ATOM     45  C   UNL A   1      44.449  27.008  31.319  1.00  0.00     0.049 A 
ATOM     46  N   UNL A   1      42.163  28.924  30.293  1.00  0.00    -0.248 NA
ATOM     47  C   UNL A   1      40.822  27.388  29.348  1.00  0.00     0.031 C 
ATOM     48  C   UNL A   1      44.222  28.110  32.245  1.00  0.00     0.029 A 
ATOM     49  N   UNL A   1      45.758  26.622  31.637  1.00  0.00    -0.354 N 
ATOM     50  C   UNL A   1      40.868  29.429  29.984  1.00  0.00     0.074 A 
ATOM     51  C   UNL A   1      40.220  28.532  29.150  1.00  0.00     0.031 C 
ATOM     52  C   UNL A   1      45.415  28.511  32.728  1.00  0.00     0.029 A 
ATOM     53  C   UNL A   1      46.438  27.781  32.002  1.00  0.00     0.049 A 
ATOM     54  H   UNL A   1      46.124  25.709  31.609  1.00  0.00     0.167 HD
ATOM     55  C   UNL A   1      40.279  30.498  30.572  1.00  0.00     0.034 A 
ATOM     56  C   UNL A   1      47.430  28.317  31.224  1.00  0.00     0.034 A 
ATOM     57  C   UNL A   1      41.344  31.261  31.163  1.00  0.00     0.049 A 
ATOM     58  C   UNL A   1      47.048  29.730  30.739  1.00  0.00     0.074 A 
ATOM     59  C   UNL A   1      41.913  31.238  32.416  1.00  0.00     0.029 A 
ATOM     60  N   UNL A   1      42.294  31.765  30.288  1.00  0.00    -0.354 N 
ATOM     61  N   UNL A   1      45.886  30.309  30.928  1.00  0.00    -0.248 NA
ATOM     62  C   UNL A   1      47.962  30.596  30.000  1.00  0.00     0.031 C 
ATOM     63  C   UNL A   1      43.293  31.568  32.242  1.00  0.00     0.029 A 
ATOM     64  C   UNL A   1      43.528  31.868  30.908  1.00  0.00     0.049 A 
ATOM     65  H   UNL A   1      42.116  32.017  29.353  1.00  0.00     0.167 HD
ATOM     66  C   UNL A   1      45.833  31.508  30.252  1.00  0.00     0.074 A 
ATOM     67  C   UNL A   1      47.188  31.665  29.749  1.00  0.00     0.031 C 
ATOM     68  C   UNL A   1      44.690  32.259  30.105  1.00  0.00     0.034 A 
BRANCH  55  69
ATOM     69  C   UNL A   1      38.754  30.763  30.698  1.00  0.00     0.023 A 
ATOM     70  C   UNL A   1      38.051  29.861  31.520  1.00  0.00     0.012 A 
ATOM     71  C   UNL A   1      37.921  31.710  30.002  1.00  0.00     0.148 A 
ATOM     72  C   UNL A   1      36.648  29.869  31.637  1.00  0.00     0.002 A 
ATOM     73  C   UNL A   1      36.525  31.764  30.180  1.00  0.00     0.091 A 
ATOM     74  F   UNL A   1      38.427  32.515  29.064  1.00  0.00    -0.205 F 
ATOM     75  C   UNL A   1      35.885  30.825  30.983  1.00  0.00     0.022 A 
BRANCH  73  76
ATOM     76  S   UNL A   1      35.461  33.003  29.387  1.00  0.00     0.127 S 
ATOM     77  O   UNL A   1      34.135  32.637  29.885  1.00  0.00    -0.237 OA
ATOM     78  O   UNL A   1      35.982  34.261  29.923  1.00  0.00    -0.237 OA
ATOM     79  O   UNL A   1      35.650  32.840  27.950  1.00  0.00    -0.744 OA
ENDBRANCH  73  76
ENDBRANCH  55  69
BRANCH  56  80
ATOM     80  C   UNL A   1      48.298  27.318  30.471  1.00  0.00     0.023 A 
ATOM     81  C   UNL A   1      47.940  26.976  29.134  1.00  0.00     0.012 A 
ATOM     82  C   UNL A   1      49.570  26.918  30.900  1.00  0.00     0.148 A 
ATOM     83  C   UNL A   1      48.858  26.411  28.233  1.00  0.00     0.002 A 
ATOM     84  C   UNL A   1      50.493  26.380  29.991  1.00  0.00     0.091 A 
ATOM     85  F   UNL A   1      49.918  27.116  32.177  1.00  0.00    -0.205 F 
ATOM     86  C   UNL A   1      50.149  26.134  28.658  1.00  0.00     0.022 A 
BRANCH  84  87
ATOM     87  S   UNL A   1      52.237  26.324  30.432  1.00  0.00     0.127 S 
ATOM     88  O   UNL A   1      52.283  25.207  31.399  1.00  0.00    -0.237 OA
ATOM     89  O   UNL A   1      52.868  25.999  29.138  1.00  0.00    -0.237 OA
ATOM     90  O   UNL A   1      52.492  27.615  30.954  1.00  0.00    -0.744 OA
ENDBRANCH  84  87
ENDBRANCH  56  80
BRANCH  68  91
ATOM     91  C   UNL A   1      44.543  33.447  29.145  1.00  0.00     0.023 A 
ATOM     92  C   UNL A   1      44.853  34.767  29.520  1.00  0.00     0.012 A 
ATOM     93  C   UNL A   1      44.233  33.256  27.768  1.00  0.00     0.148 A 
ATOM     94  C   UNL A   1      44.749  35.844  28.629  1.00  0.00     0.002 A 
ATOM     95  C   UNL A   1      44.302  34.304  26.852  1.00  0.00     0.091 A 
ATOM     96  F   UNL A   1      43.850  32.052  27.318  1.00  0.00    -0.205 F 
ATOM     97  C   UNL A   1      44.498  35.611  27.286  1.00  0.00     0.022 A 
BRANCH  95  98
ATOM     98  S   UNL A   1      44.364  33.960  25.085  1.00  0.00     0.127 S 
ATOM     99  O   UNL A   1      44.588  32.518  25.052  1.00  0.00    -0.237 OA
ATOM    100  O   UNL A   1      43.038  34.382  24.627  1.00  0.00    -0.237 OA
ATOM    101  O   UNL A   1      45.452  34.801  24.595  1.00  0.00    -0.744 OA
ENDBRANCH  95  98
ENDBRANCH  68  91
ENDBRANCH  42  43
ENDBRANCH  35  37
ENDBRANCH  34  35
ENDBRANCH  33  34
ENDBRANCH  32  33
ENDBRANCH  31  32
ENDBRANCH   1  31
TORSDOF 23
ENDMDL
