MODEL 1
REMARK VINA RESULT:     -10.2      0.000      0.000
REMARK SMILES COc1c[nH]c(C[N@H+]2CCC[C@@H](c3ccc(C(=O)OCCOCCOCCOC(=O)c4ccc(-c5c6nc(c(-c7cccc(S(=O)(=O)[O-])c7F)c7ccc([nH]7)c(-c7cccc(S(=O)(=O)[O-])c7F)c7nc(c(-c8cccc(S(=O)(=O)[O-])c8F)c8ccc5[nH]8)C=C7)C=C6)cc4)cc3)C2)cc1=O
REMARK SMILES IDX 23 1 22 2 21 3 20 4 19 5 17 6 18 7 16 8 13 9 14 10 95 11
REMARK SMILES IDX 15 12 94 13 12 14 8 15 9 16 96 17 10 19 11 20 7 21 6 22 3 23
REMARK SMILES IDX 4 24 98 25 5 26 97 27 99 28 2 30 1 31 24 32 25 33 26 34
REMARK SMILES IDX 27 35 28 36 29 37 30 38 31 39 32 40 93 41 33 42 92 43 34 44
REMARK SMILES IDX 35 45 36 46 86 47 37 48 91 49 85 50 87 51 38 52 90 53 84 54
REMARK SMILES IDX 83 55 39 57 71 58 51 59 70 60 52 61 55 62 69 63 88 64 53 65
REMARK SMILES IDX 54 66 68 68 89 69 56 70 40 71 41 72 49 73 42 74 44 75 50 76
REMARK SMILES IDX 43 77 45 78 46 79 47 80 48 81 72 82 73 83 81 84 74 85 76 86
REMARK SMILES IDX 82 87 75 88 77 89 78 90 79 91 80 92 57 93 58 94 66 95 59 96
REMARK SMILES IDX 61 97 67 98 60 99 62 100 63 101 64 102 65 103
REMARK H PARENT 8 18 5 29 87 56 55 67
REMARK Flexibility Score: inf
ROOT
ATOM      1  C   UNL A   1      31.364  29.747  24.868  1.00  0.00     0.188 C 
ENDROOT
BRANCH   1   2
ATOM      2  O   UNL A   1      30.948  28.688  24.040  1.00  0.00    -0.376 OA
BRANCH   2   3
ATOM      3  C   UNL A   1      31.693  28.321  22.893  1.00  0.00     0.202 C 
BRANCH   3   4
ATOM      4  C   UNL A   1      33.040  27.572  22.882  1.00  0.00     0.261 C 
BRANCH   4   5
ATOM      5  O   UNL A   1      33.059  26.234  23.381  1.00  0.00    -0.460 OA
BRANCH   5   6
ATOM      6  C   UNL A   1      33.609  26.084  24.608  1.00  0.00     0.338 C 
ATOM      7  O   UNL A   1      33.351  26.727  25.618  1.00  0.00    -0.246 OA
BRANCH   6   8
ATOM      8  C   UNL A   1      34.473  24.891  24.626  1.00  0.00     0.060 A 
ATOM      9  C   UNL A   1      36.286  22.758  24.708  1.00  0.00    -0.039 A 
ATOM     10  C   UNL A   1      36.003  23.500  25.869  1.00  0.00     0.005 A 
ATOM     11  C   UNL A   1      35.563  23.032  23.536  1.00  0.00     0.005 A 
ATOM     12  C   UNL A   1      35.127  24.580  25.821  1.00  0.00     0.016 A 
ATOM     13  C   UNL A   1      34.649  24.090  23.495  1.00  0.00     0.016 A 
BRANCH   9  14
ATOM     14  C   UNL A   1      37.495  21.827  24.659  1.00  0.00     0.074 C 
ATOM     15  N   UNL A   1      39.690  21.484  25.887  1.00  0.00    -0.329 N 
ATOM     16  C   UNL A   1      39.357  20.068  26.099  1.00  0.00     0.262 C 
ATOM     17  C   UNL A   1      38.479  22.296  25.755  1.00  0.00     0.270 C 
ATOM     18  H   UNL A   1      40.201  21.545  25.007  1.00  0.00     0.348 HD
ATOM     19  C   UNL A   1      38.458  19.530  24.978  1.00  0.00     0.062 C 
ATOM     20  C   UNL A   1      37.166  20.341  24.847  1.00  0.00     0.020 C 
BRANCH  15  21
ATOM     21  C   UNL A   1      40.598  22.011  26.932  1.00  0.00     0.317 C 
BRANCH  21  22
ATOM     22  C   UNL A   1      42.026  22.364  26.515  1.00  0.00     0.074 A 
ATOM     23  C   UNL A   1      44.560  23.226  25.504  1.00  0.00     0.182 A 
ATOM     24  C   UNL A   1      43.554  22.836  24.710  1.00  0.00     0.133 A 
ATOM     25  C   UNL A   1      44.325  23.089  26.985  1.00  0.00     0.223 A 
ATOM     26  N   UNL A   1      42.363  22.344  25.172  1.00  0.00    -0.357 N 
ATOM     27  C   UNL A   1      42.957  22.691  27.432  1.00  0.00     0.083 A 
ATOM     28  O   UNL A   1      45.192  23.295  27.829  1.00  0.00    -0.286 OA
ATOM     29  H   UNL A   1      41.724  21.963  24.528  1.00  0.00     0.166 HD
BRANCH  23  30
ATOM     30  O   UNL A   1      45.700  23.791  24.972  1.00  0.00    -0.491 OA
ATOM     31  C   UNL A   1      46.507  22.855  24.267  1.00  0.00     0.278 C 
ENDBRANCH  23  30
ENDBRANCH  21  22
ENDBRANCH  15  21
ENDBRANCH   9  14
ENDBRANCH   6   8
ENDBRANCH   5   6
ENDBRANCH   4   5
ENDBRANCH   3   4
ENDBRANCH   2   3
ENDBRANCH   1   2
BRANCH   1  32
ATOM     32  C   UNL A   1      31.698  29.379  26.330  1.00  0.00     0.188 C 
BRANCH  32  33
ATOM     33  O   UNL A   1      31.985  30.388  27.280  1.00  0.00    -0.376 OA
BRANCH  33  34
ATOM     34  C   UNL A   1      32.710  31.542  26.882  1.00  0.00     0.202 C 
BRANCH  34  35
ATOM     35  C   UNL A   1      32.206  32.976  27.125  1.00  0.00     0.261 C 
BRANCH  35  36
ATOM     36  O   UNL A   1      32.324  33.488  28.457  1.00  0.00    -0.460 OA
BRANCH  36  37
ATOM     37  C   UNL A   1      33.228  34.483  28.618  1.00  0.00     0.338 C 
ATOM     38  O   UNL A   1      33.108  35.653  28.279  1.00  0.00    -0.246 OA
BRANCH  37  39
ATOM     39  C   UNL A   1      34.348  33.996  29.441  1.00  0.00     0.060 A 
ATOM     40  C   UNL A   1      35.655  34.345  29.070  1.00  0.00     0.016 A 
ATOM     41  C   UNL A   1      34.118  33.162  30.535  1.00  0.00     0.016 A 
ATOM     42  C   UNL A   1      36.741  33.840  29.784  1.00  0.00     0.010 A 
ATOM     43  C   UNL A   1      35.209  32.640  31.235  1.00  0.00     0.010 A 
ATOM     44  C   UNL A   1      36.525  32.953  30.845  1.00  0.00    -0.014 A 
BRANCH  44  45
ATOM     45  C   UNL A   1      37.670  32.224  31.439  1.00  0.00     0.031 A 
ATOM     46  C   UNL A   1      38.225  32.701  32.753  1.00  0.00     0.074 A 
ATOM     47  C   UNL A   1      38.215  31.164  30.817  1.00  0.00     0.049 A 
ATOM     48  N   UNL A   1      39.248  32.252  33.432  1.00  0.00    -0.248 NA
ATOM     49  C   UNL A   1      37.533  33.837  33.385  1.00  0.00     0.031 C 
ATOM     50  C   UNL A   1      37.762  30.603  29.546  1.00  0.00     0.029 A 
ATOM     51  N   UNL A   1      39.293  30.388  31.164  1.00  0.00    -0.354 N 
ATOM     52  C   UNL A   1      39.346  33.069  34.551  1.00  0.00     0.074 A 
ATOM     53  C   UNL A   1      38.283  34.046  34.457  1.00  0.00     0.031 C 
ATOM     54  C   UNL A   1      38.578  29.591  29.202  1.00  0.00     0.029 A 
ATOM     55  C   UNL A   1      39.625  29.453  30.213  1.00  0.00     0.049 A 
ATOM     56  H   UNL A   1      39.782  30.492  32.013  1.00  0.00     0.167 HD
ATOM     57  C   UNL A   1      40.233  33.006  35.572  1.00  0.00     0.034 A 
ATOM     58  C   UNL A   1      40.670  28.603  30.154  1.00  0.00     0.034 A 
ATOM     59  C   UNL A   1      41.282  32.028  35.670  1.00  0.00     0.049 A 
ATOM     60  C   UNL A   1      41.664  28.574  31.288  1.00  0.00     0.074 A 
ATOM     61  C   UNL A   1      42.203  31.853  36.687  1.00  0.00     0.029 A 
ATOM     62  N   UNL A   1      41.563  31.070  34.708  1.00  0.00    -0.354 N 
ATOM     63  N   UNL A   1      41.676  29.275  32.395  1.00  0.00    -0.248 NA
ATOM     64  C   UNL A   1      42.770  27.611  31.178  1.00  0.00     0.031 C 
ATOM     65  C   UNL A   1      43.063  30.812  36.324  1.00  0.00     0.029 A 
ATOM     66  C   UNL A   1      42.652  30.311  35.099  1.00  0.00     0.049 A 
ATOM     67  H   UNL A   1      41.061  30.947  33.868  1.00  0.00     0.167 HD
ATOM     68  C   UNL A   1      42.764  28.813  33.130  1.00  0.00     0.074 A 
ATOM     69  C   UNL A   1      43.377  27.758  32.349  1.00  0.00     0.031 C 
ATOM     70  C   UNL A   1      43.221  29.229  34.338  1.00  0.00     0.034 A 
BRANCH  57  71
ATOM     71  C   UNL A   1      40.099  34.020  36.677  1.00  0.00     0.023 A 
ATOM     72  C   UNL A   1      40.491  35.355  36.454  1.00  0.00     0.012 A 
ATOM     73  C   UNL A   1      39.537  33.662  37.919  1.00  0.00     0.148 A 
ATOM     74  C   UNL A   1      40.357  36.312  37.461  1.00  0.00     0.002 A 
ATOM     75  C   UNL A   1      39.363  34.630  38.899  1.00  0.00     0.091 A 
ATOM     76  F   UNL A   1      39.192  32.382  38.119  1.00  0.00    -0.205 F 
ATOM     77  C   UNL A   1      39.783  35.952  38.677  1.00  0.00     0.022 A 
BRANCH  75  78
ATOM     78  S   UNL A   1      38.563  34.285  40.470  1.00  0.00     0.127 S 
ATOM     79  O   UNL A   1      39.582  33.489  41.151  1.00  0.00    -0.237 OA
ATOM     80  O   UNL A   1      38.372  35.628  41.018  1.00  0.00    -0.237 OA
ATOM     81  O   UNL A   1      37.331  33.579  40.148  1.00  0.00    -0.744 OA
ENDBRANCH  75  78
ENDBRANCH  57  71
BRANCH  58  82
ATOM     82  C   UNL A   1      40.823  27.687  28.988  1.00  0.00     0.023 A 
ATOM     83  C   UNL A   1      40.061  26.504  28.928  1.00  0.00     0.012 A 
ATOM     84  C   UNL A   1      41.714  27.984  27.938  1.00  0.00     0.148 A 
ATOM     85  C   UNL A   1      40.210  25.615  27.863  1.00  0.00     0.002 A 
ATOM     86  C   UNL A   1      41.817  27.122  26.852  1.00  0.00     0.091 A 
ATOM     87  F   UNL A   1      42.441  29.107  28.022  1.00  0.00    -0.205 F 
ATOM     88  C   UNL A   1      41.080  25.928  26.822  1.00  0.00     0.022 A 
BRANCH  86  89
ATOM     89  S   UNL A   1      42.816  27.503  25.409  1.00  0.00     0.127 S 
ATOM     90  O   UNL A   1      42.789  26.235  24.684  1.00  0.00    -0.237 OA
ATOM     91  O   UNL A   1      42.047  28.583  24.790  1.00  0.00    -0.237 OA
ATOM     92  O   UNL A   1      44.116  27.907  25.924  1.00  0.00    -0.744 OA
ENDBRANCH  86  89
ENDBRANCH  58  82
BRANCH  70  93
ATOM     93  C   UNL A   1      44.416  28.517  34.922  1.00  0.00     0.023 A 
ATOM     94  C   UNL A   1      45.716  28.997  34.670  1.00  0.00     0.012 A 
ATOM     95  C   UNL A   1      44.242  27.419  35.790  1.00  0.00     0.148 A 
ATOM     96  C   UNL A   1      46.825  28.374  35.242  1.00  0.00     0.002 A 
ATOM     97  C   UNL A   1      45.347  26.836  36.397  1.00  0.00     0.091 A 
ATOM     98  F   UNL A   1      42.998  26.968  36.007  1.00  0.00    -0.205 F 
ATOM     99  C   UNL A   1      46.641  27.302  36.113  1.00  0.00     0.022 A 
BRANCH  97 100
ATOM    100  S   UNL A   1      45.199  25.519  37.610  1.00  0.00     0.127 S 
ATOM    101  O   UNL A   1      44.647  24.432  36.804  1.00  0.00    -0.237 OA
ATOM    102  O   UNL A   1      46.588  25.324  38.026  1.00  0.00    -0.237 OA
ATOM    103  O   UNL A   1      44.322  26.031  38.654  1.00  0.00    -0.744 OA
ENDBRANCH  97 100
ENDBRANCH  70  93
ENDBRANCH  44  45
ENDBRANCH  37  39
ENDBRANCH  36  37
ENDBRANCH  35  36
ENDBRANCH  34  35
ENDBRANCH  33  34
ENDBRANCH  32  33
ENDBRANCH   1  32
TORSDOF 24
ENDMDL
MODEL 2
REMARK VINA RESULT:      -9.9      0.550      7.359
REMARK SMILES COc1c[nH]c(C[N@H+]2CCC[C@@H](c3ccc(C(=O)OCCOCCOCCOC(=O)c4ccc(-c5c6nc(c(-c7cccc(S(=O)(=O)[O-])c7F)c7ccc([nH]7)c(-c7cccc(S(=O)(=O)[O-])c7F)c7nc(c(-c8cccc(S(=O)(=O)[O-])c8F)c8ccc5[nH]8)C=C7)C=C6)cc4)cc3)C2)cc1=O
REMARK SMILES IDX 23 1 22 2 21 3 20 4 19 5 17 6 18 7 16 8 13 9 14 10 95 11
REMARK SMILES IDX 15 12 94 13 12 14 8 15 9 16 96 17 10 19 11 20 7 21 6 22 3 23
REMARK SMILES IDX 4 24 98 25 5 26 97 27 99 28 2 30 1 31 24 32 25 33 26 34
REMARK SMILES IDX 27 35 28 36 29 37 30 38 31 39 32 40 93 41 33 42 92 43 34 44
REMARK SMILES IDX 35 45 36 46 86 47 37 48 91 49 85 50 87 51 38 52 90 53 84 54
REMARK SMILES IDX 83 55 39 57 71 58 51 59 70 60 52 61 55 62 69 63 88 64 53 65
REMARK SMILES IDX 54 66 68 68 89 69 56 70 40 71 41 72 49 73 42 74 44 75 50 76
REMARK SMILES IDX 43 77 45 78 46 79 47 80 48 81 72 82 73 83 81 84 74 85 76 86
REMARK SMILES IDX 82 87 75 88 77 89 78 90 79 91 80 92 57 93 58 94 66 95 59 96
REMARK SMILES IDX 61 97 67 98 60 99 62 100 63 101 64 102 65 103
REMARK H PARENT 8 18 5 29 87 56 55 67
REMARK Flexibility Score: inf
ROOT
ATOM      1  C   UNL A   1      31.333  29.575  24.873  1.00  0.00     0.188 C 
ENDROOT
BRANCH   1   2
ATOM      2  O   UNL A   1      30.919  28.487  24.081  1.00  0.00    -0.376 OA
BRANCH   2   3
ATOM      3  C   UNL A   1      31.740  27.986  23.042  1.00  0.00     0.202 C 
BRANCH   3   4
ATOM      4  C   UNL A   1      33.114  27.307  23.213  1.00  0.00     0.261 C 
BRANCH   4   5
ATOM      5  O   UNL A   1      33.134  25.962  23.689  1.00  0.00    -0.460 OA
BRANCH   5   6
ATOM      6  C   UNL A   1      33.690  25.791  24.911  1.00  0.00     0.338 C 
ATOM      7  O   UNL A   1      33.408  26.388  25.942  1.00  0.00    -0.246 OA
BRANCH   6   8
ATOM      8  C   UNL A   1      34.599  24.632  24.889  1.00  0.00     0.060 A 
ATOM      9  C   UNL A   1      36.493  22.569  24.893  1.00  0.00    -0.039 A 
ATOM     10  C   UNL A   1      36.211  23.282  26.072  1.00  0.00     0.005 A 
ATOM     11  C   UNL A   1      35.732  22.833  23.743  1.00  0.00     0.005 A 
ATOM     12  C   UNL A   1      35.293  24.328  26.062  1.00  0.00     0.016 A 
ATOM     13  C   UNL A   1      34.778  23.856  23.741  1.00  0.00     0.016 A 
BRANCH   9  14
ATOM     14  C   UNL A   1      37.736  21.686  24.800  1.00  0.00     0.074 C 
ATOM     15  N   UNL A   1      39.980  21.423  25.956  1.00  0.00    -0.329 N 
ATOM     16  C   UNL A   1      39.709  19.995  26.170  1.00  0.00     0.262 C 
ATOM     17  C   UNL A   1      38.735  22.188  25.868  1.00  0.00     0.270 C 
ATOM     18  H   UNL A   1      40.460  21.508  25.060  1.00  0.00     0.348 HD
ATOM     19  C   UNL A   1      38.797  19.427  25.075  1.00  0.00     0.062 C 
ATOM     20  C   UNL A   1      37.470  20.188  24.990  1.00  0.00     0.020 C 
BRANCH  15  21
ATOM     21  C   UNL A   1      40.900  21.981  26.975  1.00  0.00     0.317 C 
BRANCH  21  22
ATOM     22  C   UNL A   1      42.247  22.520  26.491  1.00  0.00     0.074 A 
ATOM     23  C   UNL A   1      44.611  23.599  25.296  1.00  0.00     0.182 A 
ATOM     24  C   UNL A   1      43.816  22.720  24.672  1.00  0.00     0.133 A 
ATOM     25  C   UNL A   1      44.251  23.920  26.722  1.00  0.00     0.223 A 
ATOM     26  N   UNL A   1      42.725  22.131  25.252  1.00  0.00    -0.357 N 
ATOM     27  C   UNL A   1      42.970  23.364  27.252  1.00  0.00     0.083 A 
ATOM     28  O   UNL A   1      44.949  24.613  27.457  1.00  0.00    -0.286 OA
ATOM     29  H   UNL A   1      42.267  21.404  24.772  1.00  0.00     0.166 HD
BRANCH  23  30
ATOM     30  O   UNL A   1      45.644  24.218  24.623  1.00  0.00    -0.491 OA
ATOM     31  C   UNL A   1      46.640  23.307  24.174  1.00  0.00     0.278 C 
ENDBRANCH  23  30
ENDBRANCH  21  22
ENDBRANCH  15  21
ENDBRANCH   9  14
ENDBRANCH   6   8
ENDBRANCH   5   6
ENDBRANCH   4   5
ENDBRANCH   3   4
ENDBRANCH   2   3
ENDBRANCH   1   2
BRANCH   1  32
ATOM     32  C   UNL A   1      31.760  29.242  26.319  1.00  0.00     0.188 C 
BRANCH  32  33
ATOM     33  O   UNL A   1      32.062  30.275  27.238  1.00  0.00    -0.376 OA
BRANCH  33  34
ATOM     34  C   UNL A   1      32.521  31.530  26.758  1.00  0.00     0.202 C 
BRANCH  34  35
ATOM     35  C   UNL A   1      31.971  32.876  27.264  1.00  0.00     0.261 C 
BRANCH  35  36
ATOM     36  O   UNL A   1      32.520  33.382  28.485  1.00  0.00    -0.460 OA
BRANCH  36  37
ATOM     37  C   UNL A   1      33.590  34.201  28.345  1.00  0.00     0.338 C 
ATOM     38  O   UNL A   1      33.649  35.234  27.693  1.00  0.00    -0.246 OA
BRANCH  37  39
ATOM     39  C   UNL A   1      34.663  33.761  29.252  1.00  0.00     0.060 A 
ATOM     40  C   UNL A   1      35.925  34.362  29.140  1.00  0.00     0.016 A 
ATOM     41  C   UNL A   1      34.445  32.730  30.166  1.00  0.00     0.016 A 
ATOM     42  C   UNL A   1      36.983  33.918  29.933  1.00  0.00     0.010 A 
ATOM     43  C   UNL A   1      35.512  32.272  30.944  1.00  0.00     0.010 A 
ATOM     44  C   UNL A   1      36.792  32.844  30.810  1.00  0.00    -0.014 A 
BRANCH  44  45
ATOM     45  C   UNL A   1      37.961  32.210  31.463  1.00  0.00     0.031 A 
ATOM     46  C   UNL A   1      38.640  31.062  30.769  1.00  0.00     0.074 A 
ATOM     47  C   UNL A   1      38.406  32.640  32.657  1.00  0.00     0.049 A 
ATOM     48  N   UNL A   1      39.643  30.327  31.172  1.00  0.00    -0.248 NA
ATOM     49  C   UNL A   1      38.116  30.692  29.444  1.00  0.00     0.031 C 
ATOM     50  C   UNL A   1      37.838  33.747  33.423  1.00  0.00     0.029 A 
ATOM     51  N   UNL A   1      39.426  32.171  33.446  1.00  0.00    -0.354 N 
ATOM     52  C   UNL A   1      39.850  29.388  30.171  1.00  0.00     0.074 A 
ATOM     53  C   UNL A   1      38.863  29.640  29.142  1.00  0.00     0.031 C 
ATOM     54  C   UNL A   1      38.497  33.852  34.590  1.00  0.00     0.029 A 
ATOM     55  C   UNL A   1      39.512  32.803  34.664  1.00  0.00     0.049 A 
ATOM     56  H   UNL A   1      40.037  31.450  33.168  1.00  0.00     0.167 HD
ATOM     57  C   UNL A   1      40.784  28.409  30.105  1.00  0.00     0.034 A 
ATOM     58  C   UNL A   1      40.302  32.544  35.726  1.00  0.00     0.034 A 
ATOM     59  C   UNL A   1      41.770  28.166  31.121  1.00  0.00     0.049 A 
ATOM     60  C   UNL A   1      41.313  31.428  35.640  1.00  0.00     0.074 A 
ATOM     61  C   UNL A   1      42.788  27.229  31.125  1.00  0.00     0.029 A 
ATOM     62  N   UNL A   1      41.854  28.852  32.323  1.00  0.00    -0.354 N 
ATOM     63  N   UNL A   1      41.573  30.622  34.640  1.00  0.00    -0.248 NA
ATOM     64  C   UNL A   1      42.161  31.207  36.822  1.00  0.00     0.031 C 
ATOM     65  C   UNL A   1      43.465  27.324  32.345  1.00  0.00     0.029 A 
ATOM     66  C   UNL A   1      42.895  28.349  33.083  1.00  0.00     0.049 A 
ATOM     67  H   UNL A   1      41.260  29.589  32.596  1.00  0.00     0.167 HD
ATOM     68  C   UNL A   1      42.638  29.828  35.054  1.00  0.00     0.074 A 
ATOM     69  C   UNL A   1      42.986  30.261  36.392  1.00  0.00     0.031 C 
ATOM     70  C   UNL A   1      43.266  28.823  34.392  1.00  0.00     0.034 A 
BRANCH  57  71
ATOM     71  C   UNL A   1      40.791  27.532  28.880  1.00  0.00     0.023 A 
ATOM     72  C   UNL A   1      39.827  26.513  28.743  1.00  0.00     0.012 A 
ATOM     73  C   UNL A   1      41.719  27.750  27.843  1.00  0.00     0.148 A 
ATOM     74  C   UNL A   1      39.807  25.703  27.608  1.00  0.00     0.002 A 
ATOM     75  C   UNL A   1      41.663  26.971  26.695  1.00  0.00     0.091 A 
ATOM     76  F   UNL A   1      42.642  28.709  28.003  1.00  0.00    -0.205 F 
ATOM     77  C   UNL A   1      40.716  25.939  26.581  1.00  0.00     0.022 A 
BRANCH  75  78
ATOM     78  S   UNL A   1      42.739  27.247  25.283  1.00  0.00     0.127 S 
ATOM     79  O   UNL A   1      42.545  26.015  24.520  1.00  0.00    -0.237 OA
ATOM     80  O   UNL A   1      42.149  28.440  24.677  1.00  0.00    -0.237 OA
ATOM     81  O   UNL A   1      44.076  27.439  25.827  1.00  0.00    -0.744 OA
ENDBRANCH  75  78
ENDBRANCH  57  71
BRANCH  58  82
ATOM     82  C   UNL A   1      40.189  33.373  36.960  1.00  0.00     0.023 A 
ATOM     83  C   UNL A   1      40.865  34.606  37.034  1.00  0.00     0.012 A 
ATOM     84  C   UNL A   1      39.415  32.947  38.057  1.00  0.00     0.148 A 
ATOM     85  C   UNL A   1      40.801  35.384  38.190  1.00  0.00     0.002 A 
ATOM     86  C   UNL A   1      39.310  33.752  39.185  1.00  0.00     0.091 A 
ATOM     87  F   UNL A   1      38.793  31.763  37.973  1.00  0.00    -0.205 F 
ATOM     88  C   UNL A   1      40.017  34.963  39.261  1.00  0.00     0.022 A 
BRANCH  86  89
ATOM     89  S   UNL A   1      38.226  33.352  40.559  1.00  0.00     0.127 S 
ATOM     90  O   UNL A   1      38.535  34.420  41.506  1.00  0.00    -0.237 OA
ATOM     91  O   UNL A   1      36.905  33.444  39.936  1.00  0.00    -0.237 OA
ATOM     92  O   UNL A   1      38.600  32.009  40.979  1.00  0.00    -0.744 OA
ENDBRANCH  86  89
ENDBRANCH  58  82
BRANCH  70  93
ATOM     93  C   UNL A   1      44.428  28.147  35.076  1.00  0.00     0.023 A 
ATOM     94  C   UNL A   1      45.702  28.748  35.060  1.00  0.00     0.012 A 
ATOM     95  C   UNL A   1      44.236  26.955  35.804  1.00  0.00     0.148 A 
ATOM     96  C   UNL A   1      46.774  28.154  35.727  1.00  0.00     0.002 A 
ATOM     97  C   UNL A   1      45.295  26.398  36.509  1.00  0.00     0.091 A 
ATOM     98  F   UNL A   1      43.019  26.391  35.796  1.00  0.00    -0.205 F 
ATOM     99  C   UNL A   1      46.569  26.987  36.460  1.00  0.00     0.022 A 
BRANCH  97 100
ATOM    100  S   UNL A   1      45.102  24.954  37.562  1.00  0.00     0.127 S 
ATOM    101  O   UNL A   1      44.663  23.942  36.602  1.00  0.00    -0.237 OA
ATOM    102  O   UNL A   1      46.459  24.761  38.074  1.00  0.00    -0.237 OA
ATOM    103  O   UNL A   1      44.121  25.323  38.573  1.00  0.00    -0.744 OA
ENDBRANCH  97 100
ENDBRANCH  70  93
ENDBRANCH  44  45
ENDBRANCH  37  39
ENDBRANCH  36  37
ENDBRANCH  35  36
ENDBRANCH  34  35
ENDBRANCH  33  34
ENDBRANCH  32  33
ENDBRANCH   1  32
TORSDOF 24
ENDMDL
MODEL 3
REMARK VINA RESULT:      -9.7      5.551     12.257
REMARK SMILES COc1c[nH]c(C[N@H+]2CCC[C@@H](c3ccc(C(=O)OCCOCCOCCOC(=O)c4ccc(-c5c6nc(c(-c7cccc(S(=O)(=O)[O-])c7F)c7ccc([nH]7)c(-c7cccc(S(=O)(=O)[O-])c7F)c7nc(c(-c8cccc(S(=O)(=O)[O-])c8F)c8ccc5[nH]8)C=C7)C=C6)cc4)cc3)C2)cc1=O
REMARK SMILES IDX 23 1 22 2 21 3 20 4 19 5 17 6 18 7 16 8 13 9 14 10 95 11
REMARK SMILES IDX 15 12 94 13 12 14 8 15 9 16 96 17 10 19 11 20 7 21 6 22 3 23
REMARK SMILES IDX 4 24 98 25 5 26 97 27 99 28 2 30 1 31 24 32 25 33 26 34
REMARK SMILES IDX 27 35 28 36 29 37 30 38 31 39 32 40 93 41 33 42 92 43 34 44
REMARK SMILES IDX 35 45 36 46 86 47 37 48 91 49 85 50 87 51 38 52 90 53 84 54
REMARK SMILES IDX 83 55 39 57 71 58 51 59 70 60 52 61 55 62 69 63 88 64 53 65
REMARK SMILES IDX 54 66 68 68 89 69 56 70 40 71 41 72 49 73 42 74 44 75 50 76
REMARK SMILES IDX 43 77 45 78 46 79 47 80 48 81 72 82 73 83 81 84 74 85 76 86
REMARK SMILES IDX 82 87 75 88 77 89 78 90 79 91 80 92 57 93 58 94 66 95 59 96
REMARK SMILES IDX 61 97 67 98 60 99 62 100 63 101 64 102 65 103
REMARK H PARENT 8 18 5 29 87 56 55 67
REMARK Flexibility Score: inf
ROOT
ATOM      1  C   UNL A   1      38.537  22.125  25.787  1.00  0.00     0.188 C 
ENDROOT
BRANCH   1   2
ATOM      2  O   UNL A   1      37.201  21.804  26.093  1.00  0.00    -0.376 OA
BRANCH   2   3
ATOM      3  C   UNL A   1      36.272  21.489  25.070  1.00  0.00     0.202 C 
BRANCH   3   4
ATOM      4  C   UNL A   1      35.185  20.398  25.131  1.00  0.00     0.261 C 
BRANCH   4   5
ATOM      5  O   UNL A   1      34.069  20.525  24.251  1.00  0.00    -0.460 OA
BRANCH   5   6
ATOM      6  C   UNL A   1      32.857  20.351  24.828  1.00  0.00     0.338 C 
ATOM      7  O   UNL A   1      32.432  19.336  25.365  1.00  0.00    -0.246 OA
BRANCH   6   8
ATOM      8  C   UNL A   1      32.142  21.638  24.885  1.00  0.00     0.060 A 
ATOM      9  C   UNL A   1      30.952  24.174  24.878  1.00  0.00    -0.039 A 
ATOM     10  C   UNL A   1      31.136  23.467  23.675  1.00  0.00     0.005 A 
ATOM     11  C   UNL A   1      31.272  23.543  26.090  1.00  0.00     0.005 A 
ATOM     12  C   UNL A   1      31.756  22.221  23.676  1.00  0.00     0.016 A 
ATOM     13  C   UNL A   1      31.856  22.271  26.097  1.00  0.00     0.016 A 
BRANCH   9  14
ATOM     14  C   UNL A   1      30.619  25.664  24.857  1.00  0.00     0.074 C 
ATOM     15  N   UNL A   1      31.832  27.892  24.942  1.00  0.00    -0.329 N 
ATOM     16  C   UNL A   1      31.133  28.325  23.724  1.00  0.00     0.262 C 
ATOM     17  C   UNL A   1      31.953  26.434  24.989  1.00  0.00     0.270 C 
ATOM     18  H   UNL A   1      31.261  28.181  25.737  1.00  0.00     0.348 HD
ATOM     19  C   UNL A   1      29.756  27.660  23.601  1.00  0.00     0.062 C 
ATOM     20  C   UNL A   1      29.862  26.132  23.608  1.00  0.00     0.020 C 
BRANCH  15  21
ATOM     21  C   UNL A   1      33.144  28.560  25.107  1.00  0.00     0.317 C 
BRANCH  21  22
ATOM     22  C   UNL A   1      33.217  29.744  26.073  1.00  0.00     0.074 A 
ATOM     23  C   UNL A   1      33.666  32.008  27.762  1.00  0.00     0.182 A 
ATOM     24  C   UNL A   1      34.552  31.013  27.628  1.00  0.00     0.133 A 
ATOM     25  C   UNL A   1      32.353  31.825  27.049  1.00  0.00     0.223 A 
ATOM     26  N   UNL A   1      34.327  29.883  26.889  1.00  0.00    -0.357 N 
ATOM     27  C   UNL A   1      32.221  30.648  26.140  1.00  0.00     0.083 A 
ATOM     28  O   UNL A   1      31.402  32.592  27.173  1.00  0.00    -0.286 OA
ATOM     29  H   UNL A   1      34.975  29.145  26.940  1.00  0.00     0.166 HD
BRANCH  23  30
ATOM     30  O   UNL A   1      33.993  33.156  28.454  1.00  0.00    -0.491 OA
ATOM     31  C   UNL A   1      34.674  32.894  29.675  1.00  0.00     0.278 C 
ENDBRANCH  23  30
ENDBRANCH  21  22
ENDBRANCH  15  21
ENDBRANCH   9  14
ENDBRANCH   6   8
ENDBRANCH   5   6
ENDBRANCH   4   5
ENDBRANCH   3   4
ENDBRANCH   2   3
ENDBRANCH   1   2
BRANCH   1  32
ATOM     32  C   UNL A   1      39.573  21.000  25.996  1.00  0.00     0.188 C 
BRANCH  32  33
ATOM     33  O   UNL A   1      40.810  21.267  26.630  1.00  0.00    -0.376 OA
BRANCH  33  34
ATOM     34  C   UNL A   1      41.573  20.194  27.160  1.00  0.00     0.202 C 
BRANCH  34  35
ATOM     35  C   UNL A   1      42.426  19.257  26.285  1.00  0.00     0.261 C 
BRANCH  35  36
ATOM     36  O   UNL A   1      42.825  19.753  25.002  1.00  0.00    -0.460 OA
BRANCH  36  37
ATOM     37  C   UNL A   1      44.160  19.880  24.819  1.00  0.00     0.338 C 
ATOM     38  O   UNL A   1      44.929  19.039  24.372  1.00  0.00    -0.246 OA
BRANCH  37  39
ATOM     39  C   UNL A   1      44.557  21.275  25.075  1.00  0.00     0.060 A 
ATOM     40  C   UNL A   1      45.071  21.605  26.337  1.00  0.00     0.016 A 
ATOM     41  C   UNL A   1      44.375  22.257  24.101  1.00  0.00     0.016 A 
ATOM     42  C   UNL A   1      45.388  22.930  26.636  1.00  0.00     0.010 A 
ATOM     43  C   UNL A   1      44.671  23.587  24.411  1.00  0.00     0.010 A 
ATOM     44  C   UNL A   1      45.151  23.933  25.689  1.00  0.00    -0.014 A 
BRANCH  44  45
ATOM     45  C   UNL A   1      45.247  25.357  26.086  1.00  0.00     0.031 A 
ATOM     46  C   UNL A   1      46.597  26.020  26.076  1.00  0.00     0.074 A 
ATOM     47  C   UNL A   1      44.155  26.048  26.461  1.00  0.00     0.049 A 
ATOM     48  N   UNL A   1      46.926  27.234  26.430  1.00  0.00    -0.248 NA
ATOM     49  C   UNL A   1      47.727  25.202  25.604  1.00  0.00     0.031 C 
ATOM     50  C   UNL A   1      42.794  25.519  26.505  1.00  0.00     0.029 A 
ATOM     51  N   UNL A   1      44.031  27.340  26.905  1.00  0.00    -0.354 N 
ATOM     52  C   UNL A   1      48.302  27.318  26.258  1.00  0.00     0.074 A 
ATOM     53  C   UNL A   1      48.748  26.029  25.774  1.00  0.00     0.031 C 
ATOM     54  C   UNL A   1      41.973  26.471  26.983  1.00  0.00     0.029 A 
ATOM     55  C   UNL A   1      42.756  27.663  27.306  1.00  0.00     0.049 A 
ATOM     56  H   UNL A   1      44.783  27.976  26.935  1.00  0.00     0.167 HD
ATOM     57  C   UNL A   1      49.121  28.375  26.471  1.00  0.00     0.034 A 
ATOM     58  C   UNL A   1      42.283  28.782  27.890  1.00  0.00     0.034 A 
ATOM     59  C   UNL A   1      48.676  29.658  26.941  1.00  0.00     0.049 A 
ATOM     60  C   UNL A   1      43.222  29.934  28.148  1.00  0.00     0.074 A 
ATOM     61  C   UNL A   1      49.422  30.805  27.145  1.00  0.00     0.029 A 
ATOM     62  N   UNL A   1      47.371  29.961  27.298  1.00  0.00    -0.354 N 
ATOM     63  N   UNL A   1      44.500  30.038  27.873  1.00  0.00    -0.248 NA
ATOM     64  C   UNL A   1      42.644  31.136  28.769  1.00  0.00     0.031 C 
ATOM     65  C   UNL A   1      48.573  31.792  27.658  1.00  0.00     0.029 A 
ATOM     66  C   UNL A   1      47.292  31.271  27.735  1.00  0.00     0.049 A 
ATOM     67  H   UNL A   1      46.611  29.336  27.247  1.00  0.00     0.167 HD
ATOM     68  C   UNL A   1      44.869  31.326  28.248  1.00  0.00     0.074 A 
ATOM     69  C   UNL A   1      43.675  31.971  28.755  1.00  0.00     0.031 C 
ATOM     70  C   UNL A   1      46.088  31.920  28.189  1.00  0.00     0.034 A 
BRANCH  57  71
ATOM     71  C   UNL A   1      50.588  28.190  26.184  1.00  0.00     0.023 A 
ATOM     72  C   UNL A   1      51.097  28.506  24.909  1.00  0.00     0.012 A 
ATOM     73  C   UNL A   1      51.470  27.753  27.193  1.00  0.00     0.148 A 
ATOM     74  C   UNL A   1      52.456  28.358  24.631  1.00  0.00     0.002 A 
ATOM     75  C   UNL A   1      52.828  27.653  26.922  1.00  0.00     0.091 A 
ATOM     76  F   UNL A   1      50.962  27.435  28.392  1.00  0.00    -0.205 F 
ATOM     77  C   UNL A   1      53.322  27.943  25.639  1.00  0.00     0.022 A 
BRANCH  75  78
ATOM     78  S   UNL A   1      54.035  27.203  28.174  1.00  0.00     0.127 S 
ATOM     79  O   UNL A   1      53.324  26.155  28.905  1.00  0.00    -0.237 OA
ATOM     80  O   UNL A   1      55.156  26.728  27.363  1.00  0.00    -0.237 OA
ATOM     81  O   UNL A   1      54.303  28.418  28.930  1.00  0.00    -0.744 OA
ENDBRANCH  75  78
ENDBRANCH  57  71
BRANCH  58  82
ATOM     82  C   UNL A   1      40.841  28.882  28.255  1.00  0.00     0.023 A 
ATOM     83  C   UNL A   1      39.884  29.111  27.247  1.00  0.00     0.012 A 
ATOM     84  C   UNL A   1      40.415  28.748  29.590  1.00  0.00     0.148 A 
ATOM     85  C   UNL A   1      38.532  29.241  27.567  1.00  0.00     0.002 A 
ATOM     86  C   UNL A   1      39.060  28.823  29.896  1.00  0.00     0.091 A 
ATOM     87  F   UNL A   1      41.343  28.546  30.536  1.00  0.00    -0.205 F 
ATOM     88  C   UNL A   1      38.119  29.088  28.888  1.00  0.00     0.022 A 
BRANCH  86  89
ATOM     89  S   UNL A   1      38.425  28.514  31.547  1.00  0.00     0.127 S 
ATOM     90  O   UNL A   1      37.039  28.959  31.422  1.00  0.00    -0.237 OA
ATOM     91  O   UNL A   1      38.599  27.067  31.668  1.00  0.00    -0.237 OA
ATOM     92  O   UNL A   1      39.261  29.299  32.444  1.00  0.00    -0.744 OA
ENDBRANCH  86  89
ENDBRANCH  58  82
BRANCH  70  93
ATOM     93  C   UNL A   1      46.195  33.356  28.636  1.00  0.00     0.023 A 
ATOM     94  C   UNL A   1      46.588  33.657  29.955  1.00  0.00     0.012 A 
ATOM     95  C   UNL A   1      45.984  34.409  27.723  1.00  0.00     0.148 A 
ATOM     96  C   UNL A   1      46.734  34.981  30.367  1.00  0.00     0.002 A 
ATOM     97  C   UNL A   1      46.181  35.724  28.126  1.00  0.00     0.091 A 
ATOM     98  F   UNL A   1      45.596  34.104  26.476  1.00  0.00    -0.205 F 
ATOM     99  C   UNL A   1      46.542  36.013  29.451  1.00  0.00     0.022 A 
BRANCH  97 100
ATOM    100  S   UNL A   1      46.057  37.111  26.990  1.00  0.00     0.127 S 
ATOM    101  O   UNL A   1      44.609  37.245  26.841  1.00  0.00    -0.237 OA
ATOM    102  O   UNL A   1      46.694  38.189  27.747  1.00  0.00    -0.237 OA
ATOM    103  O   UNL A   1      46.775  36.711  25.787  1.00  0.00    -0.744 OA
ENDBRANCH  97 100
ENDBRANCH  70  93
ENDBRANCH  44  45
ENDBRANCH  37  39
ENDBRANCH  36  37
ENDBRANCH  35  36
ENDBRANCH  34  35
ENDBRANCH  33  34
ENDBRANCH  32  33
ENDBRANCH   1  32
TORSDOF 24
ENDMDL
