MODEL 1
REMARK VINA RESULT:     -11.1      0.000      0.000
REMARK SMILES CC1(C)[C@H](C(=O)OCCOCCOCCOC(=O)c2ccc(-c3c4nc(c(-c5cccc(S(=O)(=O)[O-])c5F)c5ccc([nH]5)c(-c5cccc(S(=O)(=O)[O-])c5F)c5nc(c(-c6cccc(S(=O)(=O)[O-])c6F)c6ccc3[nH]6)C=C5)C=C4)cc2)[C@@H]1C(=O)Nc1ccc(NC(=O)C2CCC2)cc1
REMARK SMILES IDX 11 1 10 2 9 3 8 4 7 5 5 6 6 7 4 8 1 9 2 10 3 11 82 12 83 13
REMARK SMILES IDX 84 14 85 15 86 17 87 18 98 19 88 20 97 21 89 22 90 23 91 24
REMARK SMILES IDX 92 26 93 27 94 28 96 29 95 30 12 31 13 32 14 33 15 34 16 35
REMARK SMILES IDX 17 36 18 37 19 38 20 39 81 40 21 41 80 42 22 43 23 44 24 45
REMARK SMILES IDX 74 46 25 47 79 48 73 49 75 50 26 51 78 52 72 53 71 54 27 56
REMARK SMILES IDX 59 57 39 58 58 59 40 60 43 61 57 62 76 63 41 64 42 65 56 67
REMARK SMILES IDX 77 68 44 69 28 70 29 71 37 72 30 73 32 74 38 75 31 76 33 77
REMARK SMILES IDX 34 78 35 79 36 80 60 81 61 82 69 83 62 84 64 85 70 86 63 87
REMARK SMILES IDX 65 88 66 89 67 90 68 91 45 92 46 93 54 94 47 95 49 96 55 97
REMARK SMILES IDX 48 98 50 99 51 100 52 101 53 102
REMARK H PARENT 85 16 90 25 75 55 43 66
REMARK Flexibility Score: inf
ROOT
ATOM      1  C   UNL A   1      35.819  22.952  23.962  1.00  0.00     0.188 C 
ENDROOT
BRANCH   1   2
ATOM      2  O   UNL A   1      36.056  24.136  24.709  1.00  0.00    -0.376 OA
BRANCH   2   3
ATOM      3  C   UNL A   1      35.094  24.474  25.694  1.00  0.00     0.202 C 
BRANCH   3   4
ATOM      4  C   UNL A   1      34.083  25.543  25.258  1.00  0.00     0.261 C 
BRANCH   4   5
ATOM      5  O   UNL A   1      33.865  25.830  23.856  1.00  0.00    -0.463 OA
BRANCH   5   6
ATOM      6  C   UNL A   1      32.880  26.658  23.437  1.00  0.00     0.310 C 
ATOM      7  O   UNL A   1      32.408  26.695  22.323  1.00  0.00    -0.252 OA
BRANCH   6   8
ATOM      8  C   UNL A   1      32.255  27.491  24.489  1.00  0.00     0.118 C 
ATOM      9  C   UNL A   1      31.918  29.866  25.355  1.00  0.00     0.013 C 
ATOM     10  C   UNL A   1      31.550  28.817  24.330  1.00  0.00    -0.009 C 
ATOM     11  C   UNL A   1      31.299  29.414  22.962  1.00  0.00     0.013 C 
ATOM     12  C   UNL A   1      30.784  27.558  24.804  1.00  0.00     0.100 C 
BRANCH  12  13
ATOM     13  C   UNL A   1      29.644  27.062  23.999  1.00  0.00     0.228 C 
ATOM     14  O   UNL A   1      28.930  27.875  23.414  1.00  0.00    -0.274 OA
ATOM     15  N   UNL A   1      29.350  25.728  23.876  1.00  0.00    -0.326 N 
ATOM     16  H   UNL A   1      28.513  25.525  23.398  1.00  0.00     0.169 HD
BRANCH  15  17
ATOM     17  C   UNL A   1      30.059  24.615  24.328  1.00  0.00     0.041 A 
ATOM     18  C   UNL A   1      30.636  23.840  23.332  1.00  0.00     0.028 A 
ATOM     19  C   UNL A   1      30.304  24.306  25.662  1.00  0.00     0.028 A 
ATOM     20  C   UNL A   1      31.606  22.896  23.661  1.00  0.00     0.028 A 
ATOM     21  C   UNL A   1      31.212  23.276  25.978  1.00  0.00     0.028 A 
ATOM     22  C   UNL A   1      31.934  22.609  24.970  1.00  0.00     0.041 A 
BRANCH  22  23
ATOM     23  N   UNL A   1      32.971  21.754  25.369  1.00  0.00    -0.326 N 
ATOM     24  C   UNL A   1      33.314  20.427  25.224  1.00  0.00     0.227 C 
ATOM     25  H   UNL A   1      33.645  22.238  25.899  1.00  0.00     0.169 HD
ATOM     26  O   UNL A   1      34.403  20.138  25.765  1.00  0.00    -0.274 OA
BRANCH  24  27
ATOM     27  C   UNL A   1      32.580  19.313  24.457  1.00  0.00     0.079 C 
ATOM     28  C   UNL A   1      32.527  19.581  22.904  1.00  0.00     0.013 C 
ATOM     29  C   UNL A   1      33.109  17.917  24.048  1.00  0.00     0.013 C 
ATOM     30  C   UNL A   1      32.399  18.071  22.700  1.00  0.00     0.002 C 
ENDBRANCH  24  27
ENDBRANCH  22  23
ENDBRANCH  15  17
ENDBRANCH  12  13
ENDBRANCH   6   8
ENDBRANCH   5   6
ENDBRANCH   4   5
ENDBRANCH   3   4
ENDBRANCH   2   3
ENDBRANCH   1   2
BRANCH   1  31
ATOM     31  C   UNL A   1      37.031  22.008  23.888  1.00  0.00     0.188 C 
BRANCH  31  32
ATOM     32  O   UNL A   1      37.489  21.348  25.065  1.00  0.00    -0.376 OA
BRANCH  32  33
ATOM     33  C   UNL A   1      37.758  19.956  25.002  1.00  0.00     0.202 C 
BRANCH  33  34
ATOM     34  C   UNL A   1      39.178  19.488  25.339  1.00  0.00     0.261 C 
BRANCH  34  35
ATOM     35  O   UNL A   1      39.651  19.911  26.626  1.00  0.00    -0.460 OA
BRANCH  35  36
ATOM     36  C   UNL A   1      40.942  20.326  26.667  1.00  0.00     0.338 C 
ATOM     37  O   UNL A   1      41.914  19.739  26.221  1.00  0.00    -0.246 OA
BRANCH  36  38
ATOM     38  C   UNL A   1      40.999  21.724  27.156  1.00  0.00     0.060 A 
ATOM     39  C   UNL A   1      40.219  22.688  26.496  1.00  0.00     0.016 A 
ATOM     40  C   UNL A   1      41.824  22.093  28.219  1.00  0.00     0.016 A 
ATOM     41  C   UNL A   1      40.294  24.029  26.866  1.00  0.00     0.010 A 
ATOM     42  C   UNL A   1      41.928  23.444  28.564  1.00  0.00     0.010 A 
ATOM     43  C   UNL A   1      41.197  24.419  27.860  1.00  0.00    -0.014 A 
BRANCH  43  44
ATOM     44  C   UNL A   1      41.602  25.841  27.968  1.00  0.00     0.031 A 
ATOM     45  C   UNL A   1      42.958  26.215  27.432  1.00  0.00     0.074 A 
ATOM     46  C   UNL A   1      40.821  26.764  28.556  1.00  0.00     0.049 A 
ATOM     47  N   UNL A   1      43.606  27.344  27.525  1.00  0.00    -0.248 NA
ATOM     48  C   UNL A   1      43.684  25.162  26.697  1.00  0.00     0.031 C 
ATOM     49  C   UNL A   1      39.479  26.530  29.082  1.00  0.00     0.029 A 
ATOM     50  N   UNL A   1      41.074  28.083  28.841  1.00  0.00    -0.354 N 
ATOM     51  C   UNL A   1      44.828  27.127  26.901  1.00  0.00     0.074 A 
ATOM     52  C   UNL A   1      44.831  25.763  26.424  1.00  0.00     0.031 C 
ATOM     53  C   UNL A   1      39.042  27.659  29.670  1.00  0.00     0.029 A 
ATOM     54  C   UNL A   1      40.086  28.680  29.589  1.00  0.00     0.049 A 
ATOM     55  H   UNL A   1      41.883  28.555  28.539  1.00  0.00     0.167 HD
ATOM     56  C   UNL A   1      45.859  27.987  26.734  1.00  0.00     0.034 A 
ATOM     57  C   UNL A   1      40.053  29.897  30.171  1.00  0.00     0.034 A 
ATOM     58  C   UNL A   1      45.851  29.345  27.198  1.00  0.00     0.049 A 
ATOM     59  C   UNL A   1      41.230  30.826  30.003  1.00  0.00     0.074 A 
ATOM     60  C   UNL A   1      46.834  30.307  27.060  1.00  0.00     0.029 A 
ATOM     61  N   UNL A   1      44.809  29.930  27.900  1.00  0.00    -0.354 N 
ATOM     62  N   UNL A   1      42.341  30.643  29.330  1.00  0.00    -0.248 NA
ATOM     63  C   UNL A   1      41.139  32.143  30.654  1.00  0.00     0.031 C 
ATOM     64  C   UNL A   1      46.393  31.471  27.696  1.00  0.00     0.029 A 
ATOM     65  C   UNL A   1      45.126  31.240  28.205  1.00  0.00     0.049 A 
ATOM     66  H   UNL A   1      43.969  29.479  28.144  1.00  0.00     0.167 HD
ATOM     67  C   UNL A   1      43.057  31.832  29.439  1.00  0.00     0.074 A 
ATOM     68  C   UNL A   1      42.251  32.733  30.236  1.00  0.00     0.031 C 
ATOM     69  C   UNL A   1      44.276  32.146  28.935  1.00  0.00     0.034 A 
BRANCH  56  70
ATOM     70  C   UNL A   1      47.075  27.481  26.009  1.00  0.00     0.023 A 
ATOM     71  C   UNL A   1      48.014  26.685  26.696  1.00  0.00     0.012 A 
ATOM     72  C   UNL A   1      47.270  27.762  24.644  1.00  0.00     0.148 A 
ATOM     73  C   UNL A   1      49.144  26.200  26.040  1.00  0.00     0.002 A 
ATOM     74  C   UNL A   1      48.377  27.240  23.987  1.00  0.00     0.091 A 
ATOM     75  F   UNL A   1      46.380  28.548  24.019  1.00  0.00    -0.205 F 
ATOM     76  C   UNL A   1      49.320  26.468  24.684  1.00  0.00     0.022 A 
BRANCH  74  77
ATOM     77  S   UNL A   1      48.650  27.469  22.226  1.00  0.00     0.127 S 
ATOM     78  O   UNL A   1      48.825  26.090  21.774  1.00  0.00    -0.237 OA
ATOM     79  O   UNL A   1      47.401  28.096  21.799  1.00  0.00    -0.237 OA
ATOM     80  O   UNL A   1      49.826  28.320  22.111  1.00  0.00    -0.744 OA
ENDBRANCH  74  77
ENDBRANCH  56  70
BRANCH  57  81
ATOM     81  C   UNL A   1      38.857  30.322  30.952  1.00  0.00     0.023 A 
ATOM     82  C   UNL A   1      38.783  30.016  32.326  1.00  0.00     0.012 A 
ATOM     83  C   UNL A   1      37.796  31.024  30.349  1.00  0.00     0.148 A 
ATOM     84  C   UNL A   1      37.664  30.376  33.077  1.00  0.00     0.002 A 
ATOM     85  C   UNL A   1      36.707  31.426  31.114  1.00  0.00     0.091 A 
ATOM     86  F   UNL A   1      37.874  31.288  29.037  1.00  0.00    -0.205 F 
ATOM     87  C   UNL A   1      36.631  31.089  32.474  1.00  0.00     0.022 A 
BRANCH  85  88
ATOM     88  S   UNL A   1      35.385  32.447  30.453  1.00  0.00     0.127 S 
ATOM     89  O   UNL A   1      36.098  33.678  30.118  1.00  0.00    -0.237 OA
ATOM     90  O   UNL A   1      34.945  31.657  29.303  1.00  0.00    -0.237 OA
ATOM     91  O   UNL A   1      34.403  32.557  31.522  1.00  0.00    -0.744 OA
ENDBRANCH  85  88
ENDBRANCH  57  81
BRANCH  69  92
ATOM     92  C   UNL A   1      44.802  33.538  29.162  1.00  0.00     0.023 A 
ATOM     93  C   UNL A   1      45.401  33.872  30.392  1.00  0.00     0.012 A 
ATOM     94  C   UNL A   1      44.806  34.477  28.111  1.00  0.00     0.148 A 
ATOM     95  C   UNL A   1      45.980  35.128  30.577  1.00  0.00     0.002 A 
ATOM     96  C   UNL A   1      45.426  35.708  28.288  1.00  0.00     0.091 A 
ATOM     97  F   UNL A   1      44.216  34.143  26.953  1.00  0.00    -0.205 F 
ATOM     98  C   UNL A   1      46.005  36.038  29.523  1.00  0.00     0.022 A 
BRANCH  96  99
ATOM     99  S   UNL A   1      45.594  36.901  26.955  1.00  0.00     0.127 S 
ATOM    100  O   UNL A   1      44.241  37.448  26.872  1.00  0.00    -0.237 OA
ATOM    101  O   UNL A   1      46.594  37.826  27.489  1.00  0.00    -0.237 OA
ATOM    102  O   UNL A   1      46.033  36.144  25.791  1.00  0.00    -0.744 OA
ENDBRANCH  96  99
ENDBRANCH  69  92
ENDBRANCH  43  44
ENDBRANCH  36  38
ENDBRANCH  35  36
ENDBRANCH  34  35
ENDBRANCH  33  34
ENDBRANCH  32  33
ENDBRANCH  31  32
ENDBRANCH   1  31
TORSDOF 24
ENDMDL
MODEL 2
REMARK VINA RESULT:     -11.0      1.479      4.016
REMARK SMILES CC1(C)[C@H](C(=O)OCCOCCOCCOC(=O)c2ccc(-c3c4nc(c(-c5cccc(S(=O)(=O)[O-])c5F)c5ccc([nH]5)c(-c5cccc(S(=O)(=O)[O-])c5F)c5nc(c(-c6cccc(S(=O)(=O)[O-])c6F)c6ccc3[nH]6)C=C5)C=C4)cc2)[C@@H]1C(=O)Nc1ccc(NC(=O)C2CCC2)cc1
REMARK SMILES IDX 11 1 10 2 9 3 8 4 7 5 5 6 6 7 4 8 1 9 2 10 3 11 82 12 83 13
REMARK SMILES IDX 84 14 85 15 86 17 87 18 98 19 88 20 97 21 89 22 90 23 91 24
REMARK SMILES IDX 92 26 93 27 94 28 96 29 95 30 12 31 13 32 14 33 15 34 16 35
REMARK SMILES IDX 17 36 18 37 19 38 20 39 81 40 21 41 80 42 22 43 23 44 24 45
REMARK SMILES IDX 74 46 25 47 79 48 73 49 75 50 26 51 78 52 72 53 71 54 27 56
REMARK SMILES IDX 59 57 39 58 58 59 40 60 43 61 57 62 76 63 41 64 42 65 56 67
REMARK SMILES IDX 77 68 44 69 28 70 29 71 37 72 30 73 32 74 38 75 31 76 33 77
REMARK SMILES IDX 34 78 35 79 36 80 60 81 61 82 69 83 62 84 64 85 70 86 63 87
REMARK SMILES IDX 65 88 66 89 67 90 68 91 45 92 46 93 54 94 47 95 49 96 55 97
REMARK SMILES IDX 48 98 50 99 51 100 52 101 53 102
REMARK H PARENT 85 16 90 25 75 55 43 66
REMARK Flexibility Score: inf
ROOT
ATOM      1  C   UNL A   1      35.328  21.994  24.251  1.00  0.00     0.188 C 
ENDROOT
BRANCH   1   2
ATOM      2  O   UNL A   1      34.820  22.886  23.271  1.00  0.00    -0.376 OA
BRANCH   2   3
ATOM      3  C   UNL A   1      33.529  22.604  22.757  1.00  0.00     0.202 C 
BRANCH   3   4
ATOM      4  C   UNL A   1      32.725  21.586  23.576  1.00  0.00     0.261 C 
BRANCH   4   5
ATOM      5  O   UNL A   1      32.291  21.893  24.922  1.00  0.00    -0.463 OA
BRANCH   5   6
ATOM      6  C   UNL A   1      31.181  22.626  25.169  1.00  0.00     0.310 C 
ATOM      7  O   UNL A   1      30.276  22.318  25.912  1.00  0.00    -0.252 OA
BRANCH   6   8
ATOM      8  C   UNL A   1      31.159  23.977  24.565  1.00  0.00     0.118 C 
ATOM      9  C   UNL A   1      29.812  26.125  24.288  1.00  0.00     0.013 C 
ATOM     10  C   UNL A   1      30.675  25.266  25.186  1.00  0.00    -0.009 C 
ATOM     11  C   UNL A   1      30.236  25.325  26.632  1.00  0.00     0.013 C 
ATOM     12  C   UNL A   1      32.164  25.071  24.811  1.00  0.00     0.100 C 
BRANCH  12  13
ATOM     13  C   UNL A   1      33.192  25.158  25.874  1.00  0.00     0.228 C 
ATOM     14  O   UNL A   1      33.817  24.145  26.182  1.00  0.00    -0.274 OA
ATOM     15  N   UNL A   1      33.479  26.327  26.531  1.00  0.00    -0.326 N 
ATOM     16  H   UNL A   1      34.110  26.241  27.283  1.00  0.00     0.169 HD
BRANCH  15  17
ATOM     17  C   UNL A   1      33.012  27.619  26.294  1.00  0.00     0.041 A 
ATOM     18  C   UNL A   1      33.156  28.068  24.989  1.00  0.00     0.028 A 
ATOM     19  C   UNL A   1      32.342  28.414  27.219  1.00  0.00     0.028 A 
ATOM     20  C   UNL A   1      32.465  29.200  24.563  1.00  0.00     0.028 A 
ATOM     21  C   UNL A   1      31.735  29.611  26.792  1.00  0.00     0.028 A 
ATOM     22  C   UNL A   1      31.727  29.978  25.432  1.00  0.00     0.041 A 
BRANCH  22  23
ATOM     23  N   UNL A   1      30.922  31.061  25.054  1.00  0.00    -0.326 N 
ATOM     24  C   UNL A   1      29.899  31.312  24.165  1.00  0.00     0.227 C 
ATOM     25  H   UNL A   1      31.150  31.869  25.568  1.00  0.00     0.169 HD
ATOM     26  O   UNL A   1      29.471  32.485  24.226  1.00  0.00    -0.274 OA
BRANCH  24  27
ATOM     27  C   UNL A   1      29.205  30.348  23.187  1.00  0.00     0.079 C 
ATOM     28  C   UNL A   1      27.641  30.545  23.151  1.00  0.00     0.013 C 
ATOM     29  C   UNL A   1      29.104  30.449  21.646  1.00  0.00     0.013 C 
ATOM     30  C   UNL A   1      27.653  29.968  21.735  1.00  0.00     0.002 C 
ENDBRANCH  24  27
ENDBRANCH  22  23
ENDBRANCH  15  17
ENDBRANCH  12  13
ENDBRANCH   6   8
ENDBRANCH   5   6
ENDBRANCH   4   5
ENDBRANCH   3   4
ENDBRANCH   2   3
ENDBRANCH   1   2
BRANCH   1  31
ATOM     31  C   UNL A   1      36.863  21.882  24.257  1.00  0.00     0.188 C 
BRANCH  31  32
ATOM     32  O   UNL A   1      37.517  21.138  25.279  1.00  0.00    -0.376 OA
BRANCH  32  33
ATOM     33  C   UNL A   1      37.794  19.766  25.049  1.00  0.00     0.202 C 
BRANCH  33  34
ATOM     34  C   UNL A   1      39.203  19.259  25.376  1.00  0.00     0.261 C 
BRANCH  34  35
ATOM     35  O   UNL A   1      39.752  19.778  26.596  1.00  0.00    -0.460 OA
BRANCH  35  36
ATOM     36  C   UNL A   1      41.006  20.287  26.503  1.00  0.00     0.338 C 
ATOM     37  O   UNL A   1      41.969  19.767  25.964  1.00  0.00    -0.246 OA
BRANCH  36  38
ATOM     38  C   UNL A   1      41.009  21.691  26.977  1.00  0.00     0.060 A 
ATOM     39  C   UNL A   1      40.308  22.646  26.221  1.00  0.00     0.016 A 
ATOM     40  C   UNL A   1      41.709  22.076  28.120  1.00  0.00     0.016 A 
ATOM     41  C   UNL A   1      40.342  23.992  26.579  1.00  0.00     0.010 A 
ATOM     42  C   UNL A   1      41.775  23.430  28.458  1.00  0.00     0.010 A 
ATOM     43  C   UNL A   1      41.128  24.396  27.663  1.00  0.00    -0.014 A 
BRANCH  43  44
ATOM     44  C   UNL A   1      41.519  25.819  27.797  1.00  0.00     0.031 A 
ATOM     45  C   UNL A   1      42.886  26.209  27.300  1.00  0.00     0.074 A 
ATOM     46  C   UNL A   1      40.717  26.730  28.375  1.00  0.00     0.049 A 
ATOM     47  N   UNL A   1      43.522  27.342  27.422  1.00  0.00    -0.248 NA
ATOM     48  C   UNL A   1      43.638  25.170  26.573  1.00  0.00     0.031 C 
ATOM     49  C   UNL A   1      39.364  26.480  28.865  1.00  0.00     0.029 A 
ATOM     50  N   UNL A   1      40.952  28.047  28.681  1.00  0.00    -0.354 N 
ATOM     51  C   UNL A   1      44.761  27.141  26.827  1.00  0.00     0.074 A 
ATOM     52  C   UNL A   1      44.787  25.783  26.335  1.00  0.00     0.031 C 
ATOM     53  C   UNL A   1      38.903  27.599  29.453  1.00  0.00     0.029 A 
ATOM     54  C   UNL A   1      39.941  28.628  29.410  1.00  0.00     0.049 A 
ATOM     55  H   UNL A   1      41.765  28.529  28.405  1.00  0.00     0.167 HD
ATOM     56  C   UNL A   1      45.789  28.011  26.696  1.00  0.00     0.034 A 
ATOM     57  C   UNL A   1      39.884  29.839  30.005  1.00  0.00     0.034 A 
ATOM     58  C   UNL A   1      45.759  29.363  27.174  1.00  0.00     0.049 A 
ATOM     59  C   UNL A   1      41.057  30.779  29.876  1.00  0.00     0.074 A 
ATOM     60  C   UNL A   1      46.739  30.334  27.072  1.00  0.00     0.029 A 
ATOM     61  N   UNL A   1      44.695  29.933  27.856  1.00  0.00    -0.354 N 
ATOM     62  N   UNL A   1      42.186  30.611  29.230  1.00  0.00    -0.248 NA
ATOM     63  C   UNL A   1      40.940  32.087  30.540  1.00  0.00     0.031 C 
ATOM     64  C   UNL A   1      46.273  31.487  27.709  1.00  0.00     0.029 A 
ATOM     65  C   UNL A   1      44.994  31.241  28.184  1.00  0.00     0.049 A 
ATOM     66  H   UNL A   1      43.853  29.473  28.073  1.00  0.00     0.167 HD
ATOM     67  C   UNL A   1      42.890  31.804  29.370  1.00  0.00     0.074 A 
ATOM     68  C   UNL A   1      42.058  32.690  30.156  1.00  0.00     0.031 C 
ATOM     69  C   UNL A   1      44.119  32.133  28.901  1.00  0.00     0.034 A 
BRANCH  56  70
ATOM     70  C   UNL A   1      47.027  27.522  25.997  1.00  0.00     0.023 A 
ATOM     71  C   UNL A   1      47.983  26.775  26.714  1.00  0.00     0.012 A 
ATOM     72  C   UNL A   1      47.227  27.770  24.626  1.00  0.00     0.148 A 
ATOM     73  C   UNL A   1      49.134  26.306  26.082  1.00  0.00     0.002 A 
ATOM     74  C   UNL A   1      48.356  27.264  23.994  1.00  0.00     0.091 A 
ATOM     75  F   UNL A   1      46.321  28.511  23.971  1.00  0.00    -0.205 F 
ATOM     76  C   UNL A   1      49.315  26.541  24.721  1.00  0.00     0.022 A 
BRANCH  74  77
ATOM     77  S   UNL A   1      48.640  27.451  22.230  1.00  0.00     0.127 S 
ATOM     78  O   UNL A   1      49.937  28.124  22.210  1.00  0.00    -0.237 OA
ATOM     79  O   UNL A   1      48.665  26.063  21.772  1.00  0.00    -0.237 OA
ATOM     80  O   UNL A   1      47.521  28.235  21.725  1.00  0.00    -0.744 OA
ENDBRANCH  74  77
ENDBRANCH  56  70
BRANCH  57  81
ATOM     81  C   UNL A   1      38.665  30.246  30.760  1.00  0.00     0.023 A 
ATOM     82  C   UNL A   1      38.533  29.874  32.112  1.00  0.00     0.012 A 
ATOM     83  C   UNL A   1      37.640  30.996  30.152  1.00  0.00     0.148 A 
ATOM     84  C   UNL A   1      37.391  30.217  32.837  1.00  0.00     0.002 A 
ATOM     85  C   UNL A   1      36.528  31.379  30.895  1.00  0.00     0.091 A 
ATOM     86  F   UNL A   1      37.774  31.323  28.859  1.00  0.00    -0.205 F 
ATOM     87  C   UNL A   1      36.394  30.977  32.232  1.00  0.00     0.022 A 
BRANCH  85  88
ATOM     88  S   UNL A   1      35.249  32.455  30.235  1.00  0.00     0.127 S 
ATOM     89  O   UNL A   1      34.402  32.664  31.407  1.00  0.00    -0.237 OA
ATOM     90  O   UNL A   1      36.028  33.623  29.822  1.00  0.00    -0.237 OA
ATOM     91  O   UNL A   1      34.642  31.716  29.139  1.00  0.00    -0.744 OA
ENDBRANCH  85  88
ENDBRANCH  57  81
BRANCH  69  92
ATOM     92  C   UNL A   1      44.629  33.526  29.157  1.00  0.00     0.023 A 
ATOM     93  C   UNL A   1      45.523  33.765  30.218  1.00  0.00     0.012 A 
ATOM     94  C   UNL A   1      44.309  34.574  28.270  1.00  0.00     0.148 A 
ATOM     95  C   UNL A   1      46.078  35.032  30.403  1.00  0.00     0.002 A 
ATOM     96  C   UNL A   1      44.901  35.820  28.433  1.00  0.00     0.091 A 
ATOM     97  F   UNL A   1      43.442  34.328  27.276  1.00  0.00    -0.205 F 
ATOM     98  C   UNL A   1      45.779  36.053  29.503  1.00  0.00     0.022 A 
BRANCH  96  99
ATOM     99  S   UNL A   1      44.652  37.164  27.266  1.00  0.00     0.127 S 
ATOM    100  O   UNL A   1      44.677  38.331  28.145  1.00  0.00    -0.237 OA
ATOM    101  O   UNL A   1      45.817  37.035  26.390  1.00  0.00    -0.237 OA
ATOM    102  O   UNL A   1      43.376  36.899  26.615  1.00  0.00    -0.744 OA
ENDBRANCH  96  99
ENDBRANCH  69  92
ENDBRANCH  43  44
ENDBRANCH  36  38
ENDBRANCH  35  36
ENDBRANCH  34  35
ENDBRANCH  33  34
ENDBRANCH  32  33
ENDBRANCH  31  32
ENDBRANCH   1  31
TORSDOF 24
ENDMDL
MODEL 3
REMARK VINA RESULT:     -10.3      2.917      8.477
REMARK SMILES CC1(C)[C@H](C(=O)OCCOCCOCCOC(=O)c2ccc(-c3c4nc(c(-c5cccc(S(=O)(=O)[O-])c5F)c5ccc([nH]5)c(-c5cccc(S(=O)(=O)[O-])c5F)c5nc(c(-c6cccc(S(=O)(=O)[O-])c6F)c6ccc3[nH]6)C=C5)C=C4)cc2)[C@@H]1C(=O)Nc1ccc(NC(=O)C2CCC2)cc1
REMARK SMILES IDX 11 1 10 2 9 3 8 4 7 5 5 6 6 7 4 8 1 9 2 10 3 11 82 12 83 13
REMARK SMILES IDX 84 14 85 15 86 17 87 18 98 19 88 20 97 21 89 22 90 23 91 24
REMARK SMILES IDX 92 26 93 27 94 28 96 29 95 30 12 31 13 32 14 33 15 34 16 35
REMARK SMILES IDX 17 36 18 37 19 38 20 39 81 40 21 41 80 42 22 43 23 44 24 45
REMARK SMILES IDX 74 46 25 47 79 48 73 49 75 50 26 51 78 52 72 53 71 54 27 56
REMARK SMILES IDX 59 57 39 58 58 59 40 60 43 61 57 62 76 63 41 64 42 65 56 67
REMARK SMILES IDX 77 68 44 69 28 70 29 71 37 72 30 73 32 74 38 75 31 76 33 77
REMARK SMILES IDX 34 78 35 79 36 80 60 81 61 82 69 83 62 84 64 85 70 86 63 87
REMARK SMILES IDX 65 88 66 89 67 90 68 91 45 92 46 93 54 94 47 95 49 96 55 97
REMARK SMILES IDX 48 98 50 99 51 100 52 101 53 102
REMARK H PARENT 85 16 90 25 75 55 43 66
REMARK Flexibility Score: inf
ROOT
ATOM      1  C   UNL A   1      34.525  21.857  24.217  1.00  0.00     0.188 C 
ENDROOT
BRANCH   1   2
ATOM      2  O   UNL A   1      33.463  21.331  23.435  1.00  0.00    -0.376 OA
BRANCH   2   3
ATOM      3  C   UNL A   1      32.555  20.461  24.090  1.00  0.00     0.202 C 
BRANCH   3   4
ATOM      4  C   UNL A   1      32.382  20.732  25.590  1.00  0.00     0.261 C 
BRANCH   4   5
ATOM      5  O   UNL A   1      31.128  21.232  26.115  1.00  0.00    -0.463 OA
BRANCH   5   6
ATOM      6  C   UNL A   1      30.897  22.555  26.283  1.00  0.00     0.310 C 
ATOM      7  O   UNL A   1      30.705  23.115  27.339  1.00  0.00    -0.252 OA
BRANCH   6   8
ATOM      8  C   UNL A   1      31.025  23.386  25.065  1.00  0.00     0.118 C 
ATOM      9  C   UNL A   1      29.881  25.118  23.583  1.00  0.00     0.013 C 
ATOM     10  C   UNL A   1      30.612  24.827  24.874  1.00  0.00    -0.009 C 
ATOM     11  C   UNL A   1      30.089  25.653  26.028  1.00  0.00     0.013 C 
ATOM     12  C   UNL A   1      32.100  24.407  24.802  1.00  0.00     0.100 C 
BRANCH  12  13
ATOM     13  C   UNL A   1      33.063  25.001  25.758  1.00  0.00     0.228 C 
ATOM     14  O   UNL A   1      33.632  24.266  26.564  1.00  0.00    -0.274 OA
ATOM     15  N   UNL A   1      33.351  26.342  25.782  1.00  0.00    -0.326 N 
ATOM     16  H   UNL A   1      33.930  26.633  26.523  1.00  0.00     0.169 HD
BRANCH  15  17
ATOM     17  C   UNL A   1      32.945  27.355  24.913  1.00  0.00     0.041 A 
ATOM     18  C   UNL A   1      33.376  27.215  23.602  1.00  0.00     0.028 A 
ATOM     19  C   UNL A   1      32.083  28.396  25.241  1.00  0.00     0.028 A 
ATOM     20  C   UNL A   1      32.796  27.980  22.594  1.00  0.00     0.028 A 
ATOM     21  C   UNL A   1      31.584  29.228  24.219  1.00  0.00     0.028 A 
ATOM     22  C   UNL A   1      31.880  28.976  22.866  1.00  0.00     0.041 A 
BRANCH  22  23
ATOM     23  N   UNL A   1      31.177  29.707  21.898  1.00  0.00    -0.326 N 
ATOM     24  C   UNL A   1      29.934  30.286  21.757  1.00  0.00     0.227 C 
ATOM     25  H   UNL A   1      31.726  29.848  21.092  1.00  0.00     0.169 HD
ATOM     26  O   UNL A   1      29.788  30.879  20.667  1.00  0.00    -0.274 OA
BRANCH  24  27
ATOM     27  C   UNL A   1      28.771  30.341  22.762  1.00  0.00     0.079 C 
ATOM     28  C   UNL A   1      28.867  31.580  23.732  1.00  0.00     0.013 C 
ATOM     29  C   UNL A   1      27.319  30.826  22.527  1.00  0.00     0.013 C 
ATOM     30  C   UNL A   1      27.349  31.499  23.902  1.00  0.00     0.002 C 
ENDBRANCH  24  27
ENDBRANCH  22  23
ENDBRANCH  15  17
ENDBRANCH  12  13
ENDBRANCH   6   8
ENDBRANCH   5   6
ENDBRANCH   4   5
ENDBRANCH   3   4
ENDBRANCH   2   3
ENDBRANCH   1   2
BRANCH   1  31
ATOM     31  C   UNL A   1      35.378  22.906  23.484  1.00  0.00     0.188 C 
BRANCH  31  32
ATOM     32  O   UNL A   1      35.980  23.969  24.217  1.00  0.00    -0.376 OA
BRANCH  32  33
ATOM     33  C   UNL A   1      36.756  23.652  25.362  1.00  0.00     0.202 C 
BRANCH  33  34
ATOM     34  C   UNL A   1      37.839  22.578  25.213  1.00  0.00     0.261 C 
BRANCH  34  35
ATOM     35  O   UNL A   1      38.575  22.308  26.416  1.00  0.00    -0.460 OA
BRANCH  35  36
ATOM     36  C   UNL A   1      39.866  22.722  26.417  1.00  0.00     0.338 C 
ATOM     37  O   UNL A   1      40.820  22.145  25.923  1.00  0.00    -0.246 OA
BRANCH  36  38
ATOM     38  C   UNL A   1      39.942  24.109  26.933  1.00  0.00     0.060 A 
ATOM     39  C   UNL A   1      40.431  25.108  26.075  1.00  0.00     0.016 A 
ATOM     40  C   UNL A   1      39.574  24.423  28.241  1.00  0.00     0.016 A 
ATOM     41  C   UNL A   1      40.595  26.414  26.534  1.00  0.00     0.010 A 
ATOM     42  C   UNL A   1      39.775  25.724  28.714  1.00  0.00     0.010 A 
ATOM     43  C   UNL A   1      40.326  26.710  27.875  1.00  0.00    -0.014 A 
BRANCH  43  44
ATOM     44  C   UNL A   1      40.886  27.941  28.481  1.00  0.00     0.031 A 
ATOM     45  C   UNL A   1      39.908  28.964  28.995  1.00  0.00     0.074 A 
ATOM     46  C   UNL A   1      42.209  28.172  28.539  1.00  0.00     0.049 A 
ATOM     47  N   UNL A   1      40.126  30.173  29.438  1.00  0.00    -0.248 NA
ATOM     48  C   UNL A   1      38.488  28.566  28.999  1.00  0.00     0.031 C 
ATOM     49  C   UNL A   1      43.252  27.246  28.105  1.00  0.00     0.029 A 
ATOM     50  N   UNL A   1      42.895  29.285  28.957  1.00  0.00    -0.354 N 
ATOM     51  C   UNL A   1      38.872  30.694  29.733  1.00  0.00     0.074 A 
ATOM     52  C   UNL A   1      37.898  29.671  29.429  1.00  0.00     0.031 C 
ATOM     53  C   UNL A   1      44.448  27.848  28.236  1.00  0.00     0.029 A 
ATOM     54  C   UNL A   1      44.249  29.211  28.731  1.00  0.00     0.049 A 
ATOM     55  H   UNL A   1      42.459  30.061  29.378  1.00  0.00     0.167 HD
ATOM     56  C   UNL A   1      38.556  31.916  30.219  1.00  0.00     0.034 A 
ATOM     57  C   UNL A   1      45.207  30.151  28.872  1.00  0.00     0.034 A 
ATOM     58  C   UNL A   1      39.524  32.928  30.531  1.00  0.00     0.049 A 
ATOM     59  C   UNL A   1      44.826  31.520  29.380  1.00  0.00     0.074 A 
ATOM     60  C   UNL A   1      39.311  34.192  31.049  1.00  0.00     0.029 A 
ATOM     61  N   UNL A   1      40.891  32.794  30.343  1.00  0.00    -0.354 N 
ATOM     62  N   UNL A   1      43.649  31.970  29.745  1.00  0.00    -0.248 NA
ATOM     63  C   UNL A   1      45.910  32.506  29.520  1.00  0.00     0.031 C 
ATOM     64  C   UNL A   1      40.550  34.830  31.158  1.00  0.00     0.029 A 
ATOM     65  C   UNL A   1      41.535  33.953  30.732  1.00  0.00     0.049 A 
ATOM     66  H   UNL A   1      41.336  31.992  29.985  1.00  0.00     0.167 HD
ATOM     67  C   UNL A   1      43.858  33.269  30.199  1.00  0.00     0.074 A 
ATOM     68  C   UNL A   1      45.276  33.533  30.071  1.00  0.00     0.031 C 
ATOM     69  C   UNL A   1      42.957  34.167  30.669  1.00  0.00     0.034 A 
BRANCH  56  70
ATOM     70  C   UNL A   1      37.101  32.217  30.450  1.00  0.00     0.023 A 
ATOM     71  C   UNL A   1      36.538  31.997  31.723  1.00  0.00     0.012 A 
ATOM     72  C   UNL A   1      36.303  32.751  29.421  1.00  0.00     0.148 A 
ATOM     73  C   UNL A   1      35.193  32.277  31.960  1.00  0.00     0.002 A 
ATOM     74  C   UNL A   1      34.974  33.066  29.676  1.00  0.00     0.091 A 
ATOM     75  F   UNL A   1      36.851  32.922  28.209  1.00  0.00    -0.205 F 
ATOM     76  C   UNL A   1      34.415  32.821  30.941  1.00  0.00     0.022 A 
BRANCH  74  77
ATOM     77  S   UNL A   1      33.913  33.839  28.450  1.00  0.00     0.127 S 
ATOM     78  O   UNL A   1      33.529  32.692  27.629  1.00  0.00    -0.237 OA
ATOM     79  O   UNL A   1      32.837  34.386  29.275  1.00  0.00    -0.237 OA
ATOM     80  O   UNL A   1      34.734  34.839  27.783  1.00  0.00    -0.744 OA
ENDBRANCH  74  77
ENDBRANCH  56  70
BRANCH  57  81
ATOM     81  C   UNL A   1      46.626  29.830  28.549  1.00  0.00     0.023 A 
ATOM     82  C   UNL A   1      47.118  30.094  27.255  1.00  0.00     0.012 A 
ATOM     83  C   UNL A   1      47.490  29.269  29.509  1.00  0.00     0.148 A 
ATOM     84  C   UNL A   1      48.434  29.778  26.915  1.00  0.00     0.002 A 
ATOM     85  C   UNL A   1      48.815  29.006  29.179  1.00  0.00     0.091 A 
ATOM     86  F   UNL A   1      46.999  29.007  30.729  1.00  0.00    -0.205 F 
ATOM     87  C   UNL A   1      49.284  29.244  27.878  1.00  0.00     0.022 A 
BRANCH  85  88
ATOM     88  S   UNL A   1      50.015  28.426  30.384  1.00  0.00     0.127 S 
ATOM     89  O   UNL A   1      51.262  28.507  29.627  1.00  0.00    -0.237 OA
ATOM     90  O   UNL A   1      49.874  29.423  31.447  1.00  0.00    -0.237 OA
ATOM     91  O   UNL A   1      49.584  27.086  30.753  1.00  0.00    -0.744 OA
ENDBRANCH  85  88
ENDBRANCH  57  81
BRANCH  69  92
ATOM     92  C   UNL A   1      43.467  35.502  31.146  1.00  0.00     0.023 A 
ATOM     93  C   UNL A   1      43.968  35.637  32.455  1.00  0.00     0.012 A 
ATOM     94  C   UNL A   1      43.556  36.589  30.253  1.00  0.00     0.148 A 
ATOM     95  C   UNL A   1      44.532  36.842  32.873  1.00  0.00     0.002 A 
ATOM     96  C   UNL A   1      44.162  37.770  30.663  1.00  0.00     0.091 A 
ATOM     97  F   UNL A   1      43.058  36.443  29.016  1.00  0.00    -0.205 F 
ATOM     98  C   UNL A   1      44.643  37.901  31.975  1.00  0.00     0.022 A 
BRANCH  96  99
ATOM     99  S   UNL A   1      44.436  39.149  29.544  1.00  0.00     0.127 S 
ATOM    100  O   UNL A   1      43.091  39.707  29.424  1.00  0.00    -0.237 OA
ATOM    101  O   UNL A   1      45.377  39.979  30.298  1.00  0.00    -0.237 OA
ATOM    102  O   UNL A   1      44.985  38.573  28.324  1.00  0.00    -0.744 OA
ENDBRANCH  96  99
ENDBRANCH  69  92
ENDBRANCH  43  44
ENDBRANCH  36  38
ENDBRANCH  35  36
ENDBRANCH  34  35
ENDBRANCH  33  34
ENDBRANCH  32  33
ENDBRANCH  31  32
ENDBRANCH   1  31
TORSDOF 24
ENDMDL
