MODEL 1
REMARK VINA RESULT:     -10.7      0.000      0.000
REMARK SMILES CC(C)N(c1cc2c(cc1Cl)C=C(C(=O)OCCOCCOCCOC(=O)c1ccc(-c3c4nc(c(-c5cccc(S(=O)(=O)[O-])c5F)c5ccc([nH]5)c(-c5cccc(S(=O)(=O)[O-])c5F)c5nc(c(-c6cccc(S(=O)(=O)[O-])c6F)c6ccc3[nH]6)C=C5)C=C4)cc1)[C@@H](C(F)(F)F)O2)C(C)C
REMARK SMILES IDX 21 1 20 2 19 3 18 4 17 5 16 6 14 7 15 8 13 9 5 10 6 11 10 12
REMARK SMILES IDX 7 13 9 14 11 15 8 16 96 17 12 18 91 19 4 20 2 21 1 22 3 23
REMARK SMILES IDX 97 24 98 25 99 26 92 27 93 28 94 29 95 30 22 31 23 32 24 33
REMARK SMILES IDX 25 34 26 35 27 36 28 37 29 38 90 39 30 40 89 41 31 42 32 43
REMARK SMILES IDX 33 44 83 45 34 46 88 47 82 48 84 49 35 50 87 51 81 52 80 53
REMARK SMILES IDX 36 55 68 56 48 57 67 58 49 59 52 60 66 61 85 62 50 63 51 64
REMARK SMILES IDX 65 66 86 67 53 68 37 69 38 70 46 71 39 72 41 73 47 74 40 75
REMARK SMILES IDX 42 76 43 77 44 78 45 79 69 80 70 81 78 82 71 83 73 84 79 85
REMARK SMILES IDX 72 86 74 87 75 88 76 89 77 90 54 91 55 92 63 93 56 94 58 95
REMARK SMILES IDX 64 96 57 97 59 98 60 99 61 100 62 101
REMARK H PARENT 84 54 52 65
REMARK Flexibility Score: inf
ROOT
ATOM      1  C   UNL A   1      41.719  19.270  26.170  1.00  0.00     0.188 C 
ENDROOT
BRANCH   1   2
ATOM      2  C   UNL A   1      41.004  20.577  26.573  1.00  0.00     0.188 C 
BRANCH   2   3
ATOM      3  O   UNL A   1      39.678  20.688  26.114  1.00  0.00    -0.376 OA
BRANCH   3   4
ATOM      4  C   UNL A   1      39.030  21.940  26.006  1.00  0.00     0.202 C 
BRANCH   4   5
ATOM      5  C   UNL A   1      37.509  22.170  26.025  1.00  0.00     0.261 C 
BRANCH   5   6
ATOM      6  O   UNL A   1      36.814  22.116  24.780  1.00  0.00    -0.460 OA
BRANCH   6   7
ATOM      7  C   UNL A   1      35.622  21.476  24.801  1.00  0.00     0.338 C 
ATOM      8  O   UNL A   1      35.441  20.275  24.911  1.00  0.00    -0.246 OA
BRANCH   7   9
ATOM      9  C   UNL A   1      34.538  22.476  24.780  1.00  0.00     0.087 C 
ATOM     10  C   UNL A   1      31.886  26.744  24.260  1.00  0.00     0.060 A 
ATOM     11  C   UNL A   1      31.692  25.512  24.931  1.00  0.00     0.074 A 
ATOM     12  C   UNL A   1      32.981  26.802  23.367  1.00  0.00     0.065 A 
ATOM     13  C   UNL A   1      32.592  24.445  24.817  1.00  0.00     0.130 A 
ATOM     14  C   UNL A   1      33.859  25.715  23.221  1.00  0.00     0.034 A 
ATOM     15  Cl  UNL A   1      33.438  28.214  22.477  1.00  0.00    -0.082 Cl
ATOM     16  C   UNL A   1      33.693  24.557  23.977  1.00  0.00     0.019 A 
ATOM     17  O   UNL A   1      32.333  23.345  25.584  1.00  0.00    -0.475 OA
ATOM     18  C   UNL A   1      34.703  23.515  23.953  1.00  0.00     0.027 C 
ATOM     19  C   UNL A   1      33.334  22.291  25.665  1.00  0.00     0.316 C 
BRANCH  10  20
ATOM     20  N   UNL A   1      31.032  27.825  24.579  1.00  0.00    -0.365 N 
BRANCH  20  21
ATOM     21  C   UNL A   1      29.851  28.080  23.719  1.00  0.00     0.076 C 
ATOM     22  C   UNL A   1      30.236  28.400  22.274  1.00  0.00     0.030 C 
ATOM     23  C   UNL A   1      28.813  26.958  23.746  1.00  0.00     0.030 C 
ENDBRANCH  20  21
BRANCH  20  24
ATOM     24  C   UNL A   1      31.468  28.667  25.720  1.00  0.00     0.076 C 
ATOM     25  C   UNL A   1      32.234  27.891  26.787  1.00  0.00     0.030 C 
ATOM     26  C   UNL A   1      32.218  29.922  25.288  1.00  0.00     0.030 C 
ENDBRANCH  20  24
ENDBRANCH  10  20
BRANCH  19  27
ATOM     27  C   UNL A   1      33.718  22.090  27.140  1.00  0.00     0.430 C 
ATOM     28  F   UNL A   1      34.712  22.936  27.510  1.00  0.00    -0.167 F 
ATOM     29  F   UNL A   1      32.677  22.341  27.970  1.00  0.00    -0.167 F 
ATOM     30  F   UNL A   1      34.143  20.832  27.394  1.00  0.00    -0.167 F 
ENDBRANCH  19  27
ENDBRANCH   7   9
ENDBRANCH   6   7
ENDBRANCH   5   6
ENDBRANCH   4   5
ENDBRANCH   3   4
ENDBRANCH   2   3
ENDBRANCH   1   2
BRANCH   1  31
ATOM     31  O   UNL A   1      42.647  19.278  25.092  1.00  0.00    -0.376 OA
BRANCH  31  32
ATOM     32  C   UNL A   1      43.983  19.708  25.335  1.00  0.00     0.202 C 
BRANCH  32  33
ATOM     33  C   UNL A   1      44.476  21.012  24.694  1.00  0.00     0.261 C 
BRANCH  33  34
ATOM     34  O   UNL A   1      43.625  22.141  24.946  1.00  0.00    -0.460 OA
BRANCH  34  35
ATOM     35  C   UNL A   1      44.237  23.353  24.905  1.00  0.00     0.338 C 
ATOM     36  O   UNL A   1      45.026  23.751  24.066  1.00  0.00    -0.246 OA
BRANCH  35  37
ATOM     37  C   UNL A   1      43.641  24.226  25.938  1.00  0.00     0.060 A 
ATOM     38  C   UNL A   1      42.765  23.717  26.898  1.00  0.00     0.016 A 
ATOM     39  C   UNL A   1      43.983  25.586  25.936  1.00  0.00     0.016 A 
ATOM     40  C   UNL A   1      42.254  24.572  27.879  1.00  0.00     0.010 A 
ATOM     41  C   UNL A   1      43.456  26.441  26.905  1.00  0.00     0.010 A 
ATOM     42  C   UNL A   1      42.606  25.934  27.897  1.00  0.00    -0.014 A 
BRANCH  42  43
ATOM     43  C   UNL A   1      42.239  26.775  29.061  1.00  0.00     0.031 A 
ATOM     44  C   UNL A   1      43.097  26.862  30.287  1.00  0.00     0.074 A 
ATOM     45  C   UNL A   1      41.082  27.463  28.997  1.00  0.00     0.049 A 
ATOM     46  N   UNL A   1      42.951  27.639  31.328  1.00  0.00    -0.248 NA
ATOM     47  C   UNL A   1      44.260  25.965  30.361  1.00  0.00     0.031 C 
ATOM     48  C   UNL A   1      40.137  27.408  27.880  1.00  0.00     0.029 A 
ATOM     49  N   UNL A   1      40.505  28.337  29.881  1.00  0.00    -0.354 N 
ATOM     50  C   UNL A   1      44.004  27.338  32.182  1.00  0.00     0.074 A 
ATOM     51  C   UNL A   1      44.770  26.285  31.546  1.00  0.00     0.031 C 
ATOM     52  C   UNL A   1      39.106  28.226  28.138  1.00  0.00     0.029 A 
ATOM     53  C   UNL A   1      39.314  28.860  29.436  1.00  0.00     0.049 A 
ATOM     54  H   UNL A   1      40.906  28.568  30.751  1.00  0.00     0.167 HD
ATOM     55  C   UNL A   1      44.313  27.911  33.369  1.00  0.00     0.034 A 
ATOM     56  C   UNL A   1      38.491  29.766  29.997  1.00  0.00     0.034 A 
ATOM     57  C   UNL A   1      43.554  28.966  33.988  1.00  0.00     0.049 A 
ATOM     58  C   UNL A   1      38.866  30.389  31.309  1.00  0.00     0.074 A 
ATOM     59  C   UNL A   1      43.833  29.648  35.161  1.00  0.00     0.029 A 
ATOM     60  N   UNL A   1      42.367  29.486  33.499  1.00  0.00    -0.354 N 
ATOM     61  N   UNL A   1      39.945  30.200  32.028  1.00  0.00    -0.248 NA
ATOM     62  C   UNL A   1      37.929  31.372  31.873  1.00  0.00     0.031 C 
ATOM     63  C   UNL A   1      42.811  30.575  35.385  1.00  0.00     0.029 A 
ATOM     64  C   UNL A   1      41.898  30.475  34.348  1.00  0.00     0.049 A 
ATOM     65  H   UNL A   1      41.922  29.196  32.669  1.00  0.00     0.167 HD
ATOM     66  C   UNL A   1      39.829  31.055  33.117  1.00  0.00     0.074 A 
ATOM     67  C   UNL A   1      38.582  31.775  32.957  1.00  0.00     0.031 C 
ATOM     68  C   UNL A   1      40.678  31.216  34.159  1.00  0.00     0.034 A 
BRANCH  55  69
ATOM     69  C   UNL A   1      45.578  27.481  34.062  1.00  0.00     0.023 A 
ATOM     70  C   UNL A   1      45.518  26.399  34.961  1.00  0.00     0.012 A 
ATOM     71  C   UNL A   1      46.827  28.033  33.720  1.00  0.00     0.148 A 
ATOM     72  C   UNL A   1      46.683  25.869  35.512  1.00  0.00     0.002 A 
ATOM     73  C   UNL A   1      47.988  27.483  34.254  1.00  0.00     0.091 A 
ATOM     74  F   UNL A   1      46.856  29.065  32.864  1.00  0.00    -0.205 F 
ATOM     75  C   UNL A   1      47.917  26.403  35.150  1.00  0.00     0.022 A 
BRANCH  73  76
ATOM     76  S   UNL A   1      49.634  28.053  33.812  1.00  0.00     0.127 S 
ATOM     77  O   UNL A   1      49.334  29.305  33.117  1.00  0.00    -0.237 OA
ATOM     78  O   UNL A   1      50.263  28.219  35.122  1.00  0.00    -0.237 OA
ATOM     79  O   UNL A   1      50.214  27.008  32.980  1.00  0.00    -0.744 OA
ENDBRANCH  73  76
ENDBRANCH  55  69
BRANCH  56  80
ATOM     80  C   UNL A   1      37.281  30.202  29.253  1.00  0.00     0.023 A 
ATOM     81  C   UNL A   1      36.401  29.227  28.749  1.00  0.00     0.012 A 
ATOM     82  C   UNL A   1      36.962  31.566  29.112  1.00  0.00     0.148 A 
ATOM     83  C   UNL A   1      35.222  29.602  28.107  1.00  0.00     0.002 A 
ATOM     84  C   UNL A   1      35.767  31.932  28.505  1.00  0.00     0.091 A 
ATOM     85  F   UNL A   1      37.819  32.471  29.602  1.00  0.00    -0.205 F 
ATOM     86  C   UNL A   1      34.901  30.952  27.993  1.00  0.00     0.022 A 
BRANCH  84  87
ATOM     87  S   UNL A   1      35.217  33.638  28.401  1.00  0.00     0.127 S 
ATOM     88  O   UNL A   1      35.900  34.242  29.542  1.00  0.00    -0.237 OA
ATOM     89  O   UNL A   1      35.734  34.039  27.091  1.00  0.00    -0.237 OA
ATOM     90  O   UNL A   1      33.765  33.592  28.490  1.00  0.00    -0.744 OA
ENDBRANCH  84  87
ENDBRANCH  56  80
BRANCH  68  91
ATOM     91  C   UNL A   1      40.304  32.207  35.227  1.00  0.00     0.023 A 
ATOM     92  C   UNL A   1      40.856  33.501  35.188  1.00  0.00     0.012 A 
ATOM     93  C   UNL A   1      39.325  31.895  36.192  1.00  0.00     0.148 A 
ATOM     94  C   UNL A   1      40.444  34.473  36.100  1.00  0.00     0.002 A 
ATOM     95  C   UNL A   1      38.898  32.877  37.077  1.00  0.00     0.091 A 
ATOM     96  F   UNL A   1      38.824  30.652  36.213  1.00  0.00    -0.205 F 
ATOM     97  C   UNL A   1      39.460  34.165  37.035  1.00  0.00     0.022 A 
BRANCH  95  98
ATOM     98  S   UNL A   1      37.585  32.603  38.273  1.00  0.00     0.127 S 
ATOM     99  O   UNL A   1      37.744  31.180  38.567  1.00  0.00    -0.237 OA
ATOM    100  O   UNL A   1      37.969  33.499  39.364  1.00  0.00    -0.237 OA
ATOM    101  O   UNL A   1      36.344  32.961  37.600  1.00  0.00    -0.744 OA
ENDBRANCH  95  98
ENDBRANCH  68  91
ENDBRANCH  42  43
ENDBRANCH  35  37
ENDBRANCH  34  35
ENDBRANCH  33  34
ENDBRANCH  32  33
ENDBRANCH  31  32
ENDBRANCH   1  31
TORSDOF 24
ENDMDL
MODEL 2
REMARK VINA RESULT:     -10.5      5.297     11.026
REMARK SMILES CC(C)N(c1cc2c(cc1Cl)C=C(C(=O)OCCOCCOCCOC(=O)c1ccc(-c3c4nc(c(-c5cccc(S(=O)(=O)[O-])c5F)c5ccc([nH]5)c(-c5cccc(S(=O)(=O)[O-])c5F)c5nc(c(-c6cccc(S(=O)(=O)[O-])c6F)c6ccc3[nH]6)C=C5)C=C4)cc1)[C@@H](C(F)(F)F)O2)C(C)C
REMARK SMILES IDX 21 1 20 2 19 3 18 4 17 5 16 6 14 7 15 8 13 9 5 10 6 11 10 12
REMARK SMILES IDX 7 13 9 14 11 15 8 16 96 17 12 18 91 19 4 20 2 21 1 22 3 23
REMARK SMILES IDX 97 24 98 25 99 26 92 27 93 28 94 29 95 30 22 31 23 32 24 33
REMARK SMILES IDX 25 34 26 35 27 36 28 37 29 38 90 39 30 40 89 41 31 42 32 43
REMARK SMILES IDX 33 44 83 45 34 46 88 47 82 48 84 49 35 50 87 51 81 52 80 53
REMARK SMILES IDX 36 55 68 56 48 57 67 58 49 59 52 60 66 61 85 62 50 63 51 64
REMARK SMILES IDX 65 66 86 67 53 68 37 69 38 70 46 71 39 72 41 73 47 74 40 75
REMARK SMILES IDX 42 76 43 77 44 78 45 79 69 80 70 81 78 82 71 83 73 84 79 85
REMARK SMILES IDX 72 86 74 87 75 88 76 89 77 90 54 91 55 92 63 93 56 94 58 95
REMARK SMILES IDX 64 96 57 97 59 98 60 99 61 100 62 101
REMARK H PARENT 84 54 52 65
REMARK Flexibility Score: inf
ROOT
ATOM      1  C   UNL A   1      36.089  34.270  32.172  1.00  0.00     0.188 C 
ENDROOT
BRANCH   1   2
ATOM      2  C   UNL A   1      36.797  33.114  31.434  1.00  0.00     0.188 C 
BRANCH   2   3
ATOM      3  O   UNL A   1      36.036  32.514  30.413  1.00  0.00    -0.376 OA
BRANCH   3   4
ATOM      4  C   UNL A   1      36.629  32.051  29.216  1.00  0.00     0.202 C 
BRANCH   4   5
ATOM      5  C   UNL A   1      37.929  31.233  29.115  1.00  0.00     0.261 C 
BRANCH   5   6
ATOM      6  O   UNL A   1      37.837  29.902  28.610  1.00  0.00    -0.460 OA
BRANCH   6   7
ATOM      7  C   UNL A   1      38.264  28.927  29.445  1.00  0.00     0.338 C 
ATOM      8  O   UNL A   1      37.857  28.703  30.572  1.00  0.00    -0.246 OA
BRANCH   7   9
ATOM      9  C   UNL A   1      39.245  28.082  28.738  1.00  0.00     0.087 C 
ATOM     10  C   UNL A   1      41.921  24.156  27.023  1.00  0.00     0.060 A 
ATOM     11  C   UNL A   1      42.106  25.558  27.070  1.00  0.00     0.074 A 
ATOM     12  C   UNL A   1      40.631  23.686  27.367  1.00  0.00     0.065 A 
ATOM     13  C   UNL A   1      41.118  26.431  27.541  1.00  0.00     0.130 A 
ATOM     14  C   UNL A   1      39.627  24.568  27.798  1.00  0.00     0.034 A 
ATOM     15  Cl  UNL A   1      40.188  22.014  27.427  1.00  0.00    -0.082 Cl
ATOM     16  C   UNL A   1      39.882  25.931  27.930  1.00  0.00     0.019 A 
ATOM     17  O   UNL A   1      41.458  27.753  27.615  1.00  0.00    -0.475 OA
ATOM     18  C   UNL A   1      38.900  26.804  28.545  1.00  0.00     0.027 C 
ATOM     19  C   UNL A   1      40.552  28.677  28.283  1.00  0.00     0.316 C 
BRANCH  10  20
ATOM     20  N   UNL A   1      43.033  23.340  26.712  1.00  0.00    -0.365 N 
BRANCH  20  21
ATOM     21  C   UNL A   1      43.050  22.618  25.417  1.00  0.00     0.076 C 
ATOM     22  C   UNL A   1      44.099  23.170  24.451  1.00  0.00     0.030 C 
ATOM     23  C   UNL A   1      43.214  21.104  25.556  1.00  0.00     0.030 C 
ENDBRANCH  20  21
BRANCH  20  24
ATOM     24  C   UNL A   1      44.053  23.219  27.782  1.00  0.00     0.076 C 
ATOM     25  C   UNL A   1      45.077  24.349  27.773  1.00  0.00     0.030 C 
ATOM     26  C   UNL A   1      43.450  23.017  29.168  1.00  0.00     0.030 C 
ENDBRANCH  20  24
ENDBRANCH  10  20
BRANCH  19  27
ATOM     27  C   UNL A   1      41.310  29.366  29.429  1.00  0.00     0.430 C 
ATOM     28  F   UNL A   1      41.102  28.732  30.610  1.00  0.00    -0.167 F 
ATOM     29  F   UNL A   1      42.649  29.356  29.224  1.00  0.00    -0.167 F 
ATOM     30  F   UNL A   1      40.937  30.655  29.591  1.00  0.00    -0.167 F 
ENDBRANCH  19  27
ENDBRANCH   7   9
ENDBRANCH   6   7
ENDBRANCH   5   6
ENDBRANCH   4   5
ENDBRANCH   3   4
ENDBRANCH   2   3
ENDBRANCH   1   2
BRANCH   1  31
ATOM     31  O   UNL A   1      36.768  34.961  33.214  1.00  0.00    -0.376 OA
BRANCH  31  32
ATOM     32  C   UNL A   1      37.564  34.216  34.131  1.00  0.00     0.202 C 
BRANCH  32  33
ATOM     33  C   UNL A   1      36.933  33.728  35.441  1.00  0.00     0.261 C 
BRANCH  33  34
ATOM     34  O   UNL A   1      37.050  32.312  35.651  1.00  0.00    -0.460 OA
BRANCH  34  35
ATOM     35  C   UNL A   1      38.161  31.910  36.319  1.00  0.00     0.338 C 
ATOM     36  O   UNL A   1      38.233  31.569  37.487  1.00  0.00    -0.246 OA
BRANCH  35  37
ATOM     37  C   UNL A   1      39.268  31.744  35.355  1.00  0.00     0.060 A 
ATOM     38  C   UNL A   1      40.539  32.259  35.616  1.00  0.00     0.016 A 
ATOM     39  C   UNL A   1      39.014  31.046  34.165  1.00  0.00     0.016 A 
ATOM     40  C   UNL A   1      41.567  32.046  34.692  1.00  0.00     0.010 A 
ATOM     41  C   UNL A   1      40.037  30.852  33.236  1.00  0.00     0.010 A 
ATOM     42  C   UNL A   1      41.326  31.331  33.505  1.00  0.00    -0.014 A 
BRANCH  42  43
ATOM     43  C   UNL A   1      42.464  30.923  32.646  1.00  0.00     0.031 A 
ATOM     44  C   UNL A   1      43.138  29.593  32.793  1.00  0.00     0.074 A 
ATOM     45  C   UNL A   1      42.897  31.802  31.722  1.00  0.00     0.049 A 
ATOM     46  N   UNL A   1      44.069  29.067  32.041  1.00  0.00    -0.248 NA
ATOM     47  C   UNL A   1      42.726  28.747  33.923  1.00  0.00     0.031 C 
ATOM     48  C   UNL A   1      42.357  33.150  31.530  1.00  0.00     0.029 A 
ATOM     49  N   UNL A   1      43.884  31.699  30.776  1.00  0.00    -0.354 N 
ATOM     50  C   UNL A   1      44.354  27.825  32.594  1.00  0.00     0.074 A 
ATOM     51  C   UNL A   1      43.511  27.687  33.765  1.00  0.00     0.031 C 
ATOM     52  C   UNL A   1      43.007  33.742  30.517  1.00  0.00     0.029 A 
ATOM     53  C   UNL A   1      44.009  32.821  29.991  1.00  0.00     0.049 A 
ATOM     54  H   UNL A   1      44.448  30.899  30.669  1.00  0.00     0.167 HD
ATOM     55  C   UNL A   1      45.215  26.882  32.145  1.00  0.00     0.034 A 
ATOM     56  C   UNL A   1      44.823  33.074  28.949  1.00  0.00     0.034 A 
ATOM     57  C   UNL A   1      46.040  27.023  30.974  1.00  0.00     0.049 A 
ATOM     58  C   UNL A   1      45.761  32.005  28.470  1.00  0.00     0.074 A 
ATOM     59  C   UNL A   1      46.895  26.090  30.411  1.00  0.00     0.029 A 
ATOM     60  N   UNL A   1      46.125  28.162  30.190  1.00  0.00    -0.354 N 
ATOM     61  N   UNL A   1      45.905  30.782  28.914  1.00  0.00    -0.248 NA
ATOM     62  C   UNL A   1      46.625  32.339  27.328  1.00  0.00     0.031 C 
ATOM     63  C   UNL A   1      47.503  26.668  29.293  1.00  0.00     0.029 A 
ATOM     64  C   UNL A   1      47.021  27.959  29.155  1.00  0.00     0.049 A 
ATOM     65  H   UNL A   1      45.621  28.994  30.347  1.00  0.00     0.167 HD
ATOM     66  C   UNL A   1      46.859  30.191  28.094  1.00  0.00     0.074 A 
ATOM     67  C   UNL A   1      47.247  31.186  27.116  1.00  0.00     0.031 C 
ATOM     68  C   UNL A   1      47.371  28.939  28.159  1.00  0.00     0.034 A 
BRANCH  55  69
ATOM     69  C   UNL A   1      45.267  25.561  32.864  1.00  0.00     0.023 A 
ATOM     70  C   UNL A   1      44.333  24.567  32.511  1.00  0.00     0.012 A 
ATOM     71  C   UNL A   1      46.308  25.252  33.759  1.00  0.00     0.148 A 
ATOM     72  C   UNL A   1      44.433  23.281  33.039  1.00  0.00     0.002 A 
ATOM     73  C   UNL A   1      46.416  23.960  34.263  1.00  0.00     0.091 A 
ATOM     74  F   UNL A   1      47.181  26.217  34.081  1.00  0.00    -0.205 F 
ATOM     75  C   UNL A   1      45.480  22.976  33.905  1.00  0.00     0.022 A 
BRANCH  73  76
ATOM     76  S   UNL A   1      47.758  23.439  35.339  1.00  0.00     0.127 S 
ATOM     77  O   UNL A   1      47.538  24.284  36.513  1.00  0.00    -0.237 OA
ATOM     78  O   UNL A   1      47.456  22.022  35.542  1.00  0.00    -0.237 OA
ATOM     79  O   UNL A   1      48.989  23.705  34.608  1.00  0.00    -0.744 OA
ENDBRANCH  73  76
ENDBRANCH  55  69
BRANCH  56  80
ATOM     80  C   UNL A   1      44.700  34.370  28.233  1.00  0.00     0.023 A 
ATOM     81  C   UNL A   1      43.760  34.489  27.194  1.00  0.00     0.012 A 
ATOM     82  C   UNL A   1      45.448  35.496  28.626  1.00  0.00     0.148 A 
ATOM     83  C   UNL A   1      43.570  35.710  26.548  1.00  0.00     0.002 A 
ATOM     84  C   UNL A   1      45.227  36.719  28.005  1.00  0.00     0.091 A 
ATOM     85  F   UNL A   1      46.336  35.352  29.619  1.00  0.00    -0.205 F 
ATOM     86  C   UNL A   1      44.295  36.825  26.958  1.00  0.00     0.022 A 
BRANCH  84  87
ATOM     87  S   UNL A   1      46.037  38.233  28.529  1.00  0.00     0.127 S 
ATOM     88  O   UNL A   1      46.052  39.007  27.290  1.00  0.00    -0.237 OA
ATOM     89  O   UNL A   1      45.114  38.726  29.553  1.00  0.00    -0.237 OA
ATOM     90  O   UNL A   1      47.341  37.830  29.034  1.00  0.00    -0.744 OA
ENDBRANCH  84  87
ENDBRANCH  56  80
BRANCH  68  91
ATOM     91  C   UNL A   1      48.416  28.552  27.151  1.00  0.00     0.023 A 
ATOM     92  C   UNL A   1      49.769  28.521  27.540  1.00  0.00     0.012 A 
ATOM     93  C   UNL A   1      48.051  28.110  25.863  1.00  0.00     0.148 A 
ATOM     94  C   UNL A   1      50.748  28.061  26.659  1.00  0.00     0.002 A 
ATOM     95  C   UNL A   1      49.028  27.624  25.002  1.00  0.00     0.091 A 
ATOM     96  F   UNL A   1      46.758  28.159  25.515  1.00  0.00    -0.205 F 
ATOM     97  C   UNL A   1      50.377  27.604  25.397  1.00  0.00     0.022 A 
BRANCH  95  98
ATOM     98  S   UNL A   1      48.646  26.946  23.383  1.00  0.00     0.127 S 
ATOM     99  O   UNL A   1      49.963  26.932  22.748  1.00  0.00    -0.237 OA
ATOM    100  O   UNL A   1      48.116  25.625  23.719  1.00  0.00    -0.237 OA
ATOM    101  O   UNL A   1      47.679  27.855  22.781  1.00  0.00    -0.744 OA
ENDBRANCH  95  98
ENDBRANCH  68  91
ENDBRANCH  42  43
ENDBRANCH  35  37
ENDBRANCH  34  35
ENDBRANCH  33  34
ENDBRANCH  32  33
ENDBRANCH  31  32
ENDBRANCH   1  31
TORSDOF 24
ENDMDL
MODEL 3
REMARK VINA RESULT:     -10.4      4.307     10.088
REMARK SMILES CC(C)N(c1cc2c(cc1Cl)C=C(C(=O)OCCOCCOCCOC(=O)c1ccc(-c3c4nc(c(-c5cccc(S(=O)(=O)[O-])c5F)c5ccc([nH]5)c(-c5cccc(S(=O)(=O)[O-])c5F)c5nc(c(-c6cccc(S(=O)(=O)[O-])c6F)c6ccc3[nH]6)C=C5)C=C4)cc1)[C@@H](C(F)(F)F)O2)C(C)C
REMARK SMILES IDX 21 1 20 2 19 3 18 4 17 5 16 6 14 7 15 8 13 9 5 10 6 11 10 12
REMARK SMILES IDX 7 13 9 14 11 15 8 16 96 17 12 18 91 19 4 20 2 21 1 22 3 23
REMARK SMILES IDX 97 24 98 25 99 26 92 27 93 28 94 29 95 30 22 31 23 32 24 33
REMARK SMILES IDX 25 34 26 35 27 36 28 37 29 38 90 39 30 40 89 41 31 42 32 43
REMARK SMILES IDX 33 44 83 45 34 46 88 47 82 48 84 49 35 50 87 51 81 52 80 53
REMARK SMILES IDX 36 55 68 56 48 57 67 58 49 59 52 60 66 61 85 62 50 63 51 64
REMARK SMILES IDX 65 66 86 67 53 68 37 69 38 70 46 71 39 72 41 73 47 74 40 75
REMARK SMILES IDX 42 76 43 77 44 78 45 79 69 80 70 81 78 82 71 83 73 84 79 85
REMARK SMILES IDX 72 86 74 87 75 88 76 89 77 90 54 91 55 92 63 93 56 94 58 95
REMARK SMILES IDX 64 96 57 97 59 98 60 99 61 100 62 101
REMARK H PARENT 84 54 52 65
REMARK Flexibility Score: inf
ROOT
ATOM      1  C   UNL A   1      35.534  33.387  28.075  1.00  0.00     0.188 C 
ENDROOT
BRANCH   1   2
ATOM      2  C   UNL A   1      34.051  33.376  28.504  1.00  0.00     0.188 C 
BRANCH   2   3
ATOM      3  O   UNL A   1      33.169  32.818  27.560  1.00  0.00    -0.376 OA
BRANCH   3   4
ATOM      4  C   UNL A   1      33.173  31.436  27.264  1.00  0.00     0.202 C 
BRANCH   4   5
ATOM      5  C   UNL A   1      32.009  30.647  26.638  1.00  0.00     0.261 C 
BRANCH   5   6
ATOM      6  O   UNL A   1      32.285  29.337  26.144  1.00  0.00    -0.460 OA
BRANCH   6   7
ATOM      7  C   UNL A   1      31.490  28.911  25.135  1.00  0.00     0.338 C 
ATOM      8  O   UNL A   1      30.669  29.575  24.524  1.00  0.00    -0.246 OA
BRANCH   7   9
ATOM      9  C   UNL A   1      31.844  27.520  24.797  1.00  0.00     0.087 C 
ATOM     10  C   UNL A   1      33.433  22.730  25.013  1.00  0.00     0.060 A 
ATOM     11  C   UNL A   1      33.178  23.662  23.978  1.00  0.00     0.074 A 
ATOM     12  C   UNL A   1      33.003  23.104  26.308  1.00  0.00     0.065 A 
ATOM     13  C   UNL A   1      32.641  24.931  24.225  1.00  0.00     0.130 A 
ATOM     14  C   UNL A   1      32.425  24.362  26.547  1.00  0.00     0.034 A 
ATOM     15  Cl  UNL A   1      33.250  22.149  27.730  1.00  0.00    -0.082 Cl
ATOM     16  C   UNL A   1      32.286  25.291  25.519  1.00  0.00     0.019 A 
ATOM     17  O   UNL A   1      32.527  25.764  23.148  1.00  0.00    -0.475 OA
ATOM     18  C   UNL A   1      31.857  26.646  25.810  1.00  0.00     0.027 C 
ATOM     19  C   UNL A   1      32.169  27.158  23.371  1.00  0.00     0.316 C 
BRANCH  10  20
ATOM     20  N   UNL A   1      34.146  21.551  24.697  1.00  0.00    -0.365 N 
BRANCH  20  21
ATOM     21  C   UNL A   1      33.416  20.262  24.661  1.00  0.00     0.076 C 
ATOM     22  C   UNL A   1      32.387  20.202  23.531  1.00  0.00     0.030 C 
ATOM     23  C   UNL A   1      34.328  19.036  24.600  1.00  0.00     0.030 C 
ENDBRANCH  20  21
BRANCH  20  24
ATOM     24  C   UNL A   1      35.609  21.721  24.516  1.00  0.00     0.076 C 
ATOM     25  C   UNL A   1      35.973  22.831  23.536  1.00  0.00     0.030 C 
ATOM     26  C   UNL A   1      36.365  21.862  25.832  1.00  0.00     0.030 C 
ENDBRANCH  20  24
ENDBRANCH  10  20
BRANCH  19  27
ATOM     27  C   UNL A   1      33.273  28.049  22.779  1.00  0.00     0.430 C 
ATOM     28  F   UNL A   1      33.862  27.459  21.710  1.00  0.00    -0.167 F 
ATOM     29  F   UNL A   1      32.782  29.232  22.337  1.00  0.00    -0.167 F 
ATOM     30  F   UNL A   1      34.247  28.326  23.675  1.00  0.00    -0.167 F 
ENDBRANCH  19  27
ENDBRANCH   7   9
ENDBRANCH   6   7
ENDBRANCH   5   6
ENDBRANCH   4   5
ENDBRANCH   3   4
ENDBRANCH   2   3
ENDBRANCH   1   2
BRANCH   1  31
ATOM     31  O   UNL A   1      36.346  32.245  28.319  1.00  0.00    -0.376 OA
BRANCH  31  32
ATOM     32  C   UNL A   1      37.084  32.170  29.535  1.00  0.00     0.202 C 
BRANCH  32  33
ATOM     33  C   UNL A   1      36.328  31.977  30.856  1.00  0.00     0.261 C 
BRANCH  33  34
ATOM     34  O   UNL A   1      37.084  31.285  31.863  1.00  0.00    -0.460 OA
BRANCH  34  35
ATOM     35  C   UNL A   1      37.143  29.936  31.725  1.00  0.00     0.338 C 
ATOM     36  O   UNL A   1      36.316  29.216  31.191  1.00  0.00    -0.246 OA
BRANCH  35  37
ATOM     37  C   UNL A   1      38.481  29.468  32.140  1.00  0.00     0.060 A 
ATOM     38  C   UNL A   1      38.756  28.108  32.294  1.00  0.00     0.016 A 
ATOM     39  C   UNL A   1      39.478  30.426  32.373  1.00  0.00     0.016 A 
ATOM     40  C   UNL A   1      40.047  27.708  32.652  1.00  0.00     0.010 A 
ATOM     41  C   UNL A   1      40.760  30.025  32.750  1.00  0.00     0.010 A 
ATOM     42  C   UNL A   1      41.059  28.661  32.870  1.00  0.00    -0.014 A 
BRANCH  42  43
ATOM     43  C   UNL A   1      42.465  28.220  33.030  1.00  0.00     0.031 A 
ATOM     44  C   UNL A   1      43.102  28.054  34.377  1.00  0.00     0.074 A 
ATOM     45  C   UNL A   1      43.178  27.983  31.912  1.00  0.00     0.049 A 
ATOM     46  N   UNL A   1      44.284  27.574  34.663  1.00  0.00    -0.248 NA
ATOM     47  C   UNL A   1      42.325  28.483  35.549  1.00  0.00     0.031 C 
ATOM     48  C   UNL A   1      42.681  28.170  30.547  1.00  0.00     0.029 A 
ATOM     49  N   UNL A   1      44.463  27.537  31.742  1.00  0.00    -0.354 N 
ATOM     50  C   UNL A   1      44.396  27.631  36.046  1.00  0.00     0.074 A 
ATOM     51  C   UNL A   1      43.168  28.218  36.541  1.00  0.00     0.031 C 
ATOM     52  C   UNL A   1      43.644  27.825  29.680  1.00  0.00     0.029 A 
ATOM     53  C   UNL A   1      44.824  27.397  30.424  1.00  0.00     0.049 A 
ATOM     54  H   UNL A   1      45.068  27.337  32.493  1.00  0.00     0.167 HD
ATOM     55  C   UNL A   1      45.418  27.203  36.824  1.00  0.00     0.034 A 
ATOM     56  C   UNL A   1      45.969  26.952  29.871  1.00  0.00     0.034 A 
ATOM     57  C   UNL A   1      46.630  26.609  36.325  1.00  0.00     0.049 A 
ATOM     58  C   UNL A   1      47.080  26.477  30.761  1.00  0.00     0.074 A 
ATOM     59  C   UNL A   1      47.692  26.089  37.048  1.00  0.00     0.029 A 
ATOM     60  N   UNL A   1      46.953  26.461  34.985  1.00  0.00    -0.354 N 
ATOM     61  N   UNL A   1      47.106  26.398  32.068  1.00  0.00    -0.248 NA
ATOM     62  C   UNL A   1      48.305  26.001  30.101  1.00  0.00     0.031 C 
ATOM     63  C   UNL A   1      48.658  25.636  36.146  1.00  0.00     0.029 A 
ATOM     64  C   UNL A   1      48.197  25.866  34.861  1.00  0.00     0.049 A 
ATOM     65  H   UNL A   1      46.381  26.739  34.233  1.00  0.00     0.167 HD
ATOM     66  C   UNL A   1      48.339  25.843  32.389  1.00  0.00     0.074 A 
ATOM     67  C   UNL A   1      49.026  25.592  31.138  1.00  0.00     0.031 C 
ATOM     68  C   UNL A   1      48.855  25.580  33.613  1.00  0.00     0.034 A 
BRANCH  55  69
ATOM     69  C   UNL A   1      45.257  27.275  38.319  1.00  0.00     0.023 A 
ATOM     70  C   UNL A   1      44.761  26.144  38.996  1.00  0.00     0.012 A 
ATOM     71  C   UNL A   1      45.726  28.378  39.056  1.00  0.00     0.148 A 
ATOM     72  C   UNL A   1      44.734  26.108  40.389  1.00  0.00     0.002 A 
ATOM     73  C   UNL A   1      45.720  28.325  40.446  1.00  0.00     0.091 A 
ATOM     74  F   UNL A   1      46.190  29.443  38.387  1.00  0.00    -0.205 F 
ATOM     75  C   UNL A   1      45.223  27.192  41.113  1.00  0.00     0.022 A 
BRANCH  73  76
ATOM     76  S   UNL A   1      46.379  29.640  41.479  1.00  0.00     0.127 S 
ATOM     77  O   UNL A   1      46.136  29.110  42.820  1.00  0.00    -0.237 OA
ATOM     78  O   UNL A   1      47.786  29.667  41.079  1.00  0.00    -0.237 OA
ATOM     79  O   UNL A   1      45.623  30.837  41.141  1.00  0.00    -0.744 OA
ENDBRANCH  73  76
ENDBRANCH  55  69
BRANCH  56  80
ATOM     80  C   UNL A   1      46.065  26.845  28.393  1.00  0.00     0.023 A 
ATOM     81  C   UNL A   1      46.483  27.967  27.653  1.00  0.00     0.012 A 
ATOM     82  C   UNL A   1      45.820  25.628  27.730  1.00  0.00     0.148 A 
ATOM     83  C   UNL A   1      46.651  27.881  26.272  1.00  0.00     0.002 A 
ATOM     84  C   UNL A   1      46.026  25.539  26.359  1.00  0.00     0.091 A 
ATOM     85  F   UNL A   1      45.422  24.578  28.460  1.00  0.00    -0.205 F 
ATOM     86  C   UNL A   1      46.431  26.667  25.627  1.00  0.00     0.022 A 
BRANCH  84  87
ATOM     87  S   UNL A   1      45.867  23.996  25.454  1.00  0.00     0.127 S 
ATOM     88  O   UNL A   1      44.416  23.861  25.348  1.00  0.00    -0.237 OA
ATOM     89  O   UNL A   1      46.549  24.315  24.198  1.00  0.00    -0.237 OA
ATOM     90  O   UNL A   1      46.534  22.990  26.266  1.00  0.00    -0.744 OA
ENDBRANCH  84  87
ENDBRANCH  56  80
BRANCH  68  91
ATOM     91  C   UNL A   1      50.236  24.988  33.683  1.00  0.00     0.023 A 
ATOM     92  C   UNL A   1      51.342  25.843  33.853  1.00  0.00     0.012 A 
ATOM     93  C   UNL A   1      50.425  23.592  33.699  1.00  0.00     0.148 A 
ATOM     94  C   UNL A   1      52.621  25.316  34.031  1.00  0.00     0.002 A 
ATOM     95  C   UNL A   1      51.698  23.074  33.908  1.00  0.00     0.091 A 
ATOM     96  F   UNL A   1      49.356  22.802  33.525  1.00  0.00    -0.205 F 
ATOM     97  C   UNL A   1      52.797  23.935  34.070  1.00  0.00     0.022 A 
BRANCH  95  98
ATOM     98  S   UNL A   1      52.019  21.312  34.045  1.00  0.00     0.127 S 
ATOM     99  O   UNL A   1      51.119  20.929  35.131  1.00  0.00    -0.237 OA
ATOM    100  O   UNL A   1      51.625  20.823  32.724  1.00  0.00    -0.237 OA
ATOM    101  O   UNL A   1      53.439  21.182  34.343  1.00  0.00    -0.744 OA
ENDBRANCH  95  98
ENDBRANCH  68  91
ENDBRANCH  42  43
ENDBRANCH  35  37
ENDBRANCH  34  35
ENDBRANCH  33  34
ENDBRANCH  32  33
ENDBRANCH  31  32
ENDBRANCH   1  31
TORSDOF 24
ENDMDL
