MODEL 1
REMARK VINA RESULT:     -10.0      0.000      0.000
REMARK SMILES C=CCNC(=O)C[NH2+][C@](C)(C(=O)OCCOCCOCCOC(=O)c1ccc(-c2c3nc(c(-c4cccc(S(=O)(=O)[O-])c4F)c4ccc([nH]4)c(-c4cccc(S(=O)(=O)[O-])c4F)c4nc(c(-c5cccc(S(=O)(=O)[O-])c5F)c5ccc2[nH]5)C=C4)C=C3)cc1)C(F)(F)F
REMARK SMILES IDX 17 1 16 2 15 3 14 4 13 5 11 6 12 7 9 8 10 9 8 10 7 13 5 14
REMARK SMILES IDX 4 15 6 17 3 18 2 19 1 20 88 21 89 22 90 23 91 24 18 25 19 26
REMARK SMILES IDX 20 27 21 28 22 29 23 30 24 31 25 32 26 33 87 34 27 35 86 36
REMARK SMILES IDX 28 37 29 38 30 39 80 40 31 41 85 42 79 43 81 44 32 45 84 46
REMARK SMILES IDX 78 47 77 48 33 50 65 51 45 52 64 53 46 54 49 55 63 56 82 57
REMARK SMILES IDX 47 58 48 59 62 61 83 62 50 63 34 64 35 65 43 66 36 67 38 68
REMARK SMILES IDX 44 69 37 70 39 71 40 72 41 73 42 74 66 75 67 76 75 77 68 78
REMARK SMILES IDX 70 79 76 80 69 81 71 82 72 83 73 84 74 85 51 86 52 87 60 88
REMARK SMILES IDX 53 89 55 90 61 91 54 92 56 93 57 94 58 95 59 96
REMARK H PARENT 8 11 8 12 4 16 81 49 49 60
REMARK Flexibility Score: inf
ROOT
ATOM      1  C   UNL A   1      33.063  21.662  24.293  1.00  0.00     0.188 C 
ENDROOT
BRANCH   1   2
ATOM      2  O   UNL A   1      32.608  22.132  23.032  1.00  0.00    -0.376 OA
BRANCH   2   3
ATOM      3  C   UNL A   1      33.334  23.141  22.346  1.00  0.00     0.202 C 
BRANCH   3   4
ATOM      4  C   UNL A   1      33.178  24.613  22.765  1.00  0.00     0.261 C 
BRANCH   4   5
ATOM      5  O   UNL A   1      32.021  25.307  22.243  1.00  0.00    -0.458 OA
BRANCH   5   6
ATOM      6  C   UNL A   1      30.982  25.491  23.112  1.00  0.00     0.377 C 
ATOM      7  O   UNL A   1      30.212  24.588  23.415  1.00  0.00    -0.244 OA
BRANCH   6   8
ATOM      8  C   UNL A   1      30.794  26.962  23.557  1.00  0.00     0.287 C 
ATOM      9  C   UNL A   1      31.687  28.035  22.898  1.00  0.00     0.103 C 
BRANCH   8  10
ATOM     10  N   UNL A   1      29.369  27.364  23.319  1.00  0.00    -0.317 N 
ATOM     11  H   UNL A   1      29.090  27.012  22.404  1.00  0.00     0.347 HD
ATOM     12  H   UNL A   1      28.829  26.969  24.088  1.00  0.00     0.347 HD
BRANCH  10  13
ATOM     13  C   UNL A   1      29.122  28.810  23.345  1.00  0.00     0.363 C 
BRANCH  13  14
ATOM     14  C   UNL A   1      27.694  29.075  22.860  1.00  0.00     0.275 C 
ATOM     15  N   UNL A   1      27.488  30.005  21.879  1.00  0.00    -0.348 N 
ATOM     16  H   UNL A   1      26.553  30.132  21.597  1.00  0.00     0.163 HD
ATOM     17  O   UNL A   1      26.731  28.480  23.350  1.00  0.00    -0.268 OA
BRANCH  15  18
ATOM     18  C   UNL A   1      28.469  30.830  21.203  1.00  0.00     0.143 C 
BRANCH  18  19
ATOM     19  C   UNL A   1      28.200  32.260  21.545  1.00  0.00    -0.014 C 
ATOM     20  C   UNL A   1      28.720  32.898  22.602  1.00  0.00     0.006 C 
ENDBRANCH  18  19
ENDBRANCH  15  18
ENDBRANCH  13  14
ENDBRANCH  10  13
ENDBRANCH   8  10
BRANCH   8  21
ATOM     21  C   UNL A   1      31.163  26.910  25.066  1.00  0.00     0.455 C 
ATOM     22  F   UNL A   1      30.124  26.471  25.816  1.00  0.00    -0.164 F 
ATOM     23  F   UNL A   1      32.180  26.026  25.261  1.00  0.00    -0.164 F 
ATOM     24  F   UNL A   1      31.580  28.088  25.570  1.00  0.00    -0.164 F 
ENDBRANCH   8  21
ENDBRANCH   6   8
ENDBRANCH   5   6
ENDBRANCH   4   5
ENDBRANCH   3   4
ENDBRANCH   2   3
ENDBRANCH   1   2
BRANCH   1  25
ATOM     25  C   UNL A   1      33.273  20.152  24.485  1.00  0.00     0.188 C 
BRANCH  25  26
ATOM     26  O   UNL A   1      34.586  19.760  24.794  1.00  0.00    -0.376 OA
BRANCH  26  27
ATOM     27  C   UNL A   1      35.585  20.750  24.949  1.00  0.00     0.202 C 
BRANCH  27  28
ATOM     28  C   UNL A   1      37.090  20.426  25.022  1.00  0.00     0.261 C 
BRANCH  28  29
ATOM     29  O   UNL A   1      37.989  21.472  25.403  1.00  0.00    -0.460 OA
BRANCH  29  30
ATOM     30  C   UNL A   1      39.127  21.124  26.047  1.00  0.00     0.338 C 
ATOM     31  O   UNL A   1      39.689  20.041  26.009  1.00  0.00    -0.246 OA
BRANCH  30  32
ATOM     32  C   UNL A   1      39.703  22.369  26.606  1.00  0.00     0.060 A 
ATOM     33  C   UNL A   1      39.268  23.612  26.122  1.00  0.00     0.016 A 
ATOM     34  C   UNL A   1      40.631  22.303  27.646  1.00  0.00     0.016 A 
ATOM     35  C   UNL A   1      39.774  24.796  26.667  1.00  0.00     0.010 A 
ATOM     36  C   UNL A   1      41.157  23.484  28.169  1.00  0.00     0.010 A 
ATOM     37  C   UNL A   1      40.752  24.734  27.665  1.00  0.00    -0.014 A 
BRANCH  37  38
ATOM     38  C   UNL A   1      41.538  25.933  28.041  1.00  0.00     0.031 A 
ATOM     39  C   UNL A   1      40.828  27.018  28.800  1.00  0.00     0.074 A 
ATOM     40  C   UNL A   1      42.814  26.100  27.651  1.00  0.00     0.049 A 
ATOM     41  N   UNL A   1      41.219  28.232  29.081  1.00  0.00    -0.248 NA
ATOM     42  C   UNL A   1      39.480  26.687  29.295  1.00  0.00     0.031 C 
ATOM     43  C   UNL A   1      43.625  25.109  26.950  1.00  0.00     0.029 A 
ATOM     44  N   UNL A   1      43.636  27.196  27.759  1.00  0.00    -0.354 N 
ATOM     45  C   UNL A   1      40.149  28.826  29.739  1.00  0.00     0.074 A 
ATOM     46  C   UNL A   1      39.095  27.840  29.818  1.00  0.00     0.031 C 
ATOM     47  C   UNL A   1      44.821  25.654  26.658  1.00  0.00     0.029 A 
ATOM     48  C   UNL A   1      44.839  27.044  27.110  1.00  0.00     0.049 A 
ATOM     49  H   UNL A   1      43.388  28.010  28.253  1.00  0.00     0.167 HD
ATOM     50  C   UNL A   1      40.051  30.083  30.232  1.00  0.00     0.034 A 
ATOM     51  C   UNL A   1      45.821  27.940  26.878  1.00  0.00     0.034 A 
ATOM     52  C   UNL A   1      41.104  31.057  30.154  1.00  0.00     0.049 A 
ATOM     53  C   UNL A   1      45.664  29.356  27.380  1.00  0.00     0.074 A 
ATOM     54  C   UNL A   1      41.121  32.344  30.656  1.00  0.00     0.029 A 
ATOM     55  N   UNL A   1      42.317  30.857  29.515  1.00  0.00    -0.354 N 
ATOM     56  N   UNL A   1      44.686  29.884  28.077  1.00  0.00    -0.248 NA
ATOM     57  C   UNL A   1      46.754  30.296  27.076  1.00  0.00     0.031 C 
ATOM     58  C   UNL A   1      42.331  32.938  30.285  1.00  0.00     0.029 A 
ATOM     59  C   UNL A   1      43.086  32.004  29.593  1.00  0.00     0.049 A 
ATOM     60  H   UNL A   1      42.592  30.022  29.071  1.00  0.00     0.167 HD
ATOM     61  C   UNL A   1      45.069  31.196  28.342  1.00  0.00     0.074 A 
ATOM     62  C   UNL A   1      46.365  31.386  27.726  1.00  0.00     0.031 C 
ATOM     63  C   UNL A   1      44.404  32.156  29.032  1.00  0.00     0.034 A 
BRANCH  50  64
ATOM     64  C   UNL A   1      38.752  30.469  30.886  1.00  0.00     0.023 A 
ATOM     65  C   UNL A   1      38.523  30.151  32.241  1.00  0.00     0.012 A 
ATOM     66  C   UNL A   1      37.762  31.160  30.161  1.00  0.00     0.148 A 
ATOM     67  C   UNL A   1      37.309  30.470  32.848  1.00  0.00     0.002 A 
ATOM     68  C   UNL A   1      36.575  31.519  30.787  1.00  0.00     0.091 A 
ATOM     69  F   UNL A   1      37.986  31.431  28.867  1.00  0.00    -0.205 F 
ATOM     70  C   UNL A   1      36.341  31.161  32.125  1.00  0.00     0.022 A 
BRANCH  68  71
ATOM     71  S   UNL A   1      35.303  32.481  29.963  1.00  0.00     0.127 S 
ATOM     72  O   UNL A   1      34.893  31.572  28.893  1.00  0.00    -0.237 OA
ATOM     73  O   UNL A   1      34.312  32.658  31.025  1.00  0.00    -0.237 OA
ATOM     74  O   UNL A   1      35.951  33.711  29.528  1.00  0.00    -0.744 OA
ENDBRANCH  68  71
ENDBRANCH  50  64
BRANCH  51  75
ATOM     75  C   UNL A   1      47.063  27.524  26.165  1.00  0.00     0.023 A 
ATOM     76  C   UNL A   1      47.123  27.659  24.764  1.00  0.00     0.012 A 
ATOM     77  C   UNL A   1      48.178  27.006  26.854  1.00  0.00     0.148 A 
ATOM     78  C   UNL A   1      48.260  27.261  24.058  1.00  0.00     0.002 A 
ATOM     79  C   UNL A   1      49.325  26.658  26.149  1.00  0.00     0.091 A 
ATOM     80  F   UNL A   1      48.094  26.872  28.184  1.00  0.00    -0.205 F 
ATOM     81  C   UNL A   1      49.362  26.770  24.750  1.00  0.00     0.022 A 
BRANCH  79  82
ATOM     82  S   UNL A   1      50.834  26.112  26.958  1.00  0.00     0.127 S 
ATOM     83  O   UNL A   1      50.870  26.975  28.136  1.00  0.00    -0.237 OA
ATOM     84  O   UNL A   1      50.534  24.707  27.233  1.00  0.00    -0.237 OA
ATOM     85  O   UNL A   1      51.902  26.326  25.991  1.00  0.00    -0.744 OA
ENDBRANCH  79  82
ENDBRANCH  51  75
BRANCH  63  86
ATOM     86  C   UNL A   1      45.080  33.488  29.237  1.00  0.00     0.023 A 
ATOM     87  C   UNL A   1      45.880  33.713  30.373  1.00  0.00     0.012 A 
ATOM     88  C   UNL A   1      45.023  34.470  28.225  1.00  0.00     0.148 A 
ATOM     89  C   UNL A   1      46.600  34.901  30.507  1.00  0.00     0.002 A 
ATOM     90  C   UNL A   1      45.783  35.627  28.340  1.00  0.00     0.091 A 
ATOM     91  F   UNL A   1      44.244  34.240  27.158  1.00  0.00    -0.205 F 
ATOM     92  C   UNL A   1      46.564  35.849  29.486  1.00  0.00     0.022 A 
BRANCH  90  93
ATOM     93  S   UNL A   1      45.885  36.852  27.030  1.00  0.00     0.127 S 
ATOM     94  O   UNL A   1      44.505  37.325  26.956  1.00  0.00    -0.237 OA
ATOM     95  O   UNL A   1      46.833  37.819  27.587  1.00  0.00    -0.237 OA
ATOM     96  O   UNL A   1      46.362  36.144  25.849  1.00  0.00    -0.744 OA
ENDBRANCH  90  93
ENDBRANCH  63  86
ENDBRANCH  37  38
ENDBRANCH  30  32
ENDBRANCH  29  30
ENDBRANCH  28  29
ENDBRANCH  27  28
ENDBRANCH  26  27
ENDBRANCH  25  26
ENDBRANCH   1  25
TORSDOF 26
ENDMDL
MODEL 2
REMARK VINA RESULT:      -9.6      2.049      2.744
REMARK SMILES C=CCNC(=O)C[NH2+][C@](C)(C(=O)OCCOCCOCCOC(=O)c1ccc(-c2c3nc(c(-c4cccc(S(=O)(=O)[O-])c4F)c4ccc([nH]4)c(-c4cccc(S(=O)(=O)[O-])c4F)c4nc(c(-c5cccc(S(=O)(=O)[O-])c5F)c5ccc2[nH]5)C=C4)C=C3)cc1)C(F)(F)F
REMARK SMILES IDX 17 1 16 2 15 3 14 4 13 5 11 6 12 7 9 8 10 9 8 10 7 13 5 14
REMARK SMILES IDX 4 15 6 17 3 18 2 19 1 20 88 21 89 22 90 23 91 24 18 25 19 26
REMARK SMILES IDX 20 27 21 28 22 29 23 30 24 31 25 32 26 33 87 34 27 35 86 36
REMARK SMILES IDX 28 37 29 38 30 39 80 40 31 41 85 42 79 43 81 44 32 45 84 46
REMARK SMILES IDX 78 47 77 48 33 50 65 51 45 52 64 53 46 54 49 55 63 56 82 57
REMARK SMILES IDX 47 58 48 59 62 61 83 62 50 63 34 64 35 65 43 66 36 67 38 68
REMARK SMILES IDX 44 69 37 70 39 71 40 72 41 73 42 74 66 75 67 76 75 77 68 78
REMARK SMILES IDX 70 79 76 80 69 81 71 82 72 83 73 84 74 85 51 86 52 87 60 88
REMARK SMILES IDX 53 89 55 90 61 91 54 92 56 93 57 94 58 95 59 96
REMARK H PARENT 8 11 8 12 4 16 81 49 49 60
REMARK Flexibility Score: inf
ROOT
ATOM      1  C   UNL A   1      32.872  21.674  23.689  1.00  0.00     0.188 C 
ENDROOT
BRANCH   1   2
ATOM      2  O   UNL A   1      32.576  22.086  22.362  1.00  0.00    -0.376 OA
BRANCH   2   3
ATOM      3  C   UNL A   1      33.172  23.262  21.835  1.00  0.00     0.202 C 
BRANCH   3   4
ATOM      4  C   UNL A   1      32.922  24.617  22.516  1.00  0.00     0.261 C 
BRANCH   4   5
ATOM      5  O   UNL A   1      31.552  25.083  22.529  1.00  0.00    -0.458 OA
BRANCH   5   6
ATOM      6  C   UNL A   1      30.880  24.956  23.712  1.00  0.00     0.377 C 
ATOM      7  O   UNL A   1      30.511  23.872  24.145  1.00  0.00    -0.244 OA
BRANCH   6   8
ATOM      8  C   UNL A   1      30.514  26.310  24.370  1.00  0.00     0.287 C 
ATOM      9  C   UNL A   1      30.652  26.428  25.903  1.00  0.00     0.103 C 
BRANCH   8  10
ATOM     10  N   UNL A   1      31.359  27.390  23.764  1.00  0.00    -0.317 N 
ATOM     11  H   UNL A   1      32.171  26.951  23.330  1.00  0.00     0.347 HD
ATOM     12  H   UNL A   1      30.761  27.883  23.101  1.00  0.00     0.347 HD
BRANCH  10  13
ATOM     13  C   UNL A   1      31.842  28.402  24.711  1.00  0.00     0.363 C 
BRANCH  13  14
ATOM     14  C   UNL A   1      33.203  28.915  24.233  1.00  0.00     0.275 C 
ATOM     15  N   UNL A   1      34.229  29.012  25.132  1.00  0.00    -0.348 N 
ATOM     16  H   UNL A   1      35.085  29.340  24.773  1.00  0.00     0.163 HD
ATOM     17  O   UNL A   1      33.382  29.259  23.062  1.00  0.00    -0.268 OA
BRANCH  15  18
ATOM     18  C   UNL A   1      34.218  28.696  26.546  1.00  0.00     0.143 C 
BRANCH  18  19
ATOM     19  C   UNL A   1      35.157  29.626  27.245  1.00  0.00    -0.014 C 
ATOM     20  C   UNL A   1      36.284  29.243  27.860  1.00  0.00     0.006 C 
ENDBRANCH  18  19
ENDBRANCH  15  18
ENDBRANCH  13  14
ENDBRANCH  10  13
ENDBRANCH   8  10
BRANCH   8  21
ATOM     21  C   UNL A   1      29.006  26.457  24.024  1.00  0.00     0.455 C 
ATOM     22  F   UNL A   1      28.707  27.720  23.633  1.00  0.00    -0.164 F 
ATOM     23  F   UNL A   1      28.691  25.644  22.979  1.00  0.00    -0.164 F 
ATOM     24  F   UNL A   1      28.177  26.122  25.032  1.00  0.00    -0.164 F 
ENDBRANCH   8  21
ENDBRANCH   6   8
ENDBRANCH   5   6
ENDBRANCH   4   5
ENDBRANCH   3   4
ENDBRANCH   2   3
ENDBRANCH   1   2
BRANCH   1  25
ATOM     25  C   UNL A   1      33.056  20.174  23.971  1.00  0.00     0.188 C 
BRANCH  25  26
ATOM     26  O   UNL A   1      34.246  19.826  24.632  1.00  0.00    -0.376 OA
BRANCH  26  27
ATOM     27  C   UNL A   1      35.192  20.835  24.929  1.00  0.00     0.202 C 
BRANCH  27  28
ATOM     28  C   UNL A   1      36.703  20.562  25.065  1.00  0.00     0.261 C 
BRANCH  28  29
ATOM     29  O   UNL A   1      37.492  21.486  25.822  1.00  0.00    -0.460 OA
BRANCH  29  30
ATOM     30  C   UNL A   1      38.813  21.228  25.955  1.00  0.00     0.338 C 
ATOM     31  O   UNL A   1      39.421  20.268  25.509  1.00  0.00    -0.246 OA
BRANCH  30  32
ATOM     32  C   UNL A   1      39.434  22.444  26.527  1.00  0.00     0.060 A 
ATOM     33  C   UNL A   1      38.974  23.710  26.129  1.00  0.00     0.016 A 
ATOM     34  C   UNL A   1      40.432  22.329  27.496  1.00  0.00     0.016 A 
ATOM     35  C   UNL A   1      39.524  24.866  26.690  1.00  0.00     0.010 A 
ATOM     36  C   UNL A   1      41.000  23.485  28.032  1.00  0.00     0.010 A 
ATOM     37  C   UNL A   1      40.569  24.757  27.613  1.00  0.00    -0.014 A 
BRANCH  37  38
ATOM     38  C   UNL A   1      41.387  25.936  27.986  1.00  0.00     0.031 A 
ATOM     39  C   UNL A   1      40.716  27.022  28.780  1.00  0.00     0.074 A 
ATOM     40  C   UNL A   1      42.655  26.086  27.564  1.00  0.00     0.049 A 
ATOM     41  N   UNL A   1      41.137  28.224  29.069  1.00  0.00    -0.248 NA
ATOM     42  C   UNL A   1      39.377  26.707  29.306  1.00  0.00     0.031 C 
ATOM     43  C   UNL A   1      43.428  25.091  26.827  1.00  0.00     0.029 A 
ATOM     44  N   UNL A   1      43.499  27.165  27.667  1.00  0.00    -0.354 N 
ATOM     45  C   UNL A   1      40.097  28.827  29.764  1.00  0.00     0.074 A 
ATOM     46  C   UNL A   1      39.027  27.859  29.857  1.00  0.00     0.031 C 
ATOM     47  C   UNL A   1      44.625  25.619  26.511  1.00  0.00     0.029 A 
ATOM     48  C   UNL A   1      44.681  27.002  26.983  1.00  0.00     0.049 A 
ATOM     49  H   UNL A   1      43.279  27.976  28.180  1.00  0.00     0.167 HD
ATOM     50  C   UNL A   1      40.034  30.077  30.278  1.00  0.00     0.034 A 
ATOM     51  C   UNL A   1      45.673  27.884  26.738  1.00  0.00     0.034 A 
ATOM     52  C   UNL A   1      41.102  31.033  30.186  1.00  0.00     0.049 A 
ATOM     53  C   UNL A   1      45.555  29.294  27.265  1.00  0.00     0.074 A 
ATOM     54  C   UNL A   1      41.157  32.312  30.707  1.00  0.00     0.029 A 
ATOM     55  N   UNL A   1      42.295  30.821  29.512  1.00  0.00    -0.354 N 
ATOM     56  N   UNL A   1      44.606  29.829  27.996  1.00  0.00    -0.248 NA
ATOM     57  C   UNL A   1      46.654  30.219  26.946  1.00  0.00     0.031 C 
ATOM     58  C   UNL A   1      42.367  32.890  30.313  1.00  0.00     0.029 A 
ATOM     59  C   UNL A   1      43.086  31.953  29.586  1.00  0.00     0.049 A 
ATOM     60  H   UNL A   1      42.542  29.989  29.049  1.00  0.00     0.167 HD
ATOM     61  C   UNL A   1      45.020  31.129  28.271  1.00  0.00     0.074 A 
ATOM     62  C   UNL A   1      46.302  31.306  27.623  1.00  0.00     0.031 C 
ATOM     63  C   UNL A   1      44.392  32.090  28.993  1.00  0.00     0.034 A 
BRANCH  50  64
ATOM     64  C   UNL A   1      38.761  30.477  30.972  1.00  0.00     0.023 A 
ATOM     65  C   UNL A   1      38.480  29.990  32.266  1.00  0.00     0.012 A 
ATOM     66  C   UNL A   1      37.846  31.346  30.348  1.00  0.00     0.148 A 
ATOM     67  C   UNL A   1      37.286  30.323  32.905  1.00  0.00     0.002 A 
ATOM     68  C   UNL A   1      36.682  31.713  31.012  1.00  0.00     0.091 A 
ATOM     69  F   UNL A   1      38.116  31.778  29.108  1.00  0.00    -0.205 F 
ATOM     70  C   UNL A   1      36.393  31.190  32.283  1.00  0.00     0.022 A 
BRANCH  68  71
ATOM     71  S   UNL A   1      35.511  32.888  30.325  1.00  0.00     0.127 S 
ATOM     72  O   UNL A   1      35.098  32.211  29.097  1.00  0.00    -0.237 OA
ATOM     73  O   UNL A   1      34.483  32.943  31.366  1.00  0.00    -0.237 OA
ATOM     74  O   UNL A   1      36.251  34.128  30.141  1.00  0.00    -0.744 OA
ENDBRANCH  68  71
ENDBRANCH  50  64
BRANCH  51  75
ATOM     75  C   UNL A   1      46.887  27.457  25.986  1.00  0.00     0.023 A 
ATOM     76  C   UNL A   1      47.878  26.711  26.654  1.00  0.00     0.012 A 
ATOM     77  C   UNL A   1      47.068  27.774  24.625  1.00  0.00     0.148 A 
ATOM     78  C   UNL A   1      49.038  26.311  25.990  1.00  0.00     0.002 A 
ATOM     79  C   UNL A   1      48.205  27.331  23.957  1.00  0.00     0.091 A 
ATOM     80  F   UNL A   1      46.122  28.498  24.011  1.00  0.00    -0.205 F 
ATOM     81  C   UNL A   1      49.197  26.613  24.642  1.00  0.00     0.022 A 
BRANCH  79  82
ATOM     82  S   UNL A   1      48.455  27.579  22.194  1.00  0.00     0.127 S 
ATOM     83  O   UNL A   1      49.619  28.462  22.180  1.00  0.00    -0.237 OA
ATOM     84  O   UNL A   1      48.714  26.214  21.735  1.00  0.00    -0.237 OA
ATOM     85  O   UNL A   1      47.218  28.164  21.696  1.00  0.00    -0.744 OA
ENDBRANCH  79  82
ENDBRANCH  51  75
BRANCH  63  86
ATOM     86  C   UNL A   1      45.097  33.407  29.199  1.00  0.00     0.023 A 
ATOM     87  C   UNL A   1      45.968  33.584  30.291  1.00  0.00     0.012 A 
ATOM     88  C   UNL A   1      44.991  34.423  28.226  1.00  0.00     0.148 A 
ATOM     89  C   UNL A   1      46.712  34.758  30.418  1.00  0.00     0.002 A 
ATOM     90  C   UNL A   1      45.773  35.566  28.332  1.00  0.00     0.091 A 
ATOM     91  F   UNL A   1      44.145  34.239  27.202  1.00  0.00    -0.205 F 
ATOM     92  C   UNL A   1      46.626  35.741  29.434  1.00  0.00     0.022 A 
BRANCH  90  93
ATOM     93  S   UNL A   1      45.811  36.834  27.059  1.00  0.00     0.127 S 
ATOM     94  O   UNL A   1      46.803  37.764  27.595  1.00  0.00    -0.237 OA
ATOM     95  O   UNL A   1      46.254  36.078  25.886  1.00  0.00    -0.237 OA
ATOM     96  O   UNL A   1      44.455  37.359  26.968  1.00  0.00    -0.744 OA
ENDBRANCH  90  93
ENDBRANCH  63  86
ENDBRANCH  37  38
ENDBRANCH  30  32
ENDBRANCH  29  30
ENDBRANCH  28  29
ENDBRANCH  27  28
ENDBRANCH  26  27
ENDBRANCH  25  26
ENDBRANCH   1  25
TORSDOF 26
ENDMDL
MODEL 3
REMARK VINA RESULT:      -8.7      3.624      8.510
REMARK SMILES C=CCNC(=O)C[NH2+][C@](C)(C(=O)OCCOCCOCCOC(=O)c1ccc(-c2c3nc(c(-c4cccc(S(=O)(=O)[O-])c4F)c4ccc([nH]4)c(-c4cccc(S(=O)(=O)[O-])c4F)c4nc(c(-c5cccc(S(=O)(=O)[O-])c5F)c5ccc2[nH]5)C=C4)C=C3)cc1)C(F)(F)F
REMARK SMILES IDX 17 1 16 2 15 3 14 4 13 5 11 6 12 7 9 8 10 9 8 10 7 13 5 14
REMARK SMILES IDX 4 15 6 17 3 18 2 19 1 20 88 21 89 22 90 23 91 24 18 25 19 26
REMARK SMILES IDX 20 27 21 28 22 29 23 30 24 31 25 32 26 33 87 34 27 35 86 36
REMARK SMILES IDX 28 37 29 38 30 39 80 40 31 41 85 42 79 43 81 44 32 45 84 46
REMARK SMILES IDX 78 47 77 48 33 50 65 51 45 52 64 53 46 54 49 55 63 56 82 57
REMARK SMILES IDX 47 58 48 59 62 61 83 62 50 63 34 64 35 65 43 66 36 67 38 68
REMARK SMILES IDX 44 69 37 70 39 71 40 72 41 73 42 74 66 75 67 76 75 77 68 78
REMARK SMILES IDX 70 79 76 80 69 81 71 82 72 83 73 84 74 85 51 86 52 87 60 88
REMARK SMILES IDX 53 89 55 90 61 91 54 92 56 93 57 94 58 95 59 96
REMARK H PARENT 8 11 8 12 4 16 81 49 49 60
REMARK Flexibility Score: inf
ROOT
ATOM      1  C   UNL A   1      33.480  22.225  25.598  1.00  0.00     0.188 C 
ENDROOT
BRANCH   1   2
ATOM      2  O   UNL A   1      32.095  22.527  25.511  1.00  0.00    -0.376 OA
BRANCH   2   3
ATOM      3  C   UNL A   1      31.590  23.228  24.384  1.00  0.00     0.202 C 
BRANCH   3   4
ATOM      4  C   UNL A   1      32.036  24.675  24.121  1.00  0.00     0.261 C 
BRANCH   4   5
ATOM      5  O   UNL A   1      31.762  25.630  25.174  1.00  0.00    -0.458 OA
BRANCH   5   6
ATOM      6  C   UNL A   1      32.755  26.526  25.451  1.00  0.00     0.377 C 
ATOM      7  O   UNL A   1      33.871  26.178  25.819  1.00  0.00    -0.244 OA
BRANCH   6   8
ATOM      8  C   UNL A   1      32.296  28.005  25.393  1.00  0.00     0.287 C 
ATOM      9  C   UNL A   1      33.200  29.012  24.651  1.00  0.00     0.103 C 
BRANCH   8  10
ATOM     10  N   UNL A   1      30.942  28.069  24.751  1.00  0.00    -0.317 N 
ATOM     11  H   UNL A   1      30.838  27.252  24.149  1.00  0.00     0.347 HD
ATOM     12  H   UNL A   1      30.266  28.099  25.514  1.00  0.00     0.347 HD
BRANCH  10  13
ATOM     13  C   UNL A   1      30.698  29.267  23.939  1.00  0.00     0.363 C 
BRANCH  13  14
ATOM     14  C   UNL A   1      29.991  28.851  22.646  1.00  0.00     0.275 C 
ATOM     15  N   UNL A   1      28.858  29.516  22.266  1.00  0.00    -0.348 N 
ATOM     16  H   UNL A   1      28.446  29.216  21.424  1.00  0.00     0.163 HD
ATOM     17  O   UNL A   1      30.413  27.919  21.957  1.00  0.00    -0.268 OA
BRANCH  15  18
ATOM     18  C   UNL A   1      28.185  30.605  22.945  1.00  0.00     0.143 C 
BRANCH  18  19
ATOM     19  C   UNL A   1      28.494  31.875  22.220  1.00  0.00    -0.014 C 
ATOM     20  C   UNL A   1      28.758  33.045  22.818  1.00  0.00     0.006 C 
ENDBRANCH  18  19
ENDBRANCH  15  18
ENDBRANCH  13  14
ENDBRANCH  10  13
ENDBRANCH   8  10
BRANCH   8  21
ATOM     21  C   UNL A   1      32.274  28.412  26.892  1.00  0.00     0.455 C 
ATOM     22  F   UNL A   1      31.527  29.524  27.093  1.00  0.00    -0.164 F 
ATOM     23  F   UNL A   1      31.701  27.422  27.630  1.00  0.00    -0.164 F 
ATOM     24  F   UNL A   1      33.495  28.623  27.421  1.00  0.00    -0.164 F 
ENDBRANCH   8  21
ENDBRANCH   6   8
ENDBRANCH   5   6
ENDBRANCH   4   5
ENDBRANCH   3   4
ENDBRANCH   2   3
ENDBRANCH   1   2
BRANCH   1  25
ATOM     25  C   UNL A   1      33.984  20.901  25.003  1.00  0.00     0.188 C 
BRANCH  25  26
ATOM     26  O   UNL A   1      35.380  20.741  24.981  1.00  0.00    -0.376 OA
BRANCH  26  27
ATOM     27  C   UNL A   1      36.208  21.888  25.018  1.00  0.00     0.202 C 
BRANCH  27  28
ATOM     28  C   UNL A   1      37.656  21.868  25.545  1.00  0.00     0.261 C 
BRANCH  28  29
ATOM     29  O   UNL A   1      38.093  22.957  26.364  1.00  0.00    -0.460 OA
BRANCH  29  30
ATOM     30  C   UNL A   1      39.421  23.088  26.586  1.00  0.00     0.338 C 
ATOM     31  O   UNL A   1      40.301  22.314  26.244  1.00  0.00    -0.246 OA
BRANCH  30  32
ATOM     32  C   UNL A   1      39.639  24.460  27.097  1.00  0.00     0.060 A 
ATOM     33  C   UNL A   1      40.285  25.408  26.287  1.00  0.00     0.016 A 
ATOM     34  C   UNL A   1      39.154  24.822  28.354  1.00  0.00     0.016 A 
ATOM     35  C   UNL A   1      40.463  26.717  26.742  1.00  0.00     0.010 A 
ATOM     36  C   UNL A   1      39.358  26.122  28.818  1.00  0.00     0.010 A 
ATOM     37  C   UNL A   1      40.037  27.067  28.027  1.00  0.00    -0.014 A 
BRANCH  37  38
ATOM     38  C   UNL A   1      40.482  28.329  28.664  1.00  0.00     0.031 A 
ATOM     39  C   UNL A   1      41.872  28.365  29.236  1.00  0.00     0.074 A 
ATOM     40  C   UNL A   1      39.658  29.381  28.814  1.00  0.00     0.049 A 
ATOM     41  N   UNL A   1      42.435  29.260  30.002  1.00  0.00    -0.248 NA
ATOM     42  C   UNL A   1      42.738  27.219  28.906  1.00  0.00     0.031 C 
ATOM     43  C   UNL A   1      38.307  29.487  28.270  1.00  0.00     0.029 A 
ATOM     44  N   UNL A   1      39.836  30.551  29.512  1.00  0.00    -0.354 N 
ATOM     45  C   UNL A   1      43.700  28.763  30.288  1.00  0.00     0.074 A 
ATOM     46  C   UNL A   1      43.824  27.491  29.612  1.00  0.00     0.031 C 
ATOM     47  C   UNL A   1      37.762  30.645  28.684  1.00  0.00     0.029 A 
ATOM     48  C   UNL A   1      38.708  31.337  29.559  1.00  0.00     0.049 A 
ATOM     49  H   UNL A   1      40.687  30.803  29.937  1.00  0.00     0.167 HD
ATOM     50  C   UNL A   1      44.674  29.314  31.050  1.00  0.00     0.034 A 
ATOM     51  C   UNL A   1      38.462  32.464  30.259  1.00  0.00     0.034 A 
ATOM     52  C   UNL A   1      44.547  30.580  31.716  1.00  0.00     0.049 A 
ATOM     53  C   UNL A   1      39.540  33.028  31.154  1.00  0.00     0.074 A 
ATOM     54  C   UNL A   1      45.487  31.247  32.478  1.00  0.00     0.029 A 
ATOM     55  N   UNL A   1      43.401  31.360  31.716  1.00  0.00    -0.354 N 
ATOM     56  N   UNL A   1      40.763  32.598  31.350  1.00  0.00    -0.248 NA
ATOM     57  C   UNL A   1      39.206  34.244  31.913  1.00  0.00     0.031 C 
ATOM     58  C   UNL A   1      44.895  32.413  32.975  1.00  0.00     0.029 A 
ATOM     59  C   UNL A   1      43.602  32.494  32.481  1.00  0.00     0.049 A 
ATOM     60  H   UNL A   1      42.567  31.140  31.242  1.00  0.00     0.167 HD
ATOM     61  C   UNL A   1      41.361  33.518  32.206  1.00  0.00     0.074 A 
ATOM     62  C   UNL A   1      40.364  34.527  32.498  1.00  0.00     0.031 C 
ATOM     63  C   UNL A   1      42.621  33.525  32.707  1.00  0.00     0.034 A 
BRANCH  50  64
ATOM     64  C   UNL A   1      45.953  28.537  31.206  1.00  0.00     0.023 A 
ATOM     65  C   UNL A   1      46.099  27.629  32.276  1.00  0.00     0.012 A 
ATOM     66  C   UNL A   1      47.007  28.697  30.286  1.00  0.00     0.148 A 
ATOM     67  C   UNL A   1      47.293  26.931  32.455  1.00  0.00     0.002 A 
ATOM     68  C   UNL A   1      48.174  27.959  30.442  1.00  0.00     0.091 A 
ATOM     69  F   UNL A   1      46.860  29.583  29.291  1.00  0.00    -0.205 F 
ATOM     70  C   UNL A   1      48.324  27.088  31.534  1.00  0.00     0.022 A 
BRANCH  68  71
ATOM     71  S   UNL A   1      49.525  28.034  29.263  1.00  0.00     0.127 S 
ATOM     72  O   UNL A   1      50.296  26.845  29.622  1.00  0.00    -0.237 OA
ATOM     73  O   UNL A   1      48.822  27.941  27.982  1.00  0.00    -0.237 OA
ATOM     74  O   UNL A   1      50.189  29.309  29.496  1.00  0.00    -0.744 OA
ENDBRANCH  68  71
ENDBRANCH  50  64
BRANCH  51  75
ATOM     75  C   UNL A   1      37.152  33.162  30.121  1.00  0.00     0.023 A 
ATOM     76  C   UNL A   1      36.748  33.612  28.849  1.00  0.00     0.012 A 
ATOM     77  C   UNL A   1      36.304  33.377  31.226  1.00  0.00     0.148 A 
ATOM     78  C   UNL A   1      35.539  34.288  28.682  1.00  0.00     0.002 A 
ATOM     79  C   UNL A   1      35.078  34.009  31.044  1.00  0.00     0.091 A 
ATOM     80  F   UNL A   1      36.713  32.955  32.430  1.00  0.00    -0.205 F 
ATOM     81  C   UNL A   1      34.701  34.479  29.776  1.00  0.00     0.022 A 
BRANCH  79  82
ATOM     82  S   UNL A   1      33.882  34.210  32.370  1.00  0.00     0.127 S 
ATOM     83  O   UNL A   1      33.672  32.828  32.795  1.00  0.00    -0.237 OA
ATOM     84  O   UNL A   1      34.626  35.039  33.320  1.00  0.00    -0.237 OA
ATOM     85  O   UNL A   1      32.728  34.863  31.769  1.00  0.00    -0.744 OA
ENDBRANCH  79  82
ENDBRANCH  51  75
BRANCH  63  86
ATOM     86  C   UNL A   1      43.044  34.689  33.567  1.00  0.00     0.023 A 
ATOM     87  C   UNL A   1      43.599  35.843  32.980  1.00  0.00     0.012 A 
ATOM     88  C   UNL A   1      42.764  34.682  34.949  1.00  0.00     0.148 A 
ATOM     89  C   UNL A   1      43.881  36.965  33.759  1.00  0.00     0.002 A 
ATOM     90  C   UNL A   1      43.000  35.821  35.708  1.00  0.00     0.091 A 
ATOM     91  F   UNL A   1      42.249  33.568  35.490  1.00  0.00    -0.205 F 
ATOM     92  C   UNL A   1      43.569  36.961  35.117  1.00  0.00     0.022 A 
BRANCH  90  93
ATOM     93  S   UNL A   1      42.529  35.947  37.438  1.00  0.00     0.127 S 
ATOM     94  O   UNL A   1      43.284  37.122  37.868  1.00  0.00    -0.237 OA
ATOM     95  O   UNL A   1      41.082  36.150  37.349  1.00  0.00    -0.237 OA
ATOM     96  O   UNL A   1      42.930  34.691  38.060  1.00  0.00    -0.744 OA
ENDBRANCH  90  93
ENDBRANCH  63  86
ENDBRANCH  37  38
ENDBRANCH  30  32
ENDBRANCH  29  30
ENDBRANCH  28  29
ENDBRANCH  27  28
ENDBRANCH  26  27
ENDBRANCH  25  26
ENDBRANCH   1  25
TORSDOF 26
ENDMDL
