MODEL 1
REMARK VINA RESULT:      -9.9      0.000      0.000
REMARK SMILES CNc1cc(-c2cncc(SCC(=O)OCCOCCOCCOC(=O)c3ccc(-c4c5nc(c(-c6cccc(S(=O)(=O)[O-])c6F)c6ccc([nH]6)c(-c6cccc(S(=O)(=O)[O-])c6F)c6nc(c(-c7cccc(S(=O)(=O)[O-])c7F)c7ccc4[nH]7)C=C6)C=C5)cc3)n2)c2cc[nH]c2n1
REMARK SMILES IDX 19 1 18 2 17 3 16 4 15 5 13 6 14 7 12 8 11 9 10 10 6 11 7 12
REMARK SMILES IDX 90 13 8 14 9 15 5 16 3 17 4 18 96 19 95 20 91 21 94 22 92 23
REMARK SMILES IDX 93 24 2 26 1 27 20 29 21 30 22 31 23 32 24 33 25 34 26 35
REMARK SMILES IDX 27 36 28 37 89 38 29 39 88 40 30 41 31 42 32 43 82 44 33 45
REMARK SMILES IDX 87 46 81 47 83 48 34 49 86 50 80 51 79 52 35 54 67 55 47 56
REMARK SMILES IDX 66 57 48 58 51 59 65 60 84 61 49 62 50 63 64 65 85 66 52 67
REMARK SMILES IDX 36 68 37 69 45 70 38 71 40 72 46 73 39 74 41 75 42 76 43 77
REMARK SMILES IDX 44 78 68 79 69 80 77 81 70 82 72 83 78 84 71 85 73 86 74 87
REMARK SMILES IDX 75 88 76 89 53 90 54 91 62 92 55 93 57 94 63 95 56 96 58 97
REMARK SMILES IDX 59 98 60 99 61 100
REMARK H PARENT 94 25 2 28 83 53 51 64
REMARK Flexibility Score: inf
ROOT
ATOM      1  C   UNL A   1      34.463  30.032  27.283  1.00  0.00     0.188 C 
ENDROOT
BRANCH   1   2
ATOM      2  O   UNL A   1      33.316  30.049  26.471  1.00  0.00    -0.376 OA
BRANCH   2   3
ATOM      3  C   UNL A   1      32.332  29.100  26.847  1.00  0.00     0.202 C 
BRANCH   3   4
ATOM      4  C   UNL A   1      31.664  28.302  25.696  1.00  0.00     0.261 C 
BRANCH   4   5
ATOM      5  O   UNL A   1      31.010  29.101  24.652  1.00  0.00    -0.463 OA
BRANCH   5   6
ATOM      6  C   UNL A   1      30.635  28.456  23.504  1.00  0.00     0.316 C 
ATOM      7  O   UNL A   1      31.042  28.804  22.396  1.00  0.00    -0.251 OA
BRANCH   6   8
ATOM      8  C   UNL A   1      29.836  27.143  23.680  1.00  0.00     0.199 C 
BRANCH   8   9
ATOM      9  S   UNL A   1      30.649  25.596  23.141  1.00  0.00    -0.093 SA
BRANCH   9  10
ATOM     10  C   UNL A   1      30.650  24.484  24.595  1.00  0.00     0.116 A 
ATOM     11  C   UNL A   1      31.658  22.268  25.572  1.00  0.00     0.091 A 
ATOM     12  C   UNL A   1      31.264  23.049  26.802  1.00  0.00     0.140 A 
ATOM     13  N   UNL A   1      31.088  23.193  24.501  1.00  0.00    -0.238 NA
ATOM     14  N   UNL A   1      30.712  24.320  26.959  1.00  0.00    -0.260 NA
ATOM     15  C   UNL A   1      30.501  25.030  25.839  1.00  0.00     0.146 A 
BRANCH  11  16
ATOM     16  C   UNL A   1      32.860  20.568  25.190  1.00  0.00     0.016 A 
ATOM     17  C   UNL A   1      33.220  17.850  24.589  1.00  0.00     0.128 A 
ATOM     18  C   UNL A   1      32.508  19.038  24.832  1.00  0.00     0.058 A 
ATOM     19  N   UNL A   1      34.520  17.859  24.517  1.00  0.00    -0.213 NA
ATOM     20  C   UNL A   1      35.061  19.043  24.759  1.00  0.00     0.140 A 
ATOM     21  C   UNL A   1      34.474  20.268  25.150  1.00  0.00     0.028 A 
ATOM     22  N   UNL A   1      36.421  19.119  24.635  1.00  0.00    -0.346 N 
ATOM     23  C   UNL A   1      35.725  20.952  25.501  1.00  0.00     0.030 A 
ATOM     24  C   UNL A   1      36.863  20.288  25.123  1.00  0.00     0.085 A 
ATOM     25  H   UNL A   1      36.992  18.418  24.245  1.00  0.00     0.167 HD
BRANCH  17  26
ATOM     26  N   UNL A   1      32.643  16.619  24.469  1.00  0.00    -0.373 N 
ATOM     27  C   UNL A   1      32.589  15.594  25.479  1.00  0.00     0.141 C 
ATOM     28  H   UNL A   1      32.218  16.411  23.605  1.00  0.00     0.161 HD
ENDBRANCH  17  26
ENDBRANCH  11  16
ENDBRANCH   9  10
ENDBRANCH   8   9
ENDBRANCH   6   8
ENDBRANCH   5   6
ENDBRANCH   4   5
ENDBRANCH   3   4
ENDBRANCH   2   3
ENDBRANCH   1   2
BRANCH   1  29
ATOM     29  C   UNL A   1      34.967  31.386  27.831  1.00  0.00     0.188 C 
BRANCH  29  30
ATOM     30  O   UNL A   1      34.054  32.428  28.119  1.00  0.00    -0.376 OA
BRANCH  30  31
ATOM     31  C   UNL A   1      34.636  33.735  27.996  1.00  0.00     0.202 C 
BRANCH  31  32
ATOM     32  C   UNL A   1      34.607  34.582  29.291  1.00  0.00     0.261 C 
BRANCH  32  33
ATOM     33  O   UNL A   1      34.493  33.869  30.543  1.00  0.00    -0.460 OA
BRANCH  33  34
ATOM     34  C   UNL A   1      34.982  34.458  31.652  1.00  0.00     0.338 C 
ATOM     35  O   UNL A   1      34.455  35.364  32.271  1.00  0.00    -0.246 OA
BRANCH  34  36
ATOM     36  C   UNL A   1      36.244  33.783  32.082  1.00  0.00     0.060 A 
ATOM     37  C   UNL A   1      37.848  34.036  31.180  1.00  0.00     0.016 A 
ATOM     38  C   UNL A   1      35.990  32.255  33.018  1.00  0.00     0.016 A 
ATOM     39  C   UNL A   1      39.065  32.652  31.074  1.00  0.00     0.010 A 
ATOM     40  C   UNL A   1      37.214  30.891  32.901  1.00  0.00     0.010 A 
ATOM     41  C   UNL A   1      38.761  31.051  31.896  1.00  0.00    -0.014 A 
BRANCH  41  42
ATOM     42  C   UNL A   1      39.959  30.039  32.140  1.00  0.00     0.031 A 
ATOM     43  C   UNL A   1      40.989  30.293  33.262  1.00  0.00     0.074 A 
ATOM     44  C   UNL A   1      40.353  29.125  31.206  1.00  0.00     0.049 A 
ATOM     45  N   UNL A   1      42.261  29.955  33.320  1.00  0.00    -0.248 NA
ATOM     46  C   UNL A   1      40.579  31.142  34.386  1.00  0.00     0.031 C 
ATOM     47  C   UNL A   1      39.700  28.823  29.937  1.00  0.00     0.029 A 
ATOM     48  N   UNL A   1      41.489  28.320  31.139  1.00  0.00    -0.354 N 
ATOM     49  C   UNL A   1      42.826  30.688  34.369  1.00  0.00     0.074 A 
ATOM     50  C   UNL A   1      41.751  31.501  34.899  1.00  0.00     0.031 C 
ATOM     51  C   UNL A   1      40.382  27.903  29.249  1.00  0.00     0.029 A 
ATOM     52  C   UNL A   1      41.606  27.603  29.957  1.00  0.00     0.049 A 
ATOM     53  H   UNL A   1      42.150  28.264  31.866  1.00  0.00     0.167 HD
ATOM     54  C   UNL A   1      44.094  30.677  34.866  1.00  0.00     0.034 A 
ATOM     55  C   UNL A   1      42.574  26.834  29.417  1.00  0.00     0.034 A 
ATOM     56  C   UNL A   1      45.100  29.698  34.518  1.00  0.00     0.049 A 
ATOM     57  C   UNL A   1      43.868  26.630  30.143  1.00  0.00     0.074 A 
ATOM     58  C   UNL A   1      46.302  29.440  35.165  1.00  0.00     0.029 A 
ATOM     59  N   UNL A   1      45.021  28.798  33.472  1.00  0.00    -0.354 N 
ATOM     60  N   UNL A   1      44.297  27.222  31.225  1.00  0.00    -0.248 NA
ATOM     61  C   UNL A   1      44.797  25.629  29.594  1.00  0.00     0.031 C 
ATOM     62  C   UNL A   1      46.955  28.398  34.501  1.00  0.00     0.029 A 
ATOM     63  C   UNL A   1      46.142  27.980  33.466  1.00  0.00     0.049 A 
ATOM     64  H   UNL A   1      44.279  28.745  32.828  1.00  0.00     0.167 HD
ATOM     65  C   UNL A   1      45.519  26.626  31.516  1.00  0.00     0.074 A 
ATOM     66  C   UNL A   1      45.755  25.618  30.509  1.00  0.00     0.031 C 
ATOM     67  C   UNL A   1      46.365  26.912  32.531  1.00  0.00     0.034 A 
BRANCH  54  68
ATOM     68  C   UNL A   1      44.489  31.676  35.947  1.00  0.00     0.023 A 
ATOM     69  C   UNL A   1      45.035  32.925  35.591  1.00  0.00     0.012 A 
ATOM     70  C   UNL A   1      44.168  31.439  37.306  1.00  0.00     0.148 A 
ATOM     71  C   UNL A   1      45.315  33.890  36.561  1.00  0.00     0.002 A 
ATOM     72  C   UNL A   1      44.385  32.433  38.258  1.00  0.00     0.091 A 
ATOM     73  F   UNL A   1      43.633  30.256  37.641  1.00  0.00    -0.205 F 
ATOM     74  C   UNL A   1      44.979  33.649  37.889  1.00  0.00     0.022 A 
BRANCH  72  75
ATOM     75  S   UNL A   1      43.862  32.290  39.975  1.00  0.00     0.127 S 
ATOM     76  O   UNL A   1      44.774  33.221  40.639  1.00  0.00    -0.237 OA
ATOM     77  O   UNL A   1      42.472  32.741  39.910  1.00  0.00    -0.237 OA
ATOM     78  O   UNL A   1      44.035  30.889  40.334  1.00  0.00    -0.744 OA
ENDBRANCH  72  75
ENDBRANCH  54  68
BRANCH  55  79
ATOM     79  C   UNL A   1      42.344  26.112  28.124  1.00  0.00     0.023 A 
ATOM     80  C   UNL A   1      42.388  26.855  26.926  1.00  0.00     0.012 A 
ATOM     81  C   UNL A   1      42.068  24.731  28.062  1.00  0.00     0.148 A 
ATOM     82  C   UNL A   1      42.100  26.257  25.700  1.00  0.00     0.002 A 
ATOM     83  C   UNL A   1      41.841  24.128  26.828  1.00  0.00     0.091 A 
ATOM     84  F   UNL A   1      42.040  24.036  29.206  1.00  0.00    -0.205 F 
ATOM     85  C   UNL A   1      41.832  24.894  25.651  1.00  0.00     0.022 A 
BRANCH  83  86
ATOM     86  S   UNL A   1      41.608  22.356  26.635  1.00  0.00     0.127 S 
ATOM     87  O   UNL A   1      42.459  21.825  27.696  1.00  0.00    -0.237 OA
ATOM     88  O   UNL A   1      40.170  22.215  26.871  1.00  0.00    -0.237 OA
ATOM     89  O   UNL A   1      42.026  22.050  25.275  1.00  0.00    -0.744 OA
ENDBRANCH  83  86
ENDBRANCH  55  79
BRANCH  67  90
ATOM     90  C   UNL A   1      47.594  26.057  32.691  1.00  0.00     0.023 A 
ATOM     91  C   UNL A   1      48.767  26.338  31.964  1.00  0.00     0.012 A 
ATOM     92  C   UNL A   1      47.592  24.994  33.617  1.00  0.00     0.148 A 
ATOM     93  C   UNL A   1      49.909  25.553  32.132  1.00  0.00     0.002 A 
ATOM     94  C   UNL A   1      48.748  24.251  33.817  1.00  0.00     0.091 A 
ATOM     95  F   UNL A   1      46.457  24.726  34.280  1.00  0.00    -0.205 F 
ATOM     96  C   UNL A   1      49.904  24.519  33.067  1.00  0.00     0.022 A 
BRANCH  94  97
ATOM     97  S   UNL A   1      48.862  22.963  35.065  1.00  0.00     0.127 S 
ATOM     98  O   UNL A   1      47.563  22.306  34.935  1.00  0.00    -0.237 OA
ATOM     99  O   UNL A   1      49.997  22.172  34.589  1.00  0.00    -0.237 OA
ATOM    100  O   UNL A   1      49.089  23.647  36.331  1.00  0.00    -0.744 OA
ENDBRANCH  94  97
ENDBRANCH  67  90
ENDBRANCH  41  42
ENDBRANCH  34  36
ENDBRANCH  33  34
ENDBRANCH  32  33
ENDBRANCH  31  32
ENDBRANCH  30  31
ENDBRANCH  29  30
ENDBRANCH   1  29
TORSDOF 24
ENDMDL
MODEL 2
REMARK VINA RESULT:      -9.8      2.298      4.750
REMARK SMILES CNc1cc(-c2cncc(SCC(=O)OCCOCCOCCOC(=O)c3ccc(-c4c5nc(c(-c6cccc(S(=O)(=O)[O-])c6F)c6ccc([nH]6)c(-c6cccc(S(=O)(=O)[O-])c6F)c6nc(c(-c7cccc(S(=O)(=O)[O-])c7F)c7ccc4[nH]7)C=C6)C=C5)cc3)n2)c2cc[nH]c2n1
REMARK SMILES IDX 19 1 18 2 17 3 16 4 15 5 13 6 14 7 12 8 11 9 10 10 6 11 7 12
REMARK SMILES IDX 90 13 8 14 9 15 5 16 3 17 4 18 96 19 95 20 91 21 94 22 92 23
REMARK SMILES IDX 93 24 2 26 1 27 20 29 21 30 22 31 23 32 24 33 25 34 26 35
REMARK SMILES IDX 27 36 28 37 89 38 29 39 88 40 30 41 31 42 32 43 82 44 33 45
REMARK SMILES IDX 87 46 81 47 83 48 34 49 86 50 80 51 79 52 35 54 67 55 47 56
REMARK SMILES IDX 66 57 48 58 51 59 65 60 84 61 49 62 50 63 64 65 85 66 52 67
REMARK SMILES IDX 36 68 37 69 45 70 38 71 40 72 46 73 39 74 41 75 42 76 43 77
REMARK SMILES IDX 44 78 68 79 69 80 77 81 70 82 72 83 78 84 71 85 73 86 74 87
REMARK SMILES IDX 75 88 76 89 53 90 54 91 62 92 55 93 57 94 63 95 56 96 58 97
REMARK SMILES IDX 59 98 60 99 61 100
REMARK H PARENT 94 25 2 28 83 53 51 64
REMARK Flexibility Score: inf
ROOT
ATOM      1  C   UNL A   1      34.263  29.312  27.292  1.00  0.00     0.188 C 
ENDROOT
BRANCH   1   2
ATOM      2  O   UNL A   1      33.111  29.096  26.516  1.00  0.00    -0.376 OA
BRANCH   2   3
ATOM      3  C   UNL A   1      32.225  28.131  27.058  1.00  0.00     0.202 C 
BRANCH   3   4
ATOM      4  C   UNL A   1      32.072  26.808  26.263  1.00  0.00     0.261 C 
BRANCH   4   5
ATOM      5  O   UNL A   1      31.843  25.598  27.063  1.00  0.00    -0.463 OA
BRANCH   5   6
ATOM      6  C   UNL A   1      31.385  24.484  26.409  1.00  0.00     0.316 C 
ATOM      7  O   UNL A   1      30.234  24.402  25.984  1.00  0.00    -0.251 OA
BRANCH   6   8
ATOM      8  C   UNL A   1      32.443  23.413  26.050  1.00  0.00     0.199 C 
BRANCH   8   9
ATOM      9  S   UNL A   1      32.372  22.706  24.365  1.00  0.00    -0.093 SA
BRANCH   9  10
ATOM     10  C   UNL A   1      32.668  24.096  23.212  1.00  0.00     0.116 A 
ATOM     11  C   UNL A   1      31.741  26.409  22.393  1.00  0.00     0.091 A 
ATOM     12  C   UNL A   1      33.211  26.480  22.060  1.00  0.00     0.140 A 
ATOM     13  N   UNL A   1      31.667  24.962  22.872  1.00  0.00    -0.238 NA
ATOM     14  N   UNL A   1      34.258  25.586  22.280  1.00  0.00    -0.260 NA
ATOM     15  C   UNL A   1      33.958  24.451  22.930  1.00  0.00     0.146 A 
BRANCH  11  16
ATOM     16  C   UNL A   1      30.154  27.805  22.511  1.00  0.00     0.016 A 
ATOM     17  C   UNL A   1      29.033  30.349  22.121  1.00  0.00     0.128 A 
ATOM     18  C   UNL A   1      30.017  29.346  22.064  1.00  0.00     0.058 A 
ATOM     19  N   UNL A   1      27.833  30.076  22.545  1.00  0.00    -0.213 NA
ATOM     20  C   UNL A   1      27.682  28.828  22.960  1.00  0.00     0.140 A 
ATOM     21  C   UNL A   1      28.616  27.775  23.088  1.00  0.00     0.028 A 
ATOM     22  N   UNL A   1      26.423  28.475  23.358  1.00  0.00    -0.346 N 
ATOM     23  C   UNL A   1      27.759  26.881  23.876  1.00  0.00     0.030 A 
ATOM     24  C   UNL A   1      26.450  27.277  23.964  1.00  0.00     0.085 A 
ATOM     25  H   UNL A   1      25.614  29.020  23.221  1.00  0.00     0.167 HD
BRANCH  17  26
ATOM     26  N   UNL A   1      29.252  31.659  21.806  1.00  0.00    -0.373 N 
ATOM     27  C   UNL A   1      28.442  32.482  20.946  1.00  0.00     0.141 C 
ATOM     28  H   UNL A   1      30.043  32.085  22.209  1.00  0.00     0.161 HD
ENDBRANCH  17  26
ENDBRANCH  11  16
ENDBRANCH   9  10
ENDBRANCH   8   9
ENDBRANCH   6   8
ENDBRANCH   5   6
ENDBRANCH   4   5
ENDBRANCH   3   4
ENDBRANCH   2   3
ENDBRANCH   1   2
BRANCH   1  29
ATOM     29  C   UNL A   1      34.752  30.770  27.449  1.00  0.00     0.188 C 
BRANCH  29  30
ATOM     30  O   UNL A   1      33.927  31.741  28.064  1.00  0.00    -0.376 OA
BRANCH  30  31
ATOM     31  C   UNL A   1      34.364  33.086  27.818  1.00  0.00     0.202 C 
BRANCH  31  32
ATOM     32  C   UNL A   1      34.453  33.980  29.079  1.00  0.00     0.261 C 
BRANCH  32  33
ATOM     33  O   UNL A   1      34.496  33.311  30.359  1.00  0.00    -0.460 OA
BRANCH  33  34
ATOM     34  C   UNL A   1      35.005  33.988  31.408  1.00  0.00     0.338 C 
ATOM     35  O   UNL A   1      34.525  34.985  31.916  1.00  0.00    -0.246 OA
BRANCH  34  36
ATOM     36  C   UNL A   1      36.219  33.291  31.932  1.00  0.00     0.060 A 
ATOM     37  C   UNL A   1      37.936  33.856  31.504  1.00  0.00     0.016 A 
ATOM     38  C   UNL A   1      35.947  31.559  32.383  1.00  0.00     0.016 A 
ATOM     39  C   UNL A   1      39.292  32.614  31.339  1.00  0.00     0.010 A 
ATOM     40  C   UNL A   1      37.310  30.340  32.214  1.00  0.00     0.010 A 
ATOM     41  C   UNL A   1      39.003  30.840  31.653  1.00  0.00    -0.014 A 
BRANCH  41  42
ATOM     42  C   UNL A   1      40.228  29.864  31.905  1.00  0.00     0.031 A 
ATOM     43  C   UNL A   1      41.200  30.106  33.081  1.00  0.00     0.074 A 
ATOM     44  C   UNL A   1      40.697  29.008  30.951  1.00  0.00     0.049 A 
ATOM     45  N   UNL A   1      42.481  29.814  33.179  1.00  0.00    -0.248 NA
ATOM     46  C   UNL A   1      40.710  30.887  34.221  1.00  0.00     0.031 C 
ATOM     47  C   UNL A   1      40.110  28.740  29.642  1.00  0.00     0.029 A 
ATOM     48  N   UNL A   1      41.866  28.250  30.898  1.00  0.00    -0.354 N 
ATOM     49  C   UNL A   1      42.972  30.519  34.282  1.00  0.00     0.074 A 
ATOM     50  C   UNL A   1      41.845  31.267  34.801  1.00  0.00     0.031 C 
ATOM     51  C   UNL A   1      40.856  27.878  28.945  1.00  0.00     0.029 A 
ATOM     52  C   UNL A   1      42.060  27.593  29.692  1.00  0.00     0.049 A 
ATOM     53  H   UNL A   1      42.497  28.186  31.650  1.00  0.00     0.167 HD
ATOM     54  C   UNL A   1      44.218  30.533  34.833  1.00  0.00     0.034 A 
ATOM     55  C   UNL A   1      43.080  26.885  29.162  1.00  0.00     0.034 A 
ATOM     56  C   UNL A   1      45.275  29.610  34.488  1.00  0.00     0.049 A 
ATOM     57  C   UNL A   1      44.349  26.698  29.934  1.00  0.00     0.074 A 
ATOM     58  C   UNL A   1      46.459  29.368  35.175  1.00  0.00     0.029 A 
ATOM     59  N   UNL A   1      45.275  28.755  33.401  1.00  0.00    -0.354 N 
ATOM     60  N   UNL A   1      44.709  27.256  31.058  1.00  0.00    -0.248 NA
ATOM     61  C   UNL A   1      45.339  25.758  29.383  1.00  0.00     0.031 C 
ATOM     62  C   UNL A   1      47.179  28.382  34.495  1.00  0.00     0.029 A 
ATOM     63  C   UNL A   1      46.427  27.981  33.408  1.00  0.00     0.049 A 
ATOM     64  H   UNL A   1      44.563  28.703  32.724  1.00  0.00     0.167 HD
ATOM     65  C   UNL A   1      45.940  26.694  31.376  1.00  0.00     0.074 A 
ATOM     66  C   UNL A   1      46.257  25.741  30.338  1.00  0.00     0.031 C 
ATOM     67  C   UNL A   1      46.731  26.965  32.438  1.00  0.00     0.034 A 
BRANCH  54  68
ATOM     68  C   UNL A   1      44.528  31.497  35.973  1.00  0.00     0.023 A 
ATOM     69  C   UNL A   1      45.042  32.779  35.696  1.00  0.00     0.012 A 
ATOM     70  C   UNL A   1      44.156  31.189  37.304  1.00  0.00     0.148 A 
ATOM     71  C   UNL A   1      45.243  33.709  36.718  1.00  0.00     0.002 A 
ATOM     72  C   UNL A   1      44.294  32.146  38.307  1.00  0.00     0.091 A 
ATOM     73  F   UNL A   1      43.652  29.974  37.564  1.00  0.00    -0.205 F 
ATOM     74  C   UNL A   1      44.858  33.398  38.018  1.00  0.00     0.022 A 
BRANCH  72  75
ATOM     75  S   UNL A   1      43.703  31.909  39.991  1.00  0.00     0.127 S 
ATOM     76  O   UNL A   1      42.261  31.783  39.782  1.00  0.00    -0.237 OA
ATOM     77  O   UNL A   1      44.372  30.667  40.378  1.00  0.00    -0.237 OA
ATOM     78  O   UNL A   1      44.122  33.089  40.736  1.00  0.00    -0.744 OA
ENDBRANCH  72  75
ENDBRANCH  54  68
BRANCH  55  79
ATOM     79  C   UNL A   1      42.932  26.214  27.830  1.00  0.00     0.023 A 
ATOM     80  C   UNL A   1      43.150  26.981  26.667  1.00  0.00     0.012 A 
ATOM     81  C   UNL A   1      42.567  24.859  27.697  1.00  0.00     0.148 A 
ATOM     82  C   UNL A   1      42.948  26.436  25.400  1.00  0.00     0.002 A 
ATOM     83  C   UNL A   1      42.426  24.304  26.428  1.00  0.00     0.091 A 
ATOM     84  F   UNL A   1      42.374  24.140  28.810  1.00  0.00    -0.205 F 
ATOM     85  C   UNL A   1      42.591  25.097  25.281  1.00  0.00     0.022 A 
BRANCH  83  86
ATOM     86  S   UNL A   1      42.089  22.560  26.156  1.00  0.00     0.127 S 
ATOM     87  O   UNL A   1      42.674  22.344  24.835  1.00  0.00    -0.237 OA
ATOM     88  O   UNL A   1      42.820  21.937  27.261  1.00  0.00    -0.237 OA
ATOM     89  O   UNL A   1      40.643  22.420  26.238  1.00  0.00    -0.744 OA
ENDBRANCH  83  86
ENDBRANCH  55  79
BRANCH  67  90
ATOM     90  C   UNL A   1      47.985  26.151  32.614  1.00  0.00     0.023 A 
ATOM     91  C   UNL A   1      49.185  26.527  31.979  1.00  0.00     0.012 A 
ATOM     92  C   UNL A   1      47.977  25.027  33.465  1.00  0.00     0.148 A 
ATOM     93  C   UNL A   1      50.348  25.779  32.163  1.00  0.00     0.002 A 
ATOM     94  C   UNL A   1      49.151  24.318  33.685  1.00  0.00     0.091 A 
ATOM     95  F   UNL A   1      46.818  24.669  34.040  1.00  0.00    -0.205 F 
ATOM     96  C   UNL A   1      50.334  24.683  33.025  1.00  0.00     0.022 A 
BRANCH  94  97
ATOM     97  S   UNL A   1      49.249  22.953  34.848  1.00  0.00     0.127 S 
ATOM     98  O   UNL A   1      50.252  23.438  35.794  1.00  0.00    -0.237 OA
ATOM     99  O   UNL A   1      47.886  22.900  35.377  1.00  0.00    -0.237 OA
ATOM    100  O   UNL A   1      49.642  21.786  34.069  1.00  0.00    -0.744 OA
ENDBRANCH  94  97
ENDBRANCH  67  90
ENDBRANCH  41  42
ENDBRANCH  34  36
ENDBRANCH  33  34
ENDBRANCH  32  33
ENDBRANCH  31  32
ENDBRANCH  30  31
ENDBRANCH  29  30
ENDBRANCH   1  29
TORSDOF 24
ENDMDL
MODEL 3
REMARK VINA RESULT:      -9.1      4.066      9.810
REMARK SMILES CNc1cc(-c2cncc(SCC(=O)OCCOCCOCCOC(=O)c3ccc(-c4c5nc(c(-c6cccc(S(=O)(=O)[O-])c6F)c6ccc([nH]6)c(-c6cccc(S(=O)(=O)[O-])c6F)c6nc(c(-c7cccc(S(=O)(=O)[O-])c7F)c7ccc4[nH]7)C=C6)C=C5)cc3)n2)c2cc[nH]c2n1
REMARK SMILES IDX 19 1 18 2 17 3 16 4 15 5 13 6 14 7 12 8 11 9 10 10 6 11 7 12
REMARK SMILES IDX 90 13 8 14 9 15 5 16 3 17 4 18 96 19 95 20 91 21 94 22 92 23
REMARK SMILES IDX 93 24 2 26 1 27 20 29 21 30 22 31 23 32 24 33 25 34 26 35
REMARK SMILES IDX 27 36 28 37 89 38 29 39 88 40 30 41 31 42 32 43 82 44 33 45
REMARK SMILES IDX 87 46 81 47 83 48 34 49 86 50 80 51 79 52 35 54 67 55 47 56
REMARK SMILES IDX 66 57 48 58 51 59 65 60 84 61 49 62 50 63 64 65 85 66 52 67
REMARK SMILES IDX 36 68 37 69 45 70 38 71 40 72 46 73 39 74 41 75 42 76 43 77
REMARK SMILES IDX 44 78 68 79 69 80 77 81 70 82 72 83 78 84 71 85 73 86 74 87
REMARK SMILES IDX 75 88 76 89 53 90 54 91 62 92 55 93 57 94 63 95 56 96 58 97
REMARK SMILES IDX 59 98 60 99 61 100
REMARK H PARENT 94 25 2 28 83 53 51 64
REMARK Flexibility Score: inf
ROOT
ATOM      1  C   UNL A   1      38.575  23.390  26.197  1.00  0.00     0.188 C 
ENDROOT
BRANCH   1   2
ATOM      2  O   UNL A   1      37.296  23.972  26.224  1.00  0.00    -0.376 OA
BRANCH   2   3
ATOM      3  C   UNL A   1      36.240  23.048  26.014  1.00  0.00     0.202 C 
BRANCH   3   4
ATOM      4  C   UNL A   1      35.449  23.190  24.687  1.00  0.00     0.261 C 
BRANCH   4   5
ATOM      5  O   UNL A   1      35.086  21.936  24.016  1.00  0.00    -0.463 OA
BRANCH   5   6
ATOM      6  C   UNL A   1      35.022  20.803  24.784  1.00  0.00     0.316 C 
ATOM      7  O   UNL A   1      36.013  20.111  25.013  1.00  0.00    -0.251 OA
BRANCH   6   8
ATOM      8  C   UNL A   1      33.684  20.542  25.518  1.00  0.00     0.199 C 
BRANCH   8   9
ATOM      9  S   UNL A   1      32.163  21.174  24.723  1.00  0.00    -0.093 SA
BRANCH   9  10
ATOM     10  C   UNL A   1      31.494  22.456  25.843  1.00  0.00     0.116 A 
ATOM     11  C   UNL A   1      31.384  25.039  26.289  1.00  0.00     0.091 A 
ATOM     12  C   UNL A   1      30.149  24.509  26.977  1.00  0.00     0.140 A 
ATOM     13  N   UNL A   1      32.022  23.716  25.877  1.00  0.00    -0.238 NA
ATOM     14  N   UNL A   1      29.618  23.224  27.072  1.00  0.00    -0.260 NA
ATOM     15  C   UNL A   1      30.273  22.248  26.424  1.00  0.00     0.146 A 
BRANCH  11  16
ATOM     16  C   UNL A   1      32.079  26.952  25.706  1.00  0.00     0.016 A 
ATOM     17  C   UNL A   1      32.499  29.693  26.138  1.00  0.00     0.128 A 
ATOM     18  C   UNL A   1      32.091  28.383  26.444  1.00  0.00     0.058 A 
ATOM     19  N   UNL A   1      33.132  29.948  25.029  1.00  0.00    -0.213 NA
ATOM     20  C   UNL A   1      33.272  28.896  24.238  1.00  0.00     0.140 A 
ATOM     21  C   UNL A   1      32.789  27.573  24.362  1.00  0.00     0.028 A 
ATOM     22  N   UNL A   1      33.984  29.098  23.089  1.00  0.00    -0.346 N 
ATOM     23  C   UNL A   1      33.092  27.152  22.988  1.00  0.00     0.030 A 
ATOM     24  C   UNL A   1      33.860  28.037  22.277  1.00  0.00     0.085 A 
ATOM     25  H   UNL A   1      34.511  29.905  22.886  1.00  0.00     0.167 HD
BRANCH  17  26
ATOM     26  N   UNL A   1      32.229  30.783  26.914  1.00  0.00    -0.373 N 
ATOM     27  C   UNL A   1      31.375  31.891  26.571  1.00  0.00     0.141 C 
ATOM     28  H   UNL A   1      32.660  30.814  27.799  1.00  0.00     0.161 HD
ENDBRANCH  17  26
ENDBRANCH  11  16
ENDBRANCH   9  10
ENDBRANCH   8   9
ENDBRANCH   6   8
ENDBRANCH   5   6
ENDBRANCH   4   5
ENDBRANCH   3   4
ENDBRANCH   2   3
ENDBRANCH   1   2
BRANCH   1  29
ATOM     29  C   UNL A   1      38.669  21.896  25.816  1.00  0.00     0.188 C 
BRANCH  29  30
ATOM     30  O   UNL A   1      39.838  21.153  26.106  1.00  0.00    -0.376 OA
BRANCH  30  31
ATOM     31  C   UNL A   1      41.018  21.968  26.180  1.00  0.00     0.202 C 
BRANCH  31  32
ATOM     32  C   UNL A   1      42.352  21.183  26.122  1.00  0.00     0.261 C 
BRANCH  32  33
ATOM     33  O   UNL A   1      43.306  21.579  25.112  1.00  0.00    -0.460 OA
BRANCH  33  34
ATOM     34  C   UNL A   1      44.310  22.400  25.478  1.00  0.00     0.338 C 
ATOM     35  O   UNL A   1      45.498  22.198  25.304  1.00  0.00    -0.246 OA
BRANCH  34  36
ATOM     36  C   UNL A   1      43.759  23.659  26.064  1.00  0.00     0.060 A 
ATOM     37  C   UNL A   1      43.505  25.188  25.041  1.00  0.00     0.016 A 
ATOM     38  C   UNL A   1      44.012  23.823  27.848  1.00  0.00     0.016 A 
ATOM     39  C   UNL A   1      43.725  26.851  25.813  1.00  0.00     0.010 A 
ATOM     40  C   UNL A   1      44.226  25.487  28.597  1.00  0.00     0.010 A 
ATOM     41  C   UNL A   1      44.122  27.034  27.584  1.00  0.00    -0.014 A 
BRANCH  41  42
ATOM     42  C   UNL A   1      43.908  28.428  28.310  1.00  0.00     0.031 A 
ATOM     43  C   UNL A   1      45.073  29.118  29.053  1.00  0.00     0.074 A 
ATOM     44  C   UNL A   1      42.671  28.914  28.624  1.00  0.00     0.049 A 
ATOM     45  N   UNL A   1      45.040  29.914  30.102  1.00  0.00    -0.248 NA
ATOM     46  C   UNL A   1      46.440  28.763  28.658  1.00  0.00     0.031 C 
ATOM     47  C   UNL A   1      41.380  28.346  28.250  1.00  0.00     0.029 A 
ATOM     48  N   UNL A   1      42.287  29.980  29.435  1.00  0.00    -0.354 N 
ATOM     49  C   UNL A   1      46.350  30.002  30.584  1.00  0.00     0.074 A 
ATOM     50  C   UNL A   1      47.143  29.156  29.715  1.00  0.00     0.031 C 
ATOM     51  C   UNL A   1      40.372  29.056  28.764  1.00  0.00     0.029 A 
ATOM     52  C   UNL A   1      40.916  30.088  29.618  1.00  0.00     0.049 A 
ATOM     53  H   UNL A   1      42.932  30.603  29.843  1.00  0.00     0.167 HD
ATOM     54  C   UNL A   1      46.860  30.725  31.620  1.00  0.00     0.034 A 
ATOM     55  C   UNL A   1      40.130  30.853  30.404  1.00  0.00     0.034 A 
ATOM     56  C   UNL A   1      46.138  31.759  32.328  1.00  0.00     0.049 A 
ATOM     57  C   UNL A   1      40.743  31.842  31.347  1.00  0.00     0.074 A 
ATOM     58  C   UNL A   1      46.649  32.721  33.190  1.00  0.00     0.029 A 
ATOM     59  N   UNL A   1      44.779  31.998  32.240  1.00  0.00    -0.354 N 
ATOM     60  N   UNL A   1      42.002  32.006  31.653  1.00  0.00    -0.248 NA
ATOM     61  C   UNL A   1      39.831  32.776  32.029  1.00  0.00     0.031 C 
ATOM     62  C   UNL A   1      45.598  33.529  33.634  1.00  0.00     0.029 A 
ATOM     63  C   UNL A   1      44.440  33.096  33.018  1.00  0.00     0.049 A 
ATOM     64  H   UNL A   1      44.146  31.468  31.704  1.00  0.00     0.167 HD
ATOM     65  C   UNL A   1      42.037  33.093  32.517  1.00  0.00     0.074 A 
ATOM     66  C   UNL A   1      40.680  33.560  32.675  1.00  0.00     0.031 C 
ATOM     67  C   UNL A   1      43.114  33.637  33.128  1.00  0.00     0.034 A 
BRANCH  54  68
ATOM     68  C   UNL A   1      48.319  30.545  32.020  1.00  0.00     0.023 A 
ATOM     69  C   UNL A   1      48.675  29.581  32.984  1.00  0.00     0.012 A 
ATOM     70  C   UNL A   1      49.351  31.219  31.322  1.00  0.00     0.148 A 
ATOM     71  C   UNL A   1      50.014  29.336  33.295  1.00  0.00     0.002 A 
ATOM     72  C   UNL A   1      50.685  30.917  31.587  1.00  0.00     0.091 A 
ATOM     73  F   UNL A   1      49.010  32.124  30.393  1.00  0.00    -0.205 F 
ATOM     74  C   UNL A   1      51.017  29.993  32.589  1.00  0.00     0.022 A 
BRANCH  72  75
ATOM     75  S   UNL A   1      52.060  31.597  30.644  1.00  0.00     0.127 S 
ATOM     76  O   UNL A   1      51.984  33.015  30.993  1.00  0.00    -0.237 OA
ATOM     77  O   UNL A   1      53.204  30.890  31.218  1.00  0.00    -0.237 OA
ATOM     78  O   UNL A   1      51.785  31.285  29.248  1.00  0.00    -0.744 OA
ENDBRANCH  72  75
ENDBRANCH  54  68
BRANCH  55  79
ATOM     79  C   UNL A   1      38.638  30.780  30.294  1.00  0.00     0.023 A 
ATOM     80  C   UNL A   1      37.976  29.683  30.883  1.00  0.00     0.012 A 
ATOM     81  C   UNL A   1      37.877  31.751  29.612  1.00  0.00     0.148 A 
ATOM     82  C   UNL A   1      36.599  29.517  30.743  1.00  0.00     0.002 A 
ATOM     83  C   UNL A   1      36.494  31.611  29.528  1.00  0.00     0.091 A 
ATOM     84  F   UNL A   1      38.517  32.794  29.068  1.00  0.00    -0.205 F 
ATOM     85  C   UNL A   1      35.859  30.482  30.071  1.00  0.00     0.022 A 
BRANCH  83  86
ATOM     86  S   UNL A   1      35.429  32.857  28.793  1.00  0.00     0.127 S 
ATOM     87  O   UNL A   1      36.022  33.014  27.468  1.00  0.00    -0.237 OA
ATOM     88  O   UNL A   1      34.127  32.187  28.809  1.00  0.00    -0.237 OA
ATOM     89  O   UNL A   1      35.517  34.017  29.668  1.00  0.00    -0.744 OA
ENDBRANCH  83  86
ENDBRANCH  55  79
BRANCH  67  90
ATOM     90  C   UNL A   1      42.908  34.880  33.952  1.00  0.00     0.023 A 
ATOM     91  C   UNL A   1      43.111  36.157  33.394  1.00  0.00     0.012 A 
ATOM     92  C   UNL A   1      42.455  34.772  35.283  1.00  0.00     0.148 A 
ATOM     93  C   UNL A   1      42.899  37.306  34.158  1.00  0.00     0.002 A 
ATOM     94  C   UNL A   1      42.195  35.920  36.020  1.00  0.00     0.091 A 
ATOM     95  F   UNL A   1      42.292  33.547  35.805  1.00  0.00    -0.205 F 
ATOM     96  C   UNL A   1      42.429  37.188  35.465  1.00  0.00     0.022 A 
BRANCH  94  97
ATOM     97  S   UNL A   1      41.500  35.866  37.676  1.00  0.00     0.127 S 
ATOM     98  O   UNL A   1      42.668  36.174  38.499  1.00  0.00    -0.237 OA
ATOM     99  O   UNL A   1      40.494  36.927  37.622  1.00  0.00    -0.237 OA
ATOM    100  O   UNL A   1      40.957  34.524  37.842  1.00  0.00    -0.744 OA
ENDBRANCH  94  97
ENDBRANCH  67  90
ENDBRANCH  41  42
ENDBRANCH  34  36
ENDBRANCH  33  34
ENDBRANCH  32  33
ENDBRANCH  31  32
ENDBRANCH  30  31
ENDBRANCH  29  30
ENDBRANCH   1  29
TORSDOF 24
ENDMDL
