MODEL 1
REMARK VINA RESULT:     -10.6      0.000      0.000
REMARK SMILES CCn1c([C@@H]2CCC[N@@H+](Cc3ccc(C(=O)OCCOCCOCCOC(=O)c4ccc(-c5c6nc(c(-c7cccc(S(=O)(=O)[O-])c7F)c7ccc([nH]7)c(-c7cccc(S(=O)(=O)[O-])c7F)c7nc(c(-c8cccc(S(=O)(=O)[O-])c8F)c8ccc5[nH]8)C=C7)C=C6)cc4)cc3)C2)nn(C)c1=O
REMARK SMILES IDX 21 1 20 2 19 3 18 4 17 5 15 6 16 7 14 8 11 9 12 10 93 11
REMARK SMILES IDX 13 12 92 13 10 14 9 15 5 16 6 17 94 18 7 19 8 20 4 22 3 23
REMARK SMILES IDX 98 24 95 25 96 26 99 27 97 28 2 29 1 30 22 31 23 32 24 33
REMARK SMILES IDX 25 34 26 35 27 36 28 37 29 38 30 39 91 40 31 41 90 42 32 43
REMARK SMILES IDX 33 44 34 45 84 46 35 47 89 48 83 49 85 50 36 51 88 52 82 53
REMARK SMILES IDX 81 54 37 56 69 57 49 58 68 59 50 60 53 61 67 62 86 63 51 64
REMARK SMILES IDX 52 65 66 67 87 68 54 69 38 70 39 71 47 72 40 73 42 74 48 75
REMARK SMILES IDX 41 76 43 77 44 78 45 79 46 80 70 81 71 82 79 83 72 84 74 85
REMARK SMILES IDX 80 86 73 87 75 88 76 89 77 90 78 91 55 92 56 93 64 94 57 95
REMARK SMILES IDX 59 96 65 97 58 98 60 99 61 100 62 101 63 102
REMARK H PARENT 9 21 85 55 53 66
REMARK Flexibility Score: inf
ROOT
ATOM      1  C   UNL A   1      33.142  28.956  25.526  1.00  0.00     0.188 C 
ENDROOT
BRANCH   1   2
ATOM      2  O   UNL A   1      33.516  28.260  24.360  1.00  0.00    -0.376 OA
BRANCH   2   3
ATOM      3  C   UNL A   1      33.103  28.668  23.068  1.00  0.00     0.202 C 
BRANCH   3   4
ATOM      4  C   UNL A   1      31.722  29.247  22.711  1.00  0.00     0.261 C 
BRANCH   4   5
ATOM      5  O   UNL A   1      30.782  28.330  22.161  1.00  0.00    -0.460 OA
BRANCH   5   6
ATOM      6  C   UNL A   1      29.783  27.956  22.995  1.00  0.00     0.338 C 
ATOM      7  O   UNL A   1      28.675  28.452  23.093  1.00  0.00    -0.246 OA
BRANCH   6   8
ATOM      8  C   UNL A   1      30.167  26.701  23.671  1.00  0.00     0.060 A 
ATOM      9  C   UNL A   1      30.778  24.253  24.825  1.00  0.00     0.006 A 
ATOM     10  C   UNL A   1      30.923  24.426  23.442  1.00  0.00     0.010 A 
ATOM     11  C   UNL A   1      30.486  25.356  25.641  1.00  0.00     0.010 A 
ATOM     12  C   UNL A   1      30.609  25.647  22.864  1.00  0.00     0.016 A 
ATOM     13  C   UNL A   1      30.147  26.575  25.063  1.00  0.00     0.016 A 
BRANCH   9  14
ATOM     14  C   UNL A   1      30.696  22.850  25.374  1.00  0.00     0.299 C 
BRANCH  14  15
ATOM     15  N   UNL A   1      31.968  22.379  25.967  1.00  0.00    -0.331 N 
ATOM     16  C   UNL A   1      34.302  21.801  25.575  1.00  0.00     0.113 C 
ATOM     17  C   UNL A   1      34.694  22.180  26.997  1.00  0.00     0.023 C 
ATOM     18  C   UNL A   1      33.089  22.547  25.058  1.00  0.00     0.274 C 
ATOM     19  C   UNL A   1      33.522  22.343  27.948  1.00  0.00     0.062 C 
ATOM     20  C   UNL A   1      32.266  22.934  27.299  1.00  0.00     0.262 C 
ATOM     21  H   UNL A   1      31.827  21.380  26.115  1.00  0.00     0.348 HD
BRANCH  16  22
ATOM     22  C   UNL A   1      34.324  20.337  25.139  1.00  0.00     0.142 A 
ATOM     23  N   UNL A   1      35.314  19.498  24.778  1.00  0.00    -0.279 N 
ATOM     24  C   UNL A   1      34.681  18.259  24.643  1.00  0.00     0.345 A 
ATOM     25  N   UNL A   1      33.140  19.773  25.188  1.00  0.00    -0.155 NA
ATOM     26  N   UNL A   1      33.346  18.476  24.890  1.00  0.00    -0.216 N 
ATOM     27  O   UNL A   1      35.205  17.179  24.404  1.00  0.00    -0.246 OA
ATOM     28  C   UNL A   1      32.322  17.480  25.010  1.00  0.00     0.179 C 
BRANCH  23  29
ATOM     29  C   UNL A   1      36.773  19.376  24.664  1.00  0.00     0.125 C 
ATOM     30  C   UNL A   1      37.811  20.395  25.053  1.00  0.00     0.028 C 
ENDBRANCH  23  29
ENDBRANCH  16  22
ENDBRANCH  14  15
ENDBRANCH   9  14
ENDBRANCH   6   8
ENDBRANCH   5   6
ENDBRANCH   4   5
ENDBRANCH   3   4
ENDBRANCH   2   3
ENDBRANCH   1   2
BRANCH   1  31
ATOM     31  C   UNL A   1      33.789  28.610  26.882  1.00  0.00     0.188 C 
BRANCH  31  32
ATOM     32  O   UNL A   1      34.489  29.582  27.632  1.00  0.00    -0.376 OA
BRANCH  32  33
ATOM     33  C   UNL A   1      34.216  30.969  27.523  1.00  0.00     0.202 C 
BRANCH  33  34
ATOM     34  C   UNL A   1      34.343  31.993  28.649  1.00  0.00     0.261 C 
BRANCH  34  35
ATOM     35  O   UNL A   1      35.646  32.449  28.937  1.00  0.00    -0.460 OA
BRANCH  35  36
ATOM     36  C   UNL A   1      36.263  31.718  29.891  1.00  0.00     0.338 C 
ATOM     37  O   UNL A   1      35.836  31.441  30.999  1.00  0.00    -0.246 OA
BRANCH  36  38
ATOM     38  C   UNL A   1      37.587  31.334  29.409  1.00  0.00     0.060 A 
ATOM     39  C   UNL A   1      37.678  30.129  28.711  1.00  0.00     0.016 A 
ATOM     40  C   UNL A   1      38.710  32.013  29.900  1.00  0.00     0.016 A 
ATOM     41  C   UNL A   1      38.894  29.490  28.689  1.00  0.00     0.010 A 
ATOM     42  C   UNL A   1      39.922  31.369  29.883  1.00  0.00     0.010 A 
ATOM     43  C   UNL A   1      39.971  30.079  29.362  1.00  0.00    -0.014 A 
BRANCH  43  44
ATOM     44  C   UNL A   1      41.179  29.298  29.498  1.00  0.00     0.031 A 
ATOM     45  C   UNL A   1      41.549  29.031  30.900  1.00  0.00     0.074 A 
ATOM     46  C   UNL A   1      41.835  28.818  28.426  1.00  0.00     0.049 A 
ATOM     47  N   UNL A   1      42.570  29.489  31.542  1.00  0.00    -0.248 NA
ATOM     48  C   UNL A   1      40.577  28.304  31.730  1.00  0.00     0.031 C 
ATOM     49  C   UNL A   1      41.390  28.817  27.028  1.00  0.00     0.029 A 
ATOM     50  N   UNL A   1      42.987  28.096  28.387  1.00  0.00    -0.354 N 
ATOM     51  C   UNL A   1      42.501  28.885  32.791  1.00  0.00     0.074 A 
ATOM     52  C   UNL A   1      41.171  28.348  32.922  1.00  0.00     0.031 C 
ATOM     53  C   UNL A   1      42.123  27.920  26.333  1.00  0.00     0.029 A 
ATOM     54  C   UNL A   1      43.163  27.394  27.200  1.00  0.00     0.049 A 
ATOM     55  H   UNL A   1      43.635  28.073  29.127  1.00  0.00     0.167 HD
ATOM     56  C   UNL A   1      43.628  28.600  33.492  1.00  0.00     0.034 A 
ATOM     57  C   UNL A   1      44.044  26.388  26.988  1.00  0.00     0.034 A 
ATOM     58  C   UNL A   1      44.763  29.352  33.028  1.00  0.00     0.049 A 
ATOM     59  C   UNL A   1      45.103  26.503  28.016  1.00  0.00     0.074 A 
ATOM     60  C   UNL A   1      45.060  30.695  32.896  1.00  0.00     0.029 A 
ATOM     61  N   UNL A   1      45.670  28.681  32.247  1.00  0.00    -0.354 N 
ATOM     62  N   UNL A   1      45.952  27.491  28.068  1.00  0.00    -0.248 NA
ATOM     63  C   UNL A   1      44.971  25.729  29.239  1.00  0.00     0.031 C 
ATOM     64  C   UNL A   1      45.841  30.788  31.707  1.00  0.00     0.029 A 
ATOM     65  C   UNL A   1      46.017  29.497  31.202  1.00  0.00     0.049 A 
ATOM     66  H   UNL A   1      46.012  27.772  32.409  1.00  0.00     0.167 HD
ATOM     67  C   UNL A   1      46.099  27.747  29.424  1.00  0.00     0.074 A 
ATOM     68  C   UNL A   1      45.590  26.551  30.090  1.00  0.00     0.031 C 
ATOM     69  C   UNL A   1      46.343  29.014  29.876  1.00  0.00     0.034 A 
BRANCH  56  70
ATOM     70  C   UNL A   1      43.779  27.355  34.325  1.00  0.00     0.023 A 
ATOM     71  C   UNL A   1      44.044  27.507  35.699  1.00  0.00     0.012 A 
ATOM     72  C   UNL A   1      43.931  26.059  33.777  1.00  0.00     0.148 A 
ATOM     73  C   UNL A   1      44.450  26.424  36.486  1.00  0.00     0.002 A 
ATOM     74  C   UNL A   1      44.237  24.970  34.579  1.00  0.00     0.091 A 
ATOM     75  F   UNL A   1      43.925  25.887  32.450  1.00  0.00    -0.205 F 
ATOM     76  C   UNL A   1      44.527  25.151  35.931  1.00  0.00     0.022 A 
BRANCH  74  77
ATOM     77  S   UNL A   1      44.269  23.304  33.911  1.00  0.00     0.127 S 
ATOM     78  O   UNL A   1      42.895  22.871  34.139  1.00  0.00    -0.237 OA
ATOM     79  O   UNL A   1      44.621  23.548  32.512  1.00  0.00    -0.237 OA
ATOM     80  O   UNL A   1      45.303  22.608  34.670  1.00  0.00    -0.744 OA
ENDBRANCH  74  77
ENDBRANCH  56  70
BRANCH  57  81
ATOM     81  C   UNL A   1      43.894  25.182  26.144  1.00  0.00     0.023 A 
ATOM     82  C   UNL A   1      44.810  24.943  25.100  1.00  0.00     0.012 A 
ATOM     83  C   UNL A   1      43.031  24.131  26.529  1.00  0.00     0.148 A 
ATOM     84  C   UNL A   1      44.885  23.688  24.483  1.00  0.00     0.002 A 
ATOM     85  C   UNL A   1      43.102  22.891  25.906  1.00  0.00     0.091 A 
ATOM     86  F   UNL A   1      42.206  24.321  27.567  1.00  0.00    -0.205 F 
ATOM     87  C   UNL A   1      44.038  22.662  24.891  1.00  0.00     0.022 A 
BRANCH  85  88
ATOM     88  S   UNL A   1      42.054  21.513  26.391  1.00  0.00     0.127 S 
ATOM     89  O   UNL A   1      42.305  21.434  27.831  1.00  0.00    -0.237 OA
ATOM     90  O   UNL A   1      40.725  22.000  26.028  1.00  0.00    -0.237 OA
ATOM     91  O   UNL A   1      42.531  20.361  25.637  1.00  0.00    -0.744 OA
ENDBRANCH  85  88
ENDBRANCH  57  81
BRANCH  69  92
ATOM     92  C   UNL A   1      46.725  30.060  28.853  1.00  0.00     0.023 A 
ATOM     93  C   UNL A   1      48.037  30.173  28.345  1.00  0.00     0.012 A 
ATOM     94  C   UNL A   1      45.710  30.846  28.282  1.00  0.00     0.148 A 
ATOM     95  C   UNL A   1      48.336  31.073  27.318  1.00  0.00     0.002 A 
ATOM     96  C   UNL A   1      46.002  31.706  27.230  1.00  0.00     0.091 A 
ATOM     97  F   UNL A   1      44.465  30.721  28.765  1.00  0.00    -0.205 F 
ATOM     98  C   UNL A   1      47.315  31.831  26.752  1.00  0.00     0.022 A 
BRANCH  96  99
ATOM     99  S   UNL A   1      44.714  32.619  26.375  1.00  0.00     0.127 S 
ATOM    100  O   UNL A   1      43.849  31.548  25.889  1.00  0.00    -0.237 OA
ATOM    101  O   UNL A   1      44.139  33.431  27.450  1.00  0.00    -0.237 OA
ATOM    102  O   UNL A   1      45.391  33.396  25.343  1.00  0.00    -0.744 OA
ENDBRANCH  96  99
ENDBRANCH  69  92
ENDBRANCH  43  44
ENDBRANCH  36  38
ENDBRANCH  35  36
ENDBRANCH  34  35
ENDBRANCH  33  34
ENDBRANCH  32  33
ENDBRANCH  31  32
ENDBRANCH   1  31
TORSDOF 24
ENDMDL
MODEL 2
REMARK VINA RESULT:     -10.0      2.396      3.922
REMARK SMILES CCn1c([C@@H]2CCC[N@@H+](Cc3ccc(C(=O)OCCOCCOCCOC(=O)c4ccc(-c5c6nc(c(-c7cccc(S(=O)(=O)[O-])c7F)c7ccc([nH]7)c(-c7cccc(S(=O)(=O)[O-])c7F)c7nc(c(-c8cccc(S(=O)(=O)[O-])c8F)c8ccc5[nH]8)C=C7)C=C6)cc4)cc3)C2)nn(C)c1=O
REMARK SMILES IDX 21 1 20 2 19 3 18 4 17 5 15 6 16 7 14 8 11 9 12 10 93 11
REMARK SMILES IDX 13 12 92 13 10 14 9 15 5 16 6 17 94 18 7 19 8 20 4 22 3 23
REMARK SMILES IDX 98 24 95 25 96 26 99 27 97 28 2 29 1 30 22 31 23 32 24 33
REMARK SMILES IDX 25 34 26 35 27 36 28 37 29 38 30 39 91 40 31 41 90 42 32 43
REMARK SMILES IDX 33 44 34 45 84 46 35 47 89 48 83 49 85 50 36 51 88 52 82 53
REMARK SMILES IDX 81 54 37 56 69 57 49 58 68 59 50 60 53 61 67 62 86 63 51 64
REMARK SMILES IDX 52 65 66 67 87 68 54 69 38 70 39 71 47 72 40 73 42 74 48 75
REMARK SMILES IDX 41 76 43 77 44 78 45 79 46 80 70 81 71 82 79 83 72 84 74 85
REMARK SMILES IDX 80 86 73 87 75 88 76 89 77 90 78 91 55 92 56 93 64 94 57 95
REMARK SMILES IDX 59 96 65 97 58 98 60 99 61 100 62 101 63 102
REMARK H PARENT 9 21 85 55 53 66
REMARK Flexibility Score: inf
ROOT
ATOM      1  C   UNL A   1      33.160  35.203  29.004  1.00  0.00     0.188 C 
ENDROOT
BRANCH   1   2
ATOM      2  O   UNL A   1      33.790  34.405  28.029  1.00  0.00    -0.376 OA
BRANCH   2   3
ATOM      3  C   UNL A   1      34.731  33.400  28.365  1.00  0.00     0.202 C 
BRANCH   3   4
ATOM      4  C   UNL A   1      34.392  31.946  28.742  1.00  0.00     0.261 C 
BRANCH   4   5
ATOM      5  O   UNL A   1      33.804  31.154  27.716  1.00  0.00    -0.460 OA
BRANCH   5   6
ATOM      6  C   UNL A   1      34.534  30.087  27.318  1.00  0.00     0.338 C 
ATOM      7  O   UNL A   1      35.746  29.966  27.346  1.00  0.00    -0.246 OA
BRANCH   6   8
ATOM      8  C   UNL A   1      33.620  28.972  27.000  1.00  0.00     0.060 A 
ATOM      9  C   UNL A   1      31.980  26.868  26.237  1.00  0.00     0.006 A 
ATOM     10  C   UNL A   1      33.371  26.747  26.111  1.00  0.00     0.010 A 
ATOM     11  C   UNL A   1      31.431  27.977  26.897  1.00  0.00     0.010 A 
ATOM     12  C   UNL A   1      34.189  27.802  26.484  1.00  0.00     0.016 A 
ATOM     13  C   UNL A   1      32.247  29.047  27.250  1.00  0.00     0.016 A 
BRANCH   9  14
ATOM     14  C   UNL A   1      31.098  25.932  25.447  1.00  0.00     0.299 C 
BRANCH  14  15
ATOM     15  N   UNL A   1      31.823  25.210  24.378  1.00  0.00    -0.331 N 
ATOM     16  C   UNL A   1      32.409  23.046  23.423  1.00  0.00     0.113 C 
ATOM     17  C   UNL A   1      32.533  23.634  22.023  1.00  0.00     0.023 C 
ATOM     18  C   UNL A   1      31.454  23.806  24.319  1.00  0.00     0.274 C 
ATOM     19  C   UNL A   1      32.600  25.149  21.983  1.00  0.00     0.062 C 
ATOM     20  C   UNL A   1      31.745  25.843  23.049  1.00  0.00     0.262 C 
ATOM     21  H   UNL A   1      32.805  25.268  24.648  1.00  0.00     0.348 HD
BRANCH  16  22
ATOM     22  C   UNL A   1      33.655  22.563  24.163  1.00  0.00     0.142 A 
ATOM     23  N   UNL A   1      34.043  21.359  24.627  1.00  0.00    -0.279 N 
ATOM     24  C   UNL A   1      35.351  21.568  25.072  1.00  0.00     0.345 A 
ATOM     25  N   UNL A   1      34.552  23.509  24.322  1.00  0.00    -0.155 NA
ATOM     26  N   UNL A   1      35.618  22.904  24.879  1.00  0.00    -0.216 N 
ATOM     27  O   UNL A   1      36.132  20.731  25.503  1.00  0.00    -0.246 OA
ATOM     28  C   UNL A   1      36.881  23.560  25.051  1.00  0.00     0.179 C 
BRANCH  23  29
ATOM     29  C   UNL A   1      33.680  19.936  24.661  1.00  0.00     0.125 C 
ATOM     30  C   UNL A   1      32.609  19.244  23.859  1.00  0.00     0.028 C 
ENDBRANCH  23  29
ENDBRANCH  16  22
ENDBRANCH  14  15
ENDBRANCH   9  14
ENDBRANCH   6   8
ENDBRANCH   5   6
ENDBRANCH   4   5
ENDBRANCH   3   4
ENDBRANCH   2   3
ENDBRANCH   1   2
BRANCH   1  31
ATOM     31  C   UNL A   1      33.787  35.363  30.404  1.00  0.00     0.188 C 
BRANCH  31  32
ATOM     32  O   UNL A   1      33.927  34.261  31.276  1.00  0.00    -0.376 OA
BRANCH  32  33
ATOM     33  C   UNL A   1      35.141  33.975  31.951  1.00  0.00     0.202 C 
BRANCH  33  34
ATOM     34  C   UNL A   1      35.312  32.973  33.091  1.00  0.00     0.261 C 
BRANCH  34  35
ATOM     35  O   UNL A   1      36.538  32.279  33.137  1.00  0.00    -0.460 OA
BRANCH  35  36
ATOM     36  C   UNL A   1      36.520  31.127  32.432  1.00  0.00     0.338 C 
ATOM     37  O   UNL A   1      35.664  30.756  31.646  1.00  0.00    -0.246 OA
BRANCH  36  38
ATOM     38  C   UNL A   1      37.690  30.332  32.794  1.00  0.00     0.060 A 
ATOM     39  C   UNL A   1      38.892  31.022  32.964  1.00  0.00     0.016 A 
ATOM     40  C   UNL A   1      37.627  28.937  32.673  1.00  0.00     0.016 A 
ATOM     41  C   UNL A   1      40.063  30.322  32.798  1.00  0.00     0.010 A 
ATOM     42  C   UNL A   1      38.798  28.243  32.500  1.00  0.00     0.010 A 
ATOM     43  C   UNL A   1      39.989  28.963  32.471  1.00  0.00    -0.014 A 
BRANCH  43  44
ATOM     44  C   UNL A   1      41.218  28.299  32.104  1.00  0.00     0.031 A 
ATOM     45  C   UNL A   1      41.933  27.714  33.254  1.00  0.00     0.074 A 
ATOM     46  C   UNL A   1      41.604  28.181  30.821  1.00  0.00     0.049 A 
ATOM     47  N   UNL A   1      43.066  28.089  33.745  1.00  0.00    -0.248 NA
ATOM     48  C   UNL A   1      41.223  26.704  34.051  1.00  0.00     0.031 C 
ATOM     49  C   UNL A   1      40.825  28.499  29.618  1.00  0.00     0.029 A 
ATOM     50  N   UNL A   1      42.733  27.613  30.319  1.00  0.00    -0.354 N 
ATOM     51  C   UNL A   1      43.330  27.178  34.759  1.00  0.00     0.074 A 
ATOM     52  C   UNL A   1      42.093  26.496  35.039  1.00  0.00     0.031 C 
ATOM     53  C   UNL A   1      41.392  27.891  28.553  1.00  0.00     0.029 A 
ATOM     54  C   UNL A   1      42.631  27.265  28.978  1.00  0.00     0.049 A 
ATOM     55  H   UNL A   1      43.545  27.463  30.855  1.00  0.00     0.167 HD
ATOM     56  C   UNL A   1      44.605  26.835  35.076  1.00  0.00     0.034 A 
ATOM     57  C   UNL A   1      43.466  26.442  28.299  1.00  0.00     0.034 A 
ATOM     58  C   UNL A   1      45.563  27.792  34.589  1.00  0.00     0.049 A 
ATOM     59  C   UNL A   1      44.743  26.391  29.047  1.00  0.00     0.074 A 
ATOM     60  C   UNL A   1      45.773  29.145  34.769  1.00  0.00     0.029 A 
ATOM     61  N   UNL A   1      46.269  27.440  33.467  1.00  0.00    -0.354 N 
ATOM     62  N   UNL A   1      45.544  27.411  29.173  1.00  0.00    -0.248 NA
ATOM     63  C   UNL A   1      44.944  25.316  30.005  1.00  0.00     0.031 C 
ATOM     64  C   UNL A   1      46.231  29.621  33.506  1.00  0.00     0.029 A 
ATOM     65  C   UNL A   1      46.318  28.530  32.637  1.00  0.00     0.049 A 
ATOM     66  H   UNL A   1      46.671  26.560  33.288  1.00  0.00     0.167 HD
ATOM     67  C   UNL A   1      46.015  27.319  30.476  1.00  0.00     0.074 A 
ATOM     68  C   UNL A   1      45.728  25.947  30.884  1.00  0.00     0.031 C 
ATOM     69  C   UNL A   1      46.321  28.443  31.191  1.00  0.00     0.034 A 
BRANCH  56  70
ATOM     70  C   UNL A   1      45.000  25.438  35.474  1.00  0.00     0.023 A 
ATOM     71  C   UNL A   1      44.797  24.403  34.540  1.00  0.00     0.012 A 
ATOM     72  C   UNL A   1      45.313  25.060  36.801  1.00  0.00     0.148 A 
ATOM     73  C   UNL A   1      44.891  23.058  34.914  1.00  0.00     0.002 A 
ATOM     74  C   UNL A   1      45.503  23.729  37.143  1.00  0.00     0.091 A 
ATOM     75  F   UNL A   1      45.288  25.969  37.781  1.00  0.00    -0.205 F 
ATOM     76  C   UNL A   1      45.264  22.721  36.211  1.00  0.00     0.022 A 
BRANCH  74  77
ATOM     77  S   UNL A   1      46.059  23.264  38.786  1.00  0.00     0.127 S 
ATOM     78  O   UNL A   1      46.277  21.830  38.626  1.00  0.00    -0.237 OA
ATOM     79  O   UNL A   1      47.274  24.065  38.930  1.00  0.00    -0.237 OA
ATOM     80  O   UNL A   1      44.978  23.660  39.681  1.00  0.00    -0.744 OA
ENDBRANCH  74  77
ENDBRANCH  56  70
BRANCH  57  81
ATOM     81  C   UNL A   1      43.151  25.488  27.213  1.00  0.00     0.023 A 
ATOM     82  C   UNL A   1      43.795  25.613  25.966  1.00  0.00     0.012 A 
ATOM     83  C   UNL A   1      42.436  24.298  27.479  1.00  0.00     0.148 A 
ATOM     84  C   UNL A   1      43.755  24.575  25.028  1.00  0.00     0.002 A 
ATOM     85  C   UNL A   1      42.390  23.274  26.540  1.00  0.00     0.091 A 
ATOM     86  F   UNL A   1      41.880  24.135  28.686  1.00  0.00    -0.205 F 
ATOM     87  C   UNL A   1      43.061  23.403  25.318  1.00  0.00     0.022 A 
BRANCH  85  88
ATOM     88  S   UNL A   1      41.529  21.726  26.851  1.00  0.00     0.127 S 
ATOM     89  O   UNL A   1      41.731  21.009  25.591  1.00  0.00    -0.237 OA
ATOM     90  O   UNL A   1      42.273  21.189  27.988  1.00  0.00    -0.237 OA
ATOM     91  O   UNL A   1      40.142  22.086  27.118  1.00  0.00    -0.744 OA
ENDBRANCH  85  88
ENDBRANCH  57  81
BRANCH  69  92
ATOM     92  C   UNL A   1      46.402  29.751  30.438  1.00  0.00     0.023 A 
ATOM     93  C   UNL A   1      47.566  30.153  29.749  1.00  0.00     0.012 A 
ATOM     94  C   UNL A   1      45.235  30.521  30.297  1.00  0.00     0.148 A 
ATOM     95  C   UNL A   1      47.576  31.312  28.967  1.00  0.00     0.002 A 
ATOM     96  C   UNL A   1      45.235  31.647  29.482  1.00  0.00     0.091 A 
ATOM     97  F   UNL A   1      44.131  30.122  30.948  1.00  0.00    -0.205 F 
ATOM     98  C   UNL A   1      46.405  32.052  28.824  1.00  0.00     0.022 A 
BRANCH  96  99
ATOM     99  S   UNL A   1      43.733  32.575  29.157  1.00  0.00     0.127 S 
ATOM    100  O   UNL A   1      44.147  33.456  28.068  1.00  0.00    -0.237 OA
ATOM    101  O   UNL A   1      42.791  31.523  28.768  1.00  0.00    -0.237 OA
ATOM    102  O   UNL A   1      43.394  33.241  30.409  1.00  0.00    -0.744 OA
ENDBRANCH  96  99
ENDBRANCH  69  92
ENDBRANCH  43  44
ENDBRANCH  36  38
ENDBRANCH  35  36
ENDBRANCH  34  35
ENDBRANCH  33  34
ENDBRANCH  32  33
ENDBRANCH  31  32
ENDBRANCH   1  31
TORSDOF 24
ENDMDL
MODEL 3
REMARK VINA RESULT:      -9.5      9.299     15.707
REMARK SMILES CCn1c([C@@H]2CCC[N@@H+](Cc3ccc(C(=O)OCCOCCOCCOC(=O)c4ccc(-c5c6nc(c(-c7cccc(S(=O)(=O)[O-])c7F)c7ccc([nH]7)c(-c7cccc(S(=O)(=O)[O-])c7F)c7nc(c(-c8cccc(S(=O)(=O)[O-])c8F)c8ccc5[nH]8)C=C7)C=C6)cc4)cc3)C2)nn(C)c1=O
REMARK SMILES IDX 21 1 20 2 19 3 18 4 17 5 15 6 16 7 14 8 11 9 12 10 93 11
REMARK SMILES IDX 13 12 92 13 10 14 9 15 5 16 6 17 94 18 7 19 8 20 4 22 3 23
REMARK SMILES IDX 98 24 95 25 96 26 99 27 97 28 2 29 1 30 22 31 23 32 24 33
REMARK SMILES IDX 25 34 26 35 27 36 28 37 29 38 30 39 91 40 31 41 90 42 32 43
REMARK SMILES IDX 33 44 34 45 84 46 35 47 89 48 83 49 85 50 36 51 88 52 82 53
REMARK SMILES IDX 81 54 37 56 69 57 49 58 68 59 50 60 53 61 67 62 86 63 51 64
REMARK SMILES IDX 52 65 66 67 87 68 54 69 38 70 39 71 47 72 40 73 42 74 48 75
REMARK SMILES IDX 41 76 43 77 44 78 45 79 46 80 70 81 71 82 79 83 72 84 74 85
REMARK SMILES IDX 80 86 73 87 75 88 76 89 77 90 78 91 55 92 56 93 64 94 57 95
REMARK SMILES IDX 59 96 65 97 58 98 60 99 61 100 62 101 63 102
REMARK H PARENT 9 21 85 55 53 66
REMARK Flexibility Score: inf
ROOT
ATOM      1  C   UNL A   1      46.324  41.788  30.370  1.00  0.00     0.188 C 
ENDROOT
BRANCH   1   2
ATOM      2  O   UNL A   1      46.935  42.570  29.369  1.00  0.00    -0.376 OA
BRANCH   2   3
ATOM      3  C   UNL A   1      46.348  42.761  28.094  1.00  0.00     0.202 C 
BRANCH   3   4
ATOM      4  C   UNL A   1      45.343  43.868  27.727  1.00  0.00     0.261 C 
BRANCH   4   5
ATOM      5  O   UNL A   1      44.767  43.784  26.428  1.00  0.00    -0.460 OA
BRANCH   5   6
ATOM      6  C   UNL A   1      45.260  44.657  25.518  1.00  0.00     0.338 C 
ATOM      7  O   UNL A   1      46.158  45.464  25.677  1.00  0.00    -0.246 OA
BRANCH   6   8
ATOM      8  C   UNL A   1      44.662  44.365  24.200  1.00  0.00     0.060 A 
ATOM      9  C   UNL A   1      43.539  43.640  21.769  1.00  0.00     0.006 A 
ATOM     10  C   UNL A   1      42.943  43.216  22.965  1.00  0.00     0.010 A 
ATOM     11  C   UNL A   1      44.598  44.560  21.803  1.00  0.00     0.010 A 
ATOM     12  C   UNL A   1      43.510  43.572  24.179  1.00  0.00     0.016 A 
ATOM     13  C   UNL A   1      45.183  44.899  23.018  1.00  0.00     0.016 A 
BRANCH   9  14
ATOM     14  C   UNL A   1      43.196  42.913  20.492  1.00  0.00     0.299 C 
BRANCH  14  15
ATOM     15  N   UNL A   1      42.556  43.783  19.479  1.00  0.00    -0.331 N 
ATOM     16  C   UNL A   1      42.851  45.091  17.445  1.00  0.00     0.113 C 
ATOM     17  C   UNL A   1      41.401  44.878  17.030  1.00  0.00     0.023 C 
ATOM     18  C   UNL A   1      43.404  43.983  18.316  1.00  0.00     0.274 C 
ATOM     19  C   UNL A   1      40.504  44.350  18.133  1.00  0.00     0.062 C 
ATOM     20  C   UNL A   1      41.195  43.371  19.089  1.00  0.00     0.262 C 
ATOM     21  H   UNL A   1      42.443  44.682  19.947  1.00  0.00     0.348 HD
BRANCH  16  22
ATOM     22  C   UNL A   1      43.327  46.476  17.880  1.00  0.00     0.142 A 
ATOM     23  N   UNL A   1      42.850  47.720  17.678  1.00  0.00    -0.279 N 
ATOM     24  C   UNL A   1      43.667  48.533  18.468  1.00  0.00     0.345 A 
ATOM     25  N   UNL A   1      44.381  46.431  18.661  1.00  0.00    -0.155 NA
ATOM     26  N   UNL A   1      44.601  47.703  19.043  1.00  0.00    -0.216 N 
ATOM     27  O   UNL A   1      43.554  49.736  18.660  1.00  0.00    -0.246 OA
ATOM     28  C   UNL A   1      45.562  48.058  20.046  1.00  0.00     0.179 C 
BRANCH  23  29
ATOM     29  C   UNL A   1      41.725  48.473  17.107  1.00  0.00     0.125 C 
ATOM     30  C   UNL A   1      41.228  48.441  15.686  1.00  0.00     0.028 C 
ENDBRANCH  23  29
ENDBRANCH  16  22
ENDBRANCH  14  15
ENDBRANCH   9  14
ENDBRANCH   6   8
ENDBRANCH   5   6
ENDBRANCH   4   5
ENDBRANCH   3   4
ENDBRANCH   2   3
ENDBRANCH   1   2
BRANCH   1  31
ATOM     31  C   UNL A   1      44.938  42.174  30.923  1.00  0.00     0.188 C 
BRANCH  31  32
ATOM     32  O   UNL A   1      43.753  41.864  30.218  1.00  0.00    -0.376 OA
BRANCH  32  33
ATOM     33  C   UNL A   1      43.040  40.656  30.423  1.00  0.00     0.202 C 
BRANCH  33  34
ATOM     34  C   UNL A   1      43.429  39.288  29.865  1.00  0.00     0.261 C 
BRANCH  34  35
ATOM     35  O   UNL A   1      44.544  38.662  30.461  1.00  0.00    -0.460 OA
BRANCH  35  36
ATOM     36  C   UNL A   1      45.304  37.983  29.575  1.00  0.00     0.338 C 
ATOM     37  O   UNL A   1      46.061  38.451  28.741  1.00  0.00    -0.246 OA
BRANCH  36  38
ATOM     38  C   UNL A   1      45.045  36.554  29.727  1.00  0.00     0.060 A 
ATOM     39  C   UNL A   1      44.665  35.857  28.579  1.00  0.00     0.016 A 
ATOM     40  C   UNL A   1      44.907  36.024  31.017  1.00  0.00     0.016 A 
ATOM     41  C   UNL A   1      43.943  34.699  28.740  1.00  0.00     0.010 A 
ATOM     42  C   UNL A   1      44.179  34.871  31.174  1.00  0.00     0.010 A 
ATOM     43  C   UNL A   1      43.630  34.282  30.039  1.00  0.00    -0.014 A 
BRANCH  43  44
ATOM     44  C   UNL A   1      42.704  33.182  30.180  1.00  0.00     0.031 A 
ATOM     45  C   UNL A   1      41.356  33.602  30.606  1.00  0.00     0.074 A 
ATOM     46  C   UNL A   1      43.053  31.920  29.873  1.00  0.00     0.049 A 
ATOM     47  N   UNL A   1      40.779  33.356  31.734  1.00  0.00    -0.248 NA
ATOM     48  C   UNL A   1      40.635  34.546  29.741  1.00  0.00     0.031 C 
ATOM     49  C   UNL A   1      44.275  31.466  29.199  1.00  0.00     0.029 A 
ATOM     50  N   UNL A   1      42.313  30.783  29.974  1.00  0.00    -0.354 N 
ATOM     51  C   UNL A   1      39.509  33.901  31.606  1.00  0.00     0.074 A 
ATOM     52  C   UNL A   1      39.547  34.787  30.471  1.00  0.00     0.031 C 
ATOM     53  C   UNL A   1      44.081  30.214  28.731  1.00  0.00     0.029 A 
ATOM     54  C   UNL A   1      42.787  29.740  29.187  1.00  0.00     0.049 A 
ATOM     55  H   UNL A   1      41.518  30.706  30.550  1.00  0.00     0.167 HD
ATOM     56  C   UNL A   1      38.445  33.352  32.247  1.00  0.00     0.034 A 
ATOM     57  C   UNL A   1      42.112  28.610  28.865  1.00  0.00     0.034 A 
ATOM     58  C   UNL A   1      38.846  32.501  33.335  1.00  0.00     0.049 A 
ATOM     59  C   UNL A   1      41.038  28.435  29.869  1.00  0.00     0.074 A 
ATOM     60  C   UNL A   1      39.585  32.669  34.489  1.00  0.00     0.029 A 
ATOM     61  N   UNL A   1      38.784  31.148  33.114  1.00  0.00    -0.354 N 
ATOM     62  N   UNL A   1      41.262  28.170  31.125  1.00  0.00    -0.248 NA
ATOM     63  C   UNL A   1      39.714  28.954  29.567  1.00  0.00     0.031 C 
ATOM     64  C   UNL A   1      40.298  31.445  34.656  1.00  0.00     0.029 A 
ATOM     65  C   UNL A   1      39.924  30.582  33.623  1.00  0.00     0.049 A 
ATOM     66  H   UNL A   1      38.050  30.667  32.666  1.00  0.00     0.167 HD
ATOM     67  C   UNL A   1      40.308  28.912  31.808  1.00  0.00     0.074 A 
ATOM     68  C   UNL A   1      39.307  29.254  30.803  1.00  0.00     0.031 C 
ATOM     69  C   UNL A   1      40.574  29.422  33.048  1.00  0.00     0.034 A 
BRANCH  56  70
ATOM     70  C   UNL A   1      37.072  33.276  31.634  1.00  0.00     0.023 A 
ATOM     71  C   UNL A   1      35.964  33.543  32.460  1.00  0.00     0.012 A 
ATOM     72  C   UNL A   1      36.811  32.707  30.365  1.00  0.00     0.148 A 
ATOM     73  C   UNL A   1      34.661  33.246  32.046  1.00  0.00     0.002 A 
ATOM     74  C   UNL A   1      35.513  32.506  29.920  1.00  0.00     0.091 A 
ATOM     75  F   UNL A   1      37.816  32.216  29.630  1.00  0.00    -0.205 F 
ATOM     76  C   UNL A   1      34.433  32.747  30.768  1.00  0.00     0.022 A 
BRANCH  74  77
ATOM     77  S   UNL A   1      35.182  31.936  28.250  1.00  0.00     0.127 S 
ATOM     78  O   UNL A   1      33.734  32.098  28.168  1.00  0.00    -0.237 OA
ATOM     79  O   UNL A   1      35.959  32.882  27.450  1.00  0.00    -0.237 OA
ATOM     80  O   UNL A   1      35.686  30.568  28.207  1.00  0.00    -0.744 OA
ENDBRANCH  74  77
ENDBRANCH  56  70
BRANCH  57  81
ATOM     81  C   UNL A   1      42.152  27.830  27.609  1.00  0.00     0.023 A 
ATOM     82  C   UNL A   1      41.795  28.446  26.393  1.00  0.00     0.012 A 
ATOM     83  C   UNL A   1      42.798  26.574  27.557  1.00  0.00     0.148 A 
ATOM     84  C   UNL A   1      42.102  27.847  25.166  1.00  0.00     0.002 A 
ATOM     85  C   UNL A   1      43.091  25.977  26.336  1.00  0.00     0.091 A 
ATOM     86  F   UNL A   1      43.207  26.010  28.701  1.00  0.00    -0.205 F 
ATOM     87  C   UNL A   1      42.756  26.618  25.137  1.00  0.00     0.022 A 
BRANCH  85  88
ATOM     88  S   UNL A   1      43.949  24.402  26.220  1.00  0.00     0.127 S 
ATOM     89  O   UNL A   1      43.938  24.157  24.778  1.00  0.00    -0.237 OA
ATOM     90  O   UNL A   1      45.260  24.729  26.776  1.00  0.00    -0.237 OA
ATOM     91  O   UNL A   1      43.155  23.455  26.993  1.00  0.00    -0.744 OA
ENDBRANCH  85  88
ENDBRANCH  57  81
BRANCH  69  92
ATOM     92  C   UNL A   1      41.811  28.923  33.760  1.00  0.00     0.023 A 
ATOM     93  C   UNL A   1      41.818  27.727  34.509  1.00  0.00     0.012 A 
ATOM     94  C   UNL A   1      43.028  29.592  33.548  1.00  0.00     0.148 A 
ATOM     95  C   UNL A   1      43.002  27.229  35.061  1.00  0.00     0.002 A 
ATOM     96  C   UNL A   1      44.211  29.071  34.059  1.00  0.00     0.091 A 
ATOM     97  F   UNL A   1      43.011  30.723  32.825  1.00  0.00    -0.205 F 
ATOM     98  C   UNL A   1      44.201  27.896  34.826  1.00  0.00     0.022 A 
BRANCH  96  99
ATOM     99  S   UNL A   1      45.804  29.812  33.692  1.00  0.00     0.127 S 
ATOM    100  O   UNL A   1      45.744  31.059  34.450  1.00  0.00    -0.237 OA
ATOM    101  O   UNL A   1      46.741  28.819  34.220  1.00  0.00    -0.237 OA
ATOM    102  O   UNL A   1      45.853  29.960  32.242  1.00  0.00    -0.744 OA
ENDBRANCH  96  99
ENDBRANCH  69  92
ENDBRANCH  43  44
ENDBRANCH  36  38
ENDBRANCH  35  36
ENDBRANCH  34  35
ENDBRANCH  33  34
ENDBRANCH  32  33
ENDBRANCH  31  32
ENDBRANCH   1  31
TORSDOF 24
ENDMDL
