MODEL 1
REMARK VINA RESULT:     -11.9      0.000      0.000
REMARK SMILES Cc1cc(=O)c(Oc2ccc(C(=O)OCCOCCOCCOC(=O)c3ccc(-c4c5nc(c(-c6cccc(S(=O)(=O)[O-])c6F)c6ccc([nH]6)c(-c6cccc(S(=O)(=O)[O-])c6F)c6nc(c(-c7cccc(S(=O)(=O)[O-])c7F)c7ccc4[nH]7)C=C6)C=C5)cc3)cc2)c(-c2ccc(S(C)(=O)=O)cc2)o1
REMARK SMILES IDX 18 1 17 2 16 3 15 4 14 5 12 6 13 7 11 8 8 9 9 10 90 11 10 12
REMARK SMILES IDX 89 13 7 14 6 15 1 16 2 17 3 18 102 19 4 20 91 21 5 22 92 23
REMARK SMILES IDX 93 24 101 25 94 26 100 27 95 28 96 29 97 30 98 31 99 32
REMARK SMILES IDX 19 33 20 34 21 35 22 36 23 37 24 38 25 39 26 40 27 41 88 42
REMARK SMILES IDX 28 43 87 44 29 45 30 46 31 47 81 48 32 49 86 50 80 51 82 52
REMARK SMILES IDX 33 53 85 54 79 55 78 56 34 58 66 59 46 60 65 61 47 62 50 63
REMARK SMILES IDX 64 64 83 65 48 66 49 67 63 69 84 70 51 71 35 72 36 73 44 74
REMARK SMILES IDX 37 75 39 76 45 77 38 78 40 79 41 80 42 81 43 82 67 83 68 84
REMARK SMILES IDX 76 85 69 86 71 87 77 88 70 89 72 90 73 91 74 92 75 93 52 94
REMARK SMILES IDX 53 95 61 96 54 97 56 98 62 99 55 100 57 101 58 102 59 103
REMARK SMILES IDX 60 104
REMARK H PARENT 82 57 50 68
REMARK Flexibility Score: inf
ROOT
ATOM      1  C   UNL A   1      39.289  22.065  25.678  1.00  0.00     0.188 C 
ENDROOT
BRANCH   1   2
ATOM      2  O   UNL A   1      37.985  22.449  26.089  1.00  0.00    -0.376 OA
BRANCH   2   3
ATOM      3  C   UNL A   1      36.903  21.783  25.469  1.00  0.00     0.202 C 
BRANCH   3   4
ATOM      4  C   UNL A   1      35.522  21.882  26.135  1.00  0.00     0.261 C 
BRANCH   4   5
ATOM      5  O   UNL A   1      35.146  23.223  26.462  1.00  0.00    -0.460 OA
BRANCH   5   6
ATOM      6  C   UNL A   1      33.845  23.395  26.818  1.00  0.00     0.338 C 
ATOM      7  O   UNL A   1      33.151  22.594  27.421  1.00  0.00    -0.246 OA
BRANCH   6   8
ATOM      8  C   UNL A   1      33.367  24.741  26.395  1.00  0.00     0.060 A 
ATOM      9  C   UNL A   1      32.452  27.317  25.788  1.00  0.00     0.127 A 
ATOM     10  C   UNL A   1      31.621  26.427  26.464  1.00  0.00     0.048 A 
ATOM     11  C   UNL A   1      33.699  26.895  25.328  1.00  0.00     0.048 A 
ATOM     12  C   UNL A   1      32.092  25.154  26.803  1.00  0.00     0.019 A 
ATOM     13  C   UNL A   1      34.153  25.607  25.621  1.00  0.00     0.019 A 
BRANCH   9  14
ATOM     14  O   UNL A   1      32.012  28.546  25.394  1.00  0.00    -0.449 OA
BRANCH  14  15
ATOM     15  C   UNL A   1      31.109  28.768  24.366  1.00  0.00     0.217 A 
ATOM     16  C   UNL A   1      28.188  29.956  21.400  1.00  0.00     0.088 C 
ATOM     17  C   UNL A   1      29.194  29.652  22.467  1.00  0.00     0.105 A 
ATOM     18  C   UNL A   1      29.553  30.543  23.393  1.00  0.00     0.098 A 
ATOM     19  O   UNL A   1      29.716  28.375  22.422  1.00  0.00    -0.457 OA
ATOM     20  C   UNL A   1      30.534  30.151  24.414  1.00  0.00     0.228 A 
ATOM     21  C   UNL A   1      30.651  27.966  23.369  1.00  0.00     0.180 A 
ATOM     22  O   UNL A   1      30.833  30.957  25.293  1.00  0.00    -0.285 OA
BRANCH  21  23
ATOM     23  C   UNL A   1      31.026  26.561  23.140  1.00  0.00     0.021 A 
ATOM     24  C   UNL A   1      32.179  26.225  22.420  1.00  0.00     0.013 A 
ATOM     25  C   UNL A   1      30.237  25.536  23.662  1.00  0.00     0.013 A 
ATOM     26  C   UNL A   1      32.598  24.887  22.327  1.00  0.00     0.021 A 
ATOM     27  C   UNL A   1      30.627  24.201  23.502  1.00  0.00     0.021 A 
ATOM     28  C   UNL A   1      31.804  23.856  22.832  1.00  0.00     0.067 A 
BRANCH  28  29
ATOM     29  S   UNL A   1      32.443  22.184  22.940  1.00  0.00     0.175 S 
ATOM     30  C   UNL A   1      31.822  21.122  21.688  1.00  0.00     0.163 C 
ATOM     31  O   UNL A   1      33.875  22.280  22.755  1.00  0.00    -0.224 OA
ATOM     32  O   UNL A   1      31.892  21.637  24.159  1.00  0.00    -0.224 OA
ENDBRANCH  28  29
ENDBRANCH  21  23
ENDBRANCH  14  15
ENDBRANCH   9  14
ENDBRANCH   6   8
ENDBRANCH   5   6
ENDBRANCH   4   5
ENDBRANCH   3   4
ENDBRANCH   2   3
ENDBRANCH   1   2
BRANCH   1  33
ATOM     33  C   UNL A   1      40.021  21.351  26.815  1.00  0.00     0.188 C 
BRANCH  33  34
ATOM     34  O   UNL A   1      41.030  20.450  26.364  1.00  0.00    -0.376 OA
BRANCH  34  35
ATOM     35  C   UNL A   1      42.337  20.929  26.717  1.00  0.00     0.202 C 
BRANCH  35  36
ATOM     36  C   UNL A   1      43.169  21.488  25.547  1.00  0.00     0.261 C 
BRANCH  36  37
ATOM     37  O   UNL A   1      42.742  22.718  24.910  1.00  0.00    -0.460 OA
BRANCH  37  38
ATOM     38  C   UNL A   1      43.545  23.813  24.981  1.00  0.00     0.338 C 
ATOM     39  O   UNL A   1      44.549  24.007  24.319  1.00  0.00    -0.246 OA
BRANCH  38  40
ATOM     40  C   UNL A   1      42.957  24.778  25.965  1.00  0.00     0.060 A 
ATOM     41  C   UNL A   1      43.587  25.997  26.240  1.00  0.00     0.016 A 
ATOM     42  C   UNL A   1      41.787  24.466  26.663  1.00  0.00     0.016 A 
ATOM     43  C   UNL A   1      43.136  26.815  27.295  1.00  0.00     0.010 A 
ATOM     44  C   UNL A   1      41.360  25.265  27.745  1.00  0.00     0.010 A 
ATOM     45  C   UNL A   1      42.056  26.429  28.109  1.00  0.00    -0.014 A 
BRANCH  45  46
ATOM     46  C   UNL A   1      41.542  27.354  29.169  1.00  0.00     0.031 A 
ATOM     47  C   UNL A   1      40.283  28.189  29.075  1.00  0.00     0.074 A 
ATOM     48  C   UNL A   1      42.264  27.443  30.296  1.00  0.00     0.049 A 
ATOM     49  N   UNL A   1      39.662  28.899  29.987  1.00  0.00    -0.248 NA
ATOM     50  C   UNL A   1      39.625  28.235  27.779  1.00  0.00     0.031 C 
ATOM     51  C   UNL A   1      43.523  26.743  30.534  1.00  0.00     0.029 A 
ATOM     52  N   UNL A   1      42.045  28.166  31.435  1.00  0.00    -0.354 N 
ATOM     53  C   UNL A   1      38.533  29.441  29.365  1.00  0.00     0.074 A 
ATOM     54  C   UNL A   1      38.551  28.982  27.998  1.00  0.00     0.031 C 
ATOM     55  C   UNL A   1      43.978  27.082  31.745  1.00  0.00     0.029 A 
ATOM     56  C   UNL A   1      43.040  28.020  32.364  1.00  0.00     0.049 A 
ATOM     57  H   UNL A   1      41.254  28.736  31.574  1.00  0.00     0.167 HD
ATOM     58  C   UNL A   1      37.567  30.247  29.876  1.00  0.00     0.034 A 
ATOM     59  C   UNL A   1      43.189  28.565  33.584  1.00  0.00     0.034 A 
ATOM     60  C   UNL A   1      37.568  30.750  31.223  1.00  0.00     0.049 A 
ATOM     61  C   UNL A   1      42.122  29.446  34.150  1.00  0.00     0.074 A 
ATOM     62  C   UNL A   1      36.610  31.527  31.854  1.00  0.00     0.029 A 
ATOM     63  N   UNL A   1      38.590  30.555  32.135  1.00  0.00    -0.354 N 
ATOM     64  N   UNL A   1      40.987  29.814  33.607  1.00  0.00    -0.248 NA
ATOM     65  C   UNL A   1      42.335  29.954  35.512  1.00  0.00     0.031 C 
ATOM     66  C   UNL A   1      37.061  31.812  33.147  1.00  0.00     0.029 A 
ATOM     67  C   UNL A   1      38.293  31.202  33.321  1.00  0.00     0.049 A 
ATOM     68  H   UNL A   1      39.406  30.033  31.966  1.00  0.00     0.167 HD
ATOM     69  C   UNL A   1      40.343  30.588  34.564  1.00  0.00     0.074 A 
ATOM     70  C   UNL A   1      41.206  30.622  35.727  1.00  0.00     0.031 C 
ATOM     71  C   UNL A   1      39.146  31.217  34.479  1.00  0.00     0.034 A 
BRANCH  58  72
ATOM     72  C   UNL A   1      36.378  30.601  29.013  1.00  0.00     0.023 A 
ATOM     73  C   UNL A   1      35.637  29.556  28.424  1.00  0.00     0.012 A 
ATOM     74  C   UNL A   1      35.900  31.924  28.914  1.00  0.00     0.148 A 
ATOM     75  C   UNL A   1      34.444  29.819  27.748  1.00  0.00     0.002 A 
ATOM     76  C   UNL A   1      34.694  32.176  28.263  1.00  0.00     0.091 A 
ATOM     77  F   UNL A   1      36.625  32.906  29.467  1.00  0.00    -0.205 F 
ATOM     78  C   UNL A   1      33.967  31.125  27.679  1.00  0.00     0.022 A 
BRANCH  76  79
ATOM     79  S   UNL A   1      33.952  33.813  28.187  1.00  0.00     0.127 S 
ATOM     80  O   UNL A   1      34.843  34.500  27.254  1.00  0.00    -0.237 OA
ATOM     81  O   UNL A   1      32.619  33.526  27.657  1.00  0.00    -0.237 OA
ATOM     82  O   UNL A   1      33.966  34.321  29.551  1.00  0.00    -0.744 OA
ENDBRANCH  76  79
ENDBRANCH  58  72
BRANCH  59  83
ATOM     83  C   UNL A   1      44.394  28.172  34.350  1.00  0.00     0.023 A 
ATOM     84  C   UNL A   1      45.554  28.959  34.241  1.00  0.00     0.012 A 
ATOM     85  C   UNL A   1      44.306  27.181  35.347  1.00  0.00     0.148 A 
ATOM     86  C   UNL A   1      46.606  28.781  35.135  1.00  0.00     0.002 A 
ATOM     87  C   UNL A   1      45.336  27.044  36.265  1.00  0.00     0.091 A 
ATOM     88  F   UNL A   1      43.176  26.463  35.426  1.00  0.00    -0.205 F 
ATOM     89  C   UNL A   1      46.490  27.839  36.157  1.00  0.00     0.022 A 
BRANCH  87  90
ATOM     90  S   UNL A   1      45.205  25.986  37.709  1.00  0.00     0.127 S 
ATOM     91  O   UNL A   1      44.277  26.742  38.547  1.00  0.00    -0.237 OA
ATOM     92  O   UNL A   1      44.655  24.760  37.129  1.00  0.00    -0.237 OA
ATOM     93  O   UNL A   1      46.556  25.855  38.233  1.00  0.00    -0.744 OA
ENDBRANCH  87  90
ENDBRANCH  59  83
BRANCH  71  94
ATOM     94  C   UNL A   1      38.690  32.023  35.661  1.00  0.00     0.023 A 
ATOM     95  C   UNL A   1      38.811  33.425  35.623  1.00  0.00     0.012 A 
ATOM     96  C   UNL A   1      38.056  31.407  36.758  1.00  0.00     0.148 A 
ATOM     97  C   UNL A   1      38.320  34.205  36.669  1.00  0.00     0.002 A 
ATOM     98  C   UNL A   1      37.545  32.193  37.784  1.00  0.00     0.091 A 
ATOM     99  F   UNL A   1      37.959  30.069  36.770  1.00  0.00    -0.205 F 
ATOM    100  C   UNL A   1      37.681  33.590  37.743  1.00  0.00     0.022 A 
BRANCH  98 101
ATOM    101  S   UNL A   1      36.656  31.502  39.183  1.00  0.00     0.127 S 
ATOM    102  O   UNL A   1      36.231  30.206  38.653  1.00  0.00    -0.237 OA
ATOM    103  O   UNL A   1      37.698  31.431  40.208  1.00  0.00    -0.237 OA
ATOM    104  O   UNL A   1      35.576  32.434  39.477  1.00  0.00    -0.744 OA
ENDBRANCH  98 101
ENDBRANCH  71  94
ENDBRANCH  45  46
ENDBRANCH  38  40
ENDBRANCH  37  38
ENDBRANCH  36  37
ENDBRANCH  35  36
ENDBRANCH  34  35
ENDBRANCH  33  34
ENDBRANCH   1  33
TORSDOF 24
ENDMDL
MODEL 2
REMARK VINA RESULT:     -10.9      2.676      9.537
REMARK SMILES Cc1cc(=O)c(Oc2ccc(C(=O)OCCOCCOCCOC(=O)c3ccc(-c4c5nc(c(-c6cccc(S(=O)(=O)[O-])c6F)c6ccc([nH]6)c(-c6cccc(S(=O)(=O)[O-])c6F)c6nc(c(-c7cccc(S(=O)(=O)[O-])c7F)c7ccc4[nH]7)C=C6)C=C5)cc3)cc2)c(-c2ccc(S(C)(=O)=O)cc2)o1
REMARK SMILES IDX 18 1 17 2 16 3 15 4 14 5 12 6 13 7 11 8 8 9 9 10 90 11 10 12
REMARK SMILES IDX 89 13 7 14 6 15 1 16 2 17 3 18 102 19 4 20 91 21 5 22 92 23
REMARK SMILES IDX 93 24 101 25 94 26 100 27 95 28 96 29 97 30 98 31 99 32
REMARK SMILES IDX 19 33 20 34 21 35 22 36 23 37 24 38 25 39 26 40 27 41 88 42
REMARK SMILES IDX 28 43 87 44 29 45 30 46 31 47 81 48 32 49 86 50 80 51 82 52
REMARK SMILES IDX 33 53 85 54 79 55 78 56 34 58 66 59 46 60 65 61 47 62 50 63
REMARK SMILES IDX 64 64 83 65 48 66 49 67 63 69 84 70 51 71 35 72 36 73 44 74
REMARK SMILES IDX 37 75 39 76 45 77 38 78 40 79 41 80 42 81 43 82 67 83 68 84
REMARK SMILES IDX 76 85 69 86 71 87 77 88 70 89 72 90 73 91 74 92 75 93 52 94
REMARK SMILES IDX 53 95 61 96 54 97 56 98 62 99 55 100 57 101 58 102 59 103
REMARK SMILES IDX 60 104
REMARK H PARENT 82 57 50 68
REMARK Flexibility Score: inf
ROOT
ATOM      1  C   UNL A   1      31.382  29.214  25.116  1.00  0.00     0.188 C 
ENDROOT
BRANCH   1   2
ATOM      2  O   UNL A   1      32.277  29.300  24.016  1.00  0.00    -0.376 OA
BRANCH   2   3
ATOM      3  C   UNL A   1      31.767  28.925  22.753  1.00  0.00     0.202 C 
BRANCH   3   4
ATOM      4  C   UNL A   1      31.106  27.545  22.626  1.00  0.00     0.261 C 
BRANCH   4   5
ATOM      5  O   UNL A   1      31.801  26.662  21.740  1.00  0.00    -0.460 OA
BRANCH   5   6
ATOM      6  C   UNL A   1      33.118  26.474  22.016  1.00  0.00     0.338 C 
ATOM      7  O   UNL A   1      34.046  27.147  21.600  1.00  0.00    -0.246 OA
BRANCH   6   8
ATOM      8  C   UNL A   1      33.290  25.326  22.950  1.00  0.00     0.060 A 
ATOM      9  C   UNL A   1      33.780  23.128  24.614  1.00  0.00     0.127 A 
ATOM     10  C   UNL A   1      33.586  22.935  23.249  1.00  0.00     0.048 A 
ATOM     11  C   UNL A   1      33.632  24.400  25.167  1.00  0.00     0.048 A 
ATOM     12  C   UNL A   1      33.382  24.036  22.411  1.00  0.00     0.019 A 
ATOM     13  C   UNL A   1      33.377  25.496  24.339  1.00  0.00     0.019 A 
BRANCH   9  14
ATOM     14  O   UNL A   1      33.929  22.077  25.470  1.00  0.00    -0.449 OA
BRANCH  14  15
ATOM     15  C   UNL A   1      34.121  20.761  25.079  1.00  0.00     0.217 A 
ATOM     16  C   UNL A   1      34.162  16.604  23.872  1.00  0.00     0.088 C 
ATOM     17  C   UNL A   1      34.034  18.040  24.276  1.00  0.00     0.105 A 
ATOM     18  C   UNL A   1      32.855  18.655  24.387  1.00  0.00     0.098 A 
ATOM     19  O   UNL A   1      35.232  18.678  24.530  1.00  0.00    -0.457 OA
ATOM     20  C   UNL A   1      32.823  20.062  24.808  1.00  0.00     0.228 A 
ATOM     21  C   UNL A   1      35.245  20.013  24.927  1.00  0.00     0.180 A 
ATOM     22  O   UNL A   1      31.736  20.616  24.953  1.00  0.00    -0.285 OA
BRANCH  21  23
ATOM     23  C   UNL A   1      36.626  20.455  25.177  1.00  0.00     0.021 A 
ATOM     24  C   UNL A   1      36.913  21.782  25.523  1.00  0.00     0.013 A 
ATOM     25  C   UNL A   1      37.677  19.542  25.090  1.00  0.00     0.013 A 
ATOM     26  C   UNL A   1      38.215  22.158  25.892  1.00  0.00     0.021 A 
ATOM     27  C   UNL A   1      38.983  19.944  25.391  1.00  0.00     0.021 A 
ATOM     28  C   UNL A   1      39.273  21.253  25.790  1.00  0.00     0.067 A 
BRANCH  28  29
ATOM     29  S   UNL A   1      40.878  21.644  26.490  1.00  0.00     0.175 S 
ATOM     30  C   UNL A   1      41.642  20.274  27.280  1.00  0.00     0.163 C 
ATOM     31  O   UNL A   1      41.724  22.031  25.382  1.00  0.00    -0.224 OA
ATOM     32  O   UNL A   1      40.614  22.563  27.573  1.00  0.00    -0.224 OA
ENDBRANCH  28  29
ENDBRANCH  21  23
ENDBRANCH  14  15
ENDBRANCH   9  14
ENDBRANCH   6   8
ENDBRANCH   5   6
ENDBRANCH   4   5
ENDBRANCH   3   4
ENDBRANCH   2   3
ENDBRANCH   1   2
BRANCH   1  33
ATOM     33  C   UNL A   1      32.157  29.080  26.428  1.00  0.00     0.188 C 
BRANCH  33  34
ATOM     34  O   UNL A   1      33.133  30.102  26.618  1.00  0.00    -0.376 OA
BRANCH  34  35
ATOM     35  C   UNL A   1      32.518  31.315  27.080  1.00  0.00     0.202 C 
BRANCH  35  36
ATOM     36  C   UNL A   1      33.488  32.360  27.665  1.00  0.00     0.261 C 
BRANCH  36  37
ATOM     37  O   UNL A   1      33.027  33.723  27.837  1.00  0.00    -0.460 OA
BRANCH  37  38
ATOM     38  C   UNL A   1      33.358  34.395  28.971  1.00  0.00     0.338 C 
ATOM     39  O   UNL A   1      32.743  35.328  29.456  1.00  0.00    -0.246 OA
BRANCH  38  40
ATOM     40  C   UNL A   1      34.578  33.760  29.569  1.00  0.00     0.060 A 
ATOM     41  C   UNL A   1      34.468  32.833  30.611  1.00  0.00     0.016 A 
ATOM     42  C   UNL A   1      35.857  34.111  29.127  1.00  0.00     0.016 A 
ATOM     43  C   UNL A   1      35.615  32.380  31.292  1.00  0.00     0.010 A 
ATOM     44  C   UNL A   1      37.003  33.689  29.835  1.00  0.00     0.010 A 
ATOM     45  C   UNL A   1      36.897  32.854  30.959  1.00  0.00    -0.014 A 
BRANCH  45  46
ATOM     46  C   UNL A   1      38.108  32.294  31.640  1.00  0.00     0.031 A 
ATOM     47  C   UNL A   1      38.684  32.778  32.952  1.00  0.00     0.074 A 
ATOM     48  C   UNL A   1      38.728  31.274  31.028  1.00  0.00     0.049 A 
ATOM     49  N   UNL A   1      39.628  32.269  33.708  1.00  0.00    -0.248 NA
ATOM     50  C   UNL A   1      38.126  34.006  33.497  1.00  0.00     0.031 C 
ATOM     51  C   UNL A   1      38.331  30.713  29.739  1.00  0.00     0.029 A 
ATOM     52  N   UNL A   1      39.821  30.544  31.405  1.00  0.00    -0.354 N 
ATOM     53  C   UNL A   1      39.740  33.108  34.822  1.00  0.00     0.074 A 
ATOM     54  C   UNL A   1      38.771  34.161  34.646  1.00  0.00     0.031 C 
ATOM     55  C   UNL A   1      39.182  29.731  29.421  1.00  0.00     0.029 A 
ATOM     56  C   UNL A   1      40.177  29.595  30.486  1.00  0.00     0.049 A 
ATOM     57  H   UNL A   1      40.304  30.688  32.252  1.00  0.00     0.167 HD
ATOM     58  C   UNL A   1      40.568  33.017  35.893  1.00  0.00     0.034 A 
ATOM     59  C   UNL A   1      41.183  28.703  30.490  1.00  0.00     0.034 A 
ATOM     60  C   UNL A   1      41.571  31.999  36.051  1.00  0.00     0.049 A 
ATOM     61  C   UNL A   1      42.091  28.598  31.673  1.00  0.00     0.074 A 
ATOM     62  C   UNL A   1      42.423  31.787  37.123  1.00  0.00     0.029 A 
ATOM     63  N   UNL A   1      41.880  31.044  35.100  1.00  0.00    -0.354 N 
ATOM     64  N   UNL A   1      42.076  29.294  32.784  1.00  0.00    -0.248 NA
ATOM     65  C   UNL A   1      43.128  27.560  31.623  1.00  0.00     0.031 C 
ATOM     66  C   UNL A   1      43.257  30.708  36.812  1.00  0.00     0.029 A 
ATOM     67  C   UNL A   1      42.914  30.244  35.552  1.00  0.00     0.049 A 
ATOM     68  H   UNL A   1      41.430  30.947  34.230  1.00  0.00     0.167 HD
ATOM     69  C   UNL A   1      43.093  28.770  33.572  1.00  0.00     0.074 A 
ATOM     70  C   UNL A   1      43.693  27.689  32.819  1.00  0.00     0.031 C 
ATOM     71  C   UNL A   1      43.493  29.160  34.807  1.00  0.00     0.034 A 
BRANCH  58  72
ATOM     72  C   UNL A   1      40.404  34.000  37.029  1.00  0.00     0.023 A 
ATOM     73  C   UNL A   1      40.743  35.351  36.807  1.00  0.00     0.012 A 
ATOM     74  C   UNL A   1      39.779  33.639  38.241  1.00  0.00     0.148 A 
ATOM     75  C   UNL A   1      40.466  36.324  37.769  1.00  0.00     0.002 A 
ATOM     76  C   UNL A   1      39.480  34.619  39.184  1.00  0.00     0.091 A 
ATOM     77  F   UNL A   1      39.478  32.348  38.441  1.00  0.00    -0.205 F 
ATOM     78  C   UNL A   1      39.824  35.961  38.950  1.00  0.00     0.022 A 
BRANCH  76  79
ATOM     79  S   UNL A   1      38.583  34.268  40.703  1.00  0.00     0.127 S 
ATOM     80  O   UNL A   1      38.581  35.576  41.356  1.00  0.00    -0.237 OA
ATOM     81  O   UNL A   1      37.278  33.836  40.201  1.00  0.00    -0.237 OA
ATOM     82  O   UNL A   1      39.344  33.232  41.386  1.00  0.00    -0.744 OA
ENDBRANCH  76  79
ENDBRANCH  58  72
BRANCH  59  83
ATOM     83  C   UNL A   1      41.274  27.792  29.326  1.00  0.00     0.023 A 
ATOM     84  C   UNL A   1      40.227  26.883  29.092  1.00  0.00     0.012 A 
ATOM     85  C   UNL A   1      42.261  27.999  28.343  1.00  0.00     0.148 A 
ATOM     86  C   UNL A   1      40.147  26.207  27.878  1.00  0.00     0.002 A 
ATOM     87  C   UNL A   1      42.147  27.359  27.118  1.00  0.00     0.091 A 
ATOM     88  F   UNL A   1      43.233  28.886  28.600  1.00  0.00    -0.205 F 
ATOM     89  C   UNL A   1      41.094  26.458  26.885  1.00  0.00     0.022 A 
BRANCH  87  90
ATOM     90  S   UNL A   1      43.212  27.748  25.726  1.00  0.00     0.127 S 
ATOM     91  O   UNL A   1      43.952  26.499  25.561  1.00  0.00    -0.237 OA
ATOM     92  O   UNL A   1      42.234  28.031  24.675  1.00  0.00    -0.237 OA
ATOM     93  O   UNL A   1      44.006  28.896  26.139  1.00  0.00    -0.744 OA
ENDBRANCH  87  90
ENDBRANCH  59  83
BRANCH  71  94
ATOM     94  C   UNL A   1      44.652  28.436  35.430  1.00  0.00     0.023 A 
ATOM     95  C   UNL A   1      45.950  28.962  35.280  1.00  0.00     0.012 A 
ATOM     96  C   UNL A   1      44.448  27.302  36.241  1.00  0.00     0.148 A 
ATOM     97  C   UNL A   1      47.034  28.359  35.917  1.00  0.00     0.002 A 
ATOM     98  C   UNL A   1      45.530  26.723  36.894  1.00  0.00     0.091 A 
ATOM     99  F   UNL A   1      43.203  26.820  36.362  1.00  0.00    -0.205 F 
ATOM    100  C   UNL A   1      46.822  27.247  36.729  1.00  0.00     0.022 A 
BRANCH  98 101
ATOM    101  S   UNL A   1      45.354  25.324  38.006  1.00  0.00     0.127 S 
ATOM    102  O   UNL A   1      44.436  25.858  39.012  1.00  0.00    -0.237 OA
ATOM    103  O   UNL A   1      44.776  24.304  37.131  1.00  0.00    -0.237 OA
ATOM    104  O   UNL A   1      46.695  25.021  38.490  1.00  0.00    -0.744 OA
ENDBRANCH  98 101
ENDBRANCH  71  94
ENDBRANCH  45  46
ENDBRANCH  38  40
ENDBRANCH  37  38
ENDBRANCH  36  37
ENDBRANCH  35  36
ENDBRANCH  34  35
ENDBRANCH  33  34
ENDBRANCH   1  33
TORSDOF 24
ENDMDL
MODEL 3
REMARK VINA RESULT:     -10.5      5.648      7.788
REMARK SMILES Cc1cc(=O)c(Oc2ccc(C(=O)OCCOCCOCCOC(=O)c3ccc(-c4c5nc(c(-c6cccc(S(=O)(=O)[O-])c6F)c6ccc([nH]6)c(-c6cccc(S(=O)(=O)[O-])c6F)c6nc(c(-c7cccc(S(=O)(=O)[O-])c7F)c7ccc4[nH]7)C=C6)C=C5)cc3)cc2)c(-c2ccc(S(C)(=O)=O)cc2)o1
REMARK SMILES IDX 18 1 17 2 16 3 15 4 14 5 12 6 13 7 11 8 8 9 9 10 90 11 10 12
REMARK SMILES IDX 89 13 7 14 6 15 1 16 2 17 3 18 102 19 4 20 91 21 5 22 92 23
REMARK SMILES IDX 93 24 101 25 94 26 100 27 95 28 96 29 97 30 98 31 99 32
REMARK SMILES IDX 19 33 20 34 21 35 22 36 23 37 24 38 25 39 26 40 27 41 88 42
REMARK SMILES IDX 28 43 87 44 29 45 30 46 31 47 81 48 32 49 86 50 80 51 82 52
REMARK SMILES IDX 33 53 85 54 79 55 78 56 34 58 66 59 46 60 65 61 47 62 50 63
REMARK SMILES IDX 64 64 83 65 48 66 49 67 63 69 84 70 51 71 35 72 36 73 44 74
REMARK SMILES IDX 37 75 39 76 45 77 38 78 40 79 41 80 42 81 43 82 67 83 68 84
REMARK SMILES IDX 76 85 69 86 71 87 77 88 70 89 72 90 73 91 74 92 75 93 52 94
REMARK SMILES IDX 53 95 61 96 54 97 56 98 62 99 55 100 57 101 58 102 59 103
REMARK SMILES IDX 60 104
REMARK H PARENT 82 57 50 68
REMARK Flexibility Score: inf
ROOT
ATOM      1  C   UNL A   1      40.020  22.176  26.275  1.00  0.00     0.188 C 
ENDROOT
BRANCH   1   2
ATOM      2  O   UNL A   1      38.608  22.080  26.154  1.00  0.00    -0.376 OA
BRANCH   2   3
ATOM      3  C   UNL A   1      38.113  21.442  24.994  1.00  0.00     0.202 C 
BRANCH   3   4
ATOM      4  C   UNL A   1      36.982  22.136  24.221  1.00  0.00     0.261 C 
BRANCH   4   5
ATOM      5  O   UNL A   1      36.911  23.545  24.462  1.00  0.00    -0.460 OA
BRANCH   5   6
ATOM      6  C   UNL A   1      35.970  23.938  25.360  1.00  0.00     0.338 C 
ATOM      7  O   UNL A   1      35.937  23.646  26.544  1.00  0.00    -0.246 OA
BRANCH   6   8
ATOM      8  C   UNL A   1      34.969  24.825  24.704  1.00  0.00     0.060 A 
ATOM      9  C   UNL A   1      33.209  26.641  23.502  1.00  0.00     0.127 A 
ATOM     10  C   UNL A   1      33.540  26.783  24.847  1.00  0.00     0.048 A 
ATOM     11  C   UNL A   1      33.674  25.541  22.781  1.00  0.00     0.048 A 
ATOM     12  C   UNL A   1      34.450  25.901  25.438  1.00  0.00     0.019 A 
ATOM     13  C   UNL A   1      34.544  24.629  23.383  1.00  0.00     0.019 A 
BRANCH   9  14
ATOM     14  O   UNL A   1      32.287  27.448  22.903  1.00  0.00    -0.449 OA
BRANCH  14  15
ATOM     15  C   UNL A   1      30.920  27.384  23.126  1.00  0.00     0.217 A 
ATOM     16  C   UNL A   1      26.641  27.726  23.682  1.00  0.00     0.088 C 
ATOM     17  C   UNL A   1      28.119  27.713  23.443  1.00  0.00     0.105 A 
ATOM     18  C   UNL A   1      28.776  28.758  22.938  1.00  0.00     0.098 A 
ATOM     19  O   UNL A   1      28.750  26.535  23.792  1.00  0.00    -0.457 OA
ATOM     20  C   UNL A   1      30.231  28.662  22.755  1.00  0.00     0.228 A 
ATOM     21  C   UNL A   1      30.126  26.403  23.631  1.00  0.00     0.180 A 
ATOM     22  O   UNL A   1      30.843  29.640  22.331  1.00  0.00    -0.285 OA
BRANCH  21  23
ATOM     23  C   UNL A   1      30.570  25.083  24.107  1.00  0.00     0.021 A 
ATOM     24  C   UNL A   1      30.754  24.014  23.221  1.00  0.00     0.013 A 
ATOM     25  C   UNL A   1      30.834  24.884  25.463  1.00  0.00     0.013 A 
ATOM     26  C   UNL A   1      31.309  22.804  23.668  1.00  0.00     0.021 A 
ATOM     27  C   UNL A   1      31.319  23.650  25.910  1.00  0.00     0.021 A 
ATOM     28  C   UNL A   1      31.558  22.593  25.026  1.00  0.00     0.067 A 
BRANCH  28  29
ATOM     29  S   UNL A   1      32.489  21.160  25.570  1.00  0.00     0.175 S 
ATOM     30  C   UNL A   1      33.940  20.876  24.623  1.00  0.00     0.163 C 
ATOM     31  O   UNL A   1      32.906  21.435  26.928  1.00  0.00    -0.224 OA
ATOM     32  O   UNL A   1      31.654  20.020  25.271  1.00  0.00    -0.224 OA
ENDBRANCH  28  29
ENDBRANCH  21  23
ENDBRANCH  14  15
ENDBRANCH   9  14
ENDBRANCH   6   8
ENDBRANCH   5   6
ENDBRANCH   4   5
ENDBRANCH   3   4
ENDBRANCH   2   3
ENDBRANCH   1   2
BRANCH   1  33
ATOM     33  C   UNL A   1      40.505  21.399  27.501  1.00  0.00     0.188 C 
BRANCH  33  34
ATOM     34  O   UNL A   1      41.021  20.106  27.187  1.00  0.00    -0.376 OA
BRANCH  34  35
ATOM     35  C   UNL A   1      42.381  20.194  26.734  1.00  0.00     0.202 C 
BRANCH  35  36
ATOM     36  C   UNL A   1      42.809  19.109  25.728  1.00  0.00     0.261 C 
BRANCH  36  37
ATOM     37  O   UNL A   1      43.383  19.517  24.462  1.00  0.00    -0.460 OA
BRANCH  37  38
ATOM     38  C   UNL A   1      44.724  19.730  24.382  1.00  0.00     0.338 C 
ATOM     39  O   UNL A   1      45.557  18.918  24.021  1.00  0.00    -0.246 OA
BRANCH  38  40
ATOM     40  C   UNL A   1      45.008  21.154  24.752  1.00  0.00     0.060 A 
ATOM     41  C   UNL A   1      45.574  21.476  25.990  1.00  0.00     0.016 A 
ATOM     42  C   UNL A   1      44.674  22.199  23.885  1.00  0.00     0.016 A 
ATOM     43  C   UNL A   1      45.668  22.818  26.409  1.00  0.00     0.010 A 
ATOM     44  C   UNL A   1      44.731  23.541  24.321  1.00  0.00     0.010 A 
ATOM     45  C   UNL A   1      45.184  23.869  25.608  1.00  0.00    -0.014 A 
BRANCH  45  46
ATOM     46  C   UNL A   1      45.373  25.292  26.037  1.00  0.00     0.031 A 
ATOM     47  C   UNL A   1      44.278  26.222  26.511  1.00  0.00     0.074 A 
ATOM     48  C   UNL A   1      46.624  25.774  25.997  1.00  0.00     0.049 A 
ATOM     49  N   UNL A   1      44.348  27.414  27.053  1.00  0.00    -0.248 NA
ATOM     50  C   UNL A   1      42.910  25.752  26.358  1.00  0.00     0.031 C 
ATOM     51  C   UNL A   1      47.788  25.029  25.527  1.00  0.00     0.029 A 
ATOM     52  N   UNL A   1      47.113  27.003  26.346  1.00  0.00    -0.354 N 
ATOM     53  C   UNL A   1      43.033  27.805  27.324  1.00  0.00     0.074 A 
ATOM     54  C   UNL A   1      42.182  26.726  26.887  1.00  0.00     0.031 C 
ATOM     55  C   UNL A   1      48.862  25.823  25.601  1.00  0.00     0.029 A 
ATOM     56  C   UNL A   1      48.458  27.127  26.127  1.00  0.00     0.049 A 
ATOM     57  H   UNL A   1      46.554  27.725  26.716  1.00  0.00     0.167 HD
ATOM     58  C   UNL A   1      42.568  28.951  27.883  1.00  0.00     0.034 A 
ATOM     59  C   UNL A   1      49.288  28.166  26.330  1.00  0.00     0.034 A 
ATOM     60  C   UNL A   1      43.406  30.052  28.275  1.00  0.00     0.049 A 
ATOM     61  C   UNL A   1      48.778  29.426  26.953  1.00  0.00     0.074 A 
ATOM     62  C   UNL A   1      43.040  31.233  28.900  1.00  0.00     0.029 A 
ATOM     63  N   UNL A   1      44.769  30.122  28.052  1.00  0.00    -0.354 N 
ATOM     64  N   UNL A   1      47.562  29.712  27.349  1.00  0.00    -0.248 NA
ATOM     65  C   UNL A   1      49.761  30.490  27.194  1.00  0.00     0.031 C 
ATOM     66  C   UNL A   1      44.186  32.025  29.043  1.00  0.00     0.029 A 
ATOM     67  C   UNL A   1      45.262  31.328  28.517  1.00  0.00     0.049 A 
ATOM     68  H   UNL A   1      45.309  29.418  27.627  1.00  0.00     0.167 HD
ATOM     69  C   UNL A   1      47.634  30.986  27.900  1.00  0.00     0.074 A 
ATOM     70  C   UNL A   1      49.015  31.409  27.799  1.00  0.00     0.031 C 
ATOM     71  C   UNL A   1      46.639  31.735  28.432  1.00  0.00     0.034 A 
BRANCH  58  72
ATOM     72  C   UNL A   1      41.091  29.076  28.176  1.00  0.00     0.023 A 
ATOM     73  C   UNL A   1      40.202  29.250  27.095  1.00  0.00     0.012 A 
ATOM     74  C   UNL A   1      40.569  28.865  29.469  1.00  0.00     0.148 A 
ATOM     75  C   UNL A   1      38.820  29.216  27.295  1.00  0.00     0.002 A 
ATOM     76  C   UNL A   1      39.190  28.803  29.656  1.00  0.00     0.091 A 
ATOM     77  F   UNL A   1      41.429  28.716  30.486  1.00  0.00    -0.205 F 
ATOM     78  C   UNL A   1      38.316  28.980  28.571  1.00  0.00     0.022 A 
BRANCH  76  79
ATOM     79  S   UNL A   1      38.439  28.425  31.246  1.00  0.00     0.127 S 
ATOM     80  O   UNL A   1      39.221  29.266  32.151  1.00  0.00    -0.237 OA
ATOM     81  O   UNL A   1      37.057  28.863  31.050  1.00  0.00    -0.237 OA
ATOM     82  O   UNL A   1      38.600  26.990  31.433  1.00  0.00    -0.744 OA
ENDBRANCH  76  79
ENDBRANCH  58  72
BRANCH  59  83
ATOM     83  C   UNL A   1      50.716  27.955  25.999  1.00  0.00     0.023 A 
ATOM     84  C   UNL A   1      51.211  28.457  24.782  1.00  0.00     0.012 A 
ATOM     85  C   UNL A   1      51.607  27.483  26.983  1.00  0.00     0.148 A 
ATOM     86  C   UNL A   1      52.584  28.515  24.558  1.00  0.00     0.002 A 
ATOM     87  C   UNL A   1      52.974  27.591  26.771  1.00  0.00     0.091 A 
ATOM     88  F   UNL A   1      51.094  27.028  28.134  1.00  0.00    -0.205 F 
ATOM     89  C   UNL A   1      53.465  28.101  25.557  1.00  0.00     0.022 A 
BRANCH  87  90
ATOM     90  S   UNL A   1      54.176  27.248  28.059  1.00  0.00     0.127 S 
ATOM     91  O   UNL A   1      53.381  27.449  29.268  1.00  0.00    -0.237 OA
ATOM     92  O   UNL A   1      54.526  25.856  27.774  1.00  0.00    -0.237 OA
ATOM     93  O   UNL A   1      55.259  28.199  27.858  1.00  0.00    -0.744 OA
ENDBRANCH  87  90
ENDBRANCH  59  83
BRANCH  71  94
ATOM     94  C   UNL A   1      46.984  33.108  28.934  1.00  0.00     0.023 A 
ATOM     95  C   UNL A   1      47.586  33.243  30.200  1.00  0.00     0.012 A 
ATOM     96  C   UNL A   1      46.807  34.244  28.121  1.00  0.00     0.148 A 
ATOM     97  C   UNL A   1      47.995  34.495  30.658  1.00  0.00     0.002 A 
ATOM     98  C   UNL A   1      47.242  35.485  28.573  1.00  0.00     0.091 A 
ATOM     99  F   UNL A   1      46.227  34.087  26.922  1.00  0.00    -0.205 F 
ATOM    100  C   UNL A   1      47.830  35.612  29.842  1.00  0.00     0.022 A 
BRANCH  98 101
ATOM    101  S   UNL A   1      47.127  36.974  27.576  1.00  0.00     0.127 S 
ATOM    102  O   UNL A   1      47.520  36.478  26.256  1.00  0.00    -0.237 OA
ATOM    103  O   UNL A   1      45.711  37.321  27.701  1.00  0.00    -0.237 OA
ATOM    104  O   UNL A   1      48.044  37.934  28.175  1.00  0.00    -0.744 OA
ENDBRANCH  98 101
ENDBRANCH  71  94
ENDBRANCH  45  46
ENDBRANCH  38  40
ENDBRANCH  37  38
ENDBRANCH  36  37
ENDBRANCH  35  36
ENDBRANCH  34  35
ENDBRANCH  33  34
ENDBRANCH   1  33
TORSDOF 24
ENDMDL
