MODEL 1
REMARK VINA RESULT:      -9.9      0.000      0.000
REMARK SMILES O=C(Cc1cccn1-c1ccccc1F)OCCOCCOCCOC(=O)c1ccc(-c2c3nc(c(-c4cccc(S(=O)(=O)[O-])c4F)c4ccc([nH]4)c(-c4cccc(S(=O)(=O)[O-])c4F)c4nc(c(-c5cccc(S(=O)(=O)[O-])c5F)c5ccc2[nH]5)C=C4)C=C3)cc1
REMARK SMILES IDX 21 1 20 2 19 3 18 4 17 5 16 6 2 7 1 8 3 9 4 10 5 11 8 12
REMARK SMILES IDX 6 13 7 14 9 15 10 16 14 17 11 18 13 19 15 20 12 21 22 22
REMARK SMILES IDX 23 23 24 24 25 25 26 26 27 27 28 28 29 29 90 30 30 31 89 32
REMARK SMILES IDX 31 33 32 34 33 35 83 36 34 37 88 38 82 39 84 40 35 41 87 42
REMARK SMILES IDX 81 43 80 44 36 46 68 47 48 48 67 49 49 50 52 51 66 52 85 53
REMARK SMILES IDX 50 54 51 55 65 57 86 58 53 59 37 60 38 61 46 62 39 63 41 64
REMARK SMILES IDX 47 65 40 66 42 67 43 68 44 69 45 70 69 71 70 72 78 73 71 74
REMARK SMILES IDX 73 75 79 76 72 77 74 78 75 79 76 80 77 81 54 82 55 83 63 84
REMARK SMILES IDX 56 85 58 86 64 87 57 88 59 89 60 90 61 91 62 92
REMARK H PARENT 84 45 52 56
REMARK Flexibility Score: inf
ROOT
ATOM      1  C   UNL A   1      33.568  33.806  28.161  1.00  0.00     0.188 C 
ENDROOT
BRANCH   1   2
ATOM      2  C   UNL A   1      33.220  32.391  27.656  1.00  0.00     0.188 C 
BRANCH   2   3
ATOM      3  O   UNL A   1      34.017  31.358  28.204  1.00  0.00    -0.376 OA
BRANCH   3   4
ATOM      4  C   UNL A   1      34.661  30.445  27.340  1.00  0.00     0.202 C 
BRANCH   4   5
ATOM      5  C   UNL A   1      34.068  29.038  27.278  1.00  0.00     0.261 C 
BRANCH   5   6
ATOM      6  O   UNL A   1      32.762  28.879  26.686  1.00  0.00    -0.463 OA
BRANCH   6   7
ATOM      7  C   UNL A   1      31.766  28.031  27.003  1.00  0.00     0.311 C 
ATOM      8  O   UNL A   1      31.426  27.935  28.183  1.00  0.00    -0.252 OA
BRANCH   7   9
ATOM      9  C   UNL A   1      31.166  27.126  25.957  1.00  0.00     0.177 C 
BRANCH   9  10
ATOM     10  C   UNL A   1      32.025  26.903  24.749  1.00  0.00     0.034 A 
ATOM     11  C   UNL A   1      33.249  26.265  24.635  1.00  0.00     0.024 A 
ATOM     12  N   UNL A   1      31.570  27.157  23.459  1.00  0.00    -0.318 N 
ATOM     13  C   UNL A   1      33.541  26.118  23.261  1.00  0.00     0.020 A 
ATOM     14  C   UNL A   1      32.474  26.634  22.563  1.00  0.00     0.091 A 
BRANCH  12  15
ATOM     15  C   UNL A   1      30.276  27.603  23.136  1.00  0.00     0.081 A 
ATOM     16  C   UNL A   1      29.178  26.883  23.617  1.00  0.00     0.030 A 
ATOM     17  C   UNL A   1      30.108  28.855  22.552  1.00  0.00     0.147 A 
ATOM     18  C   UNL A   1      27.911  27.466  23.554  1.00  0.00     0.002 A 
ATOM     19  C   UNL A   1      28.847  29.433  22.493  1.00  0.00     0.041 A 
ATOM     20  F   UNL A   1      31.158  29.518  22.047  1.00  0.00    -0.205 F 
ATOM     21  C   UNL A   1      27.748  28.743  23.008  1.00  0.00     0.003 A 
ENDBRANCH  12  15
ENDBRANCH   9  10
ENDBRANCH   7   9
ENDBRANCH   6   7
ENDBRANCH   5   6
ENDBRANCH   4   5
ENDBRANCH   3   4
ENDBRANCH   2   3
ENDBRANCH   1   2
BRANCH   1  22
ATOM     22  O   UNL A   1      32.607  34.697  28.731  1.00  0.00    -0.376 OA
BRANCH  22  23
ATOM     23  C   UNL A   1      32.915  36.059  28.966  1.00  0.00     0.202 C 
BRANCH  23  24
ATOM     24  C   UNL A   1      32.701  36.525  30.407  1.00  0.00     0.261 C 
BRANCH  24  25
ATOM     25  O   UNL A   1      32.502  35.471  31.343  1.00  0.00    -0.460 OA
BRANCH  25  26
ATOM     26  C   UNL A   1      33.468  35.388  32.286  1.00  0.00     0.338 C 
ATOM     27  O   UNL A   1      33.657  36.131  33.232  1.00  0.00    -0.246 OA
BRANCH  26  28
ATOM     28  C   UNL A   1      34.368  34.273  31.984  1.00  0.00     0.060 A 
ATOM     29  C   UNL A   1      34.374  33.196  32.882  1.00  0.00     0.016 A 
ATOM     30  C   UNL A   1      35.379  34.468  31.045  1.00  0.00     0.016 A 
ATOM     31  C   UNL A   1      35.514  32.421  32.980  1.00  0.00     0.010 A 
ATOM     32  C   UNL A   1      36.531  33.728  31.180  1.00  0.00     0.010 A 
ATOM     33  C   UNL A   1      36.617  32.766  32.196  1.00  0.00    -0.014 A 
BRANCH  33  34
ATOM     34  C   UNL A   1      37.936  32.188  32.488  1.00  0.00     0.031 A 
ATOM     35  C   UNL A   1      38.270  30.996  31.607  1.00  0.00     0.074 A 
ATOM     36  C   UNL A   1      38.649  32.848  33.451  1.00  0.00     0.049 A 
ATOM     37  N   UNL A   1      39.165  30.072  31.777  1.00  0.00    -0.248 NA
ATOM     38  C   UNL A   1      37.427  30.726  30.409  1.00  0.00     0.031 C 
ATOM     39  C   UNL A   1      38.130  33.994  34.235  1.00  0.00     0.029 A 
ATOM     40  N   UNL A   1      39.924  32.725  33.965  1.00  0.00    -0.354 N 
ATOM     41  C   UNL A   1      39.149  29.283  30.611  1.00  0.00     0.074 A 
ATOM     42  C   UNL A   1      37.975  29.634  29.876  1.00  0.00     0.031 C 
ATOM     43  C   UNL A   1      39.031  34.406  35.147  1.00  0.00     0.029 A 
ATOM     44  C   UNL A   1      40.245  33.622  35.014  1.00  0.00     0.049 A 
ATOM     45  H   UNL A   1      40.566  32.061  33.627  1.00  0.00     0.167 HD
ATOM     46  C   UNL A   1      40.184  28.485  30.237  1.00  0.00     0.034 A 
ATOM     47  C   UNL A   1      41.397  33.730  35.743  1.00  0.00     0.034 A 
ATOM     48  C   UNL A   1      41.257  28.586  31.170  1.00  0.00     0.049 A 
ATOM     49  C   UNL A   1      42.385  32.859  35.082  1.00  0.00     0.074 A 
ATOM     50  C   UNL A   1      41.471  28.058  32.415  1.00  0.00     0.029 A 
ATOM     51  N   UNL A   1      42.143  29.615  30.951  1.00  0.00    -0.354 N 
ATOM     52  N   UNL A   1      42.926  33.102  33.922  1.00  0.00    -0.248 NA
ATOM     53  C   UNL A   1      42.724  31.570  35.696  1.00  0.00     0.031 C 
ATOM     54  C   UNL A   1      42.289  29.007  33.064  1.00  0.00     0.029 A 
ATOM     55  C   UNL A   1      42.609  30.037  32.172  1.00  0.00     0.049 A 
ATOM     56  H   UNL A   1      42.398  29.983  30.074  1.00  0.00     0.167 HD
ATOM     57  C   UNL A   1      43.356  31.856  33.531  1.00  0.00     0.074 A 
ATOM     58  C   UNL A   1      43.498  31.075  34.736  1.00  0.00     0.031 C 
ATOM     59  C   UNL A   1      43.066  31.405  32.284  1.00  0.00     0.034 A 
BRANCH  46  60
ATOM     60  C   UNL A   1      40.443  27.720  28.972  1.00  0.00     0.023 A 
ATOM     61  C   UNL A   1      40.023  26.364  28.982  1.00  0.00     0.012 A 
ATOM     62  C   UNL A   1      41.275  28.141  27.920  1.00  0.00     0.148 A 
ATOM     63  C   UNL A   1      40.471  25.444  28.039  1.00  0.00     0.002 A 
ATOM     64  C   UNL A   1      41.684  27.223  26.949  1.00  0.00     0.091 A 
ATOM     65  F   UNL A   1      41.740  29.396  27.909  1.00  0.00    -0.205 F 
ATOM     66  C   UNL A   1      41.308  25.873  27.024  1.00  0.00     0.022 A 
BRANCH  64  67
ATOM     67  S   UNL A   1      42.706  27.697  25.550  1.00  0.00     0.127 S 
ATOM     68  O   UNL A   1      41.990  28.854  25.023  1.00  0.00    -0.237 OA
ATOM     69  O   UNL A   1      43.983  28.018  26.194  1.00  0.00    -0.237 OA
ATOM     70  O   UNL A   1      42.762  26.514  24.699  1.00  0.00    -0.744 OA
ENDBRANCH  64  67
ENDBRANCH  46  60
BRANCH  47  71
ATOM     71  C   UNL A   1      41.795  34.404  37.039  1.00  0.00     0.023 A 
ATOM     72  C   UNL A   1      42.811  35.366  37.152  1.00  0.00     0.012 A 
ATOM     73  C   UNL A   1      41.031  34.180  38.221  1.00  0.00     0.148 A 
ATOM     74  C   UNL A   1      42.973  36.140  38.317  1.00  0.00     0.002 A 
ATOM     75  C   UNL A   1      41.102  35.028  39.320  1.00  0.00     0.091 A 
ATOM     76  F   UNL A   1      40.235  33.108  38.303  1.00  0.00    -0.205 F 
ATOM     77  C   UNL A   1      42.085  36.011  39.379  1.00  0.00     0.022 A 
BRANCH  75  78
ATOM     78  S   UNL A   1      39.832  35.027  40.601  1.00  0.00     0.127 S 
ATOM     79  O   UNL A   1      38.717  34.360  39.933  1.00  0.00    -0.237 OA
ATOM     80  O   UNL A   1      40.479  34.240  41.652  1.00  0.00    -0.237 OA
ATOM     81  O   UNL A   1      39.605  36.422  40.952  1.00  0.00    -0.744 OA
ENDBRANCH  75  78
ENDBRANCH  47  71
BRANCH  59  82
ATOM     82  C   UNL A   1      42.933  32.497  31.232  1.00  0.00     0.023 A 
ATOM     83  C   UNL A   1      41.630  32.949  30.942  1.00  0.00     0.012 A 
ATOM     84  C   UNL A   1      43.995  33.031  30.465  1.00  0.00     0.148 A 
ATOM     85  C   UNL A   1      41.386  33.889  29.938  1.00  0.00     0.002 A 
ATOM     86  C   UNL A   1      43.751  33.974  29.461  1.00  0.00     0.091 A 
ATOM     87  F   UNL A   1      45.234  32.602  30.704  1.00  0.00    -0.205 F 
ATOM     88  C   UNL A   1      42.445  34.406  29.201  1.00  0.00     0.022 A 
BRANCH  86  89
ATOM     89  S   UNL A   1      45.046  34.698  28.436  1.00  0.00     0.127 S 
ATOM     90  O   UNL A   1      44.317  35.058  27.218  1.00  0.00    -0.237 OA
ATOM     91  O   UNL A   1      45.474  35.845  29.236  1.00  0.00    -0.237 OA
ATOM     92  O   UNL A   1      46.053  33.662  28.258  1.00  0.00    -0.744 OA
ENDBRANCH  86  89
ENDBRANCH  59  82
ENDBRANCH  33  34
ENDBRANCH  26  28
ENDBRANCH  25  26
ENDBRANCH  24  25
ENDBRANCH  23  24
ENDBRANCH  22  23
ENDBRANCH   1  22
TORSDOF 22
ENDMDL
MODEL 2
REMARK VINA RESULT:      -9.8      5.003      8.185
REMARK SMILES O=C(Cc1cccn1-c1ccccc1F)OCCOCCOCCOC(=O)c1ccc(-c2c3nc(c(-c4cccc(S(=O)(=O)[O-])c4F)c4ccc([nH]4)c(-c4cccc(S(=O)(=O)[O-])c4F)c4nc(c(-c5cccc(S(=O)(=O)[O-])c5F)c5ccc2[nH]5)C=C4)C=C3)cc1
REMARK SMILES IDX 21 1 20 2 19 3 18 4 17 5 16 6 2 7 1 8 3 9 4 10 5 11 8 12
REMARK SMILES IDX 6 13 7 14 9 15 10 16 14 17 11 18 13 19 15 20 12 21 22 22
REMARK SMILES IDX 23 23 24 24 25 25 26 26 27 27 28 28 29 29 90 30 30 31 89 32
REMARK SMILES IDX 31 33 32 34 33 35 83 36 34 37 88 38 82 39 84 40 35 41 87 42
REMARK SMILES IDX 81 43 80 44 36 46 68 47 48 48 67 49 49 50 52 51 66 52 85 53
REMARK SMILES IDX 50 54 51 55 65 57 86 58 53 59 37 60 38 61 46 62 39 63 41 64
REMARK SMILES IDX 47 65 40 66 42 67 43 68 44 69 45 70 69 71 70 72 78 73 71 74
REMARK SMILES IDX 73 75 79 76 72 77 74 78 75 79 76 80 77 81 54 82 55 83 63 84
REMARK SMILES IDX 56 85 58 86 64 87 57 88 59 89 60 90 61 91 62 92
REMARK H PARENT 84 45 52 56
REMARK Flexibility Score: inf
ROOT
ATOM      1  C   UNL A   1      40.212  34.395  30.057  1.00  0.00     0.188 C 
ENDROOT
BRANCH   1   2
ATOM      2  C   UNL A   1      39.999  34.298  31.582  1.00  0.00     0.188 C 
BRANCH   2   3
ATOM      3  O   UNL A   1      38.800  34.887  32.047  1.00  0.00    -0.376 OA
BRANCH   3   4
ATOM      4  C   UNL A   1      38.169  34.363  33.197  1.00  0.00     0.202 C 
BRANCH   4   5
ATOM      5  C   UNL A   1      37.661  32.925  33.096  1.00  0.00     0.261 C 
BRANCH   5   6
ATOM      6  O   UNL A   1      36.325  32.644  33.562  1.00  0.00    -0.463 OA
BRANCH   6   7
ATOM      7  C   UNL A   1      35.376  33.480  34.023  1.00  0.00     0.311 C 
ATOM      8  O   UNL A   1      35.470  33.900  35.178  1.00  0.00    -0.252 OA
BRANCH   7   9
ATOM      9  C   UNL A   1      34.159  33.792  33.191  1.00  0.00     0.177 C 
BRANCH   9  10
ATOM     10  C   UNL A   1      33.901  35.252  32.973  1.00  0.00     0.034 A 
ATOM     11  C   UNL A   1      33.974  36.310  33.864  1.00  0.00     0.024 A 
ATOM     12  N   UNL A   1      33.733  35.793  31.703  1.00  0.00    -0.318 N 
ATOM     13  C   UNL A   1      33.861  37.512  33.130  1.00  0.00     0.020 A 
ATOM     14  C   UNL A   1      33.759  37.166  31.803  1.00  0.00     0.091 A 
BRANCH  12  15
ATOM     15  C   UNL A   1      33.821  35.068  30.501  1.00  0.00     0.081 A 
ATOM     16  C   UNL A   1      34.500  33.846  30.503  1.00  0.00     0.030 A 
ATOM     17  C   UNL A   1      33.051  35.455  29.408  1.00  0.00     0.147 A 
ATOM     18  C   UNL A   1      34.348  32.989  29.411  1.00  0.00     0.002 A 
ATOM     19  C   UNL A   1      32.900  34.600  28.324  1.00  0.00     0.041 A 
ATOM     20  F   UNL A   1      32.444  36.650  29.391  1.00  0.00    -0.205 F 
ATOM     21  C   UNL A   1      33.538  33.358  28.333  1.00  0.00     0.003 A 
ENDBRANCH  12  15
ENDBRANCH   9  10
ENDBRANCH   7   9
ENDBRANCH   6   7
ENDBRANCH   5   6
ENDBRANCH   4   5
ENDBRANCH   3   4
ENDBRANCH   2   3
ENDBRANCH   1   2
BRANCH   1  22
ATOM     22  O   UNL A   1      39.144  34.558  29.123  1.00  0.00    -0.376 OA
BRANCH  22  23
ATOM     23  C   UNL A   1      38.005  33.717  29.153  1.00  0.00     0.202 C 
BRANCH  23  24
ATOM     24  C   UNL A   1      38.296  32.254  29.490  1.00  0.00     0.261 C 
BRANCH  24  25
ATOM     25  O   UNL A   1      37.148  31.413  29.500  1.00  0.00    -0.460 OA
BRANCH  25  26
ATOM     26  C   UNL A   1      36.904  30.808  28.316  1.00  0.00     0.338 C 
ATOM     27  O   UNL A   1      36.112  31.143  27.452  1.00  0.00    -0.246 OA
BRANCH  26  28
ATOM     28  C   UNL A   1      37.696  29.581  28.206  1.00  0.00     0.060 A 
ATOM     29  C   UNL A   1      37.624  28.677  29.275  1.00  0.00     0.016 A 
ATOM     30  C   UNL A   1      38.702  29.521  27.243  1.00  0.00     0.016 A 
ATOM     31  C   UNL A   1      38.692  27.830  29.500  1.00  0.00     0.010 A 
ATOM     32  C   UNL A   1      39.786  28.714  27.499  1.00  0.00     0.010 A 
ATOM     33  C   UNL A   1      39.806  27.936  28.664  1.00  0.00    -0.014 A 
BRANCH  33  34
ATOM     34  C   UNL A   1      41.075  27.299  29.046  1.00  0.00     0.031 A 
ATOM     35  C   UNL A   1      41.171  25.851  28.594  1.00  0.00     0.074 A 
ATOM     36  C   UNL A   1      41.959  28.124  29.684  1.00  0.00     0.049 A 
ATOM     37  N   UNL A   1      41.968  24.913  29.005  1.00  0.00    -0.248 NA
ATOM     38  C   UNL A   1      40.177  25.333  27.614  1.00  0.00     0.031 C 
ATOM     39  C   UNL A   1      41.664  29.524  30.071  1.00  0.00     0.029 A 
ATOM     40  N   UNL A   1      43.260  27.992  30.124  1.00  0.00    -0.354 N 
ATOM     41  C   UNL A   1      41.734  23.800  28.174  1.00  0.00     0.074 A 
ATOM     42  C   UNL A   1      40.535  24.061  27.443  1.00  0.00     0.031 C 
ATOM     43  C   UNL A   1      42.701  30.074  30.732  1.00  0.00     0.029 A 
ATOM     44  C   UNL A   1      43.795  29.123  30.789  1.00  0.00     0.049 A 
ATOM     45  H   UNL A   1      43.782  27.168  29.987  1.00  0.00     0.167 HD
ATOM     46  C   UNL A   1      42.624  22.784  28.022  1.00  0.00     0.034 A 
ATOM     47  C   UNL A   1      45.025  29.293  31.363  1.00  0.00     0.034 A 
ATOM     48  C   UNL A   1      43.797  23.025  28.795  1.00  0.00     0.049 A 
ATOM     49  C   UNL A   1      45.828  28.123  30.968  1.00  0.00     0.074 A 
ATOM     50  C   UNL A   1      44.084  22.902  30.128  1.00  0.00     0.029 A 
ATOM     51  N   UNL A   1      44.766  23.789  28.187  1.00  0.00    -0.354 N 
ATOM     52  N   UNL A   1      46.263  27.897  29.762  1.00  0.00    -0.248 NA
ATOM     53  C   UNL A   1      46.083  27.067  31.955  1.00  0.00     0.031 C 
ATOM     54  C   UNL A   1      45.072  23.882  30.367  1.00  0.00     0.029 A 
ATOM     55  C   UNL A   1      45.407  24.511  29.163  1.00  0.00     0.049 A 
ATOM     56  H   UNL A   1      44.964  23.813  27.222  1.00  0.00     0.167 HD
ATOM     57  C   UNL A   1      46.503  26.543  29.783  1.00  0.00     0.074 A 
ATOM     58  C   UNL A   1      46.685  26.182  31.168  1.00  0.00     0.031 C 
ATOM     59  C   UNL A   1      46.028  25.761  28.780  1.00  0.00     0.034 A 
BRANCH  46  60
ATOM     60  C   UNL A   1      42.654  21.622  27.072  1.00  0.00     0.023 A 
ATOM     61  C   UNL A   1      41.762  20.561  27.378  1.00  0.00     0.012 A 
ATOM     62  C   UNL A   1      43.641  21.391  26.098  1.00  0.00     0.148 A 
ATOM     63  C   UNL A   1      41.892  19.298  26.806  1.00  0.00     0.002 A 
ATOM     64  C   UNL A   1      43.736  20.134  25.494  1.00  0.00     0.091 A 
ATOM     65  F   UNL A   1      44.537  22.346  25.826  1.00  0.00    -0.205 F 
ATOM     66  C   UNL A   1      42.885  19.083  25.867  1.00  0.00     0.022 A 
BRANCH  64  67
ATOM     67  S   UNL A   1      44.939  19.776  24.208  1.00  0.00     0.127 S 
ATOM     68  O   UNL A   1      44.622  18.393  23.866  1.00  0.00    -0.237 OA
ATOM     69  O   UNL A   1      44.584  20.751  23.172  1.00  0.00    -0.237 OA
ATOM     70  O   UNL A   1      46.239  20.022  24.820  1.00  0.00    -0.744 OA
ENDBRANCH  64  67
ENDBRANCH  46  60
BRANCH  47  71
ATOM     71  C   UNL A   1      45.637  30.285  32.330  1.00  0.00     0.023 A 
ATOM     72  C   UNL A   1      46.789  31.041  32.064  1.00  0.00     0.012 A 
ATOM     73  C   UNL A   1      44.962  30.603  33.544  1.00  0.00     0.148 A 
ATOM     74  C   UNL A   1      47.171  32.122  32.883  1.00  0.00     0.002 A 
ATOM     75  C   UNL A   1      45.259  31.746  34.278  1.00  0.00     0.091 A 
ATOM     76  F   UNL A   1      44.028  29.773  34.021  1.00  0.00    -0.205 F 
ATOM     77  C   UNL A   1      46.377  32.509  33.957  1.00  0.00     0.022 A 
BRANCH  75  78
ATOM     78  S   UNL A   1      44.129  32.390  35.527  1.00  0.00     0.127 S 
ATOM     79  O   UNL A   1      44.361  31.488  36.652  1.00  0.00    -0.237 OA
ATOM     80  O   UNL A   1      44.641  33.748  35.712  1.00  0.00    -0.237 OA
ATOM     81  O   UNL A   1      42.796  32.327  34.942  1.00  0.00    -0.744 OA
ENDBRANCH  75  78
ENDBRANCH  47  71
BRANCH  59  82
ATOM     82  C   UNL A   1      45.907  26.461  27.434  1.00  0.00     0.023 A 
ATOM     83  C   UNL A   1      44.644  26.996  27.105  1.00  0.00     0.012 A 
ATOM     84  C   UNL A   1      46.926  26.545  26.458  1.00  0.00     0.148 A 
ATOM     85  C   UNL A   1      44.401  27.588  25.863  1.00  0.00     0.002 A 
ATOM     86  C   UNL A   1      46.683  27.139  25.216  1.00  0.00     0.091 A 
ATOM     87  F   UNL A   1      48.122  26.026  26.737  1.00  0.00    -0.205 F 
ATOM     88  C   UNL A   1      45.419  27.665  24.920  1.00  0.00     0.022 A 
BRANCH  86  89
ATOM     89  S   UNL A   1      47.924  27.280  23.915  1.00  0.00     0.127 S 
ATOM     90  O   UNL A   1      47.196  27.990  22.862  1.00  0.00    -0.237 OA
ATOM     91  O   UNL A   1      48.966  28.077  24.562  1.00  0.00    -0.237 OA
ATOM     92  O   UNL A   1      48.314  25.919  23.574  1.00  0.00    -0.744 OA
ENDBRANCH  86  89
ENDBRANCH  59  82
ENDBRANCH  33  34
ENDBRANCH  26  28
ENDBRANCH  25  26
ENDBRANCH  24  25
ENDBRANCH  23  24
ENDBRANCH  22  23
ENDBRANCH   1  22
TORSDOF 22
ENDMDL
MODEL 3
REMARK VINA RESULT:      -9.8      4.937     10.319
REMARK SMILES O=C(Cc1cccn1-c1ccccc1F)OCCOCCOCCOC(=O)c1ccc(-c2c3nc(c(-c4cccc(S(=O)(=O)[O-])c4F)c4ccc([nH]4)c(-c4cccc(S(=O)(=O)[O-])c4F)c4nc(c(-c5cccc(S(=O)(=O)[O-])c5F)c5ccc2[nH]5)C=C4)C=C3)cc1
REMARK SMILES IDX 21 1 20 2 19 3 18 4 17 5 16 6 2 7 1 8 3 9 4 10 5 11 8 12
REMARK SMILES IDX 6 13 7 14 9 15 10 16 14 17 11 18 13 19 15 20 12 21 22 22
REMARK SMILES IDX 23 23 24 24 25 25 26 26 27 27 28 28 29 29 90 30 30 31 89 32
REMARK SMILES IDX 31 33 32 34 33 35 83 36 34 37 88 38 82 39 84 40 35 41 87 42
REMARK SMILES IDX 81 43 80 44 36 46 68 47 48 48 67 49 49 50 52 51 66 52 85 53
REMARK SMILES IDX 50 54 51 55 65 57 86 58 53 59 37 60 38 61 46 62 39 63 41 64
REMARK SMILES IDX 47 65 40 66 42 67 43 68 44 69 45 70 69 71 70 72 78 73 71 74
REMARK SMILES IDX 73 75 79 76 72 77 74 78 75 79 76 80 77 81 54 82 55 83 63 84
REMARK SMILES IDX 56 85 58 86 64 87 57 88 59 89 60 90 61 91 62 92
REMARK H PARENT 84 45 52 56
REMARK Flexibility Score: inf
ROOT
ATOM      1  C   UNL A   1      34.694  21.087  24.799  1.00  0.00     0.188 C 
ENDROOT
BRANCH   1   2
ATOM      2  C   UNL A   1      33.487  21.962  24.403  1.00  0.00     0.188 C 
BRANCH   2   3
ATOM      3  O   UNL A   1      32.887  22.658  25.479  1.00  0.00    -0.376 OA
BRANCH   3   4
ATOM      4  C   UNL A   1      31.479  22.702  25.579  1.00  0.00     0.202 C 
BRANCH   4   5
ATOM      5  C   UNL A   1      30.907  23.412  26.805  1.00  0.00     0.261 C 
BRANCH   5   6
ATOM      6  O   UNL A   1      30.348  24.729  26.625  1.00  0.00    -0.463 OA
BRANCH   6   7
ATOM      7  C   UNL A   1      30.465  25.586  25.593  1.00  0.00     0.311 C 
ATOM      8  O   UNL A   1      30.356  25.146  24.448  1.00  0.00    -0.252 OA
BRANCH   7   9
ATOM      9  C   UNL A   1      30.846  27.025  25.830  1.00  0.00     0.177 C 
BRANCH   9  10
ATOM     10  C   UNL A   1      31.944  27.539  24.948  1.00  0.00     0.034 A 
ATOM     11  C   UNL A   1      33.217  27.038  24.730  1.00  0.00     0.024 A 
ATOM     12  N   UNL A   1      31.734  28.552  24.019  1.00  0.00    -0.318 N 
ATOM     13  C   UNL A   1      33.788  27.745  23.649  1.00  0.00     0.020 A 
ATOM     14  C   UNL A   1      32.840  28.637  23.204  1.00  0.00     0.091 A 
BRANCH  12  15
ATOM     15  C   UNL A   1      30.497  29.173  23.771  1.00  0.00     0.081 A 
ATOM     16  C   UNL A   1      30.255  30.434  24.326  1.00  0.00     0.030 A 
ATOM     17  C   UNL A   1      29.644  28.642  22.808  1.00  0.00     0.147 A 
ATOM     18  C   UNL A   1      29.171  31.179  23.857  1.00  0.00     0.002 A 
ATOM     19  C   UNL A   1      28.567  29.385  22.343  1.00  0.00     0.041 A 
ATOM     20  F   UNL A   1      29.853  27.411  22.318  1.00  0.00    -0.205 F 
ATOM     21  C   UNL A   1      28.339  30.663  22.859  1.00  0.00     0.003 A 
ENDBRANCH  12  15
ENDBRANCH   9  10
ENDBRANCH   7   9
ENDBRANCH   6   7
ENDBRANCH   5   6
ENDBRANCH   4   5
ENDBRANCH   3   4
ENDBRANCH   2   3
ENDBRANCH   1   2
BRANCH   1  22
ATOM     22  O   UNL A   1      35.548  21.379  25.907  1.00  0.00    -0.376 OA
BRANCH  22  23
ATOM     23  C   UNL A   1      36.662  22.243  25.769  1.00  0.00     0.202 C 
BRANCH  23  24
ATOM     24  C   UNL A   1      37.982  21.542  25.444  1.00  0.00     0.261 C 
BRANCH  24  25
ATOM     25  O   UNL A   1      39.132  22.164  26.005  1.00  0.00    -0.460 OA
BRANCH  25  26
ATOM     26  C   UNL A   1      40.136  21.304  26.289  1.00  0.00     0.338 C 
ATOM     27  O   UNL A   1      40.115  20.087  26.238  1.00  0.00    -0.246 OA
BRANCH  26  28
ATOM     28  C   UNL A   1      41.307  22.040  26.768  1.00  0.00     0.060 A 
ATOM     29  C   UNL A   1      41.539  22.044  28.150  1.00  0.00     0.016 A 
ATOM     30  C   UNL A   1      41.925  22.943  25.904  1.00  0.00     0.016 A 
ATOM     31  C   UNL A   1      42.237  23.100  28.703  1.00  0.00     0.010 A 
ATOM     32  C   UNL A   1      42.575  24.020  26.462  1.00  0.00     0.010 A 
ATOM     33  C   UNL A   1      42.657  24.129  27.857  1.00  0.00    -0.014 A 
BRANCH  33  34
ATOM     34  C   UNL A   1      43.111  25.407  28.423  1.00  0.00     0.031 A 
ATOM     35  C   UNL A   1      41.969  26.365  28.717  1.00  0.00     0.074 A 
ATOM     36  C   UNL A   1      44.460  25.490  28.636  1.00  0.00     0.049 A 
ATOM     37  N   UNL A   1      42.002  27.647  28.914  1.00  0.00    -0.248 NA
ATOM     38  C   UNL A   1      40.571  25.851  28.693  1.00  0.00     0.031 C 
ATOM     39  C   UNL A   1      45.433  24.442  28.247  1.00  0.00     0.029 A 
ATOM     40  N   UNL A   1      45.291  26.427  29.216  1.00  0.00    -0.354 N 
ATOM     41  C   UNL A   1      40.694  28.028  29.272  1.00  0.00     0.074 A 
ATOM     42  C   UNL A   1      39.835  26.924  28.979  1.00  0.00     0.031 C 
ATOM     43  C   UNL A   1      46.693  24.820  28.532  1.00  0.00     0.029 A 
ATOM     44  C   UNL A   1      46.672  26.113  29.187  1.00  0.00     0.049 A 
ATOM     45  H   UNL A   1      44.949  27.255  29.622  1.00  0.00     0.167 HD
ATOM     46  C   UNL A   1      40.408  29.182  29.932  1.00  0.00     0.034 A 
ATOM     47  C   UNL A   1      47.738  26.841  29.643  1.00  0.00     0.034 A 
ATOM     48  C   UNL A   1      41.602  29.908  30.210  1.00  0.00     0.049 A 
ATOM     49  C   UNL A   1      47.172  27.966  30.406  1.00  0.00     0.074 A 
ATOM     50  C   UNL A   1      42.418  30.701  29.447  1.00  0.00     0.029 A 
ATOM     51  N   UNL A   1      42.255  29.562  31.369  1.00  0.00    -0.354 N 
ATOM     52  N   UNL A   1      46.573  27.853  31.557  1.00  0.00    -0.248 NA
ATOM     53  C   UNL A   1      47.171  29.306  29.806  1.00  0.00     0.031 C 
ATOM     54  C   UNL A   1      43.695  30.553  30.028  1.00  0.00     0.029 A 
ATOM     55  C   UNL A   1      43.601  29.743  31.165  1.00  0.00     0.049 A 
ATOM     56  H   UNL A   1      41.832  29.242  32.199  1.00  0.00     0.167 HD
ATOM     57  C   UNL A   1      45.831  29.009  31.618  1.00  0.00     0.074 A 
ATOM     58  C   UNL A   1      46.466  29.951  30.729  1.00  0.00     0.031 C 
ATOM     59  C   UNL A   1      44.517  28.946  31.954  1.00  0.00     0.034 A 
BRANCH  46  60
ATOM     60  C   UNL A   1      39.138  29.682  30.555  1.00  0.00     0.023 A 
ATOM     61  C   UNL A   1      38.694  28.965  31.696  1.00  0.00     0.012 A 
ATOM     62  C   UNL A   1      38.246  30.596  29.966  1.00  0.00     0.148 A 
ATOM     63  C   UNL A   1      37.397  29.084  32.187  1.00  0.00     0.002 A 
ATOM     64  C   UNL A   1      36.960  30.745  30.492  1.00  0.00     0.091 A 
ATOM     65  F   UNL A   1      38.605  31.246  28.853  1.00  0.00    -0.205 F 
ATOM     66  C   UNL A   1      36.527  29.971  31.580  1.00  0.00     0.022 A 
BRANCH  64  67
ATOM     67  S   UNL A   1      35.781  31.926  29.826  1.00  0.00     0.127 S 
ATOM     68  O   UNL A   1      35.209  31.189  28.703  1.00  0.00    -0.237 OA
ATOM     69  O   UNL A   1      34.863  32.117  30.953  1.00  0.00    -0.237 OA
ATOM     70  O   UNL A   1      36.565  33.111  29.505  1.00  0.00    -0.744 OA
ENDBRANCH  64  67
ENDBRANCH  46  60
BRANCH  47  71
ATOM     71  C   UNL A   1      49.238  26.798  29.442  1.00  0.00     0.023 A 
ATOM     72  C   UNL A   1      50.170  26.606  30.474  1.00  0.00     0.012 A 
ATOM     73  C   UNL A   1      49.780  26.815  28.124  1.00  0.00     0.148 A 
ATOM     74  C   UNL A   1      51.524  26.324  30.208  1.00  0.00     0.002 A 
ATOM     75  C   UNL A   1      51.082  26.408  27.854  1.00  0.00     0.091 A 
ATOM     76  F   UNL A   1      49.035  27.258  27.106  1.00  0.00    -0.205 F 
ATOM     77  C   UNL A   1      51.969  26.170  28.899  1.00  0.00     0.022 A 
BRANCH  75  78
ATOM     78  S   UNL A   1      51.616  25.990  26.183  1.00  0.00     0.127 S 
ATOM     79  O   UNL A   1      50.356  25.640  25.532  1.00  0.00    -0.237 OA
ATOM     80  O   UNL A   1      52.207  27.253  25.741  1.00  0.00    -0.237 OA
ATOM     81  O   UNL A   1      52.571  24.898  26.322  1.00  0.00    -0.744 OA
ENDBRANCH  75  78
ENDBRANCH  47  71
BRANCH  59  82
ATOM     82  C   UNL A   1      44.154  27.794  32.879  1.00  0.00     0.023 A 
ATOM     83  C   UNL A   1      44.302  26.491  32.363  1.00  0.00     0.012 A 
ATOM     84  C   UNL A   1      43.604  27.924  34.175  1.00  0.00     0.148 A 
ATOM     85  C   UNL A   1      43.923  25.364  33.098  1.00  0.00     0.002 A 
ATOM     86  C   UNL A   1      43.226  26.797  34.911  1.00  0.00     0.091 A 
ATOM     87  F   UNL A   1      43.432  29.148  34.676  1.00  0.00    -0.205 F 
ATOM     88  C   UNL A   1      43.390  25.515  34.373  1.00  0.00     0.022 A 
BRANCH  86  89
ATOM     89  S   UNL A   1      42.512  26.877  36.565  1.00  0.00     0.127 S 
ATOM     90  O   UNL A   1      43.539  27.600  37.316  1.00  0.00    -0.237 OA
ATOM     91  O   UNL A   1      41.286  27.642  36.340  1.00  0.00    -0.237 OA
ATOM     92  O   UNL A   1      42.307  25.498  36.988  1.00  0.00    -0.744 OA
ENDBRANCH  86  89
ENDBRANCH  59  82
ENDBRANCH  33  34
ENDBRANCH  26  28
ENDBRANCH  25  26
ENDBRANCH  24  25
ENDBRANCH  23  24
ENDBRANCH  22  23
ENDBRANCH   1  22
TORSDOF 22
ENDMDL
