MODEL 1
REMARK VINA RESULT:     -10.2      0.000      0.000
REMARK SMILES O=C(Cn1cc(NC(=O)N2CC[N@@H+]3CCC[C@@H]3C2)cn1)OCCOCCOCCOC(=O)c1ccc(-c2c3nc(c(-c4cccc(S(=O)(=O)[O-])c4F)c4ccc([nH]4)c(-c4cccc(S(=O)(=O)[O-])c4F)c4nc(c(-c5cccc(S(=O)(=O)[O-])c5F)c5ccc2[nH]5)C=C4)C=C3)cc1
REMARK SMILES IDX 25 1 24 2 23 3 22 4 21 5 2 6 1 7 3 8 4 9 5 10 20 11 6 12
REMARK SMILES IDX 19 13 7 14 8 15 9 17 10 18 11 19 18 20 12 21 17 22 13 23
REMARK SMILES IDX 16 24 14 25 15 27 26 28 27 29 28 30 29 31 30 32 31 33 32 34
REMARK SMILES IDX 33 35 34 36 95 37 35 38 94 39 36 40 37 41 38 42 88 43 39 44
REMARK SMILES IDX 93 45 87 46 89 47 40 48 92 49 86 50 85 51 41 53 73 54 53 55
REMARK SMILES IDX 72 56 54 57 57 58 71 59 90 60 55 61 56 62 70 64 91 65 58 66
REMARK SMILES IDX 42 67 43 68 51 69 44 70 46 71 52 72 45 73 47 74 48 75 49 76
REMARK SMILES IDX 50 77 74 78 75 79 83 80 76 81 78 82 84 83 77 84 79 85 80 86
REMARK SMILES IDX 81 87 82 88 59 89 60 90 68 91 61 92 63 93 69 94 62 95 64 96
REMARK SMILES IDX 65 97 66 98 67 99
REMARK H PARENT 7 16 13 26 89 52 57 63
REMARK Flexibility Score: inf
ROOT
ATOM      1  C   UNL A   1      34.515  34.156  27.902  1.00  0.00     0.188 C 
ENDROOT
BRANCH   1   2
ATOM      2  O   UNL A   1      34.896  32.812  28.068  1.00  0.00    -0.376 OA
BRANCH   2   3
ATOM      3  C   UNL A   1      33.972  31.774  28.335  1.00  0.00     0.202 C 
BRANCH   3   4
ATOM      4  C   UNL A   1      33.220  30.995  27.251  1.00  0.00     0.261 C 
BRANCH   4   5
ATOM      5  O   UNL A   1      33.428  29.579  27.063  1.00  0.00    -0.462 OA
BRANCH   5   6
ATOM      6  C   UNL A   1      33.559  28.828  25.948  1.00  0.00     0.327 C 
ATOM      7  O   UNL A   1      34.110  27.732  26.042  1.00  0.00    -0.250 OA
BRANCH   6   8
ATOM      8  C   UNL A   1      33.125  29.377  24.617  1.00  0.00     0.266 C 
BRANCH   8   9
ATOM      9  N   UNL A   1      32.293  28.430  23.926  1.00  0.00    -0.259 N 
ATOM     10  C   UNL A   1      31.387  27.561  24.465  1.00  0.00     0.135 A 
ATOM     11  N   UNL A   1      32.463  28.270  22.604  1.00  0.00    -0.179 NA
ATOM     12  C   UNL A   1      31.194  26.604  23.503  1.00  0.00     0.081 A 
ATOM     13  C   UNL A   1      31.797  27.148  22.348  1.00  0.00     0.161 A 
BRANCH  12  14
ATOM     14  N   UNL A   1      30.525  25.412  23.688  1.00  0.00    -0.305 N 
ATOM     15  C   UNL A   1      31.140  24.188  23.730  1.00  0.00     0.322 C 
ATOM     16  H   UNL A   1      29.547  25.441  23.796  1.00  0.00     0.171 HD
ATOM     17  O   UNL A   1      30.580  23.186  23.293  1.00  0.00    -0.248 OA
BRANCH  15  18
ATOM     18  N   UNL A   1      32.407  24.159  24.274  1.00  0.00    -0.313 N 
ATOM     19  C   UNL A   1      32.627  24.170  25.727  1.00  0.00     0.183 C 
ATOM     20  C   UNL A   1      33.546  23.887  23.418  1.00  0.00     0.186 C 
ATOM     21  C   UNL A   1      34.114  24.132  26.122  1.00  0.00     0.284 C 
ATOM     22  C   UNL A   1      34.550  22.900  24.021  1.00  0.00     0.204 C 
ATOM     23  N   UNL A   1      34.859  23.050  25.463  1.00  0.00    -0.330 N 
ATOM     24  C   UNL A   1      35.896  22.990  23.302  1.00  0.00     0.073 C 
ATOM     25  C   UNL A   1      36.309  23.192  25.620  1.00  0.00     0.262 C 
ATOM     26  H   UNL A   1      34.544  22.207  25.944  1.00  0.00     0.348 HD
ATOM     27  C   UNL A   1      36.889  22.568  24.363  1.00  0.00     0.068 C 
ENDBRANCH  15  18
ENDBRANCH  12  14
ENDBRANCH   8   9
ENDBRANCH   6   8
ENDBRANCH   5   6
ENDBRANCH   4   5
ENDBRANCH   3   4
ENDBRANCH   2   3
ENDBRANCH   1   2
BRANCH   1  28
ATOM     28  C   UNL A   1      33.692  34.780  29.032  1.00  0.00     0.188 C 
BRANCH  28  29
ATOM     29  O   UNL A   1      33.663  34.152  30.303  1.00  0.00    -0.376 OA
BRANCH  29  30
ATOM     30  C   UNL A   1      34.829  34.130  31.126  1.00  0.00     0.202 C 
BRANCH  30  31
ATOM     31  C   UNL A   1      35.088  32.986  32.105  1.00  0.00     0.261 C 
BRANCH  31  32
ATOM     32  O   UNL A   1      35.275  31.754  31.421  1.00  0.00    -0.460 OA
BRANCH  32  33
ATOM     33  C   UNL A   1      36.416  31.105  31.724  1.00  0.00     0.338 C 
ATOM     34  O   UNL A   1      36.841  30.848  32.837  1.00  0.00    -0.246 OA
BRANCH  33  35
ATOM     35  C   UNL A   1      37.141  30.756  30.495  1.00  0.00     0.060 A 
ATOM     36  C   UNL A   1      37.140  29.393  30.184  1.00  0.00     0.016 A 
ATOM     37  C   UNL A   1      38.117  31.639  30.021  1.00  0.00     0.016 A 
ATOM     38  C   UNL A   1      38.316  28.843  29.742  1.00  0.00     0.010 A 
ATOM     39  C   UNL A   1      39.296  31.089  29.586  1.00  0.00     0.010 A 
ATOM     40  C   UNL A   1      39.409  29.696  29.606  1.00  0.00    -0.014 A 
BRANCH  40  41
ATOM     41  C   UNL A   1      40.724  29.102  29.729  1.00  0.00     0.031 A 
ATOM     42  C   UNL A   1      41.173  28.857  31.108  1.00  0.00     0.074 A 
ATOM     43  C   UNL A   1      41.375  28.696  28.619  1.00  0.00     0.049 A 
ATOM     44  N   UNL A   1      42.246  29.285  31.689  1.00  0.00    -0.248 NA
ATOM     45  C   UNL A   1      40.247  28.129  31.987  1.00  0.00     0.031 C 
ATOM     46  C   UNL A   1      40.843  28.646  27.247  1.00  0.00     0.029 A 
ATOM     47  N   UNL A   1      42.576  28.064  28.507  1.00  0.00    -0.354 N 
ATOM     48  C   UNL A   1      42.232  28.682  32.940  1.00  0.00     0.074 A 
ATOM     49  C   UNL A   1      40.909  28.151  33.141  1.00  0.00     0.031 C 
ATOM     50  C   UNL A   1      41.578  27.774  26.525  1.00  0.00     0.029 A 
ATOM     51  C   UNL A   1      42.680  27.306  27.345  1.00  0.00     0.049 A 
ATOM     52  H   UNL A   1      43.294  28.136  29.177  1.00  0.00     0.167 HD
ATOM     53  C   UNL A   1      43.375  28.401  33.617  1.00  0.00     0.034 A 
ATOM     54  C   UNL A   1      43.525  26.268  27.136  1.00  0.00     0.034 A 
ATOM     55  C   UNL A   1      44.505  29.143  33.140  1.00  0.00     0.049 A 
ATOM     56  C   UNL A   1      44.606  26.359  28.145  1.00  0.00     0.074 A 
ATOM     57  C   UNL A   1      44.812  30.481  33.010  1.00  0.00     0.029 A 
ATOM     58  N   UNL A   1      45.428  28.466  32.381  1.00  0.00    -0.354 N 
ATOM     59  N   UNL A   1      45.493  27.313  28.180  1.00  0.00    -0.248 NA
ATOM     60  C   UNL A   1      44.463  25.596  29.375  1.00  0.00     0.031 C 
ATOM     61  C   UNL A   1      45.617  30.567  31.838  1.00  0.00     0.029 A 
ATOM     62  C   UNL A   1      45.762  29.275  31.328  1.00  0.00     0.049 A 
ATOM     63  H   UNL A   1      45.783  27.566  32.562  1.00  0.00     0.167 HD
ATOM     64  C   UNL A   1      45.704  27.549  29.532  1.00  0.00     0.074 A 
ATOM     65  C   UNL A   1      45.145  26.383  30.210  1.00  0.00     0.031 C 
ATOM     66  C   UNL A   1      46.040  28.793  29.990  1.00  0.00     0.034 A 
BRANCH  53  67
ATOM     67  C   UNL A   1      43.515  27.186  34.486  1.00  0.00     0.023 A 
ATOM     68  C   UNL A   1      43.500  27.359  35.882  1.00  0.00     0.012 A 
ATOM     69  C   UNL A   1      43.891  25.915  33.991  1.00  0.00     0.148 A 
ATOM     70  C   UNL A   1      43.840  26.311  36.743  1.00  0.00     0.002 A 
ATOM     71  C   UNL A   1      44.128  24.853  34.851  1.00  0.00     0.091 A 
ATOM     72  F   UNL A   1      44.156  25.753  32.688  1.00  0.00    -0.205 F 
ATOM     73  C   UNL A   1      44.130  25.050  36.231  1.00  0.00     0.022 A 
BRANCH  71  74
ATOM     74  S   UNL A   1      44.400  23.203  34.198  1.00  0.00     0.127 S 
ATOM     75  O   UNL A   1      43.947  22.369  35.306  1.00  0.00    -0.237 OA
ATOM     76  O   UNL A   1      43.537  23.191  33.017  1.00  0.00    -0.237 OA
ATOM     77  O   UNL A   1      45.825  23.163  33.888  1.00  0.00    -0.744 OA
ENDBRANCH  71  74
ENDBRANCH  53  67
BRANCH  54  78
ATOM     78  C   UNL A   1      43.282  25.049  26.330  1.00  0.00     0.023 A 
ATOM     79  C   UNL A   1      44.102  24.770  25.221  1.00  0.00     0.012 A 
ATOM     80  C   UNL A   1      42.396  24.039  26.774  1.00  0.00     0.148 A 
ATOM     81  C   UNL A   1      44.047  23.525  24.580  1.00  0.00     0.002 A 
ATOM     82  C   UNL A   1      42.324  22.814  26.118  1.00  0.00     0.091 A 
ATOM     83  F   UNL A   1      41.690  24.241  27.893  1.00  0.00    -0.205 F 
ATOM     84  C   UNL A   1      43.158  22.549  25.027  1.00  0.00     0.022 A 
BRANCH  82  85
ATOM     85  S   UNL A   1      41.184  21.524  26.638  1.00  0.00     0.127 S 
ATOM     86  O   UNL A   1      41.700  21.175  27.962  1.00  0.00    -0.237 OA
ATOM     87  O   UNL A   1      39.907  22.231  26.647  1.00  0.00    -0.237 OA
ATOM     88  O   UNL A   1      41.316  20.459  25.650  1.00  0.00    -0.744 OA
ENDBRANCH  82  85
ENDBRANCH  54  78
BRANCH  66  89
ATOM     89  C   UNL A   1      46.416  29.846  28.974  1.00  0.00     0.023 A 
ATOM     90  C   UNL A   1      47.737  29.964  28.495  1.00  0.00     0.012 A 
ATOM     91  C   UNL A   1      45.401  30.588  28.347  1.00  0.00     0.148 A 
ATOM     92  C   UNL A   1      48.048  30.818  27.435  1.00  0.00     0.002 A 
ATOM     93  C   UNL A   1      45.705  31.406  27.262  1.00  0.00     0.091 A 
ATOM     94  F   UNL A   1      44.145  30.455  28.798  1.00  0.00    -0.205 F 
ATOM     95  C   UNL A   1      47.028  31.531  26.810  1.00  0.00     0.022 A 
BRANCH  93  96
ATOM     96  S   UNL A   1      44.427  32.248  26.322  1.00  0.00     0.127 S 
ATOM     97  O   UNL A   1      43.517  31.152  25.993  1.00  0.00    -0.237 OA
ATOM     98  O   UNL A   1      43.901  33.207  27.295  1.00  0.00    -0.237 OA
ATOM     99  O   UNL A   1      45.105  32.864  25.188  1.00  0.00    -0.744 OA
ENDBRANCH  93  96
ENDBRANCH  66  89
ENDBRANCH  40  41
ENDBRANCH  33  35
ENDBRANCH  32  33
ENDBRANCH  31  32
ENDBRANCH  30  31
ENDBRANCH  29  30
ENDBRANCH  28  29
ENDBRANCH   1  28
TORSDOF 23
ENDMDL
MODEL 2
REMARK VINA RESULT:     -10.0      3.957      7.029
REMARK SMILES O=C(Cn1cc(NC(=O)N2CC[N@@H+]3CCC[C@@H]3C2)cn1)OCCOCCOCCOC(=O)c1ccc(-c2c3nc(c(-c4cccc(S(=O)(=O)[O-])c4F)c4ccc([nH]4)c(-c4cccc(S(=O)(=O)[O-])c4F)c4nc(c(-c5cccc(S(=O)(=O)[O-])c5F)c5ccc2[nH]5)C=C4)C=C3)cc1
REMARK SMILES IDX 25 1 24 2 23 3 22 4 21 5 2 6 1 7 3 8 4 9 5 10 20 11 6 12
REMARK SMILES IDX 19 13 7 14 8 15 9 17 10 18 11 19 18 20 12 21 17 22 13 23
REMARK SMILES IDX 16 24 14 25 15 27 26 28 27 29 28 30 29 31 30 32 31 33 32 34
REMARK SMILES IDX 33 35 34 36 95 37 35 38 94 39 36 40 37 41 38 42 88 43 39 44
REMARK SMILES IDX 93 45 87 46 89 47 40 48 92 49 86 50 85 51 41 53 73 54 53 55
REMARK SMILES IDX 72 56 54 57 57 58 71 59 90 60 55 61 56 62 70 64 91 65 58 66
REMARK SMILES IDX 42 67 43 68 51 69 44 70 46 71 52 72 45 73 47 74 48 75 49 76
REMARK SMILES IDX 50 77 74 78 75 79 83 80 76 81 78 82 84 83 77 84 79 85 80 86
REMARK SMILES IDX 81 87 82 88 59 89 60 90 68 91 61 92 63 93 69 94 62 95 64 96
REMARK SMILES IDX 65 97 66 98 67 99
REMARK H PARENT 7 16 13 26 89 52 57 63
REMARK Flexibility Score: inf
ROOT
ATOM      1  C   UNL A   1      31.439  32.244  26.483  1.00  0.00     0.188 C 
ENDROOT
BRANCH   1   2
ATOM      2  O   UNL A   1      31.743  33.419  27.194  1.00  0.00    -0.376 OA
BRANCH   2   3
ATOM      3  C   UNL A   1      32.982  33.630  27.843  1.00  0.00     0.202 C 
BRANCH   3   4
ATOM      4  C   UNL A   1      33.296  34.847  28.719  1.00  0.00     0.261 C 
BRANCH   4   5
ATOM      5  O   UNL A   1      32.586  35.087  29.953  1.00  0.00    -0.462 OA
BRANCH   5   6
ATOM      6  C   UNL A   1      32.736  36.029  30.909  1.00  0.00     0.327 C 
ATOM      7  O   UNL A   1      32.879  37.201  30.559  1.00  0.00    -0.250 OA
BRANCH   6   8
ATOM      8  C   UNL A   1      32.821  35.627  32.355  1.00  0.00     0.266 C 
BRANCH   8   9
ATOM      9  N   UNL A   1      33.891  34.688  32.557  1.00  0.00    -0.259 N 
ATOM     10  C   UNL A   1      35.212  34.845  32.248  1.00  0.00     0.135 A 
ATOM     11  N   UNL A   1      33.590  33.458  33.004  1.00  0.00    -0.179 NA
ATOM     12  C   UNL A   1      35.723  33.573  32.208  1.00  0.00     0.081 A 
ATOM     13  C   UNL A   1      34.710  32.775  32.782  1.00  0.00     0.161 A 
BRANCH  12  14
ATOM     14  N   UNL A   1      36.969  33.229  31.725  1.00  0.00    -0.305 N 
ATOM     15  C   UNL A   1      38.144  33.517  32.368  1.00  0.00     0.322 C 
ATOM     16  H   UNL A   1      37.017  32.748  30.868  1.00  0.00     0.171 HD
ATOM     17  O   UNL A   1      39.164  33.773  31.733  1.00  0.00    -0.248 OA
BRANCH  15  18
ATOM     18  N   UNL A   1      38.105  33.512  33.746  1.00  0.00    -0.313 N 
ATOM     19  C   UNL A   1      37.818  32.289  34.509  1.00  0.00     0.183 C 
ATOM     20  C   UNL A   1      38.571  34.673  34.479  1.00  0.00     0.186 C 
ATOM     21  C   UNL A   1      37.823  32.501  36.033  1.00  0.00     0.284 C 
ATOM     22  C   UNL A   1      39.452  34.331  35.685  1.00  0.00     0.204 C 
ATOM     23  N   UNL A   1      39.034  33.178  36.518  1.00  0.00    -0.330 N 
ATOM     24  C   UNL A   1      39.544  35.517  36.644  1.00  0.00     0.073 C 
ATOM     25  C   UNL A   1      38.907  33.625  37.908  1.00  0.00     0.262 C 
ATOM     26  H   UNL A   1      39.758  32.462  36.454  1.00  0.00     0.348 HD
ATOM     27  C   UNL A   1      39.780  34.865  37.987  1.00  0.00     0.068 C 
ENDBRANCH  15  18
ENDBRANCH  12  14
ENDBRANCH   8   9
ENDBRANCH   6   8
ENDBRANCH   5   6
ENDBRANCH   4   5
ENDBRANCH   3   4
ENDBRANCH   2   3
ENDBRANCH   1   2
BRANCH   1  28
ATOM     28  C   UNL A   1      32.106  30.955  26.970  1.00  0.00     0.188 C 
BRANCH  28  29
ATOM     29  O   UNL A   1      32.944  30.226  26.088  1.00  0.00    -0.376 OA
BRANCH  29  30
ATOM     30  C   UNL A   1      34.025  29.445  26.597  1.00  0.00     0.202 C 
BRANCH  30  31
ATOM     31  C   UNL A   1      34.599  29.699  27.991  1.00  0.00     0.261 C 
BRANCH  31  32
ATOM     32  O   UNL A   1      35.633  30.674  27.954  1.00  0.00    -0.460 OA
BRANCH  32  33
ATOM     33  C   UNL A   1      36.883  30.172  27.900  1.00  0.00     0.338 C 
ATOM     34  O   UNL A   1      37.465  29.758  26.913  1.00  0.00    -0.246 OA
BRANCH  33  35
ATOM     35  C   UNL A   1      37.478  30.150  29.243  1.00  0.00     0.060 A 
ATOM     36  C   UNL A   1      38.508  31.077  29.439  1.00  0.00     0.016 A 
ATOM     37  C   UNL A   1      37.346  28.992  30.015  1.00  0.00     0.016 A 
ATOM     38  C   UNL A   1      39.619  30.652  30.123  1.00  0.00     0.010 A 
ATOM     39  C   UNL A   1      38.459  28.564  30.691  1.00  0.00     0.010 A 
ATOM     40  C   UNL A   1      39.617  29.341  30.595  1.00  0.00    -0.014 A 
BRANCH  40  41
ATOM     41  C   UNL A   1      40.905  28.704  30.765  1.00  0.00     0.031 A 
ATOM     42  C   UNL A   1      41.408  28.668  32.148  1.00  0.00     0.074 A 
ATOM     43  C   UNL A   1      41.482  28.082  29.716  1.00  0.00     0.049 A 
ATOM     44  N   UNL A   1      42.527  29.127  32.605  1.00  0.00    -0.248 NA
ATOM     45  C   UNL A   1      40.491  28.151  33.173  1.00  0.00     0.031 C 
ATOM     46  C   UNL A   1      40.883  27.833  28.395  1.00  0.00     0.029 A 
ATOM     47  N   UNL A   1      42.644  27.373  29.666  1.00  0.00    -0.354 N 
ATOM     48  C   UNL A   1      42.544  28.744  33.940  1.00  0.00     0.074 A 
ATOM     49  C   UNL A   1      41.208  28.329  34.279  1.00  0.00     0.031 C 
ATOM     50  C   UNL A   1      41.539  26.812  27.803  1.00  0.00     0.029 A 
ATOM     51  C   UNL A   1      42.655  26.426  28.647  1.00  0.00     0.049 A 
ATOM     52  H   UNL A   1      43.396  27.517  30.285  1.00  0.00     0.167 HD
ATOM     53  C   UNL A   1      43.703  28.517  34.609  1.00  0.00     0.034 A 
ATOM     54  C   UNL A   1      43.437  25.323  28.584  1.00  0.00     0.034 A 
ATOM     55  C   UNL A   1      44.843  29.104  33.970  1.00  0.00     0.049 A 
ATOM     56  C   UNL A   1      44.569  25.521  29.520  1.00  0.00     0.074 A 
ATOM     57  C   UNL A   1      45.209  30.383  33.602  1.00  0.00     0.029 A 
ATOM     58  N   UNL A   1      45.695  28.259  33.301  1.00  0.00    -0.354 N 
ATOM     59  N   UNL A   1      45.502  26.416  29.357  1.00  0.00    -0.248 NA
ATOM     60  C   UNL A   1      44.448  24.984  30.866  1.00  0.00     0.031 C 
ATOM     61  C   UNL A   1      45.959  30.225  32.401  1.00  0.00     0.029 A 
ATOM     62  C   UNL A   1      46.017  28.860  32.113  1.00  0.00     0.049 A 
ATOM     63  H   UNL A   1      46.014  27.383  33.618  1.00  0.00     0.167 HD
ATOM     64  C   UNL A   1      45.789  26.864  30.641  1.00  0.00     0.074 A 
ATOM     65  C   UNL A   1      45.207  25.860  31.528  1.00  0.00     0.031 C 
ATOM     66  C   UNL A   1      46.206  28.146  30.867  1.00  0.00     0.034 A 
BRANCH  53  67
ATOM     67  C   UNL A   1      43.825  27.459  35.666  1.00  0.00     0.023 A 
ATOM     68  C   UNL A   1      43.133  26.249  35.481  1.00  0.00     0.012 A 
ATOM     69  C   UNL A   1      44.403  27.691  36.936  1.00  0.00     0.148 A 
ATOM     70  C   UNL A   1      43.026  25.312  36.514  1.00  0.00     0.002 A 
ATOM     71  C   UNL A   1      44.381  26.716  37.923  1.00  0.00     0.091 A 
ATOM     72  F   UNL A   1      44.864  28.909  37.252  1.00  0.00    -0.205 F 
ATOM     73  C   UNL A   1      43.671  25.533  37.728  1.00  0.00     0.022 A 
BRANCH  71  74
ATOM     74  S   UNL A   1      45.296  26.952  39.448  1.00  0.00     0.127 S 
ATOM     75  O   UNL A   1      44.248  26.792  40.450  1.00  0.00    -0.237 OA
ATOM     76  O   UNL A   1      46.275  25.865  39.393  1.00  0.00    -0.237 OA
ATOM     77  O   UNL A   1      45.883  28.281  39.321  1.00  0.00    -0.744 OA
ENDBRANCH  71  74
ENDBRANCH  53  67
BRANCH  54  78
ATOM     78  C   UNL A   1      43.098  24.002  28.007  1.00  0.00     0.023 A 
ATOM     79  C   UNL A   1      41.857  23.407  28.303  1.00  0.00     0.012 A 
ATOM     80  C   UNL A   1      43.887  23.422  26.986  1.00  0.00     0.148 A 
ATOM     81  C   UNL A   1      41.414  22.278  27.601  1.00  0.00     0.002 A 
ATOM     82  C   UNL A   1      43.456  22.284  26.311  1.00  0.00     0.091 A 
ATOM     83  F   UNL A   1      45.017  24.035  26.611  1.00  0.00    -0.205 F 
ATOM     84  C   UNL A   1      42.213  21.716  26.608  1.00  0.00     0.022 A 
BRANCH  82  85
ATOM     85  S   UNL A   1      44.453  21.504  25.032  1.00  0.00     0.127 S 
ATOM     86  O   UNL A   1      45.792  21.546  25.621  1.00  0.00    -0.237 OA
ATOM     87  O   UNL A   1      43.861  20.173  24.954  1.00  0.00    -0.237 OA
ATOM     88  O   UNL A   1      44.300  22.340  23.847  1.00  0.00    -0.744 OA
ENDBRANCH  82  85
ENDBRANCH  54  78
BRANCH  66  89
ATOM     89  C   UNL A   1      46.584  28.991  29.673  1.00  0.00     0.023 A 
ATOM     90  C   UNL A   1      47.873  28.923  29.104  1.00  0.00     0.012 A 
ATOM     91  C   UNL A   1      45.582  29.706  28.994  1.00  0.00     0.148 A 
ATOM     92  C   UNL A   1      48.168  29.571  27.904  1.00  0.00     0.002 A 
ATOM     93  C   UNL A   1      45.867  30.315  27.774  1.00  0.00     0.091 A 
ATOM     94  F   UNL A   1      44.355  29.749  29.533  1.00  0.00    -0.205 F 
ATOM     95  C   UNL A   1      47.160  30.257  27.231  1.00  0.00     0.022 A 
BRANCH  93  96
ATOM     96  S   UNL A   1      44.589  31.099  26.787  1.00  0.00     0.127 S 
ATOM     97  O   UNL A   1      45.355  31.629  25.660  1.00  0.00    -0.237 OA
ATOM     98  O   UNL A   1      43.712  29.974  26.454  1.00  0.00    -0.237 OA
ATOM     99  O   UNL A   1      43.971  32.097  27.651  1.00  0.00    -0.744 OA
ENDBRANCH  93  96
ENDBRANCH  66  89
ENDBRANCH  40  41
ENDBRANCH  33  35
ENDBRANCH  32  33
ENDBRANCH  31  32
ENDBRANCH  30  31
ENDBRANCH  29  30
ENDBRANCH  28  29
ENDBRANCH   1  28
TORSDOF 23
ENDMDL
MODEL 3
REMARK VINA RESULT:      -9.9      3.174      9.647
REMARK SMILES O=C(Cn1cc(NC(=O)N2CC[N@@H+]3CCC[C@@H]3C2)cn1)OCCOCCOCCOC(=O)c1ccc(-c2c3nc(c(-c4cccc(S(=O)(=O)[O-])c4F)c4ccc([nH]4)c(-c4cccc(S(=O)(=O)[O-])c4F)c4nc(c(-c5cccc(S(=O)(=O)[O-])c5F)c5ccc2[nH]5)C=C4)C=C3)cc1
REMARK SMILES IDX 25 1 24 2 23 3 22 4 21 5 2 6 1 7 3 8 4 9 5 10 20 11 6 12
REMARK SMILES IDX 19 13 7 14 8 15 9 17 10 18 11 19 18 20 12 21 17 22 13 23
REMARK SMILES IDX 16 24 14 25 15 27 26 28 27 29 28 30 29 31 30 32 31 33 32 34
REMARK SMILES IDX 33 35 34 36 95 37 35 38 94 39 36 40 37 41 38 42 88 43 39 44
REMARK SMILES IDX 93 45 87 46 89 47 40 48 92 49 86 50 85 51 41 53 73 54 53 55
REMARK SMILES IDX 72 56 54 57 57 58 71 59 90 60 55 61 56 62 70 64 91 65 58 66
REMARK SMILES IDX 42 67 43 68 51 69 44 70 46 71 52 72 45 73 47 74 48 75 49 76
REMARK SMILES IDX 50 77 74 78 75 79 83 80 76 81 78 82 84 83 77 84 79 85 80 86
REMARK SMILES IDX 81 87 82 88 59 89 60 90 68 91 61 92 63 93 69 94 62 95 64 96
REMARK SMILES IDX 65 97 66 98 67 99
REMARK H PARENT 7 16 13 26 89 52 57 63
REMARK Flexibility Score: inf
ROOT
ATOM      1  C   UNL A   1      41.912  19.706  26.810  1.00  0.00     0.188 C 
ENDROOT
BRANCH   1   2
ATOM      2  O   UNL A   1      40.612  20.011  26.367  1.00  0.00    -0.376 OA
BRANCH   2   3
ATOM      3  C   UNL A   1      40.180  21.329  26.088  1.00  0.00     0.202 C 
BRANCH   3   4
ATOM      4  C   UNL A   1      38.719  21.784  26.150  1.00  0.00     0.261 C 
BRANCH   4   5
ATOM      5  O   UNL A   1      37.918  21.906  24.956  1.00  0.00    -0.462 OA
BRANCH   5   6
ATOM      6  C   UNL A   1      36.884  22.718  24.643  1.00  0.00     0.327 C 
ATOM      7  O   UNL A   1      37.019  23.929  24.814  1.00  0.00    -0.250 OA
BRANCH   6   8
ATOM      8  C   UNL A   1      35.576  22.130  24.192  1.00  0.00     0.266 C 
BRANCH   8   9
ATOM      9  N   UNL A   1      34.646  22.065  25.286  1.00  0.00    -0.259 N 
ATOM     10  C   UNL A   1      33.352  21.627  25.261  1.00  0.00     0.135 A 
ATOM     11  N   UNL A   1      35.011  22.582  26.471  1.00  0.00    -0.179 NA
ATOM     12  C   UNL A   1      32.772  22.162  26.383  1.00  0.00     0.081 A 
ATOM     13  C   UNL A   1      33.862  22.648  27.138  1.00  0.00     0.161 A 
BRANCH  12  14
ATOM     14  N   UNL A   1      31.421  22.163  26.658  1.00  0.00    -0.305 N 
ATOM     15  C   UNL A   1      30.647  23.294  26.687  1.00  0.00     0.322 C 
ATOM     16  H   UNL A   1      30.985  21.300  26.844  1.00  0.00     0.171 HD
ATOM     17  O   UNL A   1      29.705  23.393  27.469  1.00  0.00    -0.248 OA
BRANCH  15  18
ATOM     18  N   UNL A   1      30.996  24.296  25.807  1.00  0.00    -0.313 N 
ATOM     19  C   UNL A   1      30.735  24.187  24.365  1.00  0.00     0.183 C 
ATOM     20  C   UNL A   1      31.426  25.582  26.321  1.00  0.00     0.186 C 
ATOM     21  C   UNL A   1      31.201  25.414  23.562  1.00  0.00     0.284 C 
ATOM     22  C   UNL A   1      30.810  26.778  25.589  1.00  0.00     0.204 C 
ATOM     23  N   UNL A   1      30.710  26.686  24.113  1.00  0.00    -0.330 N 
ATOM     24  C   UNL A   1      31.608  28.052  25.866  1.00  0.00     0.073 C 
ATOM     25  C   UNL A   1      31.379  27.848  23.523  1.00  0.00     0.262 C 
ATOM     26  H   UNL A   1      29.721  26.696  23.862  1.00  0.00     0.348 HD
ATOM     27  C   UNL A   1      31.373  28.889  24.628  1.00  0.00     0.068 C 
ENDBRANCH  15  18
ENDBRANCH  12  14
ENDBRANCH   8   9
ENDBRANCH   6   8
ENDBRANCH   5   6
ENDBRANCH   4   5
ENDBRANCH   3   4
ENDBRANCH   2   3
ENDBRANCH   1   2
BRANCH   1  28
ATOM     28  C   UNL A   1      43.044  19.894  25.796  1.00  0.00     0.188 C 
BRANCH  28  29
ATOM     29  O   UNL A   1      43.158  21.123  25.097  1.00  0.00    -0.376 OA
BRANCH  29  30
ATOM     30  C   UNL A   1      43.840  22.230  25.687  1.00  0.00     0.202 C 
BRANCH  30  31
ATOM     31  C   UNL A   1      43.119  23.547  25.969  1.00  0.00     0.261 C 
BRANCH  31  32
ATOM     32  O   UNL A   1      42.536  23.549  27.265  1.00  0.00    -0.460 OA
BRANCH  32  33
ATOM     33  C   UNL A   1      41.736  24.602  27.525  1.00  0.00     0.338 C 
ATOM     34  O   UNL A   1      40.618  24.572  28.011  1.00  0.00    -0.246 OA
BRANCH  33  35
ATOM     35  C   UNL A   1      42.387  25.849  27.101  1.00  0.00     0.060 A 
ATOM     36  C   UNL A   1      43.556  26.164  27.803  1.00  0.00     0.016 A 
ATOM     37  C   UNL A   1      41.620  26.812  26.439  1.00  0.00     0.016 A 
ATOM     38  C   UNL A   1      43.736  27.471  28.178  1.00  0.00     0.010 A 
ATOM     39  C   UNL A   1      41.795  28.118  26.820  1.00  0.00     0.010 A 
ATOM     40  C   UNL A   1      42.755  28.385  27.800  1.00  0.00    -0.014 A 
BRANCH  40  41
ATOM     41  C   UNL A   1      42.598  29.560  28.632  1.00  0.00     0.031 A 
ATOM     42  C   UNL A   1      43.652  30.576  28.485  1.00  0.00     0.074 A 
ATOM     43  C   UNL A   1      41.472  29.712  29.360  1.00  0.00     0.049 A 
ATOM     44  N   UNL A   1      44.416  31.075  29.400  1.00  0.00    -0.248 NA
ATOM     45  C   UNL A   1      43.966  31.011  27.116  1.00  0.00     0.031 C 
ATOM     46  C   UNL A   1      40.264  28.872  29.310  1.00  0.00     0.029 A 
ATOM     47  N   UNL A   1      41.091  30.753  30.151  1.00  0.00    -0.354 N 
ATOM     48  C   UNL A   1      45.151  32.056  28.747  1.00  0.00     0.074 A 
ATOM     49  C   UNL A   1      44.980  31.843  27.333  1.00  0.00     0.031 C 
ATOM     50  C   UNL A   1      39.220  29.579  29.792  1.00  0.00     0.029 A 
ATOM     51  C   UNL A   1      39.710  30.856  30.280  1.00  0.00     0.049 A 
ATOM     52  H   UNL A   1      41.726  31.366  30.586  1.00  0.00     0.167 HD
ATOM     53  C   UNL A   1      45.622  33.153  29.393  1.00  0.00     0.034 A 
ATOM     54  C   UNL A   1      39.016  31.965  30.627  1.00  0.00     0.034 A 
ATOM     55  C   UNL A   1      45.663  32.991  30.816  1.00  0.00     0.049 A 
ATOM     56  C   UNL A   1      39.963  32.903  31.274  1.00  0.00     0.074 A 
ATOM     57  C   UNL A   1      46.281  32.112  31.683  1.00  0.00     0.029 A 
ATOM     58  N   UNL A   1      44.701  33.636  31.552  1.00  0.00    -0.354 N 
ATOM     59  N   UNL A   1      40.539  32.681  32.422  1.00  0.00    -0.248 NA
ATOM     60  C   UNL A   1      40.588  33.925  30.450  1.00  0.00     0.031 C 
ATOM     61  C   UNL A   1      45.370  31.957  32.767  1.00  0.00     0.029 A 
ATOM     62  C   UNL A   1      44.257  32.758  32.504  1.00  0.00     0.049 A 
ATOM     63  H   UNL A   1      44.388  34.560  31.419  1.00  0.00     0.167 HD
ATOM     64  C   UNL A   1      41.817  33.208  32.283  1.00  0.00     0.074 A 
ATOM     65  C   UNL A   1      41.743  34.068  31.105  1.00  0.00     0.031 C 
ATOM     66  C   UNL A   1      42.881  32.671  32.952  1.00  0.00     0.034 A 
BRANCH  53  67
ATOM     67  C   UNL A   1      45.713  34.497  28.731  1.00  0.00     0.023 A 
ATOM     68  C   UNL A   1      46.971  35.124  28.666  1.00  0.00     0.012 A 
ATOM     69  C   UNL A   1      44.582  35.269  28.378  1.00  0.00     0.148 A 
ATOM     70  C   UNL A   1      47.093  36.458  28.263  1.00  0.00     0.002 A 
ATOM     71  C   UNL A   1      44.719  36.557  27.882  1.00  0.00     0.091 A 
ATOM     72  F   UNL A   1      43.349  34.815  28.644  1.00  0.00    -0.205 F 
ATOM     73  C   UNL A   1      45.971  37.168  27.847  1.00  0.00     0.022 A 
BRANCH  71  74
ATOM     74  S   UNL A   1      43.291  37.440  27.248  1.00  0.00     0.127 S 
ATOM     75  O   UNL A   1      42.511  37.652  28.462  1.00  0.00    -0.237 OA
ATOM     76  O   UNL A   1      43.899  38.645  26.681  1.00  0.00    -0.237 OA
ATOM     77  O   UNL A   1      42.720  36.542  26.251  1.00  0.00    -0.744 OA
ENDBRANCH  71  74
ENDBRANCH  53  67
BRANCH  54  78
ATOM     78  C   UNL A   1      37.674  32.381  30.156  1.00  0.00     0.023 A 
ATOM     79  C   UNL A   1      37.189  31.909  28.923  1.00  0.00     0.012 A 
ATOM     80  C   UNL A   1      36.772  33.055  31.012  1.00  0.00     0.148 A 
ATOM     81  C   UNL A   1      35.849  32.096  28.557  1.00  0.00     0.002 A 
ATOM     82  C   UNL A   1      35.449  33.264  30.633  1.00  0.00     0.091 A 
ATOM     83  F   UNL A   1      37.181  33.413  32.236  1.00  0.00    -0.205 F 
ATOM     84  C   UNL A   1      34.981  32.774  29.409  1.00  0.00     0.022 A 
BRANCH  82  85
ATOM     85  S   UNL A   1      34.288  34.148  31.685  1.00  0.00     0.127 S 
ATOM     86  O   UNL A   1      33.300  34.623  30.715  1.00  0.00    -0.237 OA
ATOM     87  O   UNL A   1      33.814  33.091  32.572  1.00  0.00    -0.237 OA
ATOM     88  O   UNL A   1      35.059  35.213  32.316  1.00  0.00    -0.744 OA
ENDBRANCH  82  85
ENDBRANCH  54  78
BRANCH  66  89
ATOM     89  C   UNL A   1      42.601  31.651  34.031  1.00  0.00     0.023 A 
ATOM     90  C   UNL A   1      42.337  32.044  35.360  1.00  0.00     0.012 A 
ATOM     91  C   UNL A   1      42.402  30.308  33.670  1.00  0.00     0.148 A 
ATOM     92  C   UNL A   1      41.911  31.119  36.315  1.00  0.00     0.002 A 
ATOM     93  C   UNL A   1      41.935  29.396  34.613  1.00  0.00     0.091 A 
ATOM     94  F   UNL A   1      42.639  29.949  32.400  1.00  0.00    -0.205 F 
ATOM     95  C   UNL A   1      41.698  29.796  35.938  1.00  0.00     0.022 A 
BRANCH  93  96
ATOM     96  S   UNL A   1      41.509  27.709  34.169  1.00  0.00     0.127 S 
ATOM     97  O   UNL A   1      41.205  27.117  35.470  1.00  0.00    -0.237 OA
ATOM     98  O   UNL A   1      40.347  27.897  33.298  1.00  0.00    -0.237 OA
ATOM     99  O   UNL A   1      42.678  27.167  33.489  1.00  0.00    -0.744 OA
ENDBRANCH  93  96
ENDBRANCH  66  89
ENDBRANCH  40  41
ENDBRANCH  33  35
ENDBRANCH  32  33
ENDBRANCH  31  32
ENDBRANCH  30  31
ENDBRANCH  29  30
ENDBRANCH  28  29
ENDBRANCH   1  28
TORSDOF 23
ENDMDL
