MODEL 1
REMARK VINA RESULT:     -10.9      0.000      0.000
REMARK SMILES O=C(CSc1nc(O)cc(=O)[nH]1)Nc1cccc(C(=O)OCCOCCOCCOC(=O)c2ccc(-c3c4nc(c(-c5cccc(S(=O)(=O)[O-])c5F)c5ccc([nH]5)c(-c5cccc(S(=O)(=O)[O-])c5F)c5nc(c(-c6cccc(S(=O)(=O)[O-])c6F)c6ccc3[nH]6)C=C5)C=C4)cc2)c1
REMARK SMILES IDX 25 1 24 2 23 3 22 4 21 5 19 6 20 7 18 8 14 9 15 10 96 11
REMARK SMILES IDX 16 12 17 13 13 14 1 15 2 16 3 18 4 19 5 20 6 21 12 22 7 23
REMARK SMILES IDX 10 24 9 26 11 27 8 28 26 30 27 31 28 32 29 33 30 34 31 35
REMARK SMILES IDX 32 36 33 37 34 38 95 39 35 40 94 41 36 42 37 43 38 44 88 45
REMARK SMILES IDX 39 46 93 47 87 48 89 49 40 50 92 51 86 52 85 53 41 55 73 56
REMARK SMILES IDX 53 57 72 58 54 59 57 60 71 61 90 62 55 63 56 64 70 66 91 67
REMARK SMILES IDX 58 68 42 69 43 70 51 71 44 72 46 73 52 74 45 75 47 76 48 77
REMARK SMILES IDX 49 78 50 79 74 80 75 81 83 82 76 83 78 84 84 85 77 86 79 87
REMARK SMILES IDX 80 88 81 89 82 90 59 91 60 92 68 93 61 94 63 95 69 96 62 97
REMARK SMILES IDX 64 98 65 99 66 100 67 101
REMARK H PARENT 13 17 12 25 8 29 89 54 57 65
REMARK Flexibility Score: inf
ROOT
ATOM      1  C   UNL A   1      32.145  25.117  26.489  1.00  0.00     0.188 C 
ENDROOT
BRANCH   1   2
ATOM      2  O   UNL A   1      32.094  23.716  26.385  1.00  0.00    -0.376 OA
BRANCH   2   3
ATOM      3  C   UNL A   1      32.837  22.895  27.270  1.00  0.00     0.202 C 
BRANCH   3   4
ATOM      4  C   UNL A   1      34.372  22.852  27.406  1.00  0.00     0.261 C 
BRANCH   4   5
ATOM      5  O   UNL A   1      35.136  22.416  26.282  1.00  0.00    -0.460 OA
BRANCH   5   6
ATOM      6  C   UNL A   1      35.768  23.390  25.578  1.00  0.00     0.338 C 
ATOM      7  O   UNL A   1      36.893  23.822  25.765  1.00  0.00    -0.246 OA
BRANCH   6   8
ATOM      8  C   UNL A   1      34.949  23.724  24.397  1.00  0.00     0.062 A 
ATOM      9  C   UNL A   1      33.526  25.264  23.189  1.00  0.00     0.042 A 
ATOM     10  C   UNL A   1      33.256  24.255  22.254  1.00  0.00     0.026 A 
ATOM     11  C   UNL A   1      34.344  24.979  24.284  1.00  0.00     0.041 A 
ATOM     12  C   UNL A   1      33.865  23.000  22.367  1.00  0.00     0.003 A 
ATOM     13  C   UNL A   1      34.731  22.741  23.427  1.00  0.00     0.016 A 
BRANCH   9  14
ATOM     14  N   UNL A   1      32.954  26.534  22.974  1.00  0.00    -0.325 N 
ATOM     15  O   UNL A   1      33.925  27.737  24.719  1.00  0.00    -0.274 OA
ATOM     16  C   UNL A   1      33.160  27.654  23.760  1.00  0.00     0.234 C 
ATOM     17  H   UNL A   1      32.355  26.632  22.198  1.00  0.00     0.169 HD
BRANCH  16  18
ATOM     18  C   UNL A   1      32.318  28.853  23.375  1.00  0.00     0.178 C 
BRANCH  18  19
ATOM     19  S   UNL A   1      31.233  28.547  21.961  1.00  0.00    -0.078 SA
BRANCH  19  20
ATOM     20  C   UNL A   1      29.782  29.348  22.477  1.00  0.00     0.172 A 
ATOM     21  N   UNL A   1      28.667  28.701  22.524  1.00  0.00    -0.189 NA
ATOM     22  N   UNL A   1      29.950  30.636  22.868  1.00  0.00    -0.301 N 
ATOM     23  C   UNL A   1      27.596  29.395  23.010  1.00  0.00     0.218 A 
ATOM     24  C   UNL A   1      28.916  31.361  23.378  1.00  0.00     0.255 A 
ATOM     25  H   UNL A   1      30.837  31.055  22.782  1.00  0.00     0.172 HD
ATOM     26  C   UNL A   1      27.630  30.658  23.439  1.00  0.00     0.139 A 
ATOM     27  O   UNL A   1      29.046  32.508  23.786  1.00  0.00    -0.269 OA
BRANCH  23  28
ATOM     28  O   UNL A   1      26.419  28.697  23.068  1.00  0.00    -0.493 OA
ATOM     29  H   UNL A   1      26.035  28.361  22.282  1.00  0.00     0.295 HD
ENDBRANCH  23  28
ENDBRANCH  19  20
ENDBRANCH  18  19
ENDBRANCH  16  18
ENDBRANCH   9  14
ENDBRANCH   6   8
ENDBRANCH   5   6
ENDBRANCH   4   5
ENDBRANCH   3   4
ENDBRANCH   2   3
ENDBRANCH   1   2
BRANCH   1  30
ATOM     30  C   UNL A   1      30.819  25.863  26.229  1.00  0.00     0.188 C 
BRANCH  30  31
ATOM     31  O   UNL A   1      30.758  27.276  26.313  1.00  0.00    -0.376 OA
BRANCH  31  32
ATOM     32  C   UNL A   1      31.642  27.968  27.181  1.00  0.00     0.202 C 
BRANCH  32  33
ATOM     33  C   UNL A   1      31.698  29.504  27.282  1.00  0.00     0.261 C 
BRANCH  33  34
ATOM     34  O   UNL A   1      32.724  30.171  26.539  1.00  0.00    -0.460 OA
BRANCH  34  35
ATOM     35  C   UNL A   1      33.204  31.309  27.101  1.00  0.00     0.338 C 
ATOM     36  O   UNL A   1      32.591  32.341  27.317  1.00  0.00    -0.246 OA
BRANCH  35  37
ATOM     37  C   UNL A   1      34.570  31.064  27.599  1.00  0.00     0.060 A 
ATOM     38  C   UNL A   1      35.008  29.739  27.745  1.00  0.00     0.016 A 
ATOM     39  C   UNL A   1      35.391  32.129  27.968  1.00  0.00     0.016 A 
ATOM     40  C   UNL A   1      36.265  29.473  28.284  1.00  0.00     0.010 A 
ATOM     41  C   UNL A   1      36.641  31.860  28.531  1.00  0.00     0.010 A 
ATOM     42  C   UNL A   1      37.070  30.532  28.721  1.00  0.00    -0.014 A 
BRANCH  42  43
ATOM     43  C   UNL A   1      38.271  30.260  29.546  1.00  0.00     0.031 A 
ATOM     44  C   UNL A   1      39.294  29.292  29.020  1.00  0.00     0.074 A 
ATOM     45  C   UNL A   1      38.438  30.838  30.748  1.00  0.00     0.049 A 
ATOM     46  N   UNL A   1      40.366  28.822  29.598  1.00  0.00    -0.248 NA
ATOM     47  C   UNL A   1      39.072  28.780  27.656  1.00  0.00     0.031 C 
ATOM     48  C   UNL A   1      37.527  31.804  31.358  1.00  0.00     0.029 A 
ATOM     49  N   UNL A   1      39.423  30.660  31.688  1.00  0.00    -0.354 N 
ATOM     50  C   UNL A   1      40.924  27.929  28.692  1.00  0.00     0.074 A 
ATOM     51  C   UNL A   1      40.070  27.920  27.524  1.00  0.00     0.031 C 
ATOM     52  C   UNL A   1      37.976  32.106  32.589  1.00  0.00     0.029 A 
ATOM     53  C   UNL A   1      39.182  31.328  32.866  1.00  0.00     0.049 A 
ATOM     54  H   UNL A   1      40.224  30.109  31.535  1.00  0.00     0.167 HD
ATOM     55  C   UNL A   1      42.050  27.186  28.816  1.00  0.00     0.034 A 
ATOM     56  C   UNL A   1      39.840  31.286  34.042  1.00  0.00     0.034 A 
ATOM     57  C   UNL A   1      42.901  27.204  29.974  1.00  0.00     0.049 A 
ATOM     58  C   UNL A   1      41.070  30.420  34.169  1.00  0.00     0.074 A 
ATOM     59  C   UNL A   1      44.086  26.522  30.180  1.00  0.00     0.029 A 
ATOM     60  N   UNL A   1      42.648  27.924  31.131  1.00  0.00    -0.354 N 
ATOM     61  N   UNL A   1      41.644  29.660  33.269  1.00  0.00    -0.248 NA
ATOM     62  C   UNL A   1      41.758  30.430  35.469  1.00  0.00     0.031 C 
ATOM     63  C   UNL A   1      44.529  26.799  31.477  1.00  0.00     0.029 A 
ATOM     64  C   UNL A   1      43.647  27.693  32.061  1.00  0.00     0.049 A 
ATOM     65  H   UNL A   1      41.872  28.515  31.272  1.00  0.00     0.167 HD
ATOM     66  C   UNL A   1      42.782  29.138  33.878  1.00  0.00     0.074 A 
ATOM     67  C   UNL A   1      42.823  29.681  35.219  1.00  0.00     0.031 C 
ATOM     68  C   UNL A   1      43.705  28.282  33.375  1.00  0.00     0.034 A 
BRANCH  55  69
ATOM     69  C   UNL A   1      42.426  26.291  27.666  1.00  0.00     0.023 A 
ATOM     70  C   UNL A   1      43.309  26.758  26.671  1.00  0.00     0.012 A 
ATOM     71  C   UNL A   1      41.944  24.969  27.597  1.00  0.00     0.148 A 
ATOM     72  C   UNL A   1      43.676  25.936  25.605  1.00  0.00     0.002 A 
ATOM     73  C   UNL A   1      42.353  24.141  26.560  1.00  0.00     0.091 A 
ATOM     74  F   UNL A   1      41.088  24.552  28.540  1.00  0.00    -0.205 F 
ATOM     75  C   UNL A   1      43.207  24.626  25.556  1.00  0.00     0.022 A 
BRANCH  73  76
ATOM     76  S   UNL A   1      41.871  22.414  26.451  1.00  0.00     0.127 S 
ATOM     77  O   UNL A   1      42.342  21.896  27.735  1.00  0.00    -0.237 OA
ATOM     78  O   UNL A   1      40.417  22.509  26.328  1.00  0.00    -0.237 OA
ATOM     79  O   UNL A   1      42.548  21.879  25.278  1.00  0.00    -0.744 OA
ENDBRANCH  73  76
ENDBRANCH  55  69
BRANCH  56  80
ATOM     80  C   UNL A   1      39.362  32.096  35.198  1.00  0.00     0.023 A 
ATOM     81  C   UNL A   1      38.415  31.550  36.086  1.00  0.00     0.012 A 
ATOM     82  C   UNL A   1      39.835  33.404  35.419  1.00  0.00     0.148 A 
ATOM     83  C   UNL A   1      37.923  32.302  37.153  1.00  0.00     0.002 A 
ATOM     84  C   UNL A   1      39.383  34.128  36.515  1.00  0.00     0.091 A 
ATOM     85  F   UNL A   1      40.725  33.911  34.553  1.00  0.00    -0.205 F 
ATOM     86  C   UNL A   1      38.414  33.587  37.373  1.00  0.00     0.022 A 
BRANCH  84  87
ATOM     87  S   UNL A   1      40.042  35.742  36.945  1.00  0.00     0.127 S 
ATOM     88  O   UNL A   1      39.360  36.016  38.208  1.00  0.00    -0.237 OA
ATOM     89  O   UNL A   1      41.472  35.459  37.065  1.00  0.00    -0.237 OA
ATOM     90  O   UNL A   1      39.692  36.621  35.838  1.00  0.00    -0.744 OA
ENDBRANCH  84  87
ENDBRANCH  56  80
BRANCH  68  91
ATOM     91  C   UNL A   1      44.879  27.916  34.248  1.00  0.00     0.023 A 
ATOM     92  C   UNL A   1      46.040  28.715  34.250  1.00  0.00     0.012 A 
ATOM     93  C   UNL A   1      44.796  26.818  35.129  1.00  0.00     0.148 A 
ATOM     94  C   UNL A   1      47.111  28.406  35.089  1.00  0.00     0.002 A 
ATOM     95  C   UNL A   1      45.845  26.548  35.999  1.00  0.00     0.091 A 
ATOM     96  F   UNL A   1      43.690  26.060  35.101  1.00  0.00    -0.205 F 
ATOM     97  C   UNL A   1      47.009  27.332  35.970  1.00  0.00     0.022 A 
BRANCH  95  98
ATOM     98  S   UNL A   1      45.761  25.250  37.238  1.00  0.00     0.127 S 
ATOM     99  O   UNL A   1      45.666  24.052  36.408  1.00  0.00    -0.237 OA
ATOM    100  O   UNL A   1      47.036  25.410  37.938  1.00  0.00    -0.237 OA
ATOM    101  O   UNL A   1      44.586  25.541  38.049  1.00  0.00    -0.744 OA
ENDBRANCH  95  98
ENDBRANCH  68  91
ENDBRANCH  42  43
ENDBRANCH  35  37
ENDBRANCH  34  35
ENDBRANCH  33  34
ENDBRANCH  32  33
ENDBRANCH  31  32
ENDBRANCH  30  31
ENDBRANCH   1  30
TORSDOF 25
ENDMDL
MODEL 2
REMARK VINA RESULT:     -10.4      1.586      2.231
REMARK SMILES O=C(CSc1nc(O)cc(=O)[nH]1)Nc1cccc(C(=O)OCCOCCOCCOC(=O)c2ccc(-c3c4nc(c(-c5cccc(S(=O)(=O)[O-])c5F)c5ccc([nH]5)c(-c5cccc(S(=O)(=O)[O-])c5F)c5nc(c(-c6cccc(S(=O)(=O)[O-])c6F)c6ccc3[nH]6)C=C5)C=C4)cc2)c1
REMARK SMILES IDX 25 1 24 2 23 3 22 4 21 5 19 6 20 7 18 8 14 9 15 10 96 11
REMARK SMILES IDX 16 12 17 13 13 14 1 15 2 16 3 18 4 19 5 20 6 21 12 22 7 23
REMARK SMILES IDX 10 24 9 26 11 27 8 28 26 30 27 31 28 32 29 33 30 34 31 35
REMARK SMILES IDX 32 36 33 37 34 38 95 39 35 40 94 41 36 42 37 43 38 44 88 45
REMARK SMILES IDX 39 46 93 47 87 48 89 49 40 50 92 51 86 52 85 53 41 55 73 56
REMARK SMILES IDX 53 57 72 58 54 59 57 60 71 61 90 62 55 63 56 64 70 66 91 67
REMARK SMILES IDX 58 68 42 69 43 70 51 71 44 72 46 73 52 74 45 75 47 76 48 77
REMARK SMILES IDX 49 78 50 79 74 80 75 81 83 82 76 83 78 84 84 85 77 86 79 87
REMARK SMILES IDX 80 88 81 89 82 90 59 91 60 92 68 93 61 94 63 95 69 96 62 97
REMARK SMILES IDX 64 98 65 99 66 100 67 101
REMARK H PARENT 13 17 12 25 8 29 89 54 57 65
REMARK Flexibility Score: inf
ROOT
ATOM      1  C   UNL A   1      32.025  25.154  26.490  1.00  0.00     0.188 C 
ENDROOT
BRANCH   1   2
ATOM      2  O   UNL A   1      31.777  23.771  26.440  1.00  0.00    -0.376 OA
BRANCH   2   3
ATOM      3  C   UNL A   1      32.405  22.887  27.352  1.00  0.00     0.202 C 
BRANCH   3   4
ATOM      4  C   UNL A   1      33.921  22.635  27.484  1.00  0.00     0.261 C 
BRANCH   4   5
ATOM      5  O   UNL A   1      34.424  21.350  27.119  1.00  0.00    -0.460 OA
BRANCH   5   6
ATOM      6  C   UNL A   1      35.124  21.294  25.957  1.00  0.00     0.338 C 
ATOM      7  O   UNL A   1      36.329  21.152  25.827  1.00  0.00    -0.246 OA
BRANCH   6   8
ATOM      8  C   UNL A   1      34.168  21.231  24.834  1.00  0.00     0.062 A 
ATOM      9  C   UNL A   1      32.940  22.312  23.052  1.00  0.00     0.042 A 
ATOM     10  C   UNL A   1      32.221  21.125  22.851  1.00  0.00     0.026 A 
ATOM     11  C   UNL A   1      33.887  22.371  24.075  1.00  0.00     0.041 A 
ATOM     12  C   UNL A   1      32.505  19.985  23.609  1.00  0.00     0.003 A 
ATOM     13  C   UNL A   1      33.496  20.030  24.587  1.00  0.00     0.016 A 
BRANCH   9  14
ATOM     14  N   UNL A   1      32.670  23.401  22.198  1.00  0.00    -0.325 N 
ATOM     15  O   UNL A   1      34.419  24.832  22.771  1.00  0.00    -0.274 OA
ATOM     16  C   UNL A   1      33.392  24.579  22.143  1.00  0.00     0.234 C 
ATOM     17  H   UNL A   1      31.900  23.315  21.589  1.00  0.00     0.169 HD
BRANCH  16  18
ATOM     18  C   UNL A   1      32.804  25.632  21.226  1.00  0.00     0.178 C 
BRANCH  18  19
ATOM     19  S   UNL A   1      31.052  25.955  21.532  1.00  0.00    -0.078 SA
BRANCH  19  20
ATOM     20  C   UNL A   1      31.141  27.435  22.437  1.00  0.00     0.172 A 
ATOM     21  N   UNL A   1      32.283  27.881  22.838  1.00  0.00    -0.189 NA
ATOM     22  N   UNL A   1      29.955  28.071  22.607  1.00  0.00    -0.301 N 
ATOM     23  C   UNL A   1      32.259  29.087  23.478  1.00  0.00     0.218 A 
ATOM     24  C   UNL A   1      29.885  29.285  23.221  1.00  0.00     0.255 A 
ATOM     25  H   UNL A   1      29.128  27.648  22.280  1.00  0.00     0.172 HD
ATOM     26  C   UNL A   1      31.166  29.819  23.698  1.00  0.00     0.139 A 
ATOM     27  O   UNL A   1      28.838  29.908  23.345  1.00  0.00    -0.269 OA
BRANCH  23  28
ATOM     28  O   UNL A   1      33.477  29.559  23.891  1.00  0.00    -0.493 OA
ATOM     29  H   UNL A   1      34.168  29.678  23.270  1.00  0.00     0.295 HD
ENDBRANCH  23  28
ENDBRANCH  19  20
ENDBRANCH  18  19
ENDBRANCH  16  18
ENDBRANCH   9  14
ENDBRANCH   6   8
ENDBRANCH   5   6
ENDBRANCH   4   5
ENDBRANCH   3   4
ENDBRANCH   2   3
ENDBRANCH   1   2
BRANCH   1  30
ATOM     30  C   UNL A   1      30.836  26.068  26.128  1.00  0.00     0.188 C 
BRANCH  30  31
ATOM     31  O   UNL A   1      30.981  27.477  26.135  1.00  0.00    -0.376 OA
BRANCH  31  32
ATOM     32  C   UNL A   1      31.818  28.094  27.100  1.00  0.00     0.202 C 
BRANCH  32  33
ATOM     33  C   UNL A   1      32.010  29.619  27.203  1.00  0.00     0.261 C 
BRANCH  33  34
ATOM     34  O   UNL A   1      33.232  30.160  26.689  1.00  0.00    -0.460 OA
BRANCH  34  35
ATOM     35  C   UNL A   1      33.732  31.220  27.371  1.00  0.00     0.338 C 
ATOM     36  O   UNL A   1      33.132  32.222  27.722  1.00  0.00    -0.246 OA
BRANCH  35  37
ATOM     37  C   UNL A   1      35.107  30.911  27.805  1.00  0.00     0.060 A 
ATOM     38  C   UNL A   1      35.449  29.575  28.063  1.00  0.00     0.016 A 
ATOM     39  C   UNL A   1      36.033  31.934  28.007  1.00  0.00     0.016 A 
ATOM     40  C   UNL A   1      36.717  29.258  28.547  1.00  0.00     0.010 A 
ATOM     41  C   UNL A   1      37.294  31.617  28.516  1.00  0.00     0.010 A 
ATOM     42  C   UNL A   1      37.630  30.283  28.818  1.00  0.00    -0.014 A 
BRANCH  42  43
ATOM     43  C   UNL A   1      38.862  29.994  29.591  1.00  0.00     0.031 A 
ATOM     44  C   UNL A   1      39.817  28.965  29.052  1.00  0.00     0.074 A 
ATOM     45  C   UNL A   1      39.116  30.611  30.757  1.00  0.00     0.049 A 
ATOM     46  N   UNL A   1      40.899  28.474  29.593  1.00  0.00    -0.248 NA
ATOM     47  C   UNL A   1      39.503  28.409  27.724  1.00  0.00     0.031 C 
ATOM     48  C   UNL A   1      38.278  31.637  31.373  1.00  0.00     0.029 A 
ATOM     49  N   UNL A   1      40.142  30.430  31.652  1.00  0.00    -0.354 N 
ATOM     50  C   UNL A   1      41.372  27.523  28.697  1.00  0.00     0.074 A 
ATOM     51  C   UNL A   1      40.458  27.504  27.576  1.00  0.00     0.031 C 
ATOM     52  C   UNL A   1      38.803  31.968  32.566  1.00  0.00     0.029 A 
ATOM     53  C   UNL A   1      39.991  31.152  32.812  1.00  0.00     0.049 A 
ATOM     54  H   UNL A   1      40.912  29.840  31.480  1.00  0.00     0.167 HD
ATOM     55  C   UNL A   1      42.473  26.740  28.793  1.00  0.00     0.034 A 
ATOM     56  C   UNL A   1      40.709  31.129  33.953  1.00  0.00     0.034 A 
ATOM     57  C   UNL A   1      43.385  26.768  29.904  1.00  0.00     0.049 A 
ATOM     58  C   UNL A   1      41.908  30.219  34.052  1.00  0.00     0.074 A 
ATOM     59  C   UNL A   1      44.552  26.046  30.076  1.00  0.00     0.029 A 
ATOM     60  N   UNL A   1      43.223  27.543  31.042  1.00  0.00    -0.354 N 
ATOM     61  N   UNL A   1      42.404  29.401  33.155  1.00  0.00    -0.248 NA
ATOM     62  C   UNL A   1      42.665  30.251  35.313  1.00  0.00     0.031 C 
ATOM     63  C   UNL A   1      45.075  26.356  31.335  1.00  0.00     0.029 A 
ATOM     64  C   UNL A   1      44.260  27.307  31.927  1.00  0.00     0.049 A 
ATOM     65  H   UNL A   1      42.480  28.170  31.198  1.00  0.00     0.167 HD
ATOM     66  C   UNL A   1      43.551  28.857  33.725  1.00  0.00     0.074 A 
ATOM     67  C   UNL A   1      43.685  29.450  35.039  1.00  0.00     0.031 C 
ATOM     68  C   UNL A   1      44.411  27.944  33.211  1.00  0.00     0.034 A 
BRANCH  55  69
ATOM     69  C   UNL A   1      42.753  25.786  27.663  1.00  0.00     0.023 A 
ATOM     70  C   UNL A   1      43.640  26.157  26.632  1.00  0.00     0.012 A 
ATOM     71  C   UNL A   1      42.173  24.503  27.647  1.00  0.00     0.148 A 
ATOM     72  C   UNL A   1      43.917  25.279  25.584  1.00  0.00     0.002 A 
ATOM     73  C   UNL A   1      42.492  23.616  26.627  1.00  0.00     0.091 A 
ATOM     74  F   UNL A   1      41.314  24.178  28.624  1.00  0.00    -0.205 F 
ATOM     75  C   UNL A   1      43.352  24.006  25.588  1.00  0.00     0.022 A 
BRANCH  73  76
ATOM     76  S   UNL A   1      41.883  21.927  26.585  1.00  0.00     0.127 S 
ATOM     77  O   UNL A   1      40.436  22.136  26.544  1.00  0.00    -0.237 OA
ATOM     78  O   UNL A   1      42.462  21.423  25.339  1.00  0.00    -0.237 OA
ATOM     79  O   UNL A   1      42.386  21.286  27.792  1.00  0.00    -0.744 OA
ENDBRANCH  73  76
ENDBRANCH  55  69
BRANCH  56  80
ATOM     80  C   UNL A   1      40.325  32.003  35.098  1.00  0.00     0.023 A 
ATOM     81  C   UNL A   1      41.020  33.209  35.316  1.00  0.00     0.012 A 
ATOM     82  C   UNL A   1      39.280  31.646  35.971  1.00  0.00     0.148 A 
ATOM     83  C   UNL A   1      40.705  34.025  36.403  1.00  0.00     0.002 A 
ATOM     84  C   UNL A   1      38.934  32.489  37.019  1.00  0.00     0.091 A 
ATOM     85  F   UNL A   1      38.641  30.487  35.755  1.00  0.00    -0.205 F 
ATOM     86  C   UNL A   1      39.657  33.670  37.249  1.00  0.00     0.022 A 
BRANCH  84  87
ATOM     87  S   UNL A   1      37.526  32.176  38.089  1.00  0.00     0.127 S 
ATOM     88  O   UNL A   1      36.469  32.931  37.420  1.00  0.00    -0.237 OA
ATOM     89  O   UNL A   1      37.398  30.721  37.995  1.00  0.00    -0.237 OA
ATOM     90  O   UNL A   1      37.912  32.664  39.405  1.00  0.00    -0.744 OA
ENDBRANCH  84  87
ENDBRANCH  56  80
BRANCH  68  91
ATOM     91  C   UNL A   1      45.615  27.564  34.036  1.00  0.00     0.023 A 
ATOM     92  C   UNL A   1      46.819  28.286  33.912  1.00  0.00     0.012 A 
ATOM     93  C   UNL A   1      45.524  26.536  34.997  1.00  0.00     0.148 A 
ATOM     94  C   UNL A   1      47.921  27.967  34.705  1.00  0.00     0.002 A 
ATOM     95  C   UNL A   1      46.608  26.259  35.820  1.00  0.00     0.091 A 
ATOM     96  F   UNL A   1      44.375  25.850  35.090  1.00  0.00    -0.205 F 
ATOM     97  C   UNL A   1      47.813  26.964  35.666  1.00  0.00     0.022 A 
BRANCH  95  98
ATOM     98  S   UNL A   1      46.527  25.056  37.152  1.00  0.00     0.127 S 
ATOM     99  O   UNL A   1      45.405  25.559  37.940  1.00  0.00    -0.237 OA
ATOM    100  O   UNL A   1      46.258  23.813  36.428  1.00  0.00    -0.237 OA
ATOM    101  O   UNL A   1      47.824  25.101  37.816  1.00  0.00    -0.744 OA
ENDBRANCH  95  98
ENDBRANCH  68  91
ENDBRANCH  42  43
ENDBRANCH  35  37
ENDBRANCH  34  35
ENDBRANCH  33  34
ENDBRANCH  32  33
ENDBRANCH  31  32
ENDBRANCH  30  31
ENDBRANCH   1  30
TORSDOF 25
ENDMDL
MODEL 3
REMARK VINA RESULT:     -10.1      1.704      7.601
REMARK SMILES O=C(CSc1nc(O)cc(=O)[nH]1)Nc1cccc(C(=O)OCCOCCOCCOC(=O)c2ccc(-c3c4nc(c(-c5cccc(S(=O)(=O)[O-])c5F)c5ccc([nH]5)c(-c5cccc(S(=O)(=O)[O-])c5F)c5nc(c(-c6cccc(S(=O)(=O)[O-])c6F)c6ccc3[nH]6)C=C5)C=C4)cc2)c1
REMARK SMILES IDX 25 1 24 2 23 3 22 4 21 5 19 6 20 7 18 8 14 9 15 10 96 11
REMARK SMILES IDX 16 12 17 13 13 14 1 15 2 16 3 18 4 19 5 20 6 21 12 22 7 23
REMARK SMILES IDX 10 24 9 26 11 27 8 28 26 30 27 31 28 32 29 33 30 34 31 35
REMARK SMILES IDX 32 36 33 37 34 38 95 39 35 40 94 41 36 42 37 43 38 44 88 45
REMARK SMILES IDX 39 46 93 47 87 48 89 49 40 50 92 51 86 52 85 53 41 55 73 56
REMARK SMILES IDX 53 57 72 58 54 59 57 60 71 61 90 62 55 63 56 64 70 66 91 67
REMARK SMILES IDX 58 68 42 69 43 70 51 71 44 72 46 73 52 74 45 75 47 76 48 77
REMARK SMILES IDX 49 78 50 79 74 80 75 81 83 82 76 83 78 84 84 85 77 86 79 87
REMARK SMILES IDX 80 88 81 89 82 90 59 91 60 92 68 93 61 94 63 95 69 96 62 97
REMARK SMILES IDX 64 98 65 99 66 100 67 101
REMARK H PARENT 13 17 12 25 8 29 89 54 57 65
REMARK Flexibility Score: inf
ROOT
ATOM      1  C   UNL A   1      32.136  25.319  26.460  1.00  0.00     0.188 C 
ENDROOT
BRANCH   1   2
ATOM      2  O   UNL A   1      31.920  23.930  26.464  1.00  0.00    -0.376 OA
BRANCH   2   3
ATOM      3  C   UNL A   1      32.644  23.085  27.343  1.00  0.00     0.202 C 
BRANCH   3   4
ATOM      4  C   UNL A   1      34.147  22.749  27.255  1.00  0.00     0.261 C 
BRANCH   4   5
ATOM      5  O   UNL A   1      34.519  21.396  26.990  1.00  0.00    -0.460 OA
BRANCH   5   6
ATOM      6  C   UNL A   1      35.149  21.174  25.808  1.00  0.00     0.338 C 
ATOM      7  O   UNL A   1      36.320  20.874  25.641  1.00  0.00    -0.246 OA
BRANCH   6   8
ATOM      8  C   UNL A   1      34.139  21.156  24.732  1.00  0.00     0.062 A 
ATOM      9  C   UNL A   1      32.844  22.304  23.041  1.00  0.00     0.042 A 
ATOM     10  C   UNL A   1      32.096  21.134  22.844  1.00  0.00     0.026 A 
ATOM     11  C   UNL A   1      33.841  22.320  24.018  1.00  0.00     0.041 A 
ATOM     12  C   UNL A   1      32.398  19.969  23.557  1.00  0.00     0.003 A 
ATOM     13  C   UNL A   1      33.436  19.972  24.487  1.00  0.00     0.016 A 
BRANCH   9  14
ATOM     14  N   UNL A   1      32.551  23.418  22.230  1.00  0.00    -0.325 N 
ATOM     15  O   UNL A   1      34.475  24.694  22.554  1.00  0.00    -0.274 OA
ATOM     16  C   UNL A   1      33.355  24.534  22.073  1.00  0.00     0.234 C 
ATOM     17  H   UNL A   1      31.701  23.403  21.734  1.00  0.00     0.169 HD
BRANCH  16  18
ATOM     18  C   UNL A   1      32.736  25.640  21.244  1.00  0.00     0.178 C 
BRANCH  18  19
ATOM     19  S   UNL A   1      30.991  25.930  21.618  1.00  0.00    -0.078 SA
BRANCH  19  20
ATOM     20  C   UNL A   1      31.080  27.445  22.463  1.00  0.00     0.172 A 
ATOM     21  N   UNL A   1      32.221  27.905  22.848  1.00  0.00    -0.189 NA
ATOM     22  N   UNL A   1      29.894  28.089  22.605  1.00  0.00    -0.301 N 
ATOM     23  C   UNL A   1      32.198  29.136  23.438  1.00  0.00     0.218 A 
ATOM     24  C   UNL A   1      29.825  29.326  23.169  1.00  0.00     0.255 A 
ATOM     25  H   UNL A   1      29.068  27.653  22.293  1.00  0.00     0.172 HD
ATOM     26  C   UNL A   1      31.105  29.878  23.626  1.00  0.00     0.139 A 
ATOM     27  O   UNL A   1      28.778  29.954  23.266  1.00  0.00    -0.269 OA
BRANCH  23  28
ATOM     28  O   UNL A   1      33.415  29.623  23.834  1.00  0.00    -0.493 OA
ATOM     29  H   UNL A   1      34.028  29.059  24.264  1.00  0.00     0.295 HD
ENDBRANCH  23  28
ENDBRANCH  19  20
ENDBRANCH  18  19
ENDBRANCH  16  18
ENDBRANCH   9  14
ENDBRANCH   6   8
ENDBRANCH   5   6
ENDBRANCH   4   5
ENDBRANCH   3   4
ENDBRANCH   2   3
ENDBRANCH   1   2
BRANCH   1  30
ATOM     30  C   UNL A   1      30.893  26.196  26.198  1.00  0.00     0.188 C 
BRANCH  30  31
ATOM     31  O   UNL A   1      31.005  27.607  26.142  1.00  0.00    -0.376 OA
BRANCH  31  32
ATOM     32  C   UNL A   1      31.960  28.270  26.954  1.00  0.00     0.202 C 
BRANCH  32  33
ATOM     33  C   UNL A   1      32.019  29.802  27.112  1.00  0.00     0.261 C 
BRANCH  33  34
ATOM     34  O   UNL A   1      33.168  30.469  26.580  1.00  0.00    -0.460 OA
BRANCH  34  35
ATOM     35  C   UNL A   1      33.749  31.374  27.407  1.00  0.00     0.338 C 
ATOM     36  O   UNL A   1      33.235  32.364  27.898  1.00  0.00    -0.246 OA
BRANCH  35  37
ATOM     37  C   UNL A   1      35.087  30.887  27.792  1.00  0.00     0.060 A 
ATOM     38  C   UNL A   1      35.320  29.504  27.821  1.00  0.00     0.016 A 
ATOM     39  C   UNL A   1      36.085  31.784  28.172  1.00  0.00     0.016 A 
ATOM     40  C   UNL A   1      36.549  29.009  28.253  1.00  0.00     0.010 A 
ATOM     41  C   UNL A   1      37.308  31.286  28.629  1.00  0.00     0.010 A 
ATOM     42  C   UNL A   1      37.533  29.898  28.701  1.00  0.00    -0.014 A 
BRANCH  42  43
ATOM     43  C   UNL A   1      38.723  29.384  29.422  1.00  0.00     0.031 A 
ATOM     44  C   UNL A   1      39.064  29.987  30.757  1.00  0.00     0.074 A 
ATOM     45  C   UNL A   1      39.499  28.422  28.894  1.00  0.00     0.049 A 
ATOM     46  N   UNL A   1      40.100  29.776  31.522  1.00  0.00    -0.248 NA
ATOM     47  C   UNL A   1      38.106  30.968  31.297  1.00  0.00     0.031 C 
ATOM     48  C   UNL A   1      39.263  27.749  27.618  1.00  0.00     0.029 A 
ATOM     49  N   UNL A   1      40.670  27.874  29.355  1.00  0.00    -0.354 N 
ATOM     50  C   UNL A   1      39.945  30.625  32.611  1.00  0.00     0.074 A 
ATOM     51  C   UNL A   1      38.714  31.357  32.407  1.00  0.00     0.031 C 
ATOM     52  C   UNL A   1      40.281  26.903  27.380  1.00  0.00     0.029 A 
ATOM     53  C   UNL A   1      41.255  27.004  28.466  1.00  0.00     0.049 A 
ATOM     54  H   UNL A   1      41.054  28.084  30.237  1.00  0.00     0.167 HD
ATOM     55  C   UNL A   1      40.751  30.777  33.689  1.00  0.00     0.034 A 
ATOM     56  C   UNL A   1      42.454  26.390  28.508  1.00  0.00     0.034 A 
ATOM     57  C   UNL A   1      41.968  30.042  33.893  1.00  0.00     0.049 A 
ATOM     58  C   UNL A   1      43.353  26.607  29.701  1.00  0.00     0.074 A 
ATOM     59  C   UNL A   1      42.832  30.093  34.972  1.00  0.00     0.029 A 
ATOM     60  N   UNL A   1      42.508  29.138  32.991  1.00  0.00    -0.354 N 
ATOM     61  N   UNL A   1      43.146  27.332  30.772  1.00  0.00    -0.248 NA
ATOM     62  C   UNL A   1      44.640  25.894  29.702  1.00  0.00     0.031 C 
ATOM     63  C   UNL A   1      43.914  29.248  34.704  1.00  0.00     0.029 A 
ATOM     64  C   UNL A   1      43.700  28.635  33.482  1.00  0.00     0.049 A 
ATOM     65  H   UNL A   1      42.103  28.890  32.128  1.00  0.00     0.167 HD
ATOM     66  C   UNL A   1      44.253  27.130  31.592  1.00  0.00     0.074 A 
ATOM     67  C   UNL A   1      45.120  26.201  30.899  1.00  0.00     0.031 C 
ATOM     68  C   UNL A   1      44.529  27.669  32.805  1.00  0.00     0.034 A 
BRANCH  55  69
ATOM     69  C   UNL A   1      40.337  31.780  34.733  1.00  0.00     0.023 A 
ATOM     70  C   UNL A   1      40.832  33.099  34.677  1.00  0.00     0.012 A 
ATOM     71  C   UNL A   1      39.420  31.429  35.742  1.00  0.00     0.148 A 
ATOM     72  C   UNL A   1      40.449  34.043  35.630  1.00  0.00     0.002 A 
ATOM     73  C   UNL A   1      39.006  32.387  36.659  1.00  0.00     0.091 A 
ATOM     74  F   UNL A   1      38.980  30.163  35.793  1.00  0.00    -0.205 F 
ATOM     75  C   UNL A   1      39.528  33.688  36.613  1.00  0.00     0.022 A 
BRANCH  73  76
ATOM     76  S   UNL A   1      37.762  32.054  37.912  1.00  0.00     0.127 S 
ATOM     77  O   UNL A   1      38.492  32.365  39.141  1.00  0.00    -0.237 OA
ATOM     78  O   UNL A   1      36.714  33.015  37.566  1.00  0.00    -0.237 OA
ATOM     79  O   UNL A   1      37.386  30.657  37.747  1.00  0.00    -0.744 OA
ENDBRANCH  73  76
ENDBRANCH  55  69
BRANCH  56  80
ATOM     80  C   UNL A   1      42.879  25.498  27.392  1.00  0.00     0.023 A 
ATOM     81  C   UNL A   1      43.733  25.997  26.389  1.00  0.00     0.012 A 
ATOM     82  C   UNL A   1      42.441  24.162  27.317  1.00  0.00     0.148 A 
ATOM     83  C   UNL A   1      44.114  25.194  25.314  1.00  0.00     0.002 A 
ATOM     84  C   UNL A   1      42.867  23.350  26.274  1.00  0.00     0.091 A 
ATOM     85  F   UNL A   1      41.616  23.711  28.273  1.00  0.00    -0.205 F 
ATOM     86  C   UNL A   1      43.689  23.868  25.261  1.00  0.00     0.022 A 
BRANCH  84  87
ATOM     87  S   UNL A   1      42.468  21.602  26.183  1.00  0.00     0.127 S 
ATOM     88  O   UNL A   1      43.552  21.090  25.349  1.00  0.00    -0.237 OA
ATOM     89  O   UNL A   1      42.534  21.207  27.591  1.00  0.00    -0.237 OA
ATOM     90  O   UNL A   1      41.136  21.530  25.599  1.00  0.00    -0.744 OA
ENDBRANCH  84  87
ENDBRANCH  56  80
BRANCH  68  91
ATOM     91  C   UNL A   1      45.793  27.230  33.502  1.00  0.00     0.023 A 
ATOM     92  C   UNL A   1      46.972  27.992  33.383  1.00  0.00     0.012 A 
ATOM     93  C   UNL A   1      45.785  26.098  34.342  1.00  0.00     0.148 A 
ATOM     94  C   UNL A   1      48.131  27.614  34.061  1.00  0.00     0.002 A 
ATOM     95  C   UNL A   1      46.927  25.758  35.056  1.00  0.00     0.091 A 
ATOM     96  F   UNL A   1      44.658  25.376  34.430  1.00  0.00    -0.205 F 
ATOM     97  C   UNL A   1      48.106  26.507  34.906  1.00  0.00     0.022 A 
BRANCH  95  98
ATOM     98  S   UNL A   1      46.959  24.410  36.244  1.00  0.00     0.127 S 
ATOM     99  O   UNL A   1      48.291  24.557  36.826  1.00  0.00    -0.237 OA
ATOM    100  O   UNL A   1      45.857  24.763  37.140  1.00  0.00    -0.237 OA
ATOM    101  O   UNL A   1      46.746  23.190  35.475  1.00  0.00    -0.744 OA
ENDBRANCH  95  98
ENDBRANCH  68  91
ENDBRANCH  42  43
ENDBRANCH  35  37
ENDBRANCH  34  35
ENDBRANCH  33  34
ENDBRANCH  32  33
ENDBRANCH  31  32
ENDBRANCH  30  31
ENDBRANCH   1  30
TORSDOF 25
ENDMDL
