MODEL 1
REMARK VINA RESULT:     -10.9      0.000      0.000
REMARK SMILES Cc1c(CC(=O)N[C@H](CO)C(=O)OCCOCCOCCOC(=O)c2ccc(-c3c4nc(c(-c5cccc(S(=O)(=O)[O-])c5F)c5ccc([nH]5)c(-c5cccc(S(=O)(=O)[O-])c5F)c5nc(c(-c6cccc(S(=O)(=O)[O-])c6F)c6ccc3[nH]6)C=C5)C=C4)cc2)cc(-c2ccc(S(C)(=O)=O)cc2)n1-c1cccc(F)c1
REMARK SMILES IDX 17 1 16 2 15 3 14 4 13 5 11 6 12 7 8 8 7 9 5 10 6 11 4 13
REMARK SMILES IDX 3 14 1 15 2 16 100 17 88 18 89 19 101 20 102 21 107 22
REMARK SMILES IDX 103 23 105 24 104 25 106 26 90 27 91 28 99 29 92 30 98 31
REMARK SMILES IDX 93 32 94 33 95 34 96 35 97 36 9 37 10 38 18 40 19 41 20 42
REMARK SMILES IDX 21 43 22 44 23 45 24 46 25 47 26 48 87 49 27 50 86 51 28 52
REMARK SMILES IDX 29 53 30 54 80 55 31 56 85 57 79 58 81 59 32 60 84 61 78 62
REMARK SMILES IDX 77 63 33 65 65 66 45 67 64 68 46 69 49 70 63 71 82 72 47 73
REMARK SMILES IDX 48 74 62 76 83 77 50 78 34 79 35 80 43 81 36 82 38 83 44 84
REMARK SMILES IDX 37 85 39 86 40 87 41 88 42 89 66 90 67 91 75 92 68 93 70 94
REMARK SMILES IDX 76 95 69 96 71 97 72 98 73 99 74 100 51 101 52 102 60 103
REMARK SMILES IDX 53 104 55 105 61 106 54 107 56 108 57 109 58 110 59 111
REMARK H PARENT 7 12 10 39 81 64 49 75
REMARK Flexibility Score: inf
ROOT
ATOM      1  C   UNL A   1      33.729  27.131  26.140  1.00  0.00     0.188 C 
ENDROOT
BRANCH   1   2
ATOM      2  O   UNL A   1      33.821  28.579  25.687  1.00  0.00    -0.376 OA
BRANCH   2   3
ATOM      3  C   UNL A   1      33.308  29.962  26.300  1.00  0.00     0.202 C 
BRANCH   3   4
ATOM      4  C   UNL A   1      34.104  30.966  27.691  1.00  0.00     0.261 C 
BRANCH   4   5
ATOM      5  O   UNL A   1      34.151  32.697  28.132  1.00  0.00    -0.462 OA
BRANCH   5   6
ATOM      6  C   UNL A   1      33.313  33.902  28.376  1.00  0.00     0.331 C 
ATOM      7  O   UNL A   1      32.298  34.226  27.757  1.00  0.00    -0.250 OA
BRANCH   6   8
ATOM      8  C   UNL A   1      33.784  34.969  29.395  1.00  0.00     0.218 C 
BRANCH   8   9
ATOM      9  N   UNL A   1      33.084  34.668  30.563  1.00  0.00    -0.341 N 
ATOM     10  C   UNL A   1      33.990  34.244  31.503  1.00  0.00     0.225 C 
ATOM     11  O   UNL A   1      33.570  33.693  32.522  1.00  0.00    -0.275 OA
ATOM     12  H   UNL A   1      32.111  34.746  30.691  1.00  0.00     0.164 HD
BRANCH  10  13
ATOM     13  C   UNL A   1      35.592  34.481  31.121  1.00  0.00     0.137 C 
BRANCH  13  14
ATOM     14  C   UNL A   1      37.195  34.346  32.078  1.00  0.00    -0.017 A 
ATOM     15  C   UNL A   1      39.824  34.191  31.104  1.00  0.00     0.065 C 
ATOM     16  C   UNL A   1      38.644  34.135  32.092  1.00  0.00     0.024 A 
ATOM     17  N   UNL A   1      39.025  33.811  33.431  1.00  0.00    -0.313 N 
ATOM     18  C   UNL A   1      37.074  34.305  33.459  1.00  0.00     0.033 A 
ATOM     19  C   UNL A   1      37.894  33.386  34.114  1.00  0.00     0.053 A 
BRANCH  17  20
ATOM     20  C   UNL A   1      40.250  34.156  34.057  1.00  0.00     0.049 A 
ATOM     21  C   UNL A   1      41.282  33.223  34.182  1.00  0.00     0.027 A 
ATOM     22  C   UNL A   1      40.339  35.408  34.679  1.00  0.00     0.065 A 
ATOM     23  C   UNL A   1      42.405  33.545  34.940  1.00  0.00     0.005 A 
ATOM     24  C   UNL A   1      41.468  35.715  35.415  1.00  0.00     0.125 A 
ATOM     25  C   UNL A   1      42.498  34.793  35.557  1.00  0.00     0.039 A 
ATOM     26  F   UNL A   1      41.553  36.907  36.019  1.00  0.00    -0.207 F 
ENDBRANCH  17  20
BRANCH  19  27
ATOM     27  C   UNL A   1      37.770  32.835  35.514  1.00  0.00    -0.001 A 
ATOM     28  C   UNL A   1      37.115  33.616  36.445  1.00  0.00     0.011 A 
ATOM     29  C   UNL A   1      38.103  31.551  35.985  1.00  0.00     0.011 A 
ATOM     30  C   UNL A   1      36.898  33.303  37.774  1.00  0.00     0.021 A 
ATOM     31  C   UNL A   1      37.822  31.161  37.341  1.00  0.00     0.021 A 
ATOM     32  C   UNL A   1      37.267  32.076  38.244  1.00  0.00     0.067 A 
BRANCH  32  33
ATOM     33  S   UNL A   1      36.791  31.684  39.912  1.00  0.00     0.175 S 
ATOM     34  C   UNL A   1      36.944  33.196  40.864  1.00  0.00     0.163 C 
ATOM     35  O   UNL A   1      35.361  31.379  39.783  1.00  0.00    -0.224 OA
ATOM     36  O   UNL A   1      37.703  30.717  40.412  1.00  0.00    -0.224 OA
ENDBRANCH  32  33
ENDBRANCH  19  27
ENDBRANCH  13  14
ENDBRANCH  10  13
ENDBRANCH   8   9
BRANCH   8  37
ATOM     37  C   UNL A   1      33.909  36.377  28.827  1.00  0.00     0.193 C 
BRANCH  37  38
ATOM     38  O   UNL A   1      34.583  36.302  27.546  1.00  0.00    -0.394 OA
ATOM     39  H   UNL A   1      34.035  35.800  26.923  1.00  0.00     0.210 HD
ENDBRANCH  37  38
ENDBRANCH   8  37
ENDBRANCH   6   8
ENDBRANCH   5   6
ENDBRANCH   4   5
ENDBRANCH   3   4
ENDBRANCH   2   3
ENDBRANCH   1   2
BRANCH   1  40
ATOM     40  C   UNL A   1      33.995  25.548  25.252  1.00  0.00     0.188 C 
BRANCH  40  41
ATOM     41  O   UNL A   1      34.662  24.266  25.599  1.00  0.00    -0.376 OA
BRANCH  41  42
ATOM     42  C   UNL A   1      35.406  23.329  24.788  1.00  0.00     0.202 C 
BRANCH  42  43
ATOM     43  C   UNL A   1      36.977  23.108  24.805  1.00  0.00     0.261 C 
BRANCH  43  44
ATOM     44  O   UNL A   1      37.783  23.315  26.009  1.00  0.00    -0.460 OA
BRANCH  44  45
ATOM     45  C   UNL A   1      38.875  22.524  26.246  1.00  0.00     0.338 C 
ATOM     46  O   UNL A   1      38.959  21.387  25.805  1.00  0.00    -0.246 OA
BRANCH  45  47
ATOM     47  C   UNL A   1      40.033  23.255  26.970  1.00  0.00     0.060 A 
ATOM     48  C   UNL A   1      40.254  24.616  26.731  1.00  0.00     0.016 A 
ATOM     49  C   UNL A   1      41.013  22.653  27.777  1.00  0.00     0.016 A 
ATOM     50  C   UNL A   1      41.364  25.356  27.333  1.00  0.00     0.010 A 
ATOM     51  C   UNL A   1      42.150  23.403  28.363  1.00  0.00     0.010 A 
ATOM     52  C   UNL A   1      42.385  24.797  28.190  1.00  0.00    -0.014 A 
BRANCH  52  53
ATOM     53  C   UNL A   1      43.923  25.468  28.085  1.00  0.00     0.031 A 
ATOM     54  C   UNL A   1      44.062  25.850  29.514  1.00  0.00     0.074 A 
ATOM     55  C   UNL A   1      44.943  25.940  27.221  1.00  0.00     0.049 A 
ATOM     56  N   UNL A   1      43.069  26.528  30.016  1.00  0.00    -0.248 NA
ATOM     57  C   UNL A   1      44.909  25.229  30.522  1.00  0.00     0.031 C 
ATOM     58  C   UNL A   1      44.932  25.993  25.743  1.00  0.00     0.029 A 
ATOM     59  N   UNL A   1      46.260  26.530  27.435  1.00  0.00    -0.354 N 
ATOM     60  C   UNL A   1      43.349  26.779  31.315  1.00  0.00     0.074 A 
ATOM     61  C   UNL A   1      44.353  25.759  31.626  1.00  0.00     0.031 C 
ATOM     62  C   UNL A   1      46.133  26.395  25.212  1.00  0.00     0.029 A 
ATOM     63  C   UNL A   1      47.109  26.738  26.252  1.00  0.00     0.049 A 
ATOM     64  H   UNL A   1      46.567  26.781  28.336  1.00  0.00     0.167 HD
ATOM     65  C   UNL A   1      43.329  28.125  31.541  1.00  0.00     0.034 A 
ATOM     66  C   UNL A   1      48.422  27.243  26.093  1.00  0.00     0.034 A 
ATOM     67  C   UNL A   1      44.656  28.672  31.474  1.00  0.00     0.049 A 
ATOM     68  C   UNL A   1      48.566  28.190  27.203  1.00  0.00     0.074 A 
ATOM     69  C   UNL A   1      45.867  28.211  31.961  1.00  0.00     0.029 A 
ATOM     70  N   UNL A   1      44.940  29.543  30.446  1.00  0.00    -0.354 N 
ATOM     71  N   UNL A   1      48.069  29.388  27.123  1.00  0.00    -0.248 NA
ATOM     72  C   UNL A   1      49.372  27.925  28.385  1.00  0.00     0.031 C 
ATOM     73  C   UNL A   1      46.782  28.430  30.917  1.00  0.00     0.029 A 
ATOM     74  C   UNL A   1      46.258  29.389  30.063  1.00  0.00     0.049 A 
ATOM     75  H   UNL A   1      44.303  30.177  30.045  1.00  0.00     0.167 HD
ATOM     76  C   UNL A   1      47.963  29.737  28.431  1.00  0.00     0.074 A 
ATOM     77  C   UNL A   1      49.012  28.990  29.106  1.00  0.00     0.031 C 
ATOM     78  C   UNL A   1      46.710  30.031  28.857  1.00  0.00     0.034 A 
BRANCH  65  79
ATOM     79  C   UNL A   1      42.054  28.780  30.987  1.00  0.00     0.023 A 
ATOM     80  C   UNL A   1      42.254  29.844  30.092  1.00  0.00     0.012 A 
ATOM     81  C   UNL A   1      40.730  28.557  31.485  1.00  0.00     0.148 A 
ATOM     82  C   UNL A   1      41.194  30.677  29.719  1.00  0.00     0.002 A 
ATOM     83  C   UNL A   1      39.694  29.438  31.162  1.00  0.00     0.091 A 
ATOM     84  F   UNL A   1      40.508  27.515  32.300  1.00  0.00    -0.205 F 
ATOM     85  C   UNL A   1      39.928  30.491  30.269  1.00  0.00     0.022 A 
BRANCH  83  86
ATOM     86  S   UNL A   1      38.073  29.444  31.973  1.00  0.00     0.127 S 
ATOM     87  O   UNL A   1      37.896  30.868  32.289  1.00  0.00    -0.237 OA
ATOM     88  O   UNL A   1      37.182  28.958  30.928  1.00  0.00    -0.237 OA
ATOM     89  O   UNL A   1      38.188  28.593  33.150  1.00  0.00    -0.744 OA
ENDBRANCH  83  86
ENDBRANCH  65  79
BRANCH  66  90
ATOM     90  C   UNL A   1      49.701  27.498  25.151  1.00  0.00     0.023 A 
ATOM     91  C   UNL A   1      51.027  27.309  25.708  1.00  0.00     0.012 A 
ATOM     92  C   UNL A   1      49.682  27.451  23.736  1.00  0.00     0.148 A 
ATOM     93  C   UNL A   1      52.185  26.981  24.967  1.00  0.00     0.002 A 
ATOM     94  C   UNL A   1      50.863  27.148  22.984  1.00  0.00     0.091 A 
ATOM     95  F   UNL A   1      48.507  27.607  23.116  1.00  0.00    -0.205 F 
ATOM     96  C   UNL A   1      52.098  26.883  23.597  1.00  0.00     0.022 A 
BRANCH  94  97
ATOM     97  S   UNL A   1      50.900  26.966  21.181  1.00  0.00     0.127 S 
ATOM     98  O   UNL A   1      52.120  26.185  20.959  1.00  0.00    -0.237 OA
ATOM     99  O   UNL A   1      49.663  26.229  20.927  1.00  0.00    -0.237 OA
ATOM    100  O   UNL A   1      50.948  28.322  20.658  1.00  0.00    -0.744 OA
ENDBRANCH  94  97
ENDBRANCH  66  90
BRANCH  78 101
ATOM    101  C   UNL A   1      45.845  30.883  27.944  1.00  0.00     0.023 A 
ATOM    102  C   UNL A   1      44.696  30.436  27.252  1.00  0.00     0.012 A 
ATOM    103  C   UNL A   1      46.261  32.203  27.719  1.00  0.00     0.148 A 
ATOM    104  C   UNL A   1      44.027  31.254  26.332  1.00  0.00     0.002 A 
ATOM    105  C   UNL A   1      45.570  33.033  26.844  1.00  0.00     0.091 A 
ATOM    106  F   UNL A   1      47.369  32.628  28.345  1.00  0.00    -0.205 F 
ATOM    107  C   UNL A   1      44.459  32.561  26.135  1.00  0.00     0.022 A 
BRANCH 105 108
ATOM    108  S   UNL A   1      46.109  34.723  26.597  1.00  0.00     0.127 S 
ATOM    109  O   UNL A   1      45.301  35.130  25.448  1.00  0.00    -0.237 OA
ATOM    110  O   UNL A   1      45.751  35.381  27.851  1.00  0.00    -0.237 OA
ATOM    111  O   UNL A   1      47.545  34.635  26.351  1.00  0.00    -0.744 OA
ENDBRANCH 105 108
ENDBRANCH  78 101
ENDBRANCH  52  53
ENDBRANCH  45  47
ENDBRANCH  44  45
ENDBRANCH  43  44
ENDBRANCH  42  43
ENDBRANCH  41  42
ENDBRANCH  40  41
ENDBRANCH   1  40
TORSDOF 28
ENDMDL
MODEL 2
REMARK VINA RESULT:     -10.2      1.878      2.415
REMARK SMILES Cc1c(CC(=O)N[C@H](CO)C(=O)OCCOCCOCCOC(=O)c2ccc(-c3c4nc(c(-c5cccc(S(=O)(=O)[O-])c5F)c5ccc([nH]5)c(-c5cccc(S(=O)(=O)[O-])c5F)c5nc(c(-c6cccc(S(=O)(=O)[O-])c6F)c6ccc3[nH]6)C=C5)C=C4)cc2)cc(-c2ccc(S(C)(=O)=O)cc2)n1-c1cccc(F)c1
REMARK SMILES IDX 17 1 16 2 15 3 14 4 13 5 11 6 12 7 8 8 7 9 5 10 6 11 4 13
REMARK SMILES IDX 3 14 1 15 2 16 100 17 88 18 89 19 101 20 102 21 107 22
REMARK SMILES IDX 103 23 105 24 104 25 106 26 90 27 91 28 99 29 92 30 98 31
REMARK SMILES IDX 93 32 94 33 95 34 96 35 97 36 9 37 10 38 18 40 19 41 20 42
REMARK SMILES IDX 21 43 22 44 23 45 24 46 25 47 26 48 87 49 27 50 86 51 28 52
REMARK SMILES IDX 29 53 30 54 80 55 31 56 85 57 79 58 81 59 32 60 84 61 78 62
REMARK SMILES IDX 77 63 33 65 65 66 45 67 64 68 46 69 49 70 63 71 82 72 47 73
REMARK SMILES IDX 48 74 62 76 83 77 50 78 34 79 35 80 43 81 36 82 38 83 44 84
REMARK SMILES IDX 37 85 39 86 40 87 41 88 42 89 66 90 67 91 75 92 68 93 70 94
REMARK SMILES IDX 76 95 69 96 71 97 72 98 73 99 74 100 51 101 52 102 60 103
REMARK SMILES IDX 53 104 55 105 61 106 54 107 56 108 57 109 58 110 59 111
REMARK H PARENT 7 12 10 39 81 64 49 75
REMARK Flexibility Score: inf
ROOT
ATOM      1  C   UNL A   1      33.818  27.617  26.499  1.00  0.00     0.188 C 
ENDROOT
BRANCH   1   2
ATOM      2  O   UNL A   1      33.718  29.048  25.998  1.00  0.00    -0.376 OA
BRANCH   2   3
ATOM      3  C   UNL A   1      33.290  30.428  26.677  1.00  0.00     0.202 C 
BRANCH   3   4
ATOM      4  C   UNL A   1      34.333  31.517  27.819  1.00  0.00     0.261 C 
BRANCH   4   5
ATOM      5  O   UNL A   1      34.272  33.226  28.338  1.00  0.00    -0.462 OA
BRANCH   5   6
ATOM      6  C   UNL A   1      33.699  34.161  29.344  1.00  0.00     0.331 C 
ATOM      7  O   UNL A   1      32.873  35.050  29.130  1.00  0.00    -0.250 OA
BRANCH   6   8
ATOM      8  C   UNL A   1      34.258  34.169  30.788  1.00  0.00     0.218 C 
BRANCH   8   9
ATOM      9  N   UNL A   1      34.239  32.830  31.176  1.00  0.00    -0.341 N 
ATOM     10  C   UNL A   1      35.538  32.417  31.340  1.00  0.00     0.225 C 
ATOM     11  O   UNL A   1      35.766  31.210  31.438  1.00  0.00    -0.275 OA
ATOM     12  H   UNL A   1      33.434  32.278  31.310  1.00  0.00     0.164 HD
BRANCH  10  13
ATOM     13  C   UNL A   1      36.686  33.621  31.332  1.00  0.00     0.137 C 
BRANCH  13  14
ATOM     14  C   UNL A   1      38.484  33.712  31.839  1.00  0.00    -0.017 A 
ATOM     15  C   UNL A   1      40.692  32.345  30.769  1.00  0.00     0.065 C 
ATOM     16  C   UNL A   1      39.854  33.204  31.735  1.00  0.00     0.024 A 
ATOM     17  N   UNL A   1      40.588  33.691  32.861  1.00  0.00    -0.313 N 
ATOM     18  C   UNL A   1      38.773  34.561  32.898  1.00  0.00     0.033 A 
ATOM     19  C   UNL A   1      39.679  34.074  33.838  1.00  0.00     0.053 A 
BRANCH  17  20
ATOM     20  C   UNL A   1      41.965  34.030  32.876  1.00  0.00     0.049 A 
ATOM     21  C   UNL A   1      42.906  33.192  33.477  1.00  0.00     0.027 A 
ATOM     22  C   UNL A   1      42.332  35.299  32.409  1.00  0.00     0.065 A 
ATOM     23  C   UNL A   1      44.221  33.629  33.616  1.00  0.00     0.005 A 
ATOM     24  C   UNL A   1      43.646  35.711  32.542  1.00  0.00     0.125 A 
ATOM     25  C   UNL A   1      44.590  34.890  33.147  1.00  0.00     0.039 A 
ATOM     26  F   UNL A   1      43.999  36.926  32.104  1.00  0.00    -0.207 F 
ENDBRANCH  17  20
BRANCH  19  27
ATOM     27  C   UNL A   1      39.933  34.554  35.247  1.00  0.00    -0.001 A 
ATOM     28  C   UNL A   1      40.326  33.611  36.175  1.00  0.00     0.011 A 
ATOM     29  C   UNL A   1      39.970  35.875  35.731  1.00  0.00     0.011 A 
ATOM     30  C   UNL A   1      40.602  33.837  37.511  1.00  0.00     0.021 A 
ATOM     31  C   UNL A   1      40.328  36.158  37.095  1.00  0.00     0.021 A 
ATOM     32  C   UNL A   1      40.588  35.114  37.993  1.00  0.00     0.067 A 
BRANCH  32  33
ATOM     33  S   UNL A   1      41.129  35.340  39.671  1.00  0.00     0.175 S 
ATOM     34  C   UNL A   1      40.056  36.578  40.400  1.00  0.00     0.163 C 
ATOM     35  O   UNL A   1      40.813  34.050  40.295  1.00  0.00    -0.224 OA
ATOM     36  O   UNL A   1      42.462  35.830  39.640  1.00  0.00    -0.224 OA
ENDBRANCH  32  33
ENDBRANCH  19  27
ENDBRANCH  13  14
ENDBRANCH  10  13
ENDBRANCH   8   9
BRANCH   8  37
ATOM     37  C   UNL A   1      33.744  35.307  31.661  1.00  0.00     0.193 C 
BRANCH  37  38
ATOM     38  O   UNL A   1      33.696  34.851  33.036  1.00  0.00    -0.394 OA
ATOM     39  H   UNL A   1      34.591  34.619  33.330  1.00  0.00     0.210 HD
ENDBRANCH  37  38
ENDBRANCH   8  37
ENDBRANCH   6   8
ENDBRANCH   5   6
ENDBRANCH   4   5
ENDBRANCH   3   4
ENDBRANCH   2   3
ENDBRANCH   1   2
BRANCH   1  40
ATOM     40  C   UNL A   1      33.855  26.007  25.620  1.00  0.00     0.188 C 
BRANCH  40  41
ATOM     41  O   UNL A   1      34.488  24.691  25.896  1.00  0.00    -0.376 OA
BRANCH  41  42
ATOM     42  C   UNL A   1      35.043  23.696  25.007  1.00  0.00     0.202 C 
BRANCH  42  43
ATOM     43  C   UNL A   1      36.572  23.292  24.883  1.00  0.00     0.261 C 
BRANCH  43  44
ATOM     44  O   UNL A   1      37.519  23.464  25.986  1.00  0.00    -0.460 OA
BRANCH  44  45
ATOM     45  C   UNL A   1      38.546  22.575  26.152  1.00  0.00     0.338 C 
ATOM     46  O   UNL A   1      38.520  21.456  25.661  1.00  0.00    -0.246 OA
BRANCH  45  47
ATOM     47  C   UNL A   1      39.783  23.174  26.866  1.00  0.00     0.060 A 
ATOM     48  C   UNL A   1      40.033  24.549  26.792  1.00  0.00     0.016 A 
ATOM     49  C   UNL A   1      40.804  22.445  27.501  1.00  0.00     0.016 A 
ATOM     50  C   UNL A   1      41.214  25.173  27.390  1.00  0.00     0.010 A 
ATOM     51  C   UNL A   1      42.010  23.082  28.083  1.00  0.00     0.010 A 
ATOM     52  C   UNL A   1      42.279  24.479  28.076  1.00  0.00    -0.014 A 
BRANCH  52  53
ATOM     53  C   UNL A   1      43.827  25.121  27.932  1.00  0.00     0.031 A 
ATOM     54  C   UNL A   1      44.079  25.339  29.380  1.00  0.00     0.074 A 
ATOM     55  C   UNL A   1      44.798  25.661  27.051  1.00  0.00     0.049 A 
ATOM     56  N   UNL A   1      43.146  25.980  30.025  1.00  0.00    -0.248 NA
ATOM     57  C   UNL A   1      44.975  24.589  30.248  1.00  0.00     0.031 C 
ATOM     58  C   UNL A   1      44.684  25.878  25.592  1.00  0.00     0.029 A 
ATOM     59  N   UNL A   1      46.144  26.192  27.230  1.00  0.00    -0.354 N 
ATOM     60  C   UNL A   1      43.526  26.078  31.319  1.00  0.00     0.074 A 
ATOM     61  C   UNL A   1      44.516  25.007  31.441  1.00  0.00     0.031 C 
ATOM     62  C   UNL A   1      45.856  26.307  25.021  1.00  0.00     0.029 A 
ATOM     63  C   UNL A   1      46.914  26.509  26.017  1.00  0.00     0.049 A 
ATOM     64  H   UNL A   1      46.523  26.333  28.128  1.00  0.00     0.167 HD
ATOM     65  C   UNL A   1      43.565  27.392  31.691  1.00  0.00     0.034 A 
ATOM     66  C   UNL A   1      48.229  26.996  25.818  1.00  0.00     0.034 A 
ATOM     67  C   UNL A   1      44.901  27.910  31.586  1.00  0.00     0.049 A 
ATOM     68  C   UNL A   1      48.481  27.811  27.010  1.00  0.00     0.074 A 
ATOM     69  C   UNL A   1      46.127  27.368  31.929  1.00  0.00     0.029 A 
ATOM     70  N   UNL A   1      45.139  28.883  30.641  1.00  0.00    -0.354 N 
ATOM     71  N   UNL A   1      48.018  29.022  27.099  1.00  0.00    -0.248 NA
ATOM     72  C   UNL A   1      49.360  27.397  28.094  1.00  0.00     0.031 C 
ATOM     73  C   UNL A   1      46.973  27.680  30.851  1.00  0.00     0.029 A 
ATOM     74  C   UNL A   1      46.421  28.740  30.147  1.00  0.00     0.049 A 
ATOM     75  H   UNL A   1      44.496  29.572  30.360  1.00  0.00     0.167 HD
ATOM     76  C   UNL A   1      48.017  29.226  28.441  1.00  0.00     0.074 A 
ATOM     77  C   UNL A   1      49.086  28.383  28.951  1.00  0.00     0.031 C 
ATOM     78  C   UNL A   1      46.807  29.501  28.988  1.00  0.00     0.034 A 
BRANCH  65  79
ATOM     79  C   UNL A   1      42.276  28.134  31.308  1.00  0.00     0.023 A 
ATOM     80  C   UNL A   1      41.328  28.281  32.335  1.00  0.00     0.012 A 
ATOM     81  C   UNL A   1      41.876  28.458  29.971  1.00  0.00     0.148 A 
ATOM     82  C   UNL A   1      40.026  28.707  32.055  1.00  0.00     0.002 A 
ATOM     83  C   UNL A   1      40.553  28.813  29.693  1.00  0.00     0.091 A 
ATOM     84  F   UNL A   1      42.780  28.373  28.983  1.00  0.00    -0.205 F 
ATOM     85  C   UNL A   1      39.634  28.948  30.741  1.00  0.00     0.022 A 
BRANCH  83  86
ATOM     86  S   UNL A   1      39.861  28.934  28.022  1.00  0.00     0.127 S 
ATOM     87  O   UNL A   1      41.067  29.151  27.210  1.00  0.00    -0.237 OA
ATOM     88  O   UNL A   1      39.246  27.628  27.826  1.00  0.00    -0.237 OA
ATOM     89  O   UNL A   1      38.947  30.068  28.027  1.00  0.00    -0.744 OA
ENDBRANCH  83  86
ENDBRANCH  65  79
BRANCH  66  90
ATOM     90  C   UNL A   1      49.444  27.324  24.817  1.00  0.00     0.023 A 
ATOM     91  C   UNL A   1      50.784  26.906  25.187  1.00  0.00     0.012 A 
ATOM     92  C   UNL A   1      49.304  27.571  23.430  1.00  0.00     0.148 A 
ATOM     93  C   UNL A   1      51.834  26.635  24.280  1.00  0.00     0.002 A 
ATOM     94  C   UNL A   1      50.378  27.323  22.516  1.00  0.00     0.091 A 
ATOM     95  F   UNL A   1      48.105  27.955  22.977  1.00  0.00    -0.205 F 
ATOM     96  C   UNL A   1      51.623  26.828  22.934  1.00  0.00     0.022 A 
BRANCH  94  97
ATOM     97  S   UNL A   1      50.245  27.512  20.717  1.00  0.00     0.127 S 
ATOM     98  O   UNL A   1      50.045  28.955  20.556  1.00  0.00    -0.237 OA
ATOM     99  O   UNL A   1      51.551  27.034  20.267  1.00  0.00    -0.237 OA
ATOM    100  O   UNL A   1      49.104  26.698  20.328  1.00  0.00    -0.744 OA
ENDBRANCH  94  97
ENDBRANCH  66  90
BRANCH  78 101
ATOM    101  C   UNL A   1      45.907  30.470  28.240  1.00  0.00     0.023 A 
ATOM    102  C   UNL A   1      44.862  30.105  27.359  1.00  0.00     0.012 A 
ATOM    103  C   UNL A   1      46.181  31.837  28.385  1.00  0.00     0.148 A 
ATOM    104  C   UNL A   1      44.161  31.062  26.614  1.00  0.00     0.002 A 
ATOM    105  C   UNL A   1      45.454  32.792  27.683  1.00  0.00     0.091 A 
ATOM    106  F   UNL A   1      47.192  32.194  29.192  1.00  0.00    -0.205 F 
ATOM    107  C   UNL A   1      44.450  32.411  26.784  1.00  0.00     0.022 A 
BRANCH 105 108
ATOM    108  S   UNL A   1      45.807  34.533  27.908  1.00  0.00     0.127 S 
ATOM    109  O   UNL A   1      45.477  34.725  29.320  1.00  0.00    -0.237 OA
ATOM    110  O   UNL A   1      47.232  34.634  27.601  1.00  0.00    -0.237 OA
ATOM    111  O   UNL A   1      44.937  35.226  26.963  1.00  0.00    -0.744 OA
ENDBRANCH 105 108
ENDBRANCH  78 101
ENDBRANCH  52  53
ENDBRANCH  45  47
ENDBRANCH  44  45
ENDBRANCH  43  44
ENDBRANCH  42  43
ENDBRANCH  41  42
ENDBRANCH  40  41
ENDBRANCH   1  40
TORSDOF 28
ENDMDL
MODEL 3
REMARK VINA RESULT:      -9.8      1.877      2.379
REMARK SMILES Cc1c(CC(=O)N[C@H](CO)C(=O)OCCOCCOCCOC(=O)c2ccc(-c3c4nc(c(-c5cccc(S(=O)(=O)[O-])c5F)c5ccc([nH]5)c(-c5cccc(S(=O)(=O)[O-])c5F)c5nc(c(-c6cccc(S(=O)(=O)[O-])c6F)c6ccc3[nH]6)C=C5)C=C4)cc2)cc(-c2ccc(S(C)(=O)=O)cc2)n1-c1cccc(F)c1
REMARK SMILES IDX 17 1 16 2 15 3 14 4 13 5 11 6 12 7 8 8 7 9 5 10 6 11 4 13
REMARK SMILES IDX 3 14 1 15 2 16 100 17 88 18 89 19 101 20 102 21 107 22
REMARK SMILES IDX 103 23 105 24 104 25 106 26 90 27 91 28 99 29 92 30 98 31
REMARK SMILES IDX 93 32 94 33 95 34 96 35 97 36 9 37 10 38 18 40 19 41 20 42
REMARK SMILES IDX 21 43 22 44 23 45 24 46 25 47 26 48 87 49 27 50 86 51 28 52
REMARK SMILES IDX 29 53 30 54 80 55 31 56 85 57 79 58 81 59 32 60 84 61 78 62
REMARK SMILES IDX 77 63 33 65 65 66 45 67 64 68 46 69 49 70 63 71 82 72 47 73
REMARK SMILES IDX 48 74 62 76 83 77 50 78 34 79 35 80 43 81 36 82 38 83 44 84
REMARK SMILES IDX 37 85 39 86 40 87 41 88 42 89 66 90 67 91 75 92 68 93 70 94
REMARK SMILES IDX 76 95 69 96 71 97 72 98 73 99 74 100 51 101 52 102 60 103
REMARK SMILES IDX 53 104 55 105 61 106 54 107 56 108 57 109 58 110 59 111
REMARK H PARENT 7 12 10 39 81 64 49 75
REMARK Flexibility Score: inf
ROOT
ATOM      1  C   UNL A   1      33.730  27.924  26.495  1.00  0.00     0.188 C 
ENDROOT
BRANCH   1   2
ATOM      2  O   UNL A   1      33.507  29.361  26.053  1.00  0.00    -0.376 OA
BRANCH   2   3
ATOM      3  C   UNL A   1      33.288  30.735  26.836  1.00  0.00     0.202 C 
BRANCH   3   4
ATOM      4  C   UNL A   1      34.511  31.610  27.982  1.00  0.00     0.261 C 
BRANCH   4   5
ATOM      5  O   UNL A   1      34.701  31.754  29.753  1.00  0.00    -0.462 OA
BRANCH   5   6
ATOM      6  C   UNL A   1      35.621  32.201  30.835  1.00  0.00     0.331 C 
ATOM      7  O   UNL A   1      35.851  31.609  31.891  1.00  0.00    -0.250 OA
BRANCH   6   8
ATOM      8  C   UNL A   1      36.273  33.603  30.756  1.00  0.00     0.218 C 
BRANCH   8   9
ATOM      9  N   UNL A   1      35.461  34.410  31.552  1.00  0.00    -0.341 N 
ATOM     10  C   UNL A   1      36.231  34.918  32.568  1.00  0.00     0.225 C 
ATOM     11  O   UNL A   1      35.669  35.453  33.525  1.00  0.00    -0.275 OA
ATOM     12  H   UNL A   1      34.502  34.585  31.409  1.00  0.00     0.164 HD
BRANCH  10  13
ATOM     13  C   UNL A   1      37.873  34.696  32.411  1.00  0.00     0.137 C 
BRANCH  13  14
ATOM     14  C   UNL A   1      39.280  34.468  33.622  1.00  0.00    -0.017 A 
ATOM     15  C   UNL A   1      41.693  33.073  33.282  1.00  0.00     0.065 C 
ATOM     16  C   UNL A   1      40.547  33.825  33.981  1.00  0.00     0.024 A 
ATOM     17  N   UNL A   1      40.739  33.995  35.388  1.00  0.00    -0.313 N 
ATOM     18  C   UNL A   1      39.110  35.056  34.867  1.00  0.00     0.033 A 
ATOM     19  C   UNL A   1      39.510  34.290  35.961  1.00  0.00     0.053 A 
BRANCH  17  20
ATOM     20  C   UNL A   1      41.984  34.154  36.047  1.00  0.00     0.049 A 
ATOM     21  C   UNL A   1      42.580  33.090  36.728  1.00  0.00     0.027 A 
ATOM     22  C   UNL A   1      42.523  35.444  36.126  1.00  0.00     0.065 A 
ATOM     23  C   UNL A   1      43.718  33.322  37.496  1.00  0.00     0.005 A 
ATOM     24  C   UNL A   1      43.663  35.653  36.881  1.00  0.00     0.125 A 
ATOM     25  C   UNL A   1      44.260  34.605  37.572  1.00  0.00     0.039 A 
ATOM     26  F   UNL A   1      44.176  36.887  36.966  1.00  0.00    -0.207 F 
ENDBRANCH  17  20
BRANCH  19  27
ATOM     27  C   UNL A   1      39.146  34.456  37.417  1.00  0.00    -0.001 A 
ATOM     28  C   UNL A   1      38.733  33.329  38.099  1.00  0.00     0.011 A 
ATOM     29  C   UNL A   1      39.309  35.587  38.240  1.00  0.00     0.011 A 
ATOM     30  C   UNL A   1      38.353  33.264  39.426  1.00  0.00     0.021 A 
ATOM     31  C   UNL A   1      38.998  35.537  39.643  1.00  0.00     0.021 A 
ATOM     32  C   UNL A   1      38.463  34.374  40.212  1.00  0.00     0.067 A 
BRANCH  32  33
ATOM     33  S   UNL A   1      38.127  34.163  41.945  1.00  0.00     0.175 S 
ATOM     34  C   UNL A   1      39.648  33.589  42.702  1.00  0.00     0.163 C 
ATOM     35  O   UNL A   1      37.889  35.537  42.404  1.00  0.00    -0.224 OA
ATOM     36  O   UNL A   1      37.127  33.164  42.079  1.00  0.00    -0.224 OA
ENDBRANCH  32  33
ENDBRANCH  19  27
ENDBRANCH  13  14
ENDBRANCH  10  13
ENDBRANCH   8   9
BRANCH   8  37
ATOM     37  C   UNL A   1      36.757  34.001  29.368  1.00  0.00     0.193 C 
BRANCH  37  38
ATOM     38  O   UNL A   1      35.811  34.942  28.801  1.00  0.00    -0.394 OA
ATOM     39  H   UNL A   1      36.284  35.732  28.497  1.00  0.00     0.210 HD
ENDBRANCH  37  38
ENDBRANCH   8  37
ENDBRANCH   6   8
ENDBRANCH   5   6
ENDBRANCH   4   5
ENDBRANCH   3   4
ENDBRANCH   2   3
ENDBRANCH   1   2
BRANCH   1  40
ATOM     40  C   UNL A   1      33.976  26.372  25.547  1.00  0.00     0.188 C 
BRANCH  40  41
ATOM     41  O   UNL A   1      34.785  25.144  25.763  1.00  0.00    -0.376 OA
BRANCH  41  42
ATOM     42  C   UNL A   1      35.230  24.122  24.844  1.00  0.00     0.202 C 
BRANCH  42  43
ATOM     43  C   UNL A   1      36.732  23.698  24.561  1.00  0.00     0.261 C 
BRANCH  43  44
ATOM     44  O   UNL A   1      37.819  24.000  25.494  1.00  0.00    -0.460 OA
BRANCH  44  45
ATOM     45  C   UNL A   1      38.434  22.988  26.180  1.00  0.00     0.338 C 
ATOM     46  O   UNL A   1      38.057  21.828  26.099  1.00  0.00    -0.246 OA
BRANCH  45  47
ATOM     47  C   UNL A   1      39.724  23.425  26.917  1.00  0.00     0.060 A 
ATOM     48  C   UNL A   1      40.111  24.770  26.907  1.00  0.00     0.016 A 
ATOM     49  C   UNL A   1      40.665  22.567  27.513  1.00  0.00     0.016 A 
ATOM     50  C   UNL A   1      41.347  25.243  27.530  1.00  0.00     0.010 A 
ATOM     51  C   UNL A   1      41.929  23.051  28.120  1.00  0.00     0.010 A 
ATOM     52  C   UNL A   1      42.337  24.414  28.179  1.00  0.00    -0.014 A 
BRANCH  52  53
ATOM     53  C   UNL A   1      43.942  24.902  28.060  1.00  0.00     0.031 A 
ATOM     54  C   UNL A   1      44.159  25.195  29.500  1.00  0.00     0.074 A 
ATOM     55  C   UNL A   1      44.989  25.292  27.188  1.00  0.00     0.049 A 
ATOM     56  N   UNL A   1      43.267  25.960  30.062  1.00  0.00    -0.248 NA
ATOM     57  C   UNL A   1      44.950  24.429  30.452  1.00  0.00     0.031 C 
ATOM     58  C   UNL A   1      44.949  25.419  25.715  1.00  0.00     0.029 A 
ATOM     59  N   UNL A   1      46.372  25.711  27.390  1.00  0.00    -0.354 N 
ATOM     60  C   UNL A   1      43.606  26.112  31.362  1.00  0.00     0.074 A 
ATOM     61  C   UNL A   1      44.488  24.967  31.595  1.00  0.00     0.031 C 
ATOM     62  C   UNL A   1      46.177  25.701  25.167  1.00  0.00     0.029 A 
ATOM     63  C   UNL A   1      47.212  25.875  26.193  1.00  0.00     0.049 A 
ATOM     64  H   UNL A   1      46.729  25.879  28.292  1.00  0.00     0.167 HD
ATOM     65  C   UNL A   1      43.752  27.439  31.649  1.00  0.00     0.034 A 
ATOM     66  C   UNL A   1      48.572  26.228  26.019  1.00  0.00     0.034 A 
ATOM     67  C   UNL A   1      45.134  27.827  31.569  1.00  0.00     0.049 A 
ATOM     68  C   UNL A   1      48.854  27.097  27.166  1.00  0.00     0.074 A 
ATOM     69  C   UNL A   1      46.291  27.202  31.998  1.00  0.00     0.029 A 
ATOM     70  N   UNL A   1      45.495  28.708  30.574  1.00  0.00    -0.354 N 
ATOM     71  N   UNL A   1      48.502  28.347  27.156  1.00  0.00    -0.248 NA
ATOM     72  C   UNL A   1      49.651  26.680  28.310  1.00  0.00     0.031 C 
ATOM     73  C   UNL A   1      47.201  27.363  30.939  1.00  0.00     0.029 A 
ATOM     74  C   UNL A   1      46.775  28.418  30.145  1.00  0.00     0.049 A 
ATOM     75  H   UNL A   1      44.928  29.431  30.221  1.00  0.00     0.167 HD
ATOM     76  C   UNL A   1      48.471  28.642  28.481  1.00  0.00     0.074 A 
ATOM     77  C   UNL A   1      49.438  27.743  29.089  1.00  0.00     0.031 C 
ATOM     78  C   UNL A   1      47.272  29.061  28.957  1.00  0.00     0.034 A 
BRANCH  65  79
ATOM     79  C   UNL A   1      42.552  28.266  31.165  1.00  0.00     0.023 A 
ATOM     80  C   UNL A   1      42.751  28.994  29.980  1.00  0.00     0.012 A 
ATOM     81  C   UNL A   1      41.372  28.535  31.931  1.00  0.00     0.148 A 
ATOM     82  C   UNL A   1      41.837  29.971  29.575  1.00  0.00     0.002 A 
ATOM     83  C   UNL A   1      40.503  29.563  31.556  1.00  0.00     0.091 A 
ATOM     84  F   UNL A   1      41.137  27.815  33.038  1.00  0.00    -0.205 F 
ATOM     85  C   UNL A   1      40.733  30.271  30.369  1.00  0.00     0.022 A 
BRANCH  83  86
ATOM     86  S   UNL A   1      39.168  30.200  32.603  1.00  0.00     0.127 S 
ATOM     87  O   UNL A   1      38.895  31.506  31.987  1.00  0.00    -0.237 OA
ATOM     88  O   UNL A   1      38.104  29.224  32.408  1.00  0.00    -0.237 OA
ATOM     89  O   UNL A   1      39.701  30.291  33.955  1.00  0.00    -0.744 OA
ENDBRANCH  83  86
ENDBRANCH  65  79
BRANCH  66  90
ATOM     90  C   UNL A   1      49.848  26.376  25.052  1.00  0.00     0.023 A 
ATOM     91  C   UNL A   1      49.885  27.478  24.108  1.00  0.00     0.012 A 
ATOM     92  C   UNL A   1      51.128  25.829  25.315  1.00  0.00     0.148 A 
ATOM     93  C   UNL A   1      51.059  28.064  23.582  1.00  0.00     0.002 A 
ATOM     94  C   UNL A   1      52.314  26.405  24.757  1.00  0.00     0.091 A 
ATOM     95  F   UNL A   1      51.211  24.810  26.178  1.00  0.00    -0.205 F 
ATOM     96  C   UNL A   1      52.282  27.534  23.922  1.00  0.00     0.022 A 
BRANCH  94  97
ATOM     97  S   UNL A   1      53.994  25.831  25.128  1.00  0.00     0.127 S 
ATOM     98  O   UNL A   1      54.067  25.964  26.585  1.00  0.00    -0.237 OA
ATOM     99  O   UNL A   1      53.952  24.449  24.652  1.00  0.00    -0.237 OA
ATOM    100  O   UNL A   1      54.876  26.727  24.396  1.00  0.00    -0.744 OA
ENDBRANCH  94  97
ENDBRANCH  66  90
BRANCH  78 101
ATOM    101  C   UNL A   1      46.493  30.052  28.110  1.00  0.00     0.023 A 
ATOM    102  C   UNL A   1      45.388  29.737  27.286  1.00  0.00     0.012 A 
ATOM    103  C   UNL A   1      46.952  31.377  28.095  1.00  0.00     0.148 A 
ATOM    104  C   UNL A   1      44.805  30.691  26.441  1.00  0.00     0.002 A 
ATOM    105  C   UNL A   1      46.343  32.337  27.294  1.00  0.00     0.091 A 
ATOM    106  F   UNL A   1      48.020  31.681  28.848  1.00  0.00    -0.205 F 
ATOM    107  C   UNL A   1      45.277  31.998  26.453  1.00  0.00     0.022 A 
BRANCH 105 108
ATOM    108  S   UNL A   1      46.934  34.028  27.316  1.00  0.00     0.127 S 
ATOM    109  O   UNL A   1      48.292  33.878  26.795  1.00  0.00    -0.237 OA
ATOM    110  O   UNL A   1      46.014  34.721  26.418  1.00  0.00    -0.237 OA
ATOM    111  O   UNL A   1      46.843  34.447  28.712  1.00  0.00    -0.744 OA
ENDBRANCH 105 108
ENDBRANCH  78 101
ENDBRANCH  52  53
ENDBRANCH  45  47
ENDBRANCH  44  45
ENDBRANCH  43  44
ENDBRANCH  42  43
ENDBRANCH  41  42
ENDBRANCH  40  41
ENDBRANCH   1  40
TORSDOF 28
ENDMDL
