MODEL 1
REMARK VINA RESULT:     -10.0      0.000      0.000
REMARK SMILES CC[C@@H](C)c1nc2cc(C(=O)OCCOCCOCCOC(=O)c3ccc(-c4c5nc(c(-c6cccc(S(=O)(=O)[O-])c6F)c6ccc([nH]6)c(-c6cccc(S(=O)(=O)[O-])c6F)c6nc(c(-c7cccc(S(=O)(=O)[O-])c7F)c7ccc4[nH]7)C=C6)C=C5)cc3)ccc2n1[C@@H](C)CC
REMARK SMILES IDX 17 1 16 2 15 3 14 4 13 5 12 6 10 7 11 8 9 9 5 10 6 11 90 12
REMARK SMILES IDX 7 13 89 14 8 15 88 16 87 17 3 18 4 19 2 20 1 21 91 22 92 23
REMARK SMILES IDX 93 24 94 25 18 26 19 27 20 28 21 29 22 30 23 31 24 32 25 33
REMARK SMILES IDX 86 34 26 35 85 36 27 37 28 38 29 39 79 40 30 41 84 42 78 43
REMARK SMILES IDX 80 44 31 45 83 46 77 47 76 48 32 50 64 51 44 52 63 53 45 54
REMARK SMILES IDX 48 55 62 56 81 57 46 58 47 59 61 61 82 62 49 63 33 64 34 65
REMARK SMILES IDX 42 66 35 67 37 68 43 69 36 70 38 71 39 72 40 73 41 74 65 75
REMARK SMILES IDX 66 76 74 77 67 78 69 79 75 80 68 81 70 82 71 83 72 84 73 85
REMARK SMILES IDX 50 86 51 87 59 88 52 89 54 90 60 91 53 92 55 93 56 94 57 95
REMARK SMILES IDX 58 96
REMARK H PARENT 80 49 48 60
REMARK Flexibility Score: inf
ROOT
ATOM      1  C   UNL A   1      34.440  30.832  27.719  1.00  0.00     0.188 C 
ENDROOT
BRANCH   1   2
ATOM      2  C   UNL A   1      33.385  30.149  26.818  1.00  0.00     0.188 C 
BRANCH   2   3
ATOM      3  O   UNL A   1      32.066  30.662  26.760  1.00  0.00    -0.376 OA
BRANCH   3   4
ATOM      4  C   UNL A   1      31.360  30.523  25.540  1.00  0.00     0.202 C 
BRANCH   4   5
ATOM      5  C   UNL A   1      31.809  29.399  24.601  1.00  0.00     0.261 C 
BRANCH   5   6
ATOM      6  O   UNL A   1      30.944  28.242  24.694  1.00  0.00    -0.460 OA
BRANCH   6   7
ATOM      7  C   UNL A   1      31.055  27.373  23.660  1.00  0.00     0.338 C 
ATOM      8  O   UNL A   1      30.404  27.431  22.628  1.00  0.00    -0.246 OA
BRANCH   7   9
ATOM      9  C   UNL A   1      32.109  26.337  23.867  1.00  0.00     0.062 A 
ATOM     10  C   UNL A   1      33.033  21.882  23.898  1.00  0.00     0.112 A 
ATOM     11  N   UNL A   1      32.588  22.719  22.967  1.00  0.00    -0.233 NA
ATOM     12  N   UNL A   1      33.715  22.655  24.833  1.00  0.00    -0.325 N 
ATOM     13  C   UNL A   1      32.690  24.004  23.471  1.00  0.00     0.090 A 
ATOM     14  C   UNL A   1      33.302  23.974  24.703  1.00  0.00     0.068 A 
ATOM     15  C   UNL A   1      32.197  25.240  22.991  1.00  0.00     0.046 A 
ATOM     16  C   UNL A   1      33.408  25.115  25.518  1.00  0.00     0.029 A 
ATOM     17  C   UNL A   1      32.740  26.281  25.105  1.00  0.00     0.018 A 
BRANCH  10  18
ATOM     18  C   UNL A   1      32.948  20.332  23.815  1.00  0.00     0.052 C 
ATOM     19  C   UNL A   1      32.031  19.874  22.675  1.00  0.00     0.016 C 
BRANCH  18  20
ATOM     20  C   UNL A   1      32.492  19.614  25.106  1.00  0.00     0.008 C 
ATOM     21  C   UNL A   1      33.164  18.266  25.387  1.00  0.00     0.004 C 
ENDBRANCH  18  20
ENDBRANCH  10  18
BRANCH  12  22
ATOM     22  C   UNL A   1      34.806  22.297  25.727  1.00  0.00     0.085 C 
ATOM     23  C   UNL A   1      34.278  21.844  27.065  1.00  0.00     0.031 C 
BRANCH  22  24
ATOM     24  C   UNL A   1      35.889  21.392  25.123  1.00  0.00     0.022 C 
ATOM     25  C   UNL A   1      37.288  21.963  25.339  1.00  0.00     0.006 C 
ENDBRANCH  22  24
ENDBRANCH  12  22
ENDBRANCH   7   9
ENDBRANCH   6   7
ENDBRANCH   5   6
ENDBRANCH   4   5
ENDBRANCH   3   4
ENDBRANCH   2   3
ENDBRANCH   1   2
BRANCH   1  26
ATOM     26  O   UNL A   1      34.676  32.222  27.566  1.00  0.00    -0.376 OA
BRANCH  26  27
ATOM     27  C   UNL A   1      34.083  33.090  28.523  1.00  0.00     0.202 C 
BRANCH  27  28
ATOM     28  C   UNL A   1      34.812  33.227  29.869  1.00  0.00     0.261 C 
BRANCH  28  29
ATOM     29  O   UNL A   1      36.214  32.918  29.728  1.00  0.00    -0.460 OA
BRANCH  29  30
ATOM     30  C   UNL A   1      36.997  33.173  30.815  1.00  0.00     0.338 C 
ATOM     31  O   UNL A   1      36.747  33.951  31.712  1.00  0.00    -0.246 OA
BRANCH  30  32
ATOM     32  C   UNL A   1      38.010  32.081  30.892  1.00  0.00     0.060 A 
ATOM     33  C   UNL A   1      39.248  32.214  31.534  1.00  0.00     0.016 A 
ATOM     34  C   UNL A   1      37.773  30.967  30.093  1.00  0.00     0.016 A 
ATOM     35  C   UNL A   1      40.291  31.298  31.266  1.00  0.00     0.010 A 
ATOM     36  C   UNL A   1      38.807  30.059  29.852  1.00  0.00     0.010 A 
ATOM     37  C   UNL A   1      40.106  30.238  30.365  1.00  0.00    -0.014 A 
BRANCH  37  38
ATOM     38  C   UNL A   1      41.081  29.110  30.262  1.00  0.00     0.031 A 
ATOM     39  C   UNL A   1      41.519  28.719  31.621  1.00  0.00     0.074 A 
ATOM     40  C   UNL A   1      41.593  28.391  29.214  1.00  0.00     0.049 A 
ATOM     41  N   UNL A   1      42.727  28.885  32.049  1.00  0.00    -0.248 NA
ATOM     42  C   UNL A   1      40.569  28.292  32.655  1.00  0.00     0.031 C 
ATOM     43  C   UNL A   1      41.479  28.636  27.779  1.00  0.00     0.029 A 
ATOM     44  N   UNL A   1      42.257  27.169  29.203  1.00  0.00    -0.354 N 
ATOM     45  C   UNL A   1      42.750  28.285  33.290  1.00  0.00     0.074 A 
ATOM     46  C   UNL A   1      41.383  28.078  33.689  1.00  0.00     0.031 C 
ATOM     47  C   UNL A   1      41.701  27.501  27.062  1.00  0.00     0.029 A 
ATOM     48  C   UNL A   1      42.225  26.490  27.956  1.00  0.00     0.049 A 
ATOM     49  H   UNL A   1      42.715  26.805  29.996  1.00  0.00     0.167 HD
ATOM     50  C   UNL A   1      43.901  27.736  33.745  1.00  0.00     0.034 A 
ATOM     51  C   UNL A   1      42.756  25.270  27.641  1.00  0.00     0.034 A 
ATOM     52  C   UNL A   1      45.050  28.129  32.976  1.00  0.00     0.049 A 
ATOM     53  C   UNL A   1      44.039  25.329  28.384  1.00  0.00     0.074 A 
ATOM     54  C   UNL A   1      45.860  29.237  32.868  1.00  0.00     0.029 A 
ATOM     55  N   UNL A   1      45.245  27.375  31.852  1.00  0.00    -0.354 N 
ATOM     56  N   UNL A   1      45.019  26.124  28.047  1.00  0.00    -0.248 NA
ATOM     57  C   UNL A   1      44.235  24.560  29.607  1.00  0.00     0.031 C 
ATOM     58  C   UNL A   1      46.505  29.156  31.598  1.00  0.00     0.029 A 
ATOM     59  C   UNL A   1      46.078  27.999  30.961  1.00  0.00     0.049 A 
ATOM     60  H   UNL A   1      44.837  26.491  31.701  1.00  0.00     0.167 HD
ATOM     61  C   UNL A   1      45.687  26.307  29.232  1.00  0.00     0.074 A 
ATOM     62  C   UNL A   1      45.330  25.169  30.066  1.00  0.00     0.031 C 
ATOM     63  C   UNL A   1      46.130  27.542  29.591  1.00  0.00     0.034 A 
BRANCH  50  64
ATOM     64  C   UNL A   1      43.911  26.506  34.594  1.00  0.00     0.023 A 
ATOM     65  C   UNL A   1      43.096  25.428  34.210  1.00  0.00     0.012 A 
ATOM     66  C   UNL A   1      44.505  26.462  35.876  1.00  0.00     0.148 A 
ATOM     67  C   UNL A   1      42.907  24.333  35.056  1.00  0.00     0.002 A 
ATOM     68  C   UNL A   1      44.378  25.338  36.679  1.00  0.00     0.091 A 
ATOM     69  F   UNL A   1      45.090  27.560  36.376  1.00  0.00    -0.205 F 
ATOM     70  C   UNL A   1      43.568  24.273  36.279  1.00  0.00     0.022 A 
BRANCH  68  71
ATOM     71  S   UNL A   1      45.278  25.225  38.227  1.00  0.00     0.127 S 
ATOM     72  O   UNL A   1      44.916  23.889  38.689  1.00  0.00    -0.237 OA
ATOM     73  O   UNL A   1      46.668  25.379  37.794  1.00  0.00    -0.237 OA
ATOM     74  O   UNL A   1      44.781  26.343  39.022  1.00  0.00    -0.744 OA
ENDBRANCH  68  71
ENDBRANCH  50  64
BRANCH  51  75
ATOM     75  C   UNL A   1      42.647  24.154  26.619  1.00  0.00     0.023 A 
ATOM     76  C   UNL A   1      43.536  24.196  25.509  1.00  0.00     0.012 A 
ATOM     77  C   UNL A   1      42.004  22.915  26.846  1.00  0.00     0.148 A 
ATOM     78  C   UNL A   1      43.882  23.063  24.764  1.00  0.00     0.002 A 
ATOM     79  C   UNL A   1      42.353  21.771  26.088  1.00  0.00     0.091 A 
ATOM     80  F   UNL A   1      41.103  22.836  27.834  1.00  0.00    -0.205 F 
ATOM     81  C   UNL A   1      43.315  21.843  25.075  1.00  0.00     0.022 A 
BRANCH  79  82
ATOM     82  S   UNL A   1      41.655  20.131  26.393  1.00  0.00     0.127 S 
ATOM     83  O   UNL A   1      42.230  19.297  25.335  1.00  0.00    -0.237 OA
ATOM     84  O   UNL A   1      42.157  19.812  27.727  1.00  0.00    -0.237 OA
ATOM     85  O   UNL A   1      40.218  20.332  26.258  1.00  0.00    -0.744 OA
ENDBRANCH  79  82
ENDBRANCH  51  75
BRANCH  63  86
ATOM     86  C   UNL A   1      46.451  28.524  28.507  1.00  0.00     0.023 A 
ATOM     87  C   UNL A   1      47.601  28.421  27.701  1.00  0.00     0.012 A 
ATOM     88  C   UNL A   1      45.515  29.534  28.234  1.00  0.00     0.148 A 
ATOM     89  C   UNL A   1      47.814  29.310  26.643  1.00  0.00     0.002 A 
ATOM     90  C   UNL A   1      45.710  30.394  27.160  1.00  0.00     0.091 A 
ATOM     91  F   UNL A   1      44.436  29.623  29.026  1.00  0.00    -0.205 F 
ATOM     92  C   UNL A   1      46.861  30.288  26.364  1.00  0.00     0.022 A 
BRANCH  90  93
ATOM     93  S   UNL A   1      44.478  31.610  26.688  1.00  0.00     0.127 S 
ATOM     94  O   UNL A   1      45.152  32.334  25.612  1.00  0.00    -0.237 OA
ATOM     95  O   UNL A   1      43.362  30.769  26.255  1.00  0.00    -0.237 OA
ATOM     96  O   UNL A   1      44.202  32.395  27.886  1.00  0.00    -0.744 OA
ENDBRANCH  90  93
ENDBRANCH  63  86
ENDBRANCH  37  38
ENDBRANCH  30  32
ENDBRANCH  29  30
ENDBRANCH  28  29
ENDBRANCH  27  28
ENDBRANCH  26  27
ENDBRANCH   1  26
TORSDOF 24
ENDMDL
MODEL 2
REMARK VINA RESULT:      -9.9      3.643      6.566
REMARK SMILES CC[C@@H](C)c1nc2cc(C(=O)OCCOCCOCCOC(=O)c3ccc(-c4c5nc(c(-c6cccc(S(=O)(=O)[O-])c6F)c6ccc([nH]6)c(-c6cccc(S(=O)(=O)[O-])c6F)c6nc(c(-c7cccc(S(=O)(=O)[O-])c7F)c7ccc4[nH]7)C=C6)C=C5)cc3)ccc2n1[C@@H](C)CC
REMARK SMILES IDX 17 1 16 2 15 3 14 4 13 5 12 6 10 7 11 8 9 9 5 10 6 11 90 12
REMARK SMILES IDX 7 13 89 14 8 15 88 16 87 17 3 18 4 19 2 20 1 21 91 22 92 23
REMARK SMILES IDX 93 24 94 25 18 26 19 27 20 28 21 29 22 30 23 31 24 32 25 33
REMARK SMILES IDX 86 34 26 35 85 36 27 37 28 38 29 39 79 40 30 41 84 42 78 43
REMARK SMILES IDX 80 44 31 45 83 46 77 47 76 48 32 50 64 51 44 52 63 53 45 54
REMARK SMILES IDX 48 55 62 56 81 57 46 58 47 59 61 61 82 62 49 63 33 64 34 65
REMARK SMILES IDX 42 66 35 67 37 68 43 69 36 70 38 71 39 72 40 73 41 74 65 75
REMARK SMILES IDX 66 76 74 77 67 78 69 79 75 80 68 81 70 82 71 83 72 84 73 85
REMARK SMILES IDX 50 86 51 87 59 88 52 89 54 90 60 91 53 92 55 93 56 94 57 95
REMARK SMILES IDX 58 96
REMARK H PARENT 80 49 48 60
REMARK Flexibility Score: inf
ROOT
ATOM      1  C   UNL A   1      32.881  36.365  30.369  1.00  0.00     0.188 C 
ENDROOT
BRANCH   1   2
ATOM      2  C   UNL A   1      33.401  36.282  28.916  1.00  0.00     0.188 C 
BRANCH   2   3
ATOM      3  O   UNL A   1      34.169  35.166  28.503  1.00  0.00    -0.376 OA
BRANCH   3   4
ATOM      4  C   UNL A   1      33.709  33.878  28.874  1.00  0.00     0.202 C 
BRANCH   4   5
ATOM      5  C   UNL A   1      34.232  32.691  28.059  1.00  0.00     0.261 C 
BRANCH   5   6
ATOM      6  O   UNL A   1      33.183  31.743  27.754  1.00  0.00    -0.460 OA
BRANCH   6   7
ATOM      7  C   UNL A   1      33.624  30.505  27.419  1.00  0.00     0.338 C 
ATOM      8  O   UNL A   1      34.740  30.074  27.662  1.00  0.00    -0.246 OA
BRANCH   7   9
ATOM      9  C   UNL A   1      32.583  29.665  26.756  1.00  0.00     0.062 A 
ATOM     10  C   UNL A   1      31.233  25.424  25.810  1.00  0.00     0.112 A 
ATOM     11  N   UNL A   1      31.447  26.087  26.942  1.00  0.00    -0.233 NA
ATOM     12  N   UNL A   1      30.974  26.381  24.833  1.00  0.00    -0.325 N 
ATOM     13  C   UNL A   1      31.653  27.417  26.620  1.00  0.00     0.090 A 
ATOM     14  C   UNL A   1      31.467  27.604  25.270  1.00  0.00     0.068 A 
ATOM     15  C   UNL A   1      32.101  28.511  27.399  1.00  0.00     0.046 A 
ATOM     16  C   UNL A   1      31.753  28.825  24.633  1.00  0.00     0.029 A 
ATOM     17  C   UNL A   1      32.379  29.829  25.391  1.00  0.00     0.018 A 
BRANCH  10  18
ATOM     18  C   UNL A   1      31.116  23.879  25.691  1.00  0.00     0.052 C 
ATOM     19  C   UNL A   1      30.247  23.289  26.808  1.00  0.00     0.016 C 
BRANCH  18  20
ATOM     20  C   UNL A   1      32.452  23.103  25.672  1.00  0.00     0.008 C 
ATOM     21  C   UNL A   1      33.716  23.957  25.809  1.00  0.00     0.004 C 
ENDBRANCH  18  20
ENDBRANCH  10  18
BRANCH  12  22
ATOM     22  C   UNL A   1      30.192  26.284  23.610  1.00  0.00     0.085 C 
ATOM     23  C   UNL A   1      28.830  26.906  23.792  1.00  0.00     0.031 C 
BRANCH  22  24
ATOM     24  C   UNL A   1      30.919  26.696  22.322  1.00  0.00     0.022 C 
ATOM     25  C   UNL A   1      32.092  25.769  22.015  1.00  0.00     0.006 C 
ENDBRANCH  22  24
ENDBRANCH  12  22
ENDBRANCH   7   9
ENDBRANCH   6   7
ENDBRANCH   5   6
ENDBRANCH   4   5
ENDBRANCH   3   4
ENDBRANCH   2   3
ENDBRANCH   1   2
BRANCH   1  26
ATOM     26  O   UNL A   1      32.867  37.624  31.021  1.00  0.00    -0.376 OA
BRANCH  26  27
ATOM     27  C   UNL A   1      33.760  37.798  32.114  1.00  0.00     0.202 C 
BRANCH  27  28
ATOM     28  C   UNL A   1      33.565  36.858  33.314  1.00  0.00     0.261 C 
BRANCH  28  29
ATOM     29  O   UNL A   1      34.638  35.896  33.394  1.00  0.00    -0.460 OA
BRANCH  29  30
ATOM     30  C   UNL A   1      34.289  34.592  33.202  1.00  0.00     0.338 C 
ATOM     31  O   UNL A   1      33.209  34.186  32.827  1.00  0.00    -0.246 OA
BRANCH  30  32
ATOM     32  C   UNL A   1      35.552  33.799  33.179  1.00  0.00     0.060 A 
ATOM     33  C   UNL A   1      36.150  33.256  34.324  1.00  0.00     0.016 A 
ATOM     34  C   UNL A   1      36.258  33.805  31.980  1.00  0.00     0.016 A 
ATOM     35  C   UNL A   1      37.502  32.842  34.293  1.00  0.00     0.010 A 
ATOM     36  C   UNL A   1      37.587  33.375  31.960  1.00  0.00     0.010 A 
ATOM     37  C   UNL A   1      38.264  32.956  33.122  1.00  0.00    -0.014 A 
BRANCH  37  38
ATOM     38  C   UNL A   1      39.595  32.290  32.977  1.00  0.00     0.031 A 
ATOM     39  C   UNL A   1      40.652  33.324  32.914  1.00  0.00     0.074 A 
ATOM     40  C   UNL A   1      40.000  30.982  32.927  1.00  0.00     0.049 A 
ATOM     41  N   UNL A   1      41.360  33.546  31.856  1.00  0.00    -0.248 NA
ATOM     42  C   UNL A   1      40.847  34.309  33.985  1.00  0.00     0.031 C 
ATOM     43  C   UNL A   1      39.200  29.768  32.808  1.00  0.00     0.029 A 
ATOM     44  N   UNL A   1      41.265  30.428  33.095  1.00  0.00    -0.354 N 
ATOM     45  C   UNL A   1      42.299  34.478  32.246  1.00  0.00     0.074 A 
ATOM     46  C   UNL A   1      41.854  35.033  33.497  1.00  0.00     0.031 C 
ATOM     47  C   UNL A   1      39.882  28.677  33.251  1.00  0.00     0.029 A 
ATOM     48  C   UNL A   1      41.266  29.054  33.455  1.00  0.00     0.049 A 
ATOM     49  H   UNL A   1      42.094  30.946  32.973  1.00  0.00     0.167 HD
ATOM     50  C   UNL A   1      43.515  34.491  31.650  1.00  0.00     0.034 A 
ATOM     51  C   UNL A   1      42.337  28.246  33.715  1.00  0.00     0.034 A 
ATOM     52  C   UNL A   1      43.558  33.701  30.451  1.00  0.00     0.049 A 
ATOM     53  C   UNL A   1      43.288  28.706  32.673  1.00  0.00     0.074 A 
ATOM     54  C   UNL A   1      43.141  33.827  29.144  1.00  0.00     0.029 A 
ATOM     55  N   UNL A   1      43.786  32.371  30.675  1.00  0.00    -0.354 N 
ATOM     56  N   UNL A   1      43.109  28.484  31.399  1.00  0.00    -0.248 NA
ATOM     57  C   UNL A   1      44.439  29.531  33.019  1.00  0.00     0.031 C 
ATOM     58  C   UNL A   1      43.064  32.509  28.604  1.00  0.00     0.029 A 
ATOM     59  C   UNL A   1      43.437  31.607  29.591  1.00  0.00     0.049 A 
ATOM     60  H   UNL A   1      44.156  32.007  31.511  1.00  0.00     0.167 HD
ATOM     61  C   UNL A   1      43.801  29.511  30.807  1.00  0.00     0.074 A 
ATOM     62  C   UNL A   1      44.770  29.955  31.797  1.00  0.00     0.031 C 
ATOM     63  C   UNL A   1      43.271  30.180  29.748  1.00  0.00     0.034 A 
BRANCH  50  64
ATOM     64  C   UNL A   1      44.759  34.849  32.397  1.00  0.00     0.023 A 
ATOM     65  C   UNL A   1      45.541  35.910  31.912  1.00  0.00     0.012 A 
ATOM     66  C   UNL A   1      45.310  34.030  33.409  1.00  0.00     0.148 A 
ATOM     67  C   UNL A   1      46.808  36.169  32.441  1.00  0.00     0.002 A 
ATOM     68  C   UNL A   1      46.533  34.338  33.985  1.00  0.00     0.091 A 
ATOM     69  F   UNL A   1      44.708  32.876  33.733  1.00  0.00    -0.205 F 
ATOM     70  C   UNL A   1      47.295  35.401  33.494  1.00  0.00     0.022 A 
BRANCH  68  71
ATOM     71  S   UNL A   1      47.139  33.395  35.386  1.00  0.00     0.127 S 
ATOM     72  O   UNL A   1      48.165  32.563  34.767  1.00  0.00    -0.237 OA
ATOM     73  O   UNL A   1      47.640  34.443  36.276  1.00  0.00    -0.237 OA
ATOM     74  O   UNL A   1      45.961  32.701  35.896  1.00  0.00    -0.744 OA
ENDBRANCH  68  71
ENDBRANCH  50  64
BRANCH  51  75
ATOM     75  C   UNL A   1      42.705  26.944  34.400  1.00  0.00     0.023 A 
ATOM     76  C   UNL A   1      41.818  26.459  35.402  1.00  0.00     0.012 A 
ATOM     77  C   UNL A   1      43.639  26.007  33.901  1.00  0.00     0.148 A 
ATOM     78  C   UNL A   1      41.754  25.113  35.779  1.00  0.00     0.002 A 
ATOM     79  C   UNL A   1      43.574  24.646  34.287  1.00  0.00     0.091 A 
ATOM     80  F   UNL A   1      44.545  26.425  33.007  1.00  0.00    -0.205 F 
ATOM     81  C   UNL A   1      42.610  24.200  35.197  1.00  0.00     0.022 A 
BRANCH  79  82
ATOM     82  S   UNL A   1      44.662  23.371  33.607  1.00  0.00     0.127 S 
ATOM     83  O   UNL A   1      44.319  22.167  34.369  1.00  0.00    -0.237 OA
ATOM     84  O   UNL A   1      44.252  23.314  32.207  1.00  0.00    -0.237 OA
ATOM     85  O   UNL A   1      46.002  23.871  33.884  1.00  0.00    -0.744 OA
ENDBRANCH  79  82
ENDBRANCH  51  75
BRANCH  63  86
ATOM     86  C   UNL A   1      42.301  29.458  28.865  1.00  0.00     0.023 A 
ATOM     87  C   UNL A   1      40.906  29.617  28.974  1.00  0.00     0.012 A 
ATOM     88  C   UNL A   1      42.817  28.661  27.832  1.00  0.00     0.148 A 
ATOM     89  C   UNL A   1      40.042  28.991  28.070  1.00  0.00     0.002 A 
ATOM     90  C   UNL A   1      41.960  28.069  26.912  1.00  0.00     0.091 A 
ATOM     91  F   UNL A   1      44.149  28.511  27.758  1.00  0.00    -0.205 F 
ATOM     92  C   UNL A   1      40.570  28.228  27.030  1.00  0.00     0.022 A 
BRANCH  90  93
ATOM     93  S   UNL A   1      42.578  27.157  25.495  1.00  0.00     0.127 S 
ATOM     94  O   UNL A   1      41.530  26.161  25.286  1.00  0.00    -0.237 OA
ATOM     95  O   UNL A   1      42.652  28.194  24.466  1.00  0.00    -0.237 OA
ATOM     96  O   UNL A   1      43.874  26.619  25.894  1.00  0.00    -0.744 OA
ENDBRANCH  90  93
ENDBRANCH  63  86
ENDBRANCH  37  38
ENDBRANCH  30  32
ENDBRANCH  29  30
ENDBRANCH  28  29
ENDBRANCH  27  28
ENDBRANCH  26  27
ENDBRANCH   1  26
TORSDOF 24
ENDMDL
MODEL 3
REMARK VINA RESULT:      -9.5      3.966      6.991
REMARK SMILES CC[C@@H](C)c1nc2cc(C(=O)OCCOCCOCCOC(=O)c3ccc(-c4c5nc(c(-c6cccc(S(=O)(=O)[O-])c6F)c6ccc([nH]6)c(-c6cccc(S(=O)(=O)[O-])c6F)c6nc(c(-c7cccc(S(=O)(=O)[O-])c7F)c7ccc4[nH]7)C=C6)C=C5)cc3)ccc2n1[C@@H](C)CC
REMARK SMILES IDX 17 1 16 2 15 3 14 4 13 5 12 6 10 7 11 8 9 9 5 10 6 11 90 12
REMARK SMILES IDX 7 13 89 14 8 15 88 16 87 17 3 18 4 19 2 20 1 21 91 22 92 23
REMARK SMILES IDX 93 24 94 25 18 26 19 27 20 28 21 29 22 30 23 31 24 32 25 33
REMARK SMILES IDX 86 34 26 35 85 36 27 37 28 38 29 39 79 40 30 41 84 42 78 43
REMARK SMILES IDX 80 44 31 45 83 46 77 47 76 48 32 50 64 51 44 52 63 53 45 54
REMARK SMILES IDX 48 55 62 56 81 57 46 58 47 59 61 61 82 62 49 63 33 64 34 65
REMARK SMILES IDX 42 66 35 67 37 68 43 69 36 70 38 71 39 72 40 73 41 74 65 75
REMARK SMILES IDX 66 76 74 77 67 78 69 79 75 80 68 81 70 82 71 83 72 84 73 85
REMARK SMILES IDX 50 86 51 87 59 88 52 89 54 90 60 91 53 92 55 93 56 94 57 95
REMARK SMILES IDX 58 96
REMARK H PARENT 80 49 48 60
REMARK Flexibility Score: inf
ROOT
ATOM      1  C   UNL A   1      32.905  36.376  30.432  1.00  0.00     0.188 C 
ENDROOT
BRANCH   1   2
ATOM      2  C   UNL A   1      33.326  36.305  28.946  1.00  0.00     0.188 C 
BRANCH   2   3
ATOM      3  O   UNL A   1      34.110  35.219  28.484  1.00  0.00    -0.376 OA
BRANCH   3   4
ATOM      4  C   UNL A   1      33.675  33.910  28.807  1.00  0.00     0.202 C 
BRANCH   4   5
ATOM      5  C   UNL A   1      34.318  32.754  28.035  1.00  0.00     0.261 C 
BRANCH   5   6
ATOM      6  O   UNL A   1      33.363  31.707  27.741  1.00  0.00    -0.460 OA
BRANCH   6   7
ATOM      7  C   UNL A   1      33.920  30.506  27.446  1.00  0.00     0.338 C 
ATOM      8  O   UNL A   1      35.035  30.151  27.793  1.00  0.00    -0.246 OA
BRANCH   7   9
ATOM      9  C   UNL A   1      33.009  29.604  26.682  1.00  0.00     0.062 A 
ATOM     10  C   UNL A   1      31.642  25.308  26.063  1.00  0.00     0.112 A 
ATOM     11  N   UNL A   1      31.631  26.132  27.106  1.00  0.00    -0.233 NA
ATOM     12  N   UNL A   1      31.678  26.108  24.925  1.00  0.00    -0.325 N 
ATOM     13  C   UNL A   1      31.992  27.389  26.654  1.00  0.00     0.090 A 
ATOM     14  C   UNL A   1      32.135  27.370  25.286  1.00  0.00     0.068 A 
ATOM     15  C   UNL A   1      32.317  28.577  27.351  1.00  0.00     0.046 A 
ATOM     16  C   UNL A   1      32.639  28.468  24.566  1.00  0.00     0.029 A 
ATOM     17  C   UNL A   1      33.136  29.559  25.298  1.00  0.00     0.018 A 
BRANCH  10  18
ATOM     18  C   UNL A   1      31.455  23.767  26.145  1.00  0.00     0.052 C 
ATOM     19  C   UNL A   1      30.144  23.390  26.844  1.00  0.00     0.016 C 
BRANCH  18  20
ATOM     20  C   UNL A   1      32.599  22.987  26.833  1.00  0.00     0.008 C 
ATOM     21  C   UNL A   1      34.018  23.378  26.408  1.00  0.00     0.004 C 
ENDBRANCH  18  20
ENDBRANCH  10  18
BRANCH  12  22
ATOM     22  C   UNL A   1      31.197  25.844  23.578  1.00  0.00     0.085 C 
ATOM     23  C   UNL A   1      32.155  24.951  22.830  1.00  0.00     0.031 C 
BRANCH  22  24
ATOM     24  C   UNL A   1      29.721  25.436  23.469  1.00  0.00     0.022 C 
ATOM     25  C   UNL A   1      28.788  26.587  23.836  1.00  0.00     0.006 C 
ENDBRANCH  22  24
ENDBRANCH  12  22
ENDBRANCH   7   9
ENDBRANCH   6   7
ENDBRANCH   5   6
ENDBRANCH   4   5
ENDBRANCH   3   4
ENDBRANCH   2   3
ENDBRANCH   1   2
BRANCH   1  26
ATOM     26  O   UNL A   1      32.937  37.629  31.095  1.00  0.00    -0.376 OA
BRANCH  26  27
ATOM     27  C   UNL A   1      33.873  37.778  32.155  1.00  0.00     0.202 C 
BRANCH  27  28
ATOM     28  C   UNL A   1      33.677  36.867  33.376  1.00  0.00     0.261 C 
BRANCH  28  29
ATOM     29  O   UNL A   1      34.751  35.910  33.483  1.00  0.00    -0.460 OA
BRANCH  29  30
ATOM     30  C   UNL A   1      34.411  34.603  33.298  1.00  0.00     0.338 C 
ATOM     31  O   UNL A   1      33.339  34.189  32.910  1.00  0.00    -0.246 OA
BRANCH  30  32
ATOM     32  C   UNL A   1      35.678  33.815  33.302  1.00  0.00     0.060 A 
ATOM     33  C   UNL A   1      36.212  33.208  34.446  1.00  0.00     0.016 A 
ATOM     34  C   UNL A   1      36.450  33.891  32.147  1.00  0.00     0.016 A 
ATOM     35  C   UNL A   1      37.565  32.799  34.469  1.00  0.00     0.010 A 
ATOM     36  C   UNL A   1      37.780  33.466  32.178  1.00  0.00     0.010 A 
ATOM     37  C   UNL A   1      38.392  32.983  33.351  1.00  0.00    -0.014 A 
BRANCH  37  38
ATOM     38  C   UNL A   1      39.733  32.329  33.245  1.00  0.00     0.031 A 
ATOM     39  C   UNL A   1      40.787  33.365  33.310  1.00  0.00     0.074 A 
ATOM     40  C   UNL A   1      40.147  31.027  33.136  1.00  0.00     0.049 A 
ATOM     41  N   UNL A   1      41.556  33.655  32.313  1.00  0.00    -0.248 NA
ATOM     42  C   UNL A   1      40.913  34.281  34.451  1.00  0.00     0.031 C 
ATOM     43  C   UNL A   1      39.361  29.821  32.893  1.00  0.00     0.029 A 
ATOM     44  N   UNL A   1      41.402  30.465  33.344  1.00  0.00    -0.354 N 
ATOM     45  C   UNL A   1      42.465  34.561  32.816  1.00  0.00     0.074 A 
ATOM     46  C   UNL A   1      41.944  35.035  34.071  1.00  0.00     0.031 C 
ATOM     47  C   UNL A   1      40.021  28.706  33.306  1.00  0.00     0.029 A 
ATOM     48  C   UNL A   1      41.388  29.071  33.616  1.00  0.00     0.049 A 
ATOM     49  H   UNL A   1      42.234  30.991  33.305  1.00  0.00     0.167 HD
ATOM     50  C   UNL A   1      43.714  34.614  32.297  1.00  0.00     0.034 A 
ATOM     51  C   UNL A   1      42.446  28.248  33.888  1.00  0.00     0.034 A 
ATOM     52  C   UNL A   1      43.833  33.901  31.054  1.00  0.00     0.049 A 
ATOM     53  C   UNL A   1      43.455  28.776  32.936  1.00  0.00     0.074 A 
ATOM     54  C   UNL A   1      43.494  34.109  29.736  1.00  0.00     0.029 A 
ATOM     55  N   UNL A   1      44.054  32.560  31.207  1.00  0.00    -0.354 N 
ATOM     56  N   UNL A   1      43.353  28.634  31.642  1.00  0.00    -0.248 NA
ATOM     57  C   UNL A   1      44.580  29.578  33.402  1.00  0.00     0.031 C 
ATOM     58  C   UNL A   1      43.455  32.828  29.110  1.00  0.00     0.029 A 
ATOM     59  C   UNL A   1      43.773  31.866  30.058  1.00  0.00     0.049 A 
ATOM     60  H   UNL A   1      44.375  32.144  32.039  1.00  0.00     0.167 HD
ATOM     61  C   UNL A   1      44.075  29.697  31.158  1.00  0.00     0.074 A 
ATOM     62  C   UNL A   1      44.980  30.079  32.231  1.00  0.00     0.031 C 
ATOM     63  C   UNL A   1      43.606  30.432  30.115  1.00  0.00     0.034 A 
BRANCH  50  64
ATOM     64  C   UNL A   1      44.910  34.925  33.137  1.00  0.00     0.023 A 
ATOM     65  C   UNL A   1      45.500  33.878  33.864  1.00  0.00     0.012 A 
ATOM     66  C   UNL A   1      45.324  36.245  33.424  1.00  0.00     0.148 A 
ATOM     67  C   UNL A   1      46.491  34.132  34.815  1.00  0.00     0.002 A 
ATOM     68  C   UNL A   1      46.362  36.487  34.312  1.00  0.00     0.091 A 
ATOM     69  F   UNL A   1      44.630  37.282  32.934  1.00  0.00    -0.205 F 
ATOM     70  C   UNL A   1      46.942  35.433  35.022  1.00  0.00     0.022 A 
BRANCH  68  71
ATOM     71  S   UNL A   1      46.994  38.151  34.537  1.00  0.00     0.127 S 
ATOM     72  O   UNL A   1      45.868  38.816  35.182  1.00  0.00    -0.237 OA
ATOM     73  O   UNL A   1      48.160  37.931  35.392  1.00  0.00    -0.237 OA
ATOM     74  O   UNL A   1      47.328  38.600  33.189  1.00  0.00    -0.744 OA
ENDBRANCH  68  71
ENDBRANCH  50  64
BRANCH  51  75
ATOM     75  C   UNL A   1      42.779  26.906  34.511  1.00  0.00     0.023 A 
ATOM     76  C   UNL A   1      41.877  26.397  35.486  1.00  0.00     0.012 A 
ATOM     77  C   UNL A   1      43.691  25.971  33.968  1.00  0.00     0.148 A 
ATOM     78  C   UNL A   1      41.778  25.036  35.798  1.00  0.00     0.002 A 
ATOM     79  C   UNL A   1      43.590  24.595  34.288  1.00  0.00     0.091 A 
ATOM     80  F   UNL A   1      44.610  26.409  33.097  1.00  0.00    -0.205 F 
ATOM     81  C   UNL A   1      42.612  24.131  35.174  1.00  0.00     0.022 A 
BRANCH  79  82
ATOM     82  S   UNL A   1      44.647  23.327  33.550  1.00  0.00     0.127 S 
ATOM     83  O   UNL A   1      44.269  22.097  34.249  1.00  0.00    -0.237 OA
ATOM     84  O   UNL A   1      44.243  23.350  32.147  1.00  0.00    -0.237 OA
ATOM     85  O   UNL A   1      45.999  23.777  33.856  1.00  0.00    -0.744 OA
ENDBRANCH  79  82
ENDBRANCH  51  75
BRANCH  63  86
ATOM     86  C   UNL A   1      42.693  29.766  29.131  1.00  0.00     0.023 A 
ATOM     87  C   UNL A   1      43.158  28.890  28.131  1.00  0.00     0.012 A 
ATOM     88  C   UNL A   1      41.311  29.962  29.277  1.00  0.00     0.148 A 
ATOM     89  C   UNL A   1      42.261  28.223  27.292  1.00  0.00     0.002 A 
ATOM     90  C   UNL A   1      40.419  29.271  28.466  1.00  0.00     0.091 A 
ATOM     91  F   UNL A   1      40.893  30.814  30.224  1.00  0.00    -0.205 F 
ATOM     92  C   UNL A   1      40.890  28.402  27.469  1.00  0.00     0.022 A 
BRANCH  90  93
ATOM     93  S   UNL A   1      38.644  29.382  28.705  1.00  0.00     0.127 S 
ATOM     94  O   UNL A   1      38.128  28.771  27.481  1.00  0.00    -0.237 OA
ATOM     95  O   UNL A   1      38.444  28.588  29.917  1.00  0.00    -0.237 OA
ATOM     96  O   UNL A   1      38.344  30.800  28.864  1.00  0.00    -0.744 OA
ENDBRANCH  90  93
ENDBRANCH  63  86
ENDBRANCH  37  38
ENDBRANCH  30  32
ENDBRANCH  29  30
ENDBRANCH  28  29
ENDBRANCH  27  28
ENDBRANCH  26  27
ENDBRANCH   1  26
TORSDOF 24
ENDMDL
