MODEL 1
REMARK VINA RESULT:     -10.7      0.000      0.000
REMARK SMILES Cc1c(Cl)cc2c(c1C)O[C@H](C(F)(F)F)C(C(=O)OCCOCCOCCOC(=O)c1ccc(-c3c4nc(c(-c5cccc(S(=O)(=O)[O-])c5F)c5ccc([nH]5)c(-c5cccc(S(=O)(=O)[O-])c5F)c5nc(c(-c6cccc(S(=O)(=O)[O-])c6F)c6ccc3[nH]6)C=C5)C=C4)cc1)=C2
REMARK SMILES IDX 24 1 23 2 22 3 21 4 20 5 19 6 17 7 18 8 16 9 1 10 2 11 3 12
REMARK SMILES IDX 8 13 4 14 5 15 7 16 9 17 6 18 10 19 94 20 11 21 12 22 13 23
REMARK SMILES IDX 14 24 15 25 25 26 26 27 27 28 28 29 29 30 30 31 31 32 32 33
REMARK SMILES IDX 93 34 33 35 92 36 34 37 35 38 36 39 86 40 37 41 91 42 85 43
REMARK SMILES IDX 87 44 38 45 90 46 84 47 83 48 39 50 71 51 51 52 70 53 52 54
REMARK SMILES IDX 55 55 69 56 88 57 53 58 54 59 68 61 89 62 56 63 40 64 41 65
REMARK SMILES IDX 49 66 42 67 44 68 50 69 43 70 45 71 46 72 47 73 48 74 72 75
REMARK SMILES IDX 73 76 81 77 74 78 76 79 82 80 75 81 77 82 78 83 79 84 80 85
REMARK SMILES IDX 57 86 58 87 66 88 59 89 61 90 67 91 60 92 62 93 63 94 64 95
REMARK SMILES IDX 65 96
REMARK H PARENT 87 49 55 60
REMARK Flexibility Score: inf
ROOT
ATOM      1  C   UNL A   1      31.012  30.050  24.541  1.00  0.00     0.188 C 
ENDROOT
BRANCH   1   2
ATOM      2  C   UNL A   1      31.289  28.874  23.579  1.00  0.00     0.188 C 
BRANCH   2   3
ATOM      3  O   UNL A   1      30.576  27.710  23.941  1.00  0.00    -0.376 OA
BRANCH   3   4
ATOM      4  C   UNL A   1      30.609  26.585  23.088  1.00  0.00     0.202 C 
BRANCH   4   5
ATOM      5  C   UNL A   1      29.886  25.279  23.461  1.00  0.00     0.261 C 
BRANCH   5   6
ATOM      6  O   UNL A   1      30.683  24.089  23.497  1.00  0.00    -0.460 OA
BRANCH   6   7
ATOM      7  C   UNL A   1      31.027  23.617  24.714  1.00  0.00     0.338 C 
ATOM      8  O   UNL A   1      30.332  23.608  25.716  1.00  0.00    -0.246 OA
BRANCH   7   9
ATOM      9  C   UNL A   1      32.375  23.019  24.627  1.00  0.00     0.087 C 
ATOM     10  C   UNL A   1      37.704  19.279  24.999  1.00  0.00     0.046 C 
ATOM     11  C   UNL A   1      36.347  19.907  24.793  1.00  0.00    -0.026 A 
ATOM     12  C   UNL A   1      35.183  19.113  24.731  1.00  0.00     0.045 A 
ATOM     13  C   UNL A   1      36.206  21.317  24.740  1.00  0.00    -0.004 A 
ATOM     14  Cl  UNL A   1      35.237  17.386  24.825  1.00  0.00    -0.084 Cl
ATOM     15  C   UNL A   1      33.916  19.694  24.628  1.00  0.00     0.032 A 
ATOM     16  C   UNL A   1      34.918  21.886  24.607  1.00  0.00     0.131 A 
ATOM     17  C   UNL A   1      37.393  22.247  24.818  1.00  0.00     0.049 C 
ATOM     18  C   UNL A   1      33.777  21.081  24.591  1.00  0.00     0.019 A 
ATOM     19  O   UNL A   1      34.860  23.249  24.508  1.00  0.00    -0.475 OA
ATOM     20  C   UNL A   1      32.453  21.683  24.611  1.00  0.00     0.027 C 
ATOM     21  C   UNL A   1      33.575  23.924  24.545  1.00  0.00     0.316 C 
BRANCH  21  22
ATOM     22  C   UNL A   1      33.619  24.957  25.680  1.00  0.00     0.430 C 
ATOM     23  F   UNL A   1      34.846  25.527  25.776  1.00  0.00    -0.167 F 
ATOM     24  F   UNL A   1      32.743  25.970  25.479  1.00  0.00    -0.167 F 
ATOM     25  F   UNL A   1      33.336  24.406  26.881  1.00  0.00    -0.167 F 
ENDBRANCH  21  22
ENDBRANCH   7   9
ENDBRANCH   6   7
ENDBRANCH   5   6
ENDBRANCH   4   5
ENDBRANCH   3   4
ENDBRANCH   2   3
ENDBRANCH   1   2
BRANCH   1  26
ATOM     26  O   UNL A   1      31.611  30.056  25.835  1.00  0.00    -0.376 OA
BRANCH  26  27
ATOM     27  C   UNL A   1      31.070  30.912  26.837  1.00  0.00     0.202 C 
BRANCH  27  28
ATOM     28  C   UNL A   1      31.488  32.390  26.862  1.00  0.00     0.261 C 
BRANCH  28  29
ATOM     29  O   UNL A   1      32.897  32.617  26.691  1.00  0.00    -0.460 OA
BRANCH  29  30
ATOM     30  C   UNL A   1      33.493  33.340  27.672  1.00  0.00     0.338 C 
ATOM     31  O   UNL A   1      33.018  34.278  28.290  1.00  0.00    -0.246 OA
BRANCH  30  32
ATOM     32  C   UNL A   1      34.766  32.697  28.054  1.00  0.00     0.060 A 
ATOM     33  C   UNL A   1      34.768  31.308  28.255  1.00  0.00     0.016 A 
ATOM     34  C   UNL A   1      35.928  33.444  28.254  1.00  0.00     0.016 A 
ATOM     35  C   UNL A   1      35.931  30.665  28.675  1.00  0.00     0.010 A 
ATOM     36  C   UNL A   1      37.085  32.801  28.706  1.00  0.00     0.010 A 
ATOM     37  C   UNL A   1      37.082  31.415  28.946  1.00  0.00    -0.014 A 
BRANCH  37  38
ATOM     38  C   UNL A   1      38.206  30.771  29.665  1.00  0.00     0.031 A 
ATOM     39  C   UNL A   1      38.448  31.156  31.098  1.00  0.00     0.074 A 
ATOM     40  C   UNL A   1      38.978  29.843  29.073  1.00  0.00     0.049 A 
ATOM     41  N   UNL A   1      39.340  30.700  31.938  1.00  0.00    -0.248 NA
ATOM     42  C   UNL A   1      37.562  32.189  31.663  1.00  0.00     0.031 C 
ATOM     43  C   UNL A   1      38.833  29.377  27.696  1.00  0.00     0.029 A 
ATOM     44  N   UNL A   1      40.049  29.135  29.559  1.00  0.00    -0.354 N 
ATOM     45  C   UNL A   1      39.126  31.390  33.125  1.00  0.00     0.074 A 
ATOM     46  C   UNL A   1      38.038  32.313  32.893  1.00  0.00     0.031 C 
ATOM     47  C   UNL A   1      39.792  28.468  27.442  1.00  0.00     0.029 A 
ATOM     48  C   UNL A   1      40.628  28.301  28.631  1.00  0.00     0.049 A 
ATOM     49  H   UNL A   1      40.372  29.215  30.485  1.00  0.00     0.167 HD
ATOM     50  C   UNL A   1      39.761  31.248  34.311  1.00  0.00     0.034 A 
ATOM     51  C   UNL A   1      41.711  27.502  28.731  1.00  0.00     0.034 A 
ATOM     52  C   UNL A   1      40.837  30.327  34.544  1.00  0.00     0.049 A 
ATOM     53  C   UNL A   1      42.446  27.415  30.047  1.00  0.00     0.074 A 
ATOM     54  C   UNL A   1      41.520  30.089  35.724  1.00  0.00     0.029 A 
ATOM     55  N   UNL A   1      41.399  29.506  33.580  1.00  0.00    -0.354 N 
ATOM     56  N   UNL A   1      42.152  27.975  31.196  1.00  0.00    -0.248 NA
ATOM     57  C   UNL A   1      43.649  26.568  30.087  1.00  0.00     0.031 C 
ATOM     58  C   UNL A   1      42.514  29.142  35.465  1.00  0.00     0.029 A 
ATOM     59  C   UNL A   1      42.437  28.775  34.131  1.00  0.00     0.049 A 
ATOM     60  H   UNL A   1      41.104  29.451  32.642  1.00  0.00     0.167 HD
ATOM     61  C   UNL A   1      43.115  27.531  32.098  1.00  0.00     0.074 A 
ATOM     62  C   UNL A   1      43.989  26.636  31.368  1.00  0.00     0.031 C 
ATOM     63  C   UNL A   1      43.270  27.850  33.407  1.00  0.00     0.034 A 
BRANCH  50  64
ATOM     64  C   UNL A   1      39.274  32.078  35.467  1.00  0.00     0.023 A 
ATOM     65  C   UNL A   1      38.382  31.507  36.397  1.00  0.00     0.012 A 
ATOM     66  C   UNL A   1      39.752  33.386  35.677  1.00  0.00     0.148 A 
ATOM     67  C   UNL A   1      37.955  32.232  37.507  1.00  0.00     0.002 A 
ATOM     68  C   UNL A   1      39.353  34.088  36.808  1.00  0.00     0.091 A 
ATOM     69  F   UNL A   1      40.582  33.917  34.767  1.00  0.00    -0.205 F 
ATOM     70  C   UNL A   1      38.449  33.517  37.718  1.00  0.00     0.022 A 
BRANCH  68  71
ATOM     71  S   UNL A   1      39.988  35.719  37.211  1.00  0.00     0.127 S 
ATOM     72  O   UNL A   1      39.271  36.016  38.451  1.00  0.00    -0.237 OA
ATOM     73  O   UNL A   1      41.418  35.457  37.382  1.00  0.00    -0.237 OA
ATOM     74  O   UNL A   1      39.655  36.572  36.080  1.00  0.00    -0.744 OA
ENDBRANCH  68  71
ENDBRANCH  50  64
BRANCH  51  75
ATOM     75  C   UNL A   1      42.137  26.679  27.564  1.00  0.00     0.023 A 
ATOM     76  C   UNL A   1      42.907  27.273  26.545  1.00  0.00     0.012 A 
ATOM     77  C   UNL A   1      41.812  25.312  27.468  1.00  0.00     0.148 A 
ATOM     78  C   UNL A   1      43.330  26.526  25.445  1.00  0.00     0.002 A 
ATOM     79  C   UNL A   1      42.281  24.560  26.396  1.00  0.00     0.091 A 
ATOM     80  F   UNL A   1      41.062  24.769  28.437  1.00  0.00    -0.205 F 
ATOM     81  C   UNL A   1      43.027  25.169  25.375  1.00  0.00     0.022 A 
BRANCH  79  82
ATOM     82  S   UNL A   1      42.046  22.782  26.284  1.00  0.00     0.127 S 
ATOM     83  O   UNL A   1      42.659  22.481  24.992  1.00  0.00    -0.237 OA
ATOM     84  O   UNL A   1      42.796  22.308  27.447  1.00  0.00    -0.237 OA
ATOM     85  O   UNL A   1      40.609  22.567  26.365  1.00  0.00    -0.744 OA
ENDBRANCH  79  82
ENDBRANCH  51  75
BRANCH  63  86
ATOM     86  C   UNL A   1      44.428  27.244  34.161  1.00  0.00     0.023 A 
ATOM     87  C   UNL A   1      45.664  27.917  34.182  1.00  0.00     0.012 A 
ATOM     88  C   UNL A   1      44.249  26.100  34.967  1.00  0.00     0.148 A 
ATOM     89  C   UNL A   1      46.708  27.458  34.985  1.00  0.00     0.002 A 
ATOM     90  C   UNL A   1      45.278  25.677  35.800  1.00  0.00     0.091 A 
ATOM     91  F   UNL A   1      43.067  25.468  34.925  1.00  0.00    -0.205 F 
ATOM     92  C   UNL A   1      46.511  26.350  35.804  1.00  0.00     0.022 A 
BRANCH  90  93
ATOM     93  S   UNL A   1      45.086  24.327  36.971  1.00  0.00     0.127 S 
ATOM     94  O   UNL A   1      46.412  24.276  37.587  1.00  0.00    -0.237 OA
ATOM     95  O   UNL A   1      44.027  24.826  37.848  1.00  0.00    -0.237 OA
ATOM     96  O   UNL A   1      44.723  23.156  36.184  1.00  0.00    -0.744 OA
ENDBRANCH  90  93
ENDBRANCH  63  86
ENDBRANCH  37  38
ENDBRANCH  30  32
ENDBRANCH  29  30
ENDBRANCH  28  29
ENDBRANCH  27  28
ENDBRANCH  26  27
ENDBRANCH   1  26
TORSDOF 21
ENDMDL
MODEL 2
REMARK VINA RESULT:     -10.7      1.819      2.458
REMARK SMILES Cc1c(Cl)cc2c(c1C)O[C@H](C(F)(F)F)C(C(=O)OCCOCCOCCOC(=O)c1ccc(-c3c4nc(c(-c5cccc(S(=O)(=O)[O-])c5F)c5ccc([nH]5)c(-c5cccc(S(=O)(=O)[O-])c5F)c5nc(c(-c6cccc(S(=O)(=O)[O-])c6F)c6ccc3[nH]6)C=C5)C=C4)cc1)=C2
REMARK SMILES IDX 24 1 23 2 22 3 21 4 20 5 19 6 17 7 18 8 16 9 1 10 2 11 3 12
REMARK SMILES IDX 8 13 4 14 5 15 7 16 9 17 6 18 10 19 94 20 11 21 12 22 13 23
REMARK SMILES IDX 14 24 15 25 25 26 26 27 27 28 28 29 29 30 30 31 31 32 32 33
REMARK SMILES IDX 93 34 33 35 92 36 34 37 35 38 36 39 86 40 37 41 91 42 85 43
REMARK SMILES IDX 87 44 38 45 90 46 84 47 83 48 39 50 71 51 51 52 70 53 52 54
REMARK SMILES IDX 55 55 69 56 88 57 53 58 54 59 68 61 89 62 56 63 40 64 41 65
REMARK SMILES IDX 49 66 42 67 44 68 50 69 43 70 45 71 46 72 47 73 48 74 72 75
REMARK SMILES IDX 73 76 81 77 74 78 76 79 82 80 75 81 77 82 78 83 79 84 80 85
REMARK SMILES IDX 57 86 58 87 66 88 59 89 61 90 67 91 60 92 62 93 63 94 64 95
REMARK SMILES IDX 65 96
REMARK H PARENT 87 49 55 60
REMARK Flexibility Score: inf
ROOT
ATOM      1  C   UNL A   1      31.444  29.830  25.880  1.00  0.00     0.188 C 
ENDROOT
BRANCH   1   2
ATOM      2  C   UNL A   1      30.939  29.699  24.428  1.00  0.00     0.188 C 
BRANCH   2   3
ATOM      3  O   UNL A   1      31.294  28.461  23.849  1.00  0.00    -0.376 OA
BRANCH   3   4
ATOM      4  C   UNL A   1      32.506  28.353  23.132  1.00  0.00     0.202 C 
BRANCH   4   5
ATOM      5  C   UNL A   1      33.821  27.981  23.840  1.00  0.00     0.261 C 
BRANCH   5   6
ATOM      6  O   UNL A   1      34.025  26.593  24.131  1.00  0.00    -0.460 OA
BRANCH   6   7
ATOM      7  C   UNL A   1      33.618  26.154  25.341  1.00  0.00     0.338 C 
ATOM      8  O   UNL A   1      33.209  26.836  26.265  1.00  0.00    -0.246 OA
BRANCH   7   9
ATOM      9  C   UNL A   1      33.663  24.677  25.349  1.00  0.00     0.087 C 
ATOM     10  C   UNL A   1      35.106  18.359  24.623  1.00  0.00     0.046 C 
ATOM     11  C   UNL A   1      35.040  19.840  24.910  1.00  0.00    -0.026 A 
ATOM     12  C   UNL A   1      36.216  20.613  25.002  1.00  0.00     0.045 A 
ATOM     13  C   UNL A   1      33.788  20.499  25.010  1.00  0.00    -0.004 A 
ATOM     14  Cl  UNL A   1      37.793  19.917  24.855  1.00  0.00    -0.084 Cl
ATOM     15  C   UNL A   1      36.158  21.998  25.180  1.00  0.00     0.032 A 
ATOM     16  C   UNL A   1      33.750  21.898  25.218  1.00  0.00     0.131 A 
ATOM     17  C   UNL A   1      32.478  19.756  24.904  1.00  0.00     0.049 C 
ATOM     18  C   UNL A   1      34.927  22.647  25.264  1.00  0.00     0.019 A 
ATOM     19  O   UNL A   1      32.511  22.460  25.360  1.00  0.00    -0.475 OA
ATOM     20  C   UNL A   1      34.870  24.100  25.323  1.00  0.00     0.027 C 
ATOM     21  C   UNL A   1      32.372  23.905  25.402  1.00  0.00     0.316 C 
BRANCH  21  22
ATOM     22  C   UNL A   1      31.389  24.315  24.297  1.00  0.00     0.430 C 
ATOM     23  F   UNL A   1      32.034  24.535  23.124  1.00  0.00    -0.167 F 
ATOM     24  F   UNL A   1      30.469  23.351  24.051  1.00  0.00    -0.167 F 
ATOM     25  F   UNL A   1      30.719  25.447  24.605  1.00  0.00    -0.167 F 
ENDBRANCH  21  22
ENDBRANCH   7   9
ENDBRANCH   6   7
ENDBRANCH   5   6
ENDBRANCH   4   5
ENDBRANCH   3   4
ENDBRANCH   2   3
ENDBRANCH   1   2
BRANCH   1  26
ATOM     26  O   UNL A   1      32.788  30.239  26.124  1.00  0.00    -0.376 OA
BRANCH  26  27
ATOM     27  C   UNL A   1      33.051  31.117  27.215  1.00  0.00     0.202 C 
BRANCH  27  28
ATOM     28  C   UNL A   1      32.331  32.472  27.274  1.00  0.00     0.261 C 
BRANCH  28  29
ATOM     29  O   UNL A   1      33.199  33.616  27.219  1.00  0.00    -0.460 OA
BRANCH  29  30
ATOM     30  C   UNL A   1      33.313  34.317  28.374  1.00  0.00     0.338 C 
ATOM     31  O   UNL A   1      32.536  35.150  28.811  1.00  0.00    -0.246 OA
BRANCH  30  32
ATOM     32  C   UNL A   1      34.438  33.782  29.167  1.00  0.00     0.060 A 
ATOM     33  C   UNL A   1      35.740  34.126  28.777  1.00  0.00     0.016 A 
ATOM     34  C   UNL A   1      34.223  32.925  30.247  1.00  0.00     0.016 A 
ATOM     35  C   UNL A   1      36.836  33.597  29.457  1.00  0.00     0.010 A 
ATOM     36  C   UNL A   1      35.325  32.370  30.908  1.00  0.00     0.010 A 
ATOM     37  C   UNL A   1      36.634  32.681  30.497  1.00  0.00    -0.014 A 
BRANCH  37  38
ATOM     38  C   UNL A   1      37.789  31.909  31.008  1.00  0.00     0.031 A 
ATOM     39  C   UNL A   1      38.265  32.180  32.409  1.00  0.00     0.074 A 
ATOM     40  C   UNL A   1      38.389  30.966  30.261  1.00  0.00     0.049 A 
ATOM     41  N   UNL A   1      39.226  31.605  33.082  1.00  0.00    -0.248 NA
ATOM     42  C   UNL A   1      37.558  33.239  33.152  1.00  0.00     0.031 C 
ATOM     43  C   UNL A   1      38.011  30.602  28.896  1.00  0.00     0.029 A 
ATOM     44  N   UNL A   1      39.454  30.148  30.545  1.00  0.00    -0.354 N 
ATOM     45  C   UNL A   1      39.241  32.230  34.324  1.00  0.00     0.074 A 
ATOM     46  C   UNL A   1      38.213  33.246  34.303  1.00  0.00     0.031 C 
ATOM     47  C   UNL A   1      38.844  29.642  28.456  1.00  0.00     0.029 A 
ATOM     48  C   UNL A   1      39.823  29.335  29.500  1.00  0.00     0.049 A 
ATOM     49  H   UNL A   1      39.912  30.144  31.417  1.00  0.00     0.167 HD
ATOM     50  C   UNL A   1      40.024  31.964  35.394  1.00  0.00     0.034 A 
ATOM     51  C   UNL A   1      40.838  28.453  29.396  1.00  0.00     0.034 A 
ATOM     52  C   UNL A   1      41.041  30.951  35.417  1.00  0.00     0.049 A 
ATOM     53  C   UNL A   1      41.744  28.225  30.583  1.00  0.00     0.074 A 
ATOM     54  C   UNL A   1      41.862  30.586  36.469  1.00  0.00     0.029 A 
ATOM     55  N   UNL A   1      41.389  30.155  34.339  1.00  0.00    -0.354 N 
ATOM     56  N   UNL A   1      41.664  28.730  31.791  1.00  0.00    -0.248 NA
ATOM     57  C   UNL A   1      42.864  27.288  30.401  1.00  0.00     0.031 C 
ATOM     58  C   UNL A   1      42.726  29.586  36.017  1.00  0.00     0.029 A 
ATOM     59  C   UNL A   1      42.430  29.313  34.692  1.00  0.00     0.049 A 
ATOM     60  H   UNL A   1      40.960  30.183  33.453  1.00  0.00     0.167 HD
ATOM     61  C   UNL A   1      42.704  28.156  32.517  1.00  0.00     0.074 A 
ATOM     62  C   UNL A   1      43.387  27.247  31.620  1.00  0.00     0.031 C 
ATOM     63  C   UNL A   1      43.071  28.376  33.804  1.00  0.00     0.034 A 
BRANCH  50  64
ATOM     64  C   UNL A   1      39.778  32.751  36.651  1.00  0.00     0.023 A 
ATOM     65  C   UNL A   1      40.479  33.958  36.856  1.00  0.00     0.012 A 
ATOM     66  C   UNL A   1      38.809  32.345  37.589  1.00  0.00     0.148 A 
ATOM     67  C   UNL A   1      40.234  34.738  37.984  1.00  0.00     0.002 A 
ATOM     68  C   UNL A   1      38.543  33.148  38.691  1.00  0.00     0.091 A 
ATOM     69  F   UNL A   1      38.172  31.182  37.385  1.00  0.00    -0.205 F 
ATOM     70  C   UNL A   1      39.260  34.339  38.894  1.00  0.00     0.022 A 
BRANCH  68  71
ATOM     71  S   UNL A   1      37.256  32.763  39.883  1.00  0.00     0.127 S 
ATOM     72  O   UNL A   1      36.072  32.697  39.027  1.00  0.00    -0.237 OA
ATOM     73  O   UNL A   1      37.701  31.470  40.407  1.00  0.00    -0.237 OA
ATOM     74  O   UNL A   1      37.264  33.849  40.852  1.00  0.00    -0.744 OA
ENDBRANCH  68  71
ENDBRANCH  50  64
BRANCH  51  75
ATOM     75  C   UNL A   1      41.024  27.677  28.137  1.00  0.00     0.023 A 
ATOM     76  C   UNL A   1      41.597  28.309  27.015  1.00  0.00     0.012 A 
ATOM     77  C   UNL A   1      40.665  26.318  28.048  1.00  0.00     0.148 A 
ATOM     78  C   UNL A   1      41.792  27.606  25.826  1.00  0.00     0.002 A 
ATOM     79  C   UNL A   1      40.911  25.610  26.877  1.00  0.00     0.091 A 
ATOM     80  F   UNL A   1      40.103  25.739  29.119  1.00  0.00    -0.205 F 
ATOM     81  C   UNL A   1      41.461  26.256  25.760  1.00  0.00     0.022 A 
BRANCH  79  82
ATOM     82  S   UNL A   1      40.632  23.839  26.739  1.00  0.00     0.127 S 
ATOM     83  O   UNL A   1      41.518  23.482  25.634  1.00  0.00    -0.237 OA
ATOM     84  O   UNL A   1      41.064  23.365  28.054  1.00  0.00    -0.237 OA
ATOM     85  O   UNL A   1      39.207  23.684  26.480  1.00  0.00    -0.744 OA
ENDBRANCH  79  82
ENDBRANCH  51  75
BRANCH  63  86
ATOM     86  C   UNL A   1      44.268  27.637  34.347  1.00  0.00     0.023 A 
ATOM     87  C   UNL A   1      45.534  28.251  34.302  1.00  0.00     0.012 A 
ATOM     88  C   UNL A   1      44.116  26.414  35.032  1.00  0.00     0.148 A 
ATOM     89  C   UNL A   1      46.634  27.656  34.923  1.00  0.00     0.002 A 
ATOM     90  C   UNL A   1      45.205  25.851  35.688  1.00  0.00     0.091 A 
ATOM     91  F   UNL A   1      42.904  25.841  35.054  1.00  0.00    -0.205 F 
ATOM     92  C   UNL A   1      46.466  26.467  35.628  1.00  0.00     0.022 A 
BRANCH  90  93
ATOM     93  S   UNL A   1      45.068  24.381  36.712  1.00  0.00     0.127 S 
ATOM     94  O   UNL A   1      44.154  24.832  37.762  1.00  0.00    -0.237 OA
ATOM     95  O   UNL A   1      44.495  23.408  35.782  1.00  0.00    -0.237 OA
ATOM     96  O   UNL A   1      46.420  24.072  37.160  1.00  0.00    -0.744 OA
ENDBRANCH  90  93
ENDBRANCH  63  86
ENDBRANCH  37  38
ENDBRANCH  30  32
ENDBRANCH  29  30
ENDBRANCH  28  29
ENDBRANCH  27  28
ENDBRANCH  26  27
ENDBRANCH   1  26
TORSDOF 21
ENDMDL
MODEL 3
REMARK VINA RESULT:     -10.3      2.455      8.950
REMARK SMILES Cc1c(Cl)cc2c(c1C)O[C@H](C(F)(F)F)C(C(=O)OCCOCCOCCOC(=O)c1ccc(-c3c4nc(c(-c5cccc(S(=O)(=O)[O-])c5F)c5ccc([nH]5)c(-c5cccc(S(=O)(=O)[O-])c5F)c5nc(c(-c6cccc(S(=O)(=O)[O-])c6F)c6ccc3[nH]6)C=C5)C=C4)cc1)=C2
REMARK SMILES IDX 24 1 23 2 22 3 21 4 20 5 19 6 17 7 18 8 16 9 1 10 2 11 3 12
REMARK SMILES IDX 8 13 4 14 5 15 7 16 9 17 6 18 10 19 94 20 11 21 12 22 13 23
REMARK SMILES IDX 14 24 15 25 25 26 26 27 27 28 28 29 29 30 30 31 31 32 32 33
REMARK SMILES IDX 93 34 33 35 92 36 34 37 35 38 36 39 86 40 37 41 91 42 85 43
REMARK SMILES IDX 87 44 38 45 90 46 84 47 83 48 39 50 71 51 51 52 70 53 52 54
REMARK SMILES IDX 55 55 69 56 88 57 53 58 54 59 68 61 89 62 56 63 40 64 41 65
REMARK SMILES IDX 49 66 42 67 44 68 50 69 43 70 45 71 46 72 47 73 48 74 72 75
REMARK SMILES IDX 73 76 81 77 74 78 76 79 82 80 75 81 77 82 78 83 79 84 80 85
REMARK SMILES IDX 57 86 58 87 66 88 59 89 61 90 67 91 60 92 62 93 63 94 64 95
REMARK SMILES IDX 65 96
REMARK H PARENT 87 49 55 60
REMARK Flexibility Score: inf
ROOT
ATOM      1  C   UNL A   1      41.767  22.015  26.765  1.00  0.00     0.188 C 
ENDROOT
BRANCH   1   2
ATOM      2  C   UNL A   1      40.481  21.300  27.231  1.00  0.00     0.188 C 
BRANCH   2   3
ATOM      3  O   UNL A   1      39.776  20.715  26.156  1.00  0.00    -0.376 OA
BRANCH   3   4
ATOM      4  C   UNL A   1      38.858  21.498  25.423  1.00  0.00     0.202 C 
BRANCH   4   5
ATOM      5  C   UNL A   1      37.436  20.992  25.127  1.00  0.00     0.261 C 
BRANCH   5   6
ATOM      6  O   UNL A   1      36.388  21.968  25.145  1.00  0.00    -0.460 OA
BRANCH   6   7
ATOM      7  C   UNL A   1      35.141  21.536  24.856  1.00  0.00     0.338 C 
ATOM      8  O   UNL A   1      34.794  20.381  24.673  1.00  0.00    -0.246 OA
BRANCH   7   9
ATOM      9  C   UNL A   1      34.221  22.691  24.880  1.00  0.00     0.087 C 
ATOM     10  C   UNL A   1      31.363  28.545  24.596  1.00  0.00     0.046 C 
ATOM     11  C   UNL A   1      32.104  27.247  24.385  1.00  0.00    -0.026 A 
ATOM     12  C   UNL A   1      33.141  27.152  23.435  1.00  0.00     0.045 A 
ATOM     13  C   UNL A   1      31.827  26.119  25.198  1.00  0.00    -0.004 A 
ATOM     14  Cl  UNL A   1      33.589  28.479  22.418  1.00  0.00    -0.084 Cl
ATOM     15  C   UNL A   1      33.889  25.979  23.296  1.00  0.00     0.032 A 
ATOM     16  C   UNL A   1      32.575  24.932  25.024  1.00  0.00     0.131 A 
ATOM     17  C   UNL A   1      30.747  26.135  26.254  1.00  0.00     0.049 C 
ATOM     18  C   UNL A   1      33.625  24.875  24.106  1.00  0.00     0.019 A 
ATOM     19  O   UNL A   1      32.219  23.865  25.803  1.00  0.00    -0.475 OA
ATOM     20  C   UNL A   1      34.485  23.703  24.045  1.00  0.00     0.027 C 
ATOM     21  C   UNL A   1      33.041  22.669  25.814  1.00  0.00     0.316 C 
BRANCH  21  22
ATOM     22  C   UNL A   1      33.441  22.387  27.270  1.00  0.00     0.430 C 
ATOM     23  F   UNL A   1      33.665  21.064  27.468  1.00  0.00    -0.167 F 
ATOM     24  F   UNL A   1      34.585  23.024  27.615  1.00  0.00    -0.167 F 
ATOM     25  F   UNL A   1      32.484  22.768  28.144  1.00  0.00    -0.167 F 
ENDBRANCH  21  22
ENDBRANCH   7   9
ENDBRANCH   6   7
ENDBRANCH   5   6
ENDBRANCH   4   5
ENDBRANCH   3   4
ENDBRANCH   2   3
ENDBRANCH   1   2
BRANCH   1  26
ATOM     26  O   UNL A   1      42.727  21.300  25.990  1.00  0.00    -0.376 OA
BRANCH  26  27
ATOM     27  C   UNL A   1      43.957  21.940  25.661  1.00  0.00     0.202 C 
BRANCH  27  28
ATOM     28  C   UNL A   1      44.030  22.810  24.397  1.00  0.00     0.261 C 
BRANCH  28  29
ATOM     29  O   UNL A   1      43.439  24.114  24.531  1.00  0.00    -0.460 OA
BRANCH  29  30
ATOM     30  C   UNL A   1      44.243  25.066  25.068  1.00  0.00     0.338 C 
ATOM     31  O   UNL A   1      45.360  25.383  24.697  1.00  0.00    -0.246 OA
BRANCH  30  32
ATOM     32  C   UNL A   1      43.487  25.838  26.075  1.00  0.00     0.060 A 
ATOM     33  C   UNL A   1      43.736  27.215  26.171  1.00  0.00     0.016 A 
ATOM     34  C   UNL A   1      42.583  25.219  26.939  1.00  0.00     0.016 A 
ATOM     35  C   UNL A   1      43.093  27.976  27.145  1.00  0.00     0.010 A 
ATOM     36  C   UNL A   1      41.962  25.978  27.937  1.00  0.00     0.010 A 
ATOM     37  C   UNL A   1      42.237  27.352  28.062  1.00  0.00    -0.014 A 
BRANCH  37  38
ATOM     38  C   UNL A   1      41.798  28.104  29.260  1.00  0.00     0.031 A 
ATOM     39  C   UNL A   1      40.482  28.830  29.203  1.00  0.00     0.074 A 
ATOM     40  C   UNL A   1      42.532  28.122  30.385  1.00  0.00     0.049 A 
ATOM     41  N   UNL A   1      39.875  29.518  30.134  1.00  0.00    -0.248 NA
ATOM     42  C   UNL A   1      39.749  28.767  27.926  1.00  0.00     0.031 C 
ATOM     43  C   UNL A   1      43.816  27.447  30.568  1.00  0.00     0.029 A 
ATOM     44  N   UNL A   1      42.304  28.744  31.588  1.00  0.00    -0.354 N 
ATOM     45  C   UNL A   1      38.694  29.970  29.558  1.00  0.00     0.074 A 
ATOM     46  C   UNL A   1      38.680  29.503  28.190  1.00  0.00     0.031 C 
ATOM     47  C   UNL A   1      44.270  27.705  31.807  1.00  0.00     0.029 A 
ATOM     48  C   UNL A   1      43.319  28.576  32.500  1.00  0.00     0.049 A 
ATOM     49  H   UNL A   1      41.489  29.263  31.779  1.00  0.00     0.167 HD
ATOM     50  C   UNL A   1      37.698  30.688  30.126  1.00  0.00     0.034 A 
ATOM     51  C   UNL A   1      43.465  29.073  33.745  1.00  0.00     0.034 A 
ATOM     52  C   UNL A   1      37.709  31.147  31.486  1.00  0.00     0.049 A 
ATOM     53  C   UNL A   1      42.370  29.932  34.331  1.00  0.00     0.074 A 
ATOM     54  C   UNL A   1      36.728  31.852  32.159  1.00  0.00     0.029 A 
ATOM     55  N   UNL A   1      38.755  30.962  32.375  1.00  0.00    -0.354 N 
ATOM     56  N   UNL A   1      41.202  30.243  33.821  1.00  0.00    -0.248 NA
ATOM     57  C   UNL A   1      42.602  30.489  35.673  1.00  0.00     0.031 C 
ATOM     58  C   UNL A   1      37.194  32.118  33.450  1.00  0.00     0.029 A 
ATOM     59  C   UNL A   1      38.455  31.561  33.586  1.00  0.00     0.049 A 
ATOM     60  H   UNL A   1      39.589  30.478  32.175  1.00  0.00     0.167 HD
ATOM     61  C   UNL A   1      40.552  31.008  34.785  1.00  0.00     0.074 A 
ATOM     62  C   UNL A   1      41.447  31.095  35.921  1.00  0.00     0.031 C 
ATOM     63  C   UNL A   1      39.333  31.600  34.728  1.00  0.00     0.034 A 
BRANCH  50  64
ATOM     64  C   UNL A   1      36.485  30.983  29.287  1.00  0.00     0.023 A 
ATOM     65  C   UNL A   1      35.756  29.912  28.731  1.00  0.00     0.012 A 
ATOM     66  C   UNL A   1      36.023  32.301  29.112  1.00  0.00     0.148 A 
ATOM     67  C   UNL A   1      34.597  30.149  27.995  1.00  0.00     0.002 A 
ATOM     68  C   UNL A   1      34.845  32.527  28.410  1.00  0.00     0.091 A 
ATOM     69  F   UNL A   1      36.745  33.305  29.631  1.00  0.00    -0.205 F 
ATOM     70  C   UNL A   1      34.137  31.454  27.844  1.00  0.00     0.022 A 
BRANCH  68  71
ATOM     71  S   UNL A   1      34.126  34.162  28.223  1.00  0.00     0.127 S 
ATOM     72  O   UNL A   1      34.402  34.757  29.530  1.00  0.00    -0.237 OA
ATOM     73  O   UNL A   1      34.914  34.719  27.122  1.00  0.00    -0.237 OA
ATOM     74  O   UNL A   1      32.718  33.952  27.920  1.00  0.00    -0.744 OA
ENDBRANCH  68  71
ENDBRANCH  50  64
BRANCH  51  75
ATOM     75  C   UNL A   1      44.675  28.731  34.546  1.00  0.00     0.023 A 
ATOM     76  C   UNL A   1      45.836  29.517  34.414  1.00  0.00     0.012 A 
ATOM     77  C   UNL A   1      44.677  27.654  35.454  1.00  0.00     0.148 A 
ATOM     78  C   UNL A   1      46.980  29.227  35.157  1.00  0.00     0.002 A 
ATOM     79  C   UNL A   1      45.803  27.402  36.230  1.00  0.00     0.091 A 
ATOM     80  F   UNL A   1      43.570  26.904  35.551  1.00  0.00    -0.205 F 
ATOM     81  C   UNL A   1      46.961  28.178  36.072  1.00  0.00     0.022 A 
BRANCH  79  82
ATOM     82  S   UNL A   1      45.830  26.152  37.522  1.00  0.00     0.127 S 
ATOM     83  O   UNL A   1      45.371  24.967  36.801  1.00  0.00    -0.237 OA
ATOM     84  O   UNL A   1      47.245  26.138  37.894  1.00  0.00    -0.237 OA
ATOM     85  O   UNL A   1      44.937  26.641  38.563  1.00  0.00    -0.744 OA
ENDBRANCH  79  82
ENDBRANCH  51  75
BRANCH  63  86
ATOM     86  C   UNL A   1      38.870  32.408  35.914  1.00  0.00     0.023 A 
ATOM     87  C   UNL A   1      38.014  31.813  36.860  1.00  0.00     0.012 A 
ATOM     88  C   UNL A   1      39.400  33.690  36.169  1.00  0.00     0.148 A 
ATOM     89  C   UNL A   1      37.683  32.483  38.038  1.00  0.00     0.002 A 
ATOM     90  C   UNL A   1      39.104  34.331  37.367  1.00  0.00     0.091 A 
ATOM     91  F   UNL A   1      40.206  34.242  35.252  1.00  0.00    -0.205 F 
ATOM     92  C   UNL A   1      38.239  33.732  38.298  1.00  0.00     0.022 A 
BRANCH  90  93
ATOM     93  S   UNL A   1      39.855  35.892  37.844  1.00  0.00     0.127 S 
ATOM     94  O   UNL A   1      39.595  36.721  36.666  1.00  0.00    -0.237 OA
ATOM     95  O   UNL A   1      39.080  36.259  39.029  1.00  0.00    -0.237 OA
ATOM     96  O   UNL A   1      41.260  35.605  38.101  1.00  0.00    -0.744 OA
ENDBRANCH  90  93
ENDBRANCH  63  86
ENDBRANCH  37  38
ENDBRANCH  30  32
ENDBRANCH  29  30
ENDBRANCH  28  29
ENDBRANCH  27  28
ENDBRANCH  26  27
ENDBRANCH   1  26
TORSDOF 21
ENDMDL
