MODEL 1
REMARK VINA RESULT:      -8.6      0.000      0.000
REMARK SMILES Cc1ccc(C#N)cc1Nc1cc(C)c(N)c(C(=O)OCCOCCOCCOC(=O)c2ccc(-c3c4nc(c(-c5cccc(S(=O)(=O)[O-])c5F)c5ccc([nH]5)c(-c5cccc(S(=O)(=O)[O-])c5F)c5nc(c(-c6cccc(S(=O)(=O)[O-])c6F)c6ccc3[nH]6)C=C5)C=C4)cc2)c1
REMARK SMILES IDX 24 1 23 2 22 3 21 4 20 5 18 6 19 7 17 8 11 9 12 10 95 11
REMARK SMILES IDX 13 12 14 13 15 14 10 15 9 17 1 18 2 19 3 20 4 21 8 22 5 23
REMARK SMILES IDX 6 24 7 25 16 26 25 29 26 30 27 31 28 32 29 33 30 34 31 35
REMARK SMILES IDX 32 36 33 37 94 38 34 39 93 40 35 41 36 42 37 43 87 44 38 45
REMARK SMILES IDX 92 46 86 47 88 48 39 49 91 50 85 51 84 52 40 54 72 55 52 56
REMARK SMILES IDX 71 57 53 58 56 59 70 60 89 61 54 62 55 63 69 65 90 66 57 67
REMARK SMILES IDX 41 68 42 69 50 70 43 71 45 72 51 73 44 74 46 75 47 76 48 77
REMARK SMILES IDX 49 78 73 79 74 80 82 81 75 82 77 83 83 84 76 85 78 86 79 87
REMARK SMILES IDX 80 88 81 89 58 90 59 91 67 92 60 93 62 94 68 95 61 96 63 97
REMARK SMILES IDX 64 98 65 99 66 100
REMARK H PARENT 10 16 16 27 16 28 88 53 56 64
REMARK Flexibility Score: inf
ROOT
ATOM      1  C   UNL A   1      33.554  36.918  31.828  1.00  0.00     0.188 C 
ENDROOT
BRANCH   1   2
ATOM      2  O   UNL A   1      32.866  36.003  31.006  1.00  0.00    -0.376 OA
BRANCH   2   3
ATOM      3  C   UNL A   1      33.219  35.906  29.638  1.00  0.00     0.202 C 
BRANCH   3   4
ATOM      4  C   UNL A   1      33.566  34.591  28.906  1.00  0.00     0.261 C 
BRANCH   4   5
ATOM      5  O   UNL A   1      34.842  33.992  29.149  1.00  0.00    -0.460 OA
BRANCH   5   6
ATOM      6  C   UNL A   1      34.853  32.867  29.912  1.00  0.00     0.340 C 
ATOM      7  O   UNL A   1      34.287  32.725  30.983  1.00  0.00    -0.246 OA
BRANCH   6   8
ATOM      8  C   UNL A   1      35.504  31.759  29.157  1.00  0.00     0.085 A 
ATOM      9  C   UNL A   1      37.525  30.478  28.718  1.00  0.00     0.040 A 
ATOM     10  C   UNL A   1      36.785  29.667  27.855  1.00  0.00     0.031 A 
ATOM     11  C   UNL A   1      36.881  31.559  29.322  1.00  0.00     0.044 A 
ATOM     12  C   UNL A   1      35.414  29.892  27.616  1.00  0.00    -0.025 A 
ATOM     13  C   UNL A   1      34.711  28.896  26.727  1.00  0.00     0.047 C 
ATOM     14  C   UNL A   1      34.744  30.925  28.304  1.00  0.00     0.049 A 
BRANCH   9  15
ATOM     15  N   UNL A   1      38.824  30.082  29.095  1.00  0.00    -0.355 N 
ATOM     16  H   UNL A   1      39.265  30.645  29.772  1.00  0.00     0.167 HD
BRANCH  15  17
ATOM     17  C   UNL A   1      39.573  28.981  28.624  1.00  0.00     0.043 A 
ATOM     18  C   UNL A   1      38.840  27.514  30.590  1.00  0.00     0.046 C 
ATOM     19  C   UNL A   1      39.540  27.732  29.275  1.00  0.00    -0.027 A 
ATOM     20  C   UNL A   1      40.267  26.651  28.734  1.00  0.00     0.007 A 
ATOM     21  C   UNL A   1      40.999  26.787  27.553  1.00  0.00     0.020 A 
ATOM     22  C   UNL A   1      40.345  29.096  27.451  1.00  0.00     0.045 A 
ATOM     23  C   UNL A   1      41.041  28.016  26.908  1.00  0.00     0.054 A 
BRANCH  23  24
ATOM     24  C   UNL A   1      41.790  28.193  25.703  1.00  0.00     0.099 C 
ATOM     25  N   UNL A   1      42.392  28.335  24.717  1.00  0.00    -0.192 NA
ENDBRANCH  23  24
ENDBRANCH  15  17
ENDBRANCH   9  15
BRANCH  14  26
ATOM     26  N   UNL A   1      33.418  31.247  27.991  1.00  0.00    -0.398 N 
ATOM     27  H   UNL A   1      32.862  30.607  27.491  1.00  0.00     0.156 HD
ATOM     28  H   UNL A   1      33.042  32.112  28.272  1.00  0.00     0.156 HD
ENDBRANCH  14  26
ENDBRANCH   6   8
ENDBRANCH   5   6
ENDBRANCH   4   5
ENDBRANCH   3   4
ENDBRANCH   2   3
ENDBRANCH   1   2
BRANCH   1  29
ATOM     29  C   UNL A   1      34.076  36.298  33.144  1.00  0.00     0.188 C 
BRANCH  29  30
ATOM     30  O   UNL A   1      35.067  35.283  33.098  1.00  0.00    -0.376 OA
BRANCH  30  31
ATOM     31  C   UNL A   1      35.253  34.458  34.238  1.00  0.00     0.202 C 
BRANCH  31  32
ATOM     32  C   UNL A   1      36.136  33.192  34.207  1.00  0.00     0.261 C 
BRANCH  32  33
ATOM     33  O   UNL A   1      37.552  33.368  34.046  1.00  0.00    -0.460 OA
BRANCH  33  34
ATOM     34  C   UNL A   1      38.049  33.206  32.790  1.00  0.00     0.338 C 
ATOM     35  O   UNL A   1      37.703  33.794  31.780  1.00  0.00    -0.246 OA
BRANCH  34  36
ATOM     36  C   UNL A   1      39.222  32.307  32.876  1.00  0.00     0.060 A 
ATOM     37  C   UNL A   1      39.033  30.926  32.857  1.00  0.00     0.016 A 
ATOM     38  C   UNL A   1      40.511  32.842  33.026  1.00  0.00     0.016 A 
ATOM     39  C   UNL A   1      40.136  30.081  32.997  1.00  0.00     0.010 A 
ATOM     40  C   UNL A   1      41.610  31.993  33.191  1.00  0.00     0.010 A 
ATOM     41  C   UNL A   1      41.432  30.604  33.168  1.00  0.00    -0.014 A 
BRANCH  41  42
ATOM     42  C   UNL A   1      42.599  29.685  33.182  1.00  0.00     0.031 A 
ATOM     43  C   UNL A   1      43.210  29.150  31.921  1.00  0.00     0.074 A 
ATOM     44  C   UNL A   1      43.113  29.334  34.377  1.00  0.00     0.049 A 
ATOM     45  N   UNL A   1      44.282  28.410  31.787  1.00  0.00    -0.248 NA
ATOM     46  C   UNL A   1      42.546  29.481  30.652  1.00  0.00     0.031 C 
ATOM     47  C   UNL A   1      42.586  29.763  35.672  1.00  0.00     0.029 A 
ATOM     48  N   UNL A   1      44.190  28.546  34.696  1.00  0.00    -0.354 N 
ATOM     49  C   UNL A   1      44.419  28.174  30.425  1.00  0.00     0.074 A 
ATOM     50  C   UNL A   1      43.313  28.845  29.772  1.00  0.00     0.031 C 
ATOM     51  C   UNL A   1      43.354  29.255  36.647  1.00  0.00     0.029 A 
ATOM     52  C   UNL A   1      44.408  28.441  36.049  1.00  0.00     0.049 A 
ATOM     53  H   UNL A   1      44.752  28.100  34.022  1.00  0.00     0.167 HD
ATOM     54  C   UNL A   1      45.384  27.472  29.784  1.00  0.00     0.034 A 
ATOM     55  C   UNL A   1      45.349  27.769  36.740  1.00  0.00     0.034 A 
ATOM     56  C   UNL A   1      46.490  26.816  30.434  1.00  0.00     0.049 A 
ATOM     57  C   UNL A   1      46.399  26.991  36.003  1.00  0.00     0.074 A 
ATOM     58  C   UNL A   1      47.548  26.142  29.846  1.00  0.00     0.029 A 
ATOM     59  N   UNL A   1      46.673  26.724  31.803  1.00  0.00    -0.354 N 
ATOM     60  N   UNL A   1      46.579  26.879  34.710  1.00  0.00    -0.248 NA
ATOM     61  C   UNL A   1      47.388  26.268  36.814  1.00  0.00     0.031 C 
ATOM     62  C   UNL A   1      48.345  25.605  30.860  1.00  0.00     0.029 A 
ATOM     63  C   UNL A   1      47.809  25.980  32.080  1.00  0.00     0.049 A 
ATOM     64  H   UNL A   1      46.081  27.126  32.481  1.00  0.00     0.167 HD
ATOM     65  C   UNL A   1      47.711  26.090  34.550  1.00  0.00     0.074 A 
ATOM     66  C   UNL A   1      48.184  25.763  35.879  1.00  0.00     0.031 C 
ATOM     67  C   UNL A   1      48.294  25.672  33.402  1.00  0.00     0.034 A 
BRANCH  54  68
ATOM     68  C   UNL A   1      45.324  27.378  28.282  1.00  0.00     0.023 A 
ATOM     69  C   UNL A   1      45.896  28.398  27.497  1.00  0.00     0.012 A 
ATOM     70  C   UNL A   1      44.829  26.217  27.658  1.00  0.00     0.148 A 
ATOM     71  C   UNL A   1      45.973  28.263  26.111  1.00  0.00     0.002 A 
ATOM     72  C   UNL A   1      44.933  26.077  26.280  1.00  0.00     0.091 A 
ATOM     73  F   UNL A   1      44.287  25.262  28.429  1.00  0.00    -0.205 F 
ATOM     74  C   UNL A   1      45.504  27.100  25.505  1.00  0.00     0.022 A 
BRANCH  72  75
ATOM     75  S   UNL A   1      44.396  24.602  25.408  1.00  0.00     0.127 S 
ATOM     76  O   UNL A   1      43.140  25.055  24.811  1.00  0.00    -0.237 OA
ATOM     77  O   UNL A   1      45.485  24.395  24.454  1.00  0.00    -0.237 OA
ATOM     78  O   UNL A   1      44.257  23.562  26.418  1.00  0.00    -0.744 OA
ENDBRANCH  72  75
ENDBRANCH  54  68
BRANCH  55  79
ATOM     79  C   UNL A   1      45.356  27.867  38.223  1.00  0.00     0.023 A 
ATOM     80  C   UNL A   1      44.798  26.823  38.984  1.00  0.00     0.012 A 
ATOM     81  C   UNL A   1      45.995  28.939  38.874  1.00  0.00     0.148 A 
ATOM     82  C   UNL A   1      44.883  26.842  40.376  1.00  0.00     0.002 A 
ATOM     83  C   UNL A   1      46.103  28.936  40.258  1.00  0.00     0.091 A 
ATOM     84  F   UNL A   1      46.521  29.913  38.120  1.00  0.00    -0.205 F 
ATOM     85  C   UNL A   1      45.545  27.890  41.011  1.00  0.00     0.022 A 
BRANCH  83  86
ATOM     86  S   UNL A   1      46.997  30.202  41.163  1.00  0.00     0.127 S 
ATOM     87  O   UNL A   1      46.572  29.941  42.538  1.00  0.00    -0.237 OA
ATOM     88  O   UNL A   1      48.386  29.851  40.871  1.00  0.00    -0.237 OA
ATOM     89  O   UNL A   1      46.558  31.474  40.610  1.00  0.00    -0.744 OA
ENDBRANCH  83  86
ENDBRANCH  55  79
BRANCH  67  90
ATOM     90  C   UNL A   1      49.525  24.811  33.505  1.00  0.00     0.023 A 
ATOM     91  C   UNL A   1      50.799  25.398  33.378  1.00  0.00     0.012 A 
ATOM     92  C   UNL A   1      49.421  23.444  33.832  1.00  0.00     0.148 A 
ATOM     93  C   UNL A   1      51.951  24.633  33.561  1.00  0.00     0.002 A 
ATOM     94  C   UNL A   1      50.572  22.695  34.044  1.00  0.00     0.091 A 
ATOM     95  F   UNL A   1      48.197  22.907  33.944  1.00  0.00    -0.205 F 
ATOM     96  C   UNL A   1      51.839  23.288  33.905  1.00  0.00     0.022 A 
BRANCH  94  97
ATOM     97  S   UNL A   1      50.532  20.968  34.535  1.00  0.00     0.127 S 
ATOM     98  O   UNL A   1      50.212  20.308  33.270  1.00  0.00    -0.237 OA
ATOM     99  O   UNL A   1      51.898  20.750  35.008  1.00  0.00    -0.237 OA
ATOM    100  O   UNL A   1      49.506  20.863  35.563  1.00  0.00    -0.744 OA
ENDBRANCH  94  97
ENDBRANCH  67  90
ENDBRANCH  41  42
ENDBRANCH  34  36
ENDBRANCH  33  34
ENDBRANCH  32  33
ENDBRANCH  31  32
ENDBRANCH  30  31
ENDBRANCH  29  30
ENDBRANCH   1  29
TORSDOF 24
ENDMDL
MODEL 2
REMARK VINA RESULT:      -7.8      2.787      8.151
REMARK SMILES Cc1ccc(C#N)cc1Nc1cc(C)c(N)c(C(=O)OCCOCCOCCOC(=O)c2ccc(-c3c4nc(c(-c5cccc(S(=O)(=O)[O-])c5F)c5ccc([nH]5)c(-c5cccc(S(=O)(=O)[O-])c5F)c5nc(c(-c6cccc(S(=O)(=O)[O-])c6F)c6ccc3[nH]6)C=C5)C=C4)cc2)c1
REMARK SMILES IDX 24 1 23 2 22 3 21 4 20 5 18 6 19 7 17 8 11 9 12 10 95 11
REMARK SMILES IDX 13 12 14 13 15 14 10 15 9 17 1 18 2 19 3 20 4 21 8 22 5 23
REMARK SMILES IDX 6 24 7 25 16 26 25 29 26 30 27 31 28 32 29 33 30 34 31 35
REMARK SMILES IDX 32 36 33 37 94 38 34 39 93 40 35 41 36 42 37 43 87 44 38 45
REMARK SMILES IDX 92 46 86 47 88 48 39 49 91 50 85 51 84 52 40 54 72 55 52 56
REMARK SMILES IDX 71 57 53 58 56 59 70 60 89 61 54 62 55 63 69 65 90 66 57 67
REMARK SMILES IDX 41 68 42 69 50 70 43 71 45 72 51 73 44 74 46 75 47 76 48 77
REMARK SMILES IDX 49 78 73 79 74 80 82 81 75 82 77 83 83 84 76 85 78 86 79 87
REMARK SMILES IDX 80 88 81 89 58 90 59 91 67 92 60 93 62 94 68 95 61 96 63 97
REMARK SMILES IDX 64 98 65 99 66 100
REMARK H PARENT 10 16 16 27 16 28 88 53 56 64
REMARK Flexibility Score: inf
ROOT
ATOM      1  C   UNL A   1      33.687  37.726  32.236  1.00  0.00     0.188 C 
ENDROOT
BRANCH   1   2
ATOM      2  O   UNL A   1      32.731  37.386  31.258  1.00  0.00    -0.376 OA
BRANCH   2   3
ATOM      3  C   UNL A   1      33.128  36.589  30.156  1.00  0.00     0.202 C 
BRANCH   3   4
ATOM      4  C   UNL A   1      32.888  35.067  30.034  1.00  0.00     0.261 C 
BRANCH   4   5
ATOM      5  O   UNL A   1      32.998  34.462  28.743  1.00  0.00    -0.460 OA
BRANCH   5   6
ATOM      6  C   UNL A   1      34.249  34.362  28.221  1.00  0.00     0.340 C 
ATOM      7  O   UNL A   1      34.984  35.295  27.943  1.00  0.00    -0.246 OA
BRANCH   6   8
ATOM      8  C   UNL A   1      34.673  32.933  28.210  1.00  0.00     0.085 A 
ATOM      9  C   UNL A   1      34.021  30.595  28.059  1.00  0.00     0.040 A 
ATOM     10  C   UNL A   1      35.373  30.247  28.104  1.00  0.00     0.031 A 
ATOM     11  C   UNL A   1      33.682  31.944  28.170  1.00  0.00     0.044 A 
ATOM     12  C   UNL A   1      36.387  31.220  28.219  1.00  0.00    -0.025 A 
ATOM     13  C   UNL A   1      37.810  30.722  28.175  1.00  0.00     0.047 C 
ATOM     14  C   UNL A   1      36.045  32.589  28.232  1.00  0.00     0.049 A 
BRANCH   9  15
ATOM     15  N   UNL A   1      33.066  29.614  27.721  1.00  0.00    -0.355 N 
ATOM     16  H   UNL A   1      32.388  29.420  28.408  1.00  0.00     0.167 HD
BRANCH  15  17
ATOM     17  C   UNL A   1      32.961  28.873  26.523  1.00  0.00     0.043 A 
ATOM     18  C   UNL A   1      31.405  30.612  25.468  1.00  0.00     0.046 C 
ATOM     19  C   UNL A   1      32.239  29.359  25.415  1.00  0.00    -0.027 A 
ATOM     20  C   UNL A   1      32.207  28.603  24.224  1.00  0.00     0.007 A 
ATOM     21  C   UNL A   1      32.899  27.395  24.114  1.00  0.00     0.020 A 
ATOM     22  C   UNL A   1      33.623  27.637  26.391  1.00  0.00     0.045 A 
ATOM     23  C   UNL A   1      33.608  26.906  25.203  1.00  0.00     0.054 A 
BRANCH  23  24
ATOM     24  C   UNL A   1      34.318  25.667  25.127  1.00  0.00     0.099 C 
ATOM     25  N   UNL A   1      34.902  24.661  25.071  1.00  0.00    -0.192 NA
ENDBRANCH  23  24
ENDBRANCH  15  17
ENDBRANCH   9  15
BRANCH  14  26
ATOM     26  N   UNL A   1      37.020  33.565  28.469  1.00  0.00    -0.398 N 
ATOM     27  H   UNL A   1      37.303  34.164  27.741  1.00  0.00     0.156 HD
ATOM     28  H   UNL A   1      37.421  33.652  29.364  1.00  0.00     0.156 HD
ENDBRANCH  14  26
ENDBRANCH   6   8
ENDBRANCH   5   6
ENDBRANCH   4   5
ENDBRANCH   3   4
ENDBRANCH   2   3
ENDBRANCH   1   2
BRANCH   1  29
ATOM     29  C   UNL A   1      33.689  36.779  33.456  1.00  0.00     0.188 C 
BRANCH  29  30
ATOM     30  O   UNL A   1      34.131  35.439  33.304  1.00  0.00    -0.376 OA
BRANCH  30  31
ATOM     31  C   UNL A   1      35.164  34.959  34.151  1.00  0.00     0.202 C 
BRANCH  31  32
ATOM     32  C   UNL A   1      36.162  33.870  33.703  1.00  0.00     0.261 C 
BRANCH  32  33
ATOM     33  O   UNL A   1      36.240  33.571  32.300  1.00  0.00    -0.460 OA
BRANCH  33  34
ATOM     34  C   UNL A   1      36.110  32.265  31.945  1.00  0.00     0.338 C 
ATOM     35  O   UNL A   1      35.103  31.709  31.544  1.00  0.00    -0.246 OA
BRANCH  34  36
ATOM     36  C   UNL A   1      37.458  31.651  31.958  1.00  0.00     0.060 A 
ATOM     37  C   UNL A   1      38.538  32.356  31.431  1.00  0.00     0.016 A 
ATOM     38  C   UNL A   1      37.635  30.350  32.453  1.00  0.00     0.016 A 
ATOM     39  C   UNL A   1      39.797  31.752  31.391  1.00  0.00     0.010 A 
ATOM     40  C   UNL A   1      38.892  29.739  32.388  1.00  0.00     0.010 A 
ATOM     41  C   UNL A   1      39.986  30.440  31.865  1.00  0.00    -0.014 A 
BRANCH  41  42
ATOM     42  C   UNL A   1      41.357  29.873  31.931  1.00  0.00     0.031 A 
ATOM     43  C   UNL A   1      42.278  30.141  33.085  1.00  0.00     0.074 A 
ATOM     44  C   UNL A   1      41.769  29.093  30.913  1.00  0.00     0.049 A 
ATOM     45  N   UNL A   1      43.466  29.640  33.311  1.00  0.00    -0.248 NA
ATOM     46  C   UNL A   1      41.816  31.081  34.116  1.00  0.00     0.031 C 
ATOM     47  C   UNL A   1      40.977  28.786  29.722  1.00  0.00     0.029 A 
ATOM     48  N   UNL A   1      42.945  28.414  30.720  1.00  0.00    -0.354 N 
ATOM     49  C   UNL A   1      43.904  30.209  34.500  1.00  0.00     0.074 A 
ATOM     50  C   UNL A   1      42.854  31.102  34.947  1.00  0.00     0.031 C 
ATOM     51  C   UNL A   1      41.678  27.961  28.932  1.00  0.00     0.029 A 
ATOM     52  C   UNL A   1      42.978  27.704  29.544  1.00  0.00     0.049 A 
ATOM     53  H   UNL A   1      43.693  28.434  31.360  1.00  0.00     0.167 HD
ATOM     54  C   UNL A   1      45.069  29.995  35.158  1.00  0.00     0.034 A 
ATOM     55  C   UNL A   1      43.942  26.928  29.010  1.00  0.00     0.034 A 
ATOM     56  C   UNL A   1      46.107  29.097  34.718  1.00  0.00     0.049 A 
ATOM     57  C   UNL A   1      45.226  26.718  29.757  1.00  0.00     0.074 A 
ATOM     58  C   UNL A   1      47.288  28.774  35.366  1.00  0.00     0.029 A 
ATOM     59  N   UNL A   1      46.109  28.403  33.520  1.00  0.00    -0.354 N 
ATOM     60  N   UNL A   1      45.571  27.172  30.936  1.00  0.00    -0.248 NA
ATOM     61  C   UNL A   1      46.242  25.873  29.114  1.00  0.00     0.031 C 
ATOM     62  C   UNL A   1      48.024  27.921  34.540  1.00  0.00     0.029 A 
ATOM     63  C   UNL A   1      47.282  27.676  33.396  1.00  0.00     0.049 A 
ATOM     64  H   UNL A   1      45.384  28.424  32.853  1.00  0.00     0.167 HD
ATOM     65  C   UNL A   1      46.835  26.654  31.188  1.00  0.00     0.074 A 
ATOM     66  C   UNL A   1      47.190  25.840  30.044  1.00  0.00     0.031 C 
ATOM     67  C   UNL A   1      47.627  26.848  32.269  1.00  0.00     0.034 A 
BRANCH  54  68
ATOM     68  C   UNL A   1      45.304  30.724  36.454  1.00  0.00     0.023 A 
ATOM     69  C   UNL A   1      44.927  30.122  37.670  1.00  0.00     0.012 A 
ATOM     70  C   UNL A   1      46.022  31.936  36.473  1.00  0.00     0.148 A 
ATOM     71  C   UNL A   1      45.261  30.718  38.887  1.00  0.00     0.002 A 
ATOM     72  C   UNL A   1      46.374  32.510  37.688  1.00  0.00     0.091 A 
ATOM     73  F   UNL A   1      46.367  32.490  35.300  1.00  0.00    -0.205 F 
ATOM     74  C   UNL A   1      45.993  31.902  38.896  1.00  0.00     0.022 A 
BRANCH  72  75
ATOM     75  S   UNL A   1      47.351  34.012  37.808  1.00  0.00     0.127 S 
ATOM     76  O   UNL A   1      47.136  34.390  39.205  1.00  0.00    -0.237 OA
ATOM     77  O   UNL A   1      48.697  33.528  37.506  1.00  0.00    -0.237 OA
ATOM     78  O   UNL A   1      46.795  34.936  36.829  1.00  0.00    -0.744 OA
ENDBRANCH  72  75
ENDBRANCH  54  68
BRANCH  55  79
ATOM     79  C   UNL A   1      43.679  26.248  27.715  1.00  0.00     0.023 A 
ATOM     80  C   UNL A   1      44.180  26.811  26.528  1.00  0.00     0.012 A 
ATOM     81  C   UNL A   1      43.021  25.004  27.671  1.00  0.00     0.148 A 
ATOM     82  C   UNL A   1      44.036  26.142  25.312  1.00  0.00     0.002 A 
ATOM     83  C   UNL A   1      42.908  24.328  26.464  1.00  0.00     0.091 A 
ATOM     84  F   UNL A   1      42.562  24.491  28.821  1.00  0.00    -0.205 F 
ATOM     85  C   UNL A   1      43.411  24.897  25.282  1.00  0.00     0.022 A 
BRANCH  83  86
ATOM     86  S   UNL A   1      42.187  22.690  26.333  1.00  0.00     0.127 S 
ATOM     87  O   UNL A   1      40.762  22.979  26.488  1.00  0.00    -0.237 OA
ATOM     88  O   UNL A   1      42.592  22.294  24.985  1.00  0.00    -0.237 OA
ATOM     89  O   UNL A   1      42.780  21.905  27.406  1.00  0.00    -0.744 OA
ENDBRANCH  83  86
ENDBRANCH  55  79
BRANCH  67  90
ATOM     90  C   UNL A   1      48.971  26.167  32.294  1.00  0.00     0.023 A 
ATOM     91  C   UNL A   1      49.072  24.843  32.761  1.00  0.00     0.012 A 
ATOM     92  C   UNL A   1      50.109  26.803  31.758  1.00  0.00     0.148 A 
ATOM     93  C   UNL A   1      50.291  24.165  32.707  1.00  0.00     0.002 A 
ATOM     94  C   UNL A   1      51.311  26.112  31.678  1.00  0.00     0.091 A 
ATOM     95  F   UNL A   1      49.988  28.065  31.322  1.00  0.00    -0.205 F 
ATOM     96  C   UNL A   1      51.405  24.793  32.156  1.00  0.00     0.022 A 
BRANCH  94  97
ATOM     97  S   UNL A   1      52.790  26.817  30.942  1.00  0.00     0.127 S 
ATOM     98  O   UNL A   1      52.266  27.365  29.691  1.00  0.00    -0.237 OA
ATOM     99  O   UNL A   1      53.179  27.822  31.932  1.00  0.00    -0.237 OA
ATOM    100  O   UNL A   1      53.731  25.717  30.788  1.00  0.00    -0.744 OA
ENDBRANCH  94  97
ENDBRANCH  67  90
ENDBRANCH  41  42
ENDBRANCH  34  36
ENDBRANCH  33  34
ENDBRANCH  32  33
ENDBRANCH  31  32
ENDBRANCH  30  31
ENDBRANCH  29  30
ENDBRANCH   1  29
TORSDOF 24
ENDMDL
MODEL 3
REMARK VINA RESULT:      -7.8      6.681     12.947
REMARK SMILES Cc1ccc(C#N)cc1Nc1cc(C)c(N)c(C(=O)OCCOCCOCCOC(=O)c2ccc(-c3c4nc(c(-c5cccc(S(=O)(=O)[O-])c5F)c5ccc([nH]5)c(-c5cccc(S(=O)(=O)[O-])c5F)c5nc(c(-c6cccc(S(=O)(=O)[O-])c6F)c6ccc3[nH]6)C=C5)C=C4)cc2)c1
REMARK SMILES IDX 24 1 23 2 22 3 21 4 20 5 18 6 19 7 17 8 11 9 12 10 95 11
REMARK SMILES IDX 13 12 14 13 15 14 10 15 9 17 1 18 2 19 3 20 4 21 8 22 5 23
REMARK SMILES IDX 6 24 7 25 16 26 25 29 26 30 27 31 28 32 29 33 30 34 31 35
REMARK SMILES IDX 32 36 33 37 94 38 34 39 93 40 35 41 36 42 37 43 87 44 38 45
REMARK SMILES IDX 92 46 86 47 88 48 39 49 91 50 85 51 84 52 40 54 72 55 52 56
REMARK SMILES IDX 71 57 53 58 56 59 70 60 89 61 54 62 55 63 69 65 90 66 57 67
REMARK SMILES IDX 41 68 42 69 50 70 43 71 45 72 51 73 44 74 46 75 47 76 48 77
REMARK SMILES IDX 49 78 73 79 74 80 82 81 75 82 77 83 83 84 76 85 78 86 79 87
REMARK SMILES IDX 80 88 81 89 58 90 59 91 67 92 60 93 62 94 68 95 61 96 63 97
REMARK SMILES IDX 64 98 65 99 66 100
REMARK H PARENT 10 16 16 27 16 28 88 53 56 64
REMARK Flexibility Score: inf
ROOT
ATOM      1  C   UNL A   1      45.950  20.885  25.162  1.00  0.00     0.188 C 
ENDROOT
BRANCH   1   2
ATOM      2  O   UNL A   1      45.024  20.000  24.575  1.00  0.00    -0.376 OA
BRANCH   2   3
ATOM      3  C   UNL A   1      43.968  19.484  25.366  1.00  0.00     0.202 C 
BRANCH   3   4
ATOM      4  C   UNL A   1      42.717  20.280  25.799  1.00  0.00     0.261 C 
BRANCH   4   5
ATOM      5  O   UNL A   1      42.869  21.308  26.782  1.00  0.00    -0.460 OA
BRANCH   5   6
ATOM      6  C   UNL A   1      41.751  21.671  27.463  1.00  0.00     0.340 C 
ATOM      7  O   UNL A   1      40.850  20.923  27.808  1.00  0.00    -0.246 OA
BRANCH   6   8
ATOM      8  C   UNL A   1      41.870  23.091  27.897  1.00  0.00     0.085 A 
ATOM      9  C   UNL A   1      40.853  25.297  28.021  1.00  0.00     0.040 A 
ATOM     10  C   UNL A   1      41.969  25.737  28.736  1.00  0.00     0.031 A 
ATOM     11  C   UNL A   1      40.842  23.981  27.559  1.00  0.00     0.044 A 
ATOM     12  C   UNL A   1      43.051  24.880  29.026  1.00  0.00    -0.025 A 
ATOM     13  C   UNL A   1      44.158  25.454  29.875  1.00  0.00     0.047 C 
ATOM     14  C   UNL A   1      42.992  23.525  28.642  1.00  0.00     0.049 A 
BRANCH   9  15
ATOM     15  N   UNL A   1      39.709  26.119  27.951  1.00  0.00    -0.355 N 
ATOM     16  H   UNL A   1      39.008  25.826  27.326  1.00  0.00     0.167 HD
BRANCH  15  17
ATOM     17  C   UNL A   1      39.444  27.310  28.663  1.00  0.00     0.043 A 
ATOM     18  C   UNL A   1      40.229  28.769  26.711  1.00  0.00     0.046 C 
ATOM     19  C   UNL A   1      39.614  28.578  28.072  1.00  0.00    -0.027 A 
ATOM     20  C   UNL A   1      39.287  29.734  28.810  1.00  0.00     0.007 A 
ATOM     21  C   UNL A   1      38.774  29.647  30.106  1.00  0.00     0.020 A 
ATOM     22  C   UNL A   1      38.954  27.256  29.982  1.00  0.00     0.045 A 
ATOM     23  C   UNL A   1      38.609  28.402  30.697  1.00  0.00     0.054 A 
BRANCH  23  24
ATOM     24  C   UNL A   1      38.097  28.278  32.027  1.00  0.00     0.099 C 
ATOM     25  N   UNL A   1      37.671  28.177  33.106  1.00  0.00    -0.192 NA
ENDBRANCH  23  24
ENDBRANCH  15  17
ENDBRANCH   9  15
BRANCH  14  26
ATOM     26  N   UNL A   1      44.102  22.688  28.808  1.00  0.00    -0.398 N 
ATOM     27  H   UNL A   1      44.946  23.055  29.159  1.00  0.00     0.156 HD
ATOM     28  H   UNL A   1      44.038  21.734  28.576  1.00  0.00     0.156 HD
ENDBRANCH  14  26
ENDBRANCH   6   8
ENDBRANCH   5   6
ENDBRANCH   4   5
ENDBRANCH   3   4
ENDBRANCH   2   3
ENDBRANCH   1   2
BRANCH   1  29
ATOM     29  C   UNL A   1      45.666  22.372  24.856  1.00  0.00     0.188 C 
BRANCH  29  30
ATOM     30  O   UNL A   1      45.144  23.211  25.875  1.00  0.00    -0.376 OA
BRANCH  30  31
ATOM     31  C   UNL A   1      44.507  24.424  25.501  1.00  0.00     0.202 C 
BRANCH  31  32
ATOM     32  C   UNL A   1      45.223  25.791  25.572  1.00  0.00     0.261 C 
BRANCH  32  33
ATOM     33  O   UNL A   1      44.745  26.746  26.532  1.00  0.00    -0.460 OA
BRANCH  33  34
ATOM     34  C   UNL A   1      43.812  27.635  26.097  1.00  0.00     0.338 C 
ATOM     35  O   UNL A   1      42.923  27.432  25.289  1.00  0.00    -0.246 OA
BRANCH  34  36
ATOM     36  C   UNL A   1      43.941  28.867  26.908  1.00  0.00     0.060 A 
ATOM     37  C   UNL A   1      43.518  30.085  26.380  1.00  0.00     0.016 A 
ATOM     38  C   UNL A   1      44.532  28.814  28.181  1.00  0.00     0.016 A 
ATOM     39  C   UNL A   1      43.696  31.254  27.124  1.00  0.00     0.010 A 
ATOM     40  C   UNL A   1      44.730  29.989  28.913  1.00  0.00     0.010 A 
ATOM     41  C   UNL A   1      44.304  31.219  28.393  1.00  0.00    -0.014 A 
BRANCH  41  42
ATOM     42  C   UNL A   1      44.360  32.454  29.215  1.00  0.00     0.031 A 
ATOM     43  C   UNL A   1      43.316  32.779  30.243  1.00  0.00     0.074 A 
ATOM     44  C   UNL A   1      45.391  33.299  29.020  1.00  0.00     0.049 A 
ATOM     45  N   UNL A   1      43.288  33.778  31.088  1.00  0.00    -0.248 NA
ATOM     46  C   UNL A   1      42.159  31.877  30.341  1.00  0.00     0.031 C 
ATOM     47  C   UNL A   1      46.450  33.108  28.029  1.00  0.00     0.029 A 
ATOM     48  N   UNL A   1      45.721  34.475  29.644  1.00  0.00    -0.354 N 
ATOM     49  C   UNL A   1      42.112  33.638  31.813  1.00  0.00     0.074 A 
ATOM     50  C   UNL A   1      41.446  32.457  31.301  1.00  0.00     0.031 C 
ATOM     51  C   UNL A   1      47.327  34.118  28.127  1.00  0.00     0.029 A 
ATOM     52  C   UNL A   1      46.878  35.041  29.165  1.00  0.00     0.049 A 
ATOM     53  H   UNL A   1      45.183  34.874  30.365  1.00  0.00     0.167 HD
ATOM     54  C   UNL A   1      41.642  34.418  32.816  1.00  0.00     0.034 A 
ATOM     55  C   UNL A   1      47.515  36.176  29.516  1.00  0.00     0.034 A 
ATOM     56  C   UNL A   1      42.312  35.584  33.331  1.00  0.00     0.049 A 
ATOM     57  C   UNL A   1      46.965  37.024  30.623  1.00  0.00     0.074 A 
ATOM     58  C   UNL A   1      41.933  36.388  34.394  1.00  0.00     0.029 A 
ATOM     59  N   UNL A   1      43.475  36.131  32.816  1.00  0.00    -0.354 N 
ATOM     60  N   UNL A   1      45.913  36.810  31.375  1.00  0.00    -0.248 NA
ATOM     61  C   UNL A   1      47.698  38.256  30.948  1.00  0.00     0.031 C 
ATOM     62  C   UNL A   1      42.841  37.445  34.492  1.00  0.00     0.029 A 
ATOM     63  C   UNL A   1      43.811  37.277  33.519  1.00  0.00     0.049 A 
ATOM     64  H   UNL A   1      43.987  35.762  32.060  1.00  0.00     0.167 HD
ATOM     65  C   UNL A   1      45.867  37.867  32.275  1.00  0.00     0.074 A 
ATOM     66  C   UNL A   1      47.004  38.715  31.984  1.00  0.00     0.031 C 
ATOM     67  C   UNL A   1      44.955  38.110  33.246  1.00  0.00     0.034 A 
BRANCH  54  68
ATOM     68  C   UNL A   1      40.337  34.040  33.465  1.00  0.00     0.023 A 
ATOM     69  C   UNL A   1      39.130  34.557  32.954  1.00  0.00     0.012 A 
ATOM     70  C   UNL A   1      40.300  33.068  34.483  1.00  0.00     0.148 A 
ATOM     71  C   UNL A   1      37.905  34.111  33.451  1.00  0.00     0.002 A 
ATOM     72  C   UNL A   1      39.076  32.610  34.955  1.00  0.00     0.091 A 
ATOM     73  F   UNL A   1      41.463  32.594  34.954  1.00  0.00    -0.205 F 
ATOM     74  C   UNL A   1      37.878  33.131  34.440  1.00  0.00     0.022 A 
BRANCH  72  75
ATOM     75  S   UNL A   1      38.932  31.321  36.198  1.00  0.00     0.127 S 
ATOM     76  O   UNL A   1      37.520  31.425  36.566  1.00  0.00    -0.237 OA
ATOM     77  O   UNL A   1      39.279  30.121  35.438  1.00  0.00    -0.237 OA
ATOM     78  O   UNL A   1      39.870  31.672  37.255  1.00  0.00    -0.744 OA
ENDBRANCH  72  75
ENDBRANCH  54  68
BRANCH  55  79
ATOM     79  C   UNL A   1      48.787  36.524  28.831  1.00  0.00     0.023 A 
ATOM     80  C   UNL A   1      48.760  37.415  27.742  1.00  0.00     0.012 A 
ATOM     81  C   UNL A   1      50.022  36.054  29.315  1.00  0.00     0.148 A 
ATOM     82  C   UNL A   1      49.949  37.838  27.147  1.00  0.00     0.002 A 
ATOM     83  C   UNL A   1      51.202  36.503  28.739  1.00  0.00     0.091 A 
ATOM     84  F   UNL A   1      50.013  35.212  30.358  1.00  0.00    -0.205 F 
ATOM     85  C   UNL A   1      51.168  37.392  27.652  1.00  0.00     0.022 A 
BRANCH  83  86
ATOM     86  S   UNL A   1      52.822  36.045  29.362  1.00  0.00     0.127 S 
ATOM     87  O   UNL A   1      53.691  36.447  28.257  1.00  0.00    -0.237 OA
ATOM     88  O   UNL A   1      52.924  36.875  30.561  1.00  0.00    -0.237 OA
ATOM     89  O   UNL A   1      52.762  34.612  29.614  1.00  0.00    -0.744 OA
ENDBRANCH  83  86
ENDBRANCH  55  79
BRANCH  67  90
ATOM     90  C   UNL A   1      45.132  39.343  34.092  1.00  0.00     0.023 A 
ATOM     91  C   UNL A   1      45.790  39.248  35.333  1.00  0.00     0.012 A 
ATOM     92  C   UNL A   1      44.742  40.609  33.609  1.00  0.00     0.148 A 
ATOM     93  C   UNL A   1      46.045  40.393  36.088  1.00  0.00     0.002 A 
ATOM     94  C   UNL A   1      45.027  41.748  34.351  1.00  0.00     0.091 A 
ATOM     95  F   UNL A   1      44.115  40.673  32.425  1.00  0.00    -0.205 F 
ATOM     96  C   UNL A   1      45.674  41.642  35.594  1.00  0.00     0.022 A 
BRANCH  94  97
ATOM     97  S   UNL A   1      44.633  43.405  33.778  1.00  0.00     0.127 S 
ATOM     98  O   UNL A   1      45.532  43.543  32.633  1.00  0.00    -0.237 OA
ATOM     99  O   UNL A   1      43.217  43.283  33.431  1.00  0.00    -0.237 OA
ATOM    100  O   UNL A   1      44.913  44.297  34.894  1.00  0.00    -0.744 OA
ENDBRANCH  94  97
ENDBRANCH  67  90
ENDBRANCH  41  42
ENDBRANCH  34  36
ENDBRANCH  33  34
ENDBRANCH  32  33
ENDBRANCH  31  32
ENDBRANCH  30  31
ENDBRANCH  29  30
ENDBRANCH   1  29
TORSDOF 24
ENDMDL
