MODEL 1
REMARK VINA RESULT:      -9.5      0.000      0.000
REMARK SMILES C[C@@H](C(=O)OCCOCCOCCOC(=O)c1ccc(-c2c3nc(c(-c4cccc(S(=O)(=O)[O-])c4F)c4ccc([nH]4)c(-c4cccc(S(=O)(=O)[O-])c4F)c4nc(c(-c5cccc(S(=O)(=O)[O-])c5F)c5ccc2[nH]5)C=C4)C=C3)cc1)c1ccc2c3cc(Cl)ccc3n(C(=O)c3ccc(Cl)cc3)c2c1
REMARK SMILES IDX 9 1 8 2 7 3 6 4 5 5 3 6 4 7 2 8 1 9 80 10 81 11 102 12 82 13
REMARK SMILES IDX 101 14 83 15 91 16 84 17 90 18 85 19 89 20 86 21 88 22 87 23
REMARK SMILES IDX 92 24 93 25 94 26 95 27 100 28 96 29 99 30 97 31 98 32 10 33
REMARK SMILES IDX 11 34 12 35 13 36 14 37 15 38 16 39 17 40 18 41 79 42 19 43
REMARK SMILES IDX 78 44 20 45 21 46 22 47 72 48 23 49 77 50 71 51 73 52 24 53
REMARK SMILES IDX 76 54 70 55 69 56 25 58 57 59 37 60 56 61 38 62 41 63 55 64
REMARK SMILES IDX 74 65 39 66 40 67 54 69 75 70 42 71 26 72 27 73 35 74 28 75
REMARK SMILES IDX 30 76 36 77 29 78 31 79 32 80 33 81 34 82 58 83 59 84 67 85
REMARK SMILES IDX 60 86 62 87 68 88 61 89 63 90 64 91 65 92 66 93 43 94 44 95
REMARK SMILES IDX 52 96 45 97 47 98 53 99 46 100 48 101 49 102 50 103 51 104
REMARK H PARENT 73 57 41 68
REMARK Flexibility Score: inf
ROOT
ATOM      1  C   UNL A   1      48.766  22.994  34.892  1.00  0.00     0.188 C 
ENDROOT
BRANCH   1   2
ATOM      2  O   UNL A   1      49.197  21.830  34.233  1.00  0.00    -0.376 OA
BRANCH   2   3
ATOM      3  C   UNL A   1      50.448  21.835  33.571  1.00  0.00     0.202 C 
BRANCH   3   4
ATOM      4  C   UNL A   1      51.414  20.635  33.507  1.00  0.00     0.261 C 
BRANCH   4   5
ATOM      5  O   UNL A   1      52.507  20.597  34.441  1.00  0.00    -0.463 OA
BRANCH   5   6
ATOM      6  C   UNL A   1      52.192  20.043  35.651  1.00  0.00     0.313 C 
ATOM      7  O   UNL A   1      52.403  18.863  35.925  1.00  0.00    -0.252 OA
BRANCH   6   8
ATOM      8  C   UNL A   1      51.539  20.997  36.674  1.00  0.00     0.126 C 
ATOM      9  C   UNL A   1      52.418  21.926  37.509  1.00  0.00     0.025 C 
BRANCH   8  10
ATOM     10  C   UNL A   1      50.562  20.223  37.546  1.00  0.00    -0.032 A 
ATOM     11  C   UNL A   1      51.017  19.342  38.521  1.00  0.00     0.005 A 
ATOM     12  C   UNL A   1      49.187  20.469  37.431  1.00  0.00     0.032 A 
ATOM     13  C   UNL A   1      50.133  18.808  39.459  1.00  0.00     0.011 A 
ATOM     14  C   UNL A   1      48.293  19.941  38.362  1.00  0.00     0.057 A 
ATOM     15  C   UNL A   1      48.766  19.148  39.404  1.00  0.00     0.008 A 
ATOM     16  N   UNL A   1      46.884  20.091  38.499  1.00  0.00    -0.276 N 
ATOM     17  C   UNL A   1      47.645  18.697  40.127  1.00  0.00     0.009 A 
ATOM     18  C   UNL A   1      46.590  18.863  39.217  1.00  0.00     0.057 A 
ATOM     19  C   UNL A   1      47.531  17.832  41.241  1.00  0.00     0.031 A 
ATOM     20  C   UNL A   1      45.745  17.722  39.132  1.00  0.00     0.029 A 
ATOM     21  C   UNL A   1      46.463  16.948  41.307  1.00  0.00     0.041 A 
ATOM     22  C   UNL A   1      45.632  16.825  40.214  1.00  0.00     0.023 A 
ATOM     23  Cl  UNL A   1      46.299  15.892  42.653  1.00  0.00    -0.084 Cl
BRANCH  16  24
ATOM     24  C   UNL A   1      46.185  21.319  37.904  1.00  0.00     0.262 C 
ATOM     25  O   UNL A   1      46.068  22.244  38.718  1.00  0.00    -0.268 OA
BRANCH  24  26
ATOM     26  C   UNL A   1      45.573  21.836  36.562  1.00  0.00     0.040 A 
ATOM     27  C   UNL A   1      44.974  23.116  36.568  1.00  0.00     0.015 A 
ATOM     28  C   UNL A   1      45.463  21.170  35.332  1.00  0.00     0.015 A 
ATOM     29  C   UNL A   1      44.603  23.801  35.385  1.00  0.00     0.021 A 
ATOM     30  C   UNL A   1      45.198  21.877  34.123  1.00  0.00     0.021 A 
ATOM     31  C   UNL A   1      44.823  23.211  34.154  1.00  0.00     0.041 A 
ATOM     32  Cl  UNL A   1      44.652  24.133  32.711  1.00  0.00    -0.084 Cl
ENDBRANCH  24  26
ENDBRANCH  16  24
ENDBRANCH   8  10
ENDBRANCH   6   8
ENDBRANCH   5   6
ENDBRANCH   4   5
ENDBRANCH   3   4
ENDBRANCH   2   3
ENDBRANCH   1   2
BRANCH   1  33
ATOM     33  C   UNL A   1      48.214  24.078  33.962  1.00  0.00     0.188 C 
BRANCH  33  34
ATOM     34  O   UNL A   1      48.466  25.450  34.190  1.00  0.00    -0.376 OA
BRANCH  34  35
ATOM     35  C   UNL A   1      49.595  25.795  34.957  1.00  0.00     0.202 C 
BRANCH  35  36
ATOM     36  C   UNL A   1      49.396  26.370  36.369  1.00  0.00     0.261 C 
BRANCH  36  37
ATOM     37  O   UNL A   1      48.993  27.746  36.513  1.00  0.00    -0.460 OA
BRANCH  37  38
ATOM     38  C   UNL A   1      47.937  28.025  37.334  1.00  0.00     0.338 C 
ATOM     39  O   UNL A   1      47.964  28.162  38.531  1.00  0.00    -0.246 OA
BRANCH  38  40
ATOM     40  C   UNL A   1      46.727  28.207  36.464  1.00  0.00     0.060 A 
ATOM     41  C   UNL A   1      45.663  27.303  36.490  1.00  0.00     0.016 A 
ATOM     42  C   UNL A   1      46.622  29.312  35.623  1.00  0.00     0.016 A 
ATOM     43  C   UNL A   1      44.480  27.549  35.732  1.00  0.00     0.010 A 
ATOM     44  C   UNL A   1      45.426  29.563  34.903  1.00  0.00     0.010 A 
ATOM     45  C   UNL A   1      44.293  28.720  34.963  1.00  0.00    -0.014 A 
BRANCH  45  46
ATOM     46  C   UNL A   1      43.099  29.017  34.018  1.00  0.00     0.031 A 
ATOM     47  C   UNL A   1      42.056  29.920  34.561  1.00  0.00     0.074 A 
ATOM     48  C   UNL A   1      42.807  28.547  32.767  1.00  0.00     0.049 A 
ATOM     49  N   UNL A   1      40.952  30.295  33.984  1.00  0.00    -0.248 NA
ATOM     50  C   UNL A   1      42.250  30.417  35.927  1.00  0.00     0.031 C 
ATOM     51  C   UNL A   1      43.699  27.707  32.054  1.00  0.00     0.029 A 
ATOM     52  N   UNL A   1      41.826  28.708  31.799  1.00  0.00    -0.354 N 
ATOM     53  C   UNL A   1      40.272  30.993  34.952  1.00  0.00     0.074 A 
ATOM     54  C   UNL A   1      41.067  30.952  36.160  1.00  0.00     0.031 C 
ATOM     55  C   UNL A   1      43.345  27.416  30.805  1.00  0.00     0.029 A 
ATOM     56  C   UNL A   1      42.092  28.065  30.581  1.00  0.00     0.049 A 
ATOM     57  H   UNL A   1      41.007  29.232  31.955  1.00  0.00     0.167 HD
ATOM     58  C   UNL A   1      39.099  31.641  34.829  1.00  0.00     0.034 A 
ATOM     59  C   UNL A   1      41.496  28.008  29.371  1.00  0.00     0.034 A 
ATOM     60  C   UNL A   1      38.334  31.722  33.619  1.00  0.00     0.049 A 
ATOM     61  C   UNL A   1      40.266  28.817  29.229  1.00  0.00     0.074 A 
ATOM     62  C   UNL A   1      37.160  32.417  33.411  1.00  0.00     0.029 A 
ATOM     63  N   UNL A   1      38.648  31.096  32.422  1.00  0.00    -0.354 N 
ATOM     64  N   UNL A   1      39.708  29.561  30.147  1.00  0.00    -0.248 NA
ATOM     65  C   UNL A   1      39.600  28.831  27.923  1.00  0.00     0.031 C 
ATOM     66  C   UNL A   1      36.747  32.191  32.096  1.00  0.00     0.029 A 
ATOM     67  C   UNL A   1      37.685  31.387  31.469  1.00  0.00     0.049 A 
ATOM     68  H   UNL A   1      39.438  30.529  32.271  1.00  0.00     0.167 HD
ATOM     69  C   UNL A   1      38.621  30.141  29.538  1.00  0.00     0.074 A 
ATOM     70  C   UNL A   1      38.627  29.703  28.153  1.00  0.00     0.031 C 
ATOM     71  C   UNL A   1      37.695  30.946  30.099  1.00  0.00     0.034 A 
BRANCH  58  72
ATOM     72  C   UNL A   1      38.608  32.307  36.071  1.00  0.00     0.023 A 
ATOM     73  C   UNL A   1      38.843  33.683  36.273  1.00  0.00     0.012 A 
ATOM     74  C   UNL A   1      37.970  31.548  37.063  1.00  0.00     0.148 A 
ATOM     75  C   UNL A   1      38.494  34.284  37.477  1.00  0.00     0.002 A 
ATOM     76  C   UNL A   1      37.561  32.170  38.229  1.00  0.00     0.091 A 
ATOM     77  F   UNL A   1      37.810  30.232  36.860  1.00  0.00    -0.205 F 
ATOM     78  C   UNL A   1      37.840  33.530  38.448  1.00  0.00     0.022 A 
BRANCH  76  79
ATOM     79  S   UNL A   1      36.630  31.311  39.495  1.00  0.00     0.127 S 
ATOM     80  O   UNL A   1      36.084  30.181  38.744  1.00  0.00    -0.237 OA
ATOM     81  O   UNL A   1      37.681  30.961  40.451  1.00  0.00    -0.237 OA
ATOM     82  O   UNL A   1      35.647  32.263  39.991  1.00  0.00    -0.744 OA
ENDBRANCH  76  79
ENDBRANCH  58  72
BRANCH  59  83
ATOM     83  C   UNL A   1      42.096  27.256  28.210  1.00  0.00     0.023 A 
ATOM     84  C   UNL A   1      43.031  27.889  27.363  1.00  0.00     0.012 A 
ATOM     85  C   UNL A   1      41.797  25.897  27.972  1.00  0.00     0.148 A 
ATOM     86  C   UNL A   1      43.633  27.200  26.302  1.00  0.00     0.002 A 
ATOM     87  C   UNL A   1      42.441  25.200  26.949  1.00  0.00     0.091 A 
ATOM     88  F   UNL A   1      40.902  25.297  28.770  1.00  0.00    -0.205 F 
ATOM     89  C   UNL A   1      43.349  25.852  26.102  1.00  0.00     0.022 A 
BRANCH  87  90
ATOM     90  S   UNL A   1      42.249  23.423  26.734  1.00  0.00     0.127 S 
ATOM     91  O   UNL A   1      43.190  23.146  25.652  1.00  0.00    -0.237 OA
ATOM     92  O   UNL A   1      42.647  22.908  28.044  1.00  0.00    -0.237 OA
ATOM     93  O   UNL A   1      40.839  23.230  26.423  1.00  0.00    -0.744 OA
ENDBRANCH  87  90
ENDBRANCH  59  83
BRANCH  71  94
ATOM     94  C   UNL A   1      36.602  31.406  29.194  1.00  0.00     0.023 A 
ATOM     95  C   UNL A   1      36.539  32.755  28.797  1.00  0.00     0.012 A 
ATOM     96  C   UNL A   1      35.651  30.486  28.726  1.00  0.00     0.148 A 
ATOM     97  C   UNL A   1      35.512  33.191  27.966  1.00  0.00     0.002 A 
ATOM     98  C   UNL A   1      34.670  30.914  27.851  1.00  0.00     0.091 A 
ATOM     99  F   UNL A   1      35.723  29.218  29.158  1.00  0.00    -0.205 F 
ATOM    100  C   UNL A   1      34.587  32.267  27.483  1.00  0.00     0.022 A 
BRANCH  98 101
ATOM    101  S   UNL A   1      33.505  29.777  27.102  1.00  0.00     0.127 S 
ATOM    102  O   UNL A   1      32.291  30.590  27.048  1.00  0.00    -0.237 OA
ATOM    103  O   UNL A   1      34.128  29.517  25.804  1.00  0.00    -0.237 OA
ATOM    104  O   UNL A   1      33.441  28.622  27.987  1.00  0.00    -0.744 OA
ENDBRANCH  98 101
ENDBRANCH  71  94
ENDBRANCH  45  46
ENDBRANCH  38  40
ENDBRANCH  37  38
ENDBRANCH  36  37
ENDBRANCH  35  36
ENDBRANCH  34  35
ENDBRANCH  33  34
ENDBRANCH   1  33
TORSDOF 23
ENDMDL
MODEL 2
REMARK VINA RESULT:      -9.2      9.118     16.385
REMARK SMILES C[C@@H](C(=O)OCCOCCOCCOC(=O)c1ccc(-c2c3nc(c(-c4cccc(S(=O)(=O)[O-])c4F)c4ccc([nH]4)c(-c4cccc(S(=O)(=O)[O-])c4F)c4nc(c(-c5cccc(S(=O)(=O)[O-])c5F)c5ccc2[nH]5)C=C4)C=C3)cc1)c1ccc2c3cc(Cl)ccc3n(C(=O)c3ccc(Cl)cc3)c2c1
REMARK SMILES IDX 9 1 8 2 7 3 6 4 5 5 3 6 4 7 2 8 1 9 80 10 81 11 102 12 82 13
REMARK SMILES IDX 101 14 83 15 91 16 84 17 90 18 85 19 89 20 86 21 88 22 87 23
REMARK SMILES IDX 92 24 93 25 94 26 95 27 100 28 96 29 99 30 97 31 98 32 10 33
REMARK SMILES IDX 11 34 12 35 13 36 14 37 15 38 16 39 17 40 18 41 79 42 19 43
REMARK SMILES IDX 78 44 20 45 21 46 22 47 72 48 23 49 77 50 71 51 73 52 24 53
REMARK SMILES IDX 76 54 70 55 69 56 25 58 57 59 37 60 56 61 38 62 41 63 55 64
REMARK SMILES IDX 74 65 39 66 40 67 54 69 75 70 42 71 26 72 27 73 35 74 28 75
REMARK SMILES IDX 30 76 36 77 29 78 31 79 32 80 33 81 34 82 58 83 59 84 67 85
REMARK SMILES IDX 60 86 62 87 68 88 61 89 63 90 64 91 65 92 66 93 43 94 44 95
REMARK SMILES IDX 52 96 45 97 47 98 53 99 46 100 48 101 49 102 50 103 51 104
REMARK H PARENT 73 57 41 68
REMARK Flexibility Score: inf
ROOT
ATOM      1  C   UNL A   1      32.141  32.737  27.360  1.00  0.00     0.188 C 
ENDROOT
BRANCH   1   2
ATOM      2  O   UNL A   1      32.669  31.492  26.976  1.00  0.00    -0.376 OA
BRANCH   2   3
ATOM      3  C   UNL A   1      31.785  30.420  26.712  1.00  0.00     0.202 C 
BRANCH   3   4
ATOM      4  C   UNL A   1      31.641  29.713  25.349  1.00  0.00     0.261 C 
BRANCH   4   5
ATOM      5  O   UNL A   1      31.119  28.373  25.336  1.00  0.00    -0.463 OA
BRANCH   5   6
ATOM      6  C   UNL A   1      31.774  27.507  26.167  1.00  0.00     0.313 C 
ATOM      7  O   UNL A   1      31.313  27.129  27.242  1.00  0.00    -0.252 OA
BRANCH   6   8
ATOM      8  C   UNL A   1      33.156  27.024  25.675  1.00  0.00     0.126 C 
ATOM      9  C   UNL A   1      33.904  27.830  24.615  1.00  0.00     0.025 C 
BRANCH   8  10
ATOM     10  C   UNL A   1      33.084  25.550  25.305  1.00  0.00    -0.032 A 
ATOM     11  C   UNL A   1      31.915  24.998  24.792  1.00  0.00     0.005 A 
ATOM     12  C   UNL A   1      34.236  24.757  25.396  1.00  0.00     0.032 A 
ATOM     13  C   UNL A   1      31.920  23.713  24.251  1.00  0.00     0.011 A 
ATOM     14  C   UNL A   1      34.252  23.470  24.859  1.00  0.00     0.057 A 
ATOM     15  C   UNL A   1      33.112  22.961  24.246  1.00  0.00     0.008 A 
ATOM     16  N   UNL A   1      35.295  22.505  24.769  1.00  0.00    -0.276 N 
ATOM     17  C   UNL A   1      33.394  21.632  23.876  1.00  0.00     0.009 A 
ATOM     18  C   UNL A   1      34.489  21.301  24.690  1.00  0.00     0.057 A 
ATOM     19  C   UNL A   1      32.595  20.633  23.271  1.00  0.00     0.031 A 
ATOM     20  C   UNL A   1      34.344  20.038  25.330  1.00  0.00     0.029 A 
ATOM     21  C   UNL A   1      32.734  19.314  23.678  1.00  0.00     0.041 A 
ATOM     22  C   UNL A   1      33.530  19.033  24.767  1.00  0.00     0.023 A 
ATOM     23  Cl  UNL A   1      31.778  18.082  22.952  1.00  0.00    -0.084 Cl
BRANCH  16  24
ATOM     24  C   UNL A   1      36.760  22.958  24.806  1.00  0.00     0.262 C 
ATOM     25  O   UNL A   1      37.125  23.483  23.747  1.00  0.00    -0.268 OA
BRANCH  24  26
ATOM     26  C   UNL A   1      37.989  23.014  25.770  1.00  0.00     0.040 A 
ATOM     27  C   UNL A   1      38.732  21.825  25.949  1.00  0.00     0.015 A 
ATOM     28  C   UNL A   1      38.437  24.081  26.562  1.00  0.00     0.015 A 
ATOM     29  C   UNL A   1      39.993  21.791  26.592  1.00  0.00     0.021 A 
ATOM     30  C   UNL A   1      39.750  24.097  27.119  1.00  0.00     0.021 A 
ATOM     31  C   UNL A   1      40.545  22.962  27.079  1.00  0.00     0.041 A 
ATOM     32  Cl  UNL A   1      42.187  22.993  27.597  1.00  0.00    -0.084 Cl
ENDBRANCH  24  26
ENDBRANCH  16  24
ENDBRANCH   8  10
ENDBRANCH   6   8
ENDBRANCH   5   6
ENDBRANCH   4   5
ENDBRANCH   3   4
ENDBRANCH   2   3
ENDBRANCH   1   2
BRANCH   1  33
ATOM     33  C   UNL A   1      33.188  33.747  27.836  1.00  0.00     0.188 C 
BRANCH  33  34
ATOM     34  O   UNL A   1      34.495  33.346  28.197  1.00  0.00    -0.376 OA
BRANCH  34  35
ATOM     35  C   UNL A   1      34.943  33.650  29.497  1.00  0.00     0.202 C 
BRANCH  35  36
ATOM     36  C   UNL A   1      35.499  32.522  30.381  1.00  0.00     0.261 C 
BRANCH  36  37
ATOM     37  O   UNL A   1      36.837  32.637  30.903  1.00  0.00    -0.460 OA
BRANCH  37  38
ATOM     38  C   UNL A   1      37.255  33.863  31.338  1.00  0.00     0.338 C 
ATOM     39  O   UNL A   1      36.700  34.581  32.131  1.00  0.00    -0.246 OA
BRANCH  38  40
ATOM     40  C   UNL A   1      38.587  34.136  30.701  1.00  0.00     0.060 A 
ATOM     41  C   UNL A   1      38.700  34.450  29.346  1.00  0.00     0.016 A 
ATOM     42  C   UNL A   1      39.752  34.110  31.463  1.00  0.00     0.016 A 
ATOM     43  C   UNL A   1      39.962  34.805  28.783  1.00  0.00     0.010 A 
ATOM     44  C   UNL A   1      40.994  34.500  30.899  1.00  0.00     0.010 A 
ATOM     45  C   UNL A   1      41.142  34.906  29.554  1.00  0.00    -0.014 A 
BRANCH  45  46
ATOM     46  C   UNL A   1      42.573  35.168  29.013  1.00  0.00     0.031 A 
ATOM     47  C   UNL A   1      43.431  33.970  28.850  1.00  0.00     0.074 A 
ATOM     48  C   UNL A   1      43.213  36.336  28.699  1.00  0.00     0.049 A 
ATOM     49  N   UNL A   1      44.667  33.928  28.447  1.00  0.00    -0.248 NA
ATOM     50  C   UNL A   1      42.850  32.678  29.231  1.00  0.00     0.031 C 
ATOM     51  C   UNL A   1      42.551  37.589  28.745  1.00  0.00     0.029 A 
ATOM     52  N   UNL A   1      44.443  36.747  28.207  1.00  0.00    -0.354 N 
ATOM     53  C   UNL A   1      45.046  32.619  28.619  1.00  0.00     0.074 A 
ATOM     54  C   UNL A   1      43.925  31.912  29.200  1.00  0.00     0.031 C 
ATOM     55  C   UNL A   1      43.255  38.629  28.306  1.00  0.00     0.029 A 
ATOM     56  C   UNL A   1      44.535  38.119  27.930  1.00  0.00     0.049 A 
ATOM     57  H   UNL A   1      45.191  36.124  28.062  1.00  0.00     0.167 HD
ATOM     58  C   UNL A   1      46.219  32.050  28.287  1.00  0.00     0.034 A 
ATOM     59  C   UNL A   1      45.464  38.931  27.383  1.00  0.00     0.034 A 
ATOM     60  C   UNL A   1      47.314  32.739  27.668  1.00  0.00     0.049 A 
ATOM     61  C   UNL A   1      46.703  38.264  26.926  1.00  0.00     0.074 A 
ATOM     62  C   UNL A   1      48.515  32.206  27.249  1.00  0.00     0.029 A 
ATOM     63  N   UNL A   1      47.355  34.096  27.381  1.00  0.00    -0.354 N 
ATOM     64  N   UNL A   1      46.981  36.991  27.007  1.00  0.00    -0.248 NA
ATOM     65  C   UNL A   1      47.730  39.088  26.282  1.00  0.00     0.031 C 
ATOM     66  C   UNL A   1      49.297  33.242  26.733  1.00  0.00     0.029 A 
ATOM     67  C   UNL A   1      48.567  34.418  26.792  1.00  0.00     0.049 A 
ATOM     68  H   UNL A   1      46.631  34.736  27.568  1.00  0.00     0.167 HD
ATOM     69  C   UNL A   1      48.217  36.847  26.423  1.00  0.00     0.074 A 
ATOM     70  C   UNL A   1      48.613  38.159  25.943  1.00  0.00     0.031 C 
ATOM     71  C   UNL A   1      48.954  35.722  26.322  1.00  0.00     0.034 A 
BRANCH  58  72
ATOM     72  C   UNL A   1      46.335  30.597  28.607  1.00  0.00     0.023 A 
ATOM     73  C   UNL A   1      46.909  30.187  29.828  1.00  0.00     0.012 A 
ATOM     74  C   UNL A   1      45.929  29.642  27.663  1.00  0.00     0.148 A 
ATOM     75  C   UNL A   1      47.127  28.838  30.081  1.00  0.00     0.002 A 
ATOM     76  C   UNL A   1      46.084  28.299  27.953  1.00  0.00     0.091 A 
ATOM     77  F   UNL A   1      45.436  30.069  26.490  1.00  0.00    -0.205 F 
ATOM     78  C   UNL A   1      46.701  27.894  29.150  1.00  0.00     0.022 A 
BRANCH  76  79
ATOM     79  S   UNL A   1      45.484  27.010  26.865  1.00  0.00     0.127 S 
ATOM     80  O   UNL A   1      44.053  27.305  26.818  1.00  0.00    -0.237 OA
ATOM     81  O   UNL A   1      46.211  27.301  25.629  1.00  0.00    -0.237 OA
ATOM     82  O   UNL A   1      45.839  25.748  27.499  1.00  0.00    -0.744 OA
ENDBRANCH  76  79
ENDBRANCH  58  72
BRANCH  59  83
ATOM     83  C   UNL A   1      45.218  40.402  27.155  1.00  0.00     0.023 A 
ATOM     84  C   UNL A   1      44.416  40.827  26.075  1.00  0.00     0.012 A 
ATOM     85  C   UNL A   1      45.721  41.383  28.037  1.00  0.00     0.148 A 
ATOM     86  C   UNL A   1      44.139  42.184  25.866  1.00  0.00     0.002 A 
ATOM     87  C   UNL A   1      45.397  42.728  27.856  1.00  0.00     0.091 A 
ATOM     88  F   UNL A   1      46.491  40.981  29.058  1.00  0.00    -0.205 F 
ATOM     89  C   UNL A   1      44.618  43.135  26.763  1.00  0.00     0.022 A 
BRANCH  87  90
ATOM     90  S   UNL A   1      45.841  43.990  29.061  1.00  0.00     0.127 S 
ATOM     91  O   UNL A   1      47.261  44.187  28.783  1.00  0.00    -0.237 OA
ATOM     92  O   UNL A   1      44.975  45.105  28.675  1.00  0.00    -0.237 OA
ATOM     93  O   UNL A   1      45.517  43.407  30.357  1.00  0.00    -0.744 OA
ENDBRANCH  87  90
ENDBRANCH  59  83
BRANCH  71  94
ATOM     94  C   UNL A   1      50.281  35.874  25.656  1.00  0.00     0.023 A 
ATOM     95  C   UNL A   1      50.364  35.907  24.252  1.00  0.00     0.012 A 
ATOM     96  C   UNL A   1      51.441  36.004  26.437  1.00  0.00     0.148 A 
ATOM     97  C   UNL A   1      51.600  36.032  23.628  1.00  0.00     0.002 A 
ATOM     98  C   UNL A   1      52.660  36.191  25.810  1.00  0.00     0.091 A 
ATOM     99  F   UNL A   1      51.325  35.930  27.770  1.00  0.00    -0.205 F 
ATOM    100  C   UNL A   1      52.745  36.189  24.407  1.00  0.00     0.022 A 
BRANCH  98 101
ATOM    101  S   UNL A   1      54.163  36.502  26.733  1.00  0.00     0.127 S 
ATOM    102  O   UNL A   1      53.811  37.711  27.475  1.00  0.00    -0.237 OA
ATOM    103  O   UNL A   1      54.273  35.291  27.547  1.00  0.00    -0.237 OA
ATOM    104  O   UNL A   1      55.219  36.666  25.743  1.00  0.00    -0.744 OA
ENDBRANCH  98 101
ENDBRANCH  71  94
ENDBRANCH  45  46
ENDBRANCH  38  40
ENDBRANCH  37  38
ENDBRANCH  36  37
ENDBRANCH  35  36
ENDBRANCH  34  35
ENDBRANCH  33  34
ENDBRANCH   1  33
TORSDOF 23
ENDMDL
MODEL 3
REMARK VINA RESULT:      -9.2      4.214     10.784
REMARK SMILES C[C@@H](C(=O)OCCOCCOCCOC(=O)c1ccc(-c2c3nc(c(-c4cccc(S(=O)(=O)[O-])c4F)c4ccc([nH]4)c(-c4cccc(S(=O)(=O)[O-])c4F)c4nc(c(-c5cccc(S(=O)(=O)[O-])c5F)c5ccc2[nH]5)C=C4)C=C3)cc1)c1ccc2c3cc(Cl)ccc3n(C(=O)c3ccc(Cl)cc3)c2c1
REMARK SMILES IDX 9 1 8 2 7 3 6 4 5 5 3 6 4 7 2 8 1 9 80 10 81 11 102 12 82 13
REMARK SMILES IDX 101 14 83 15 91 16 84 17 90 18 85 19 89 20 86 21 88 22 87 23
REMARK SMILES IDX 92 24 93 25 94 26 95 27 100 28 96 29 99 30 97 31 98 32 10 33
REMARK SMILES IDX 11 34 12 35 13 36 14 37 15 38 16 39 17 40 18 41 79 42 19 43
REMARK SMILES IDX 78 44 20 45 21 46 22 47 72 48 23 49 77 50 71 51 73 52 24 53
REMARK SMILES IDX 76 54 70 55 69 56 25 58 57 59 37 60 56 61 38 62 41 63 55 64
REMARK SMILES IDX 74 65 39 66 40 67 54 69 75 70 42 71 26 72 27 73 35 74 28 75
REMARK SMILES IDX 30 76 36 77 29 78 31 79 32 80 33 81 34 82 58 83 59 84 67 85
REMARK SMILES IDX 60 86 62 87 68 88 61 89 63 90 64 91 65 92 66 93 43 94 44 95
REMARK SMILES IDX 52 96 45 97 47 98 53 99 46 100 48 101 49 102 50 103 51 104
REMARK H PARENT 73 57 41 68
REMARK Flexibility Score: inf
ROOT
ATOM      1  C   UNL A   1      48.256  23.583  37.663  1.00  0.00     0.188 C 
ENDROOT
BRANCH   1   2
ATOM      2  O   UNL A   1      47.123  24.106  38.310  1.00  0.00    -0.376 OA
BRANCH   2   3
ATOM      3  C   UNL A   1      45.848  23.919  37.726  1.00  0.00     0.202 C 
BRANCH   3   4
ATOM      4  C   UNL A   1      45.468  24.330  36.290  1.00  0.00     0.261 C 
BRANCH   4   5
ATOM      5  O   UNL A   1      45.040  25.686  36.067  1.00  0.00    -0.463 OA
BRANCH   5   6
ATOM      6  C   UNL A   1      43.683  25.849  36.044  1.00  0.00     0.313 C 
ATOM      7  O   UNL A   1      42.973  25.718  37.040  1.00  0.00    -0.252 OA
BRANCH   6   8
ATOM      8  C   UNL A   1      43.075  26.208  34.672  1.00  0.00     0.126 C 
ATOM      9  C   UNL A   1      43.933  26.095  33.413  1.00  0.00     0.025 C 
BRANCH   8  10
ATOM     10  C   UNL A   1      42.384  27.561  34.753  1.00  0.00    -0.032 A 
ATOM     11  C   UNL A   1      43.028  28.661  35.309  1.00  0.00     0.005 A 
ATOM     12  C   UNL A   1      41.116  27.726  34.179  1.00  0.00     0.032 A 
ATOM     13  C   UNL A   1      42.482  29.938  35.181  1.00  0.00     0.011 A 
ATOM     14  C   UNL A   1      40.560  28.998  34.046  1.00  0.00     0.057 A 
ATOM     15  C   UNL A   1      41.258  30.110  34.504  1.00  0.00     0.008 A 
ATOM     16  N   UNL A   1      39.339  29.430  33.454  1.00  0.00    -0.276 N 
ATOM     17  C   UNL A   1      40.428  31.232  34.314  1.00  0.00     0.009 A 
ATOM     18  C   UNL A   1      39.150  30.666  34.192  1.00  0.00     0.057 A 
ATOM     19  C   UNL A   1      40.604  32.598  34.639  1.00  0.00     0.031 A 
ATOM     20  C   UNL A   1      38.172  31.327  34.987  1.00  0.00     0.029 A 
ATOM     21  C   UNL A   1      39.515  33.334  35.087  1.00  0.00     0.041 A 
ATOM     22  C   UNL A   1      38.332  32.679  35.352  1.00  0.00     0.023 A 
ATOM     23  Cl  UNL A   1      39.702  34.997  35.481  1.00  0.00    -0.084 Cl
BRANCH  16  24
ATOM     24  C   UNL A   1      38.663  28.567  32.382  1.00  0.00     0.262 C 
ATOM     25  O   UNL A   1      37.587  28.088  32.761  1.00  0.00    -0.268 OA
BRANCH  24  26
ATOM     26  C   UNL A   1      38.859  28.091  30.906  1.00  0.00     0.040 A 
ATOM     27  C   UNL A   1      38.763  29.066  29.887  1.00  0.00     0.015 A 
ATOM     28  C   UNL A   1      39.052  26.788  30.421  1.00  0.00     0.015 A 
ATOM     29  C   UNL A   1      39.155  28.824  28.548  1.00  0.00     0.021 A 
ATOM     30  C   UNL A   1      39.552  26.548  29.108  1.00  0.00     0.021 A 
ATOM     31  C   UNL A   1      39.654  27.584  28.193  1.00  0.00     0.041 A 
ATOM     32  Cl  UNL A   1      40.400  27.361  26.658  1.00  0.00    -0.084 Cl
ENDBRANCH  24  26
ENDBRANCH  16  24
ENDBRANCH   8  10
ENDBRANCH   6   8
ENDBRANCH   5   6
ENDBRANCH   4   5
ENDBRANCH   3   4
ENDBRANCH   2   3
ENDBRANCH   1   2
BRANCH   1  33
ATOM     33  C   UNL A   1      49.221  22.835  38.586  1.00  0.00     0.188 C 
BRANCH  33  34
ATOM     34  O   UNL A   1      50.359  22.165  38.083  1.00  0.00    -0.376 OA
BRANCH  34  35
ATOM     35  C   UNL A   1      50.346  21.761  36.734  1.00  0.00     0.202 C 
BRANCH  35  36
ATOM     36  C   UNL A   1      51.671  21.697  35.957  1.00  0.00     0.261 C 
BRANCH  36  37
ATOM     37  O   UNL A   1      51.876  22.594  34.849  1.00  0.00    -0.460 OA
BRANCH  37  38
ATOM     38  C   UNL A   1      51.268  22.301  33.661  1.00  0.00     0.338 C 
ATOM     39  O   UNL A   1      51.438  21.321  32.981  1.00  0.00    -0.246 OA
BRANCH  38  40
ATOM     40  C   UNL A   1      50.281  23.397  33.379  1.00  0.00     0.060 A 
ATOM     41  C   UNL A   1      49.037  23.442  34.009  1.00  0.00     0.016 A 
ATOM     42  C   UNL A   1      50.601  24.421  32.492  1.00  0.00     0.016 A 
ATOM     43  C   UNL A   1      48.157  24.546  33.803  1.00  0.00     0.010 A 
ATOM     44  C   UNL A   1      49.731  25.530  32.324  1.00  0.00     0.010 A 
ATOM     45  C   UNL A   1      48.499  25.660  33.005  1.00  0.00    -0.014 A 
BRANCH  45  46
ATOM     46  C   UNL A   1      47.568  26.842  32.630  1.00  0.00     0.031 A 
ATOM     47  C   UNL A   1      46.798  26.685  31.373  1.00  0.00     0.074 A 
ATOM     48  C   UNL A   1      47.362  28.050  33.240  1.00  0.00     0.049 A 
ATOM     49  N   UNL A   1      45.981  27.538  30.830  1.00  0.00    -0.248 NA
ATOM     50  C   UNL A   1      47.010  25.448  30.613  1.00  0.00     0.031 C 
ATOM     51  C   UNL A   1      47.970  28.378  34.478  1.00  0.00     0.029 A 
ATOM     52  N   UNL A   1      46.585  29.185  33.061  1.00  0.00    -0.354 N 
ATOM     53  C   UNL A   1      45.654  26.986  29.615  1.00  0.00     0.074 A 
ATOM     54  C   UNL A   1      46.394  25.749  29.485  1.00  0.00     0.031 C 
ATOM     55  C   UNL A   1      47.596  29.536  35.016  1.00  0.00     0.029 A 
ATOM     56  C   UNL A   1      46.663  30.120  34.105  1.00  0.00     0.049 A 
ATOM     57  H   UNL A   1      46.022  29.323  32.266  1.00  0.00     0.167 HD
ATOM     58  C   UNL A   1      44.785  27.457  28.703  1.00  0.00     0.034 A 
ATOM     59  C   UNL A   1      46.051  31.286  34.402  1.00  0.00     0.034 A 
ATOM     60  C   UNL A   1      44.016  28.658  28.852  1.00  0.00     0.049 A 
ATOM     61  C   UNL A   1      45.020  31.727  33.437  1.00  0.00     0.074 A 
ATOM     62  C   UNL A   1      43.068  29.164  27.987  1.00  0.00     0.029 A 
ATOM     63  N   UNL A   1      44.100  29.544  29.917  1.00  0.00    -0.354 N 
ATOM     64  N   UNL A   1      44.659  31.113  32.343  1.00  0.00    -0.248 NA
ATOM     65  C   UNL A   1      44.289  32.963  33.731  1.00  0.00     0.031 C 
ATOM     66  C   UNL A   1      42.596  30.369  28.511  1.00  0.00     0.029 A 
ATOM     67  C   UNL A   1      43.219  30.597  29.727  1.00  0.00     0.049 A 
ATOM     68  H   UNL A   1      44.696  29.440  30.693  1.00  0.00     0.167 HD
ATOM     69  C   UNL A   1      43.652  31.880  31.807  1.00  0.00     0.074 A 
ATOM     70  C   UNL A   1      43.423  32.981  32.726  1.00  0.00     0.031 C 
ATOM     71  C   UNL A   1      43.001  31.687  30.641  1.00  0.00     0.034 A 
BRANCH  58  72
ATOM     72  C   UNL A   1      44.649  26.630  27.468  1.00  0.00     0.023 A 
ATOM     73  C   UNL A   1      45.377  26.968  26.309  1.00  0.00     0.012 A 
ATOM     74  C   UNL A   1      43.747  25.556  27.446  1.00  0.00     0.148 A 
ATOM     75  C   UNL A   1      45.167  26.275  25.122  1.00  0.00     0.002 A 
ATOM     76  C   UNL A   1      43.597  24.826  26.281  1.00  0.00     0.091 A 
ATOM     77  F   UNL A   1      43.032  25.296  28.551  1.00  0.00    -0.205 F 
ATOM     78  C   UNL A   1      44.287  25.195  25.113  1.00  0.00     0.022 A 
BRANCH  76  79
ATOM     79  S   UNL A   1      42.564  23.365  26.194  1.00  0.00     0.127 S 
ATOM     80  O   UNL A   1      41.229  23.937  26.366  1.00  0.00    -0.237 OA
ATOM     81  O   UNL A   1      42.853  22.877  24.845  1.00  0.00    -0.237 OA
ATOM     82  O   UNL A   1      43.010  22.490  27.269  1.00  0.00    -0.744 OA
ENDBRANCH  76  79
ENDBRANCH  58  72
BRANCH  59  83
ATOM     83  C   UNL A   1      46.321  32.037  35.682  1.00  0.00     0.023 A 
ATOM     84  C   UNL A   1      45.587  31.736  36.848  1.00  0.00     0.012 A 
ATOM     85  C   UNL A   1      47.344  33.004  35.771  1.00  0.00     0.148 A 
ATOM     86  C   UNL A   1      45.847  32.390  38.059  1.00  0.00     0.002 A 
ATOM     87  C   UNL A   1      47.637  33.613  36.993  1.00  0.00     0.091 A 
ATOM     88  F   UNL A   1      48.037  33.298  34.662  1.00  0.00    -0.205 F 
ATOM     89  C   UNL A   1      46.880  33.320  38.136  1.00  0.00     0.022 A 
BRANCH  87  90
ATOM     90  S   UNL A   1      49.057  34.699  37.205  1.00  0.00     0.127 S 
ATOM     91  O   UNL A   1      49.078  34.889  38.653  1.00  0.00    -0.237 OA
ATOM     92  O   UNL A   1      50.151  33.885  36.674  1.00  0.00    -0.237 OA
ATOM     93  O   UNL A   1      48.754  35.880  36.408  1.00  0.00    -0.744 OA
ENDBRANCH  87  90
ENDBRANCH  59  83
BRANCH  71  94
ATOM     94  C   UNL A   1      41.966  32.706  30.300  1.00  0.00     0.023 A 
ATOM     95  C   UNL A   1      42.348  33.927  29.711  1.00  0.00     0.012 A 
ATOM     96  C   UNL A   1      40.612  32.434  30.550  1.00  0.00     0.148 A 
ATOM     97  C   UNL A   1      41.388  34.885  29.407  1.00  0.00     0.002 A 
ATOM     98  C   UNL A   1      39.657  33.367  30.187  1.00  0.00     0.091 A 
ATOM     99  F   UNL A   1      40.293  31.277  31.146  1.00  0.00    -0.205 F 
ATOM    100  C   UNL A   1      40.042  34.599  29.632  1.00  0.00     0.022 A 
BRANCH  98 101
ATOM    101  S   UNL A   1      37.904  33.039  30.345  1.00  0.00     0.127 S 
ATOM    102  O   UNL A   1      37.366  34.385  30.535  1.00  0.00    -0.237 OA
ATOM    103  O   UNL A   1      37.592  32.431  29.051  1.00  0.00    -0.237 OA
ATOM    104  O   UNL A   1      37.760  32.146  31.486  1.00  0.00    -0.744 OA
ENDBRANCH  98 101
ENDBRANCH  71  94
ENDBRANCH  45  46
ENDBRANCH  38  40
ENDBRANCH  37  38
ENDBRANCH  36  37
ENDBRANCH  35  36
ENDBRANCH  34  35
ENDBRANCH  33  34
ENDBRANCH   1  33
TORSDOF 23
ENDMDL
