MODEL 1
REMARK VINA RESULT:      -9.5      0.000      0.000
REMARK SMILES Cc1nn(C)cc1CNC(=O)[C@H]1[C@@H]2CC[C@@H](C2)[C@@H]1C(=O)OCCOCCOCCOC(=O)c1ccc(-c2c3nc(c(-c4cccc(S(=O)(=O)[O-])c4F)c4ccc([nH]4)c(-c4cccc(S(=O)(=O)[O-])c4F)c4nc(c(-c5cccc(S(=O)(=O)[O-])c5F)c5ccc2[nH]5)C=C4)C=C3)cc1
REMARK SMILES IDX 25 1 24 2 23 3 22 4 21 5 19 6 20 7 18 8 12 9 13 10 14 11
REMARK SMILES IDX 17 12 16 13 15 14 10 15 9 16 11 18 8 19 7 20 1 21 2 22 3 23
REMARK SMILES IDX 4 24 6 25 5 26 26 27 27 28 28 29 29 30 30 31 31 32 32 33
REMARK SMILES IDX 33 34 34 35 95 36 35 37 94 38 36 39 37 40 38 41 88 42 39 43
REMARK SMILES IDX 93 44 87 45 89 46 40 47 92 48 86 49 85 50 41 52 73 53 53 54
REMARK SMILES IDX 72 55 54 56 57 57 71 58 90 59 55 60 56 61 70 63 91 64 58 65
REMARK SMILES IDX 42 66 43 67 51 68 44 69 46 70 52 71 45 72 47 73 48 74 49 75
REMARK SMILES IDX 50 76 74 77 75 78 83 79 76 80 78 81 84 82 77 83 79 84 80 85
REMARK SMILES IDX 81 86 82 87 59 88 60 89 68 90 61 91 63 92 69 93 62 94 64 95
REMARK SMILES IDX 65 96 66 97 67 98
REMARK H PARENT 9 17 89 51 57 62
REMARK Flexibility Score: inf
ROOT
ATOM      1  C   UNL A   1      34.011  31.795  27.746  1.00  0.00     0.188 C 
ENDROOT
BRANCH   1   2
ATOM      2  O   UNL A   1      34.072  30.385  27.908  1.00  0.00    -0.376 OA
BRANCH   2   3
ATOM      3  C   UNL A   1      33.352  29.523  27.045  1.00  0.00     0.202 C 
BRANCH   3   4
ATOM      4  C   UNL A   1      34.050  28.246  26.559  1.00  0.00     0.261 C 
BRANCH   4   5
ATOM      5  O   UNL A   1      33.264  27.047  26.369  1.00  0.00    -0.463 OA
BRANCH   5   6
ATOM      6  C   UNL A   1      33.167  26.638  25.079  1.00  0.00     0.310 C 
ATOM      7  O   UNL A   1      33.863  27.076  24.172  1.00  0.00    -0.252 OA
BRANCH   6   8
ATOM      8  C   UNL A   1      32.104  25.601  24.797  1.00  0.00     0.115 C 
ATOM      9  C   UNL A   1      32.476  24.115  24.956  1.00  0.00     0.096 C 
ATOM     10  C   UNL A   1      31.610  23.459  23.825  1.00  0.00     0.002 C 
ATOM     11  C   UNL A   1      32.328  23.637  22.483  1.00  0.00     0.005 C 
ATOM     12  C   UNL A   1      30.443  24.443  23.637  1.00  0.00     0.009 C 
ATOM     13  C   UNL A   1      31.372  25.646  23.441  1.00  0.00     0.004 C 
ATOM     14  C   UNL A   1      32.239  25.150  22.262  1.00  0.00     0.005 C 
BRANCH   9  15
ATOM     15  C   UNL A   1      32.058  23.611  26.334  1.00  0.00     0.224 C 
ATOM     16  N   UNL A   1      32.235  22.304  26.666  1.00  0.00    -0.352 N 
ATOM     17  H   UNL A   1      32.102  22.102  27.621  1.00  0.00     0.163 HD
ATOM     18  O   UNL A   1      31.573  24.359  27.184  1.00  0.00    -0.275 OA
BRANCH  16  19
ATOM     19  C   UNL A   1      32.588  21.162  25.853  1.00  0.00     0.155 C 
BRANCH  19  20
ATOM     20  C   UNL A   1      34.066  21.030  25.734  1.00  0.00     0.012 A 
ATOM     21  C   UNL A   1      34.292  18.771  24.413  1.00  0.00     0.069 C 
ATOM     22  C   UNL A   1      34.797  20.003  25.067  1.00  0.00     0.064 A 
ATOM     23  N   UNL A   1      36.111  20.251  25.041  1.00  0.00    -0.178 NA
ATOM     24  N   UNL A   1      36.229  21.450  25.641  1.00  0.00    -0.275 N 
ATOM     25  C   UNL A   1      35.051  21.899  26.163  1.00  0.00     0.114 A 
ATOM     26  C   UNL A   1      37.494  22.148  25.625  1.00  0.00     0.173 C 
ENDBRANCH  19  20
ENDBRANCH  16  19
ENDBRANCH   9  15
ENDBRANCH   6   8
ENDBRANCH   5   6
ENDBRANCH   4   5
ENDBRANCH   3   4
ENDBRANCH   2   3
ENDBRANCH   1   2
BRANCH   1  27
ATOM     27  C   UNL A   1      35.233  32.660  28.049  1.00  0.00     0.188 C 
BRANCH  27  28
ATOM     28  O   UNL A   1      34.909  33.870  28.708  1.00  0.00    -0.376 OA
BRANCH  28  29
ATOM     29  C   UNL A   1      34.086  34.783  28.001  1.00  0.00     0.202 C 
BRANCH  29  30
ATOM     30  C   UNL A   1      33.320  35.691  28.971  1.00  0.00     0.261 C 
BRANCH  30  31
ATOM     31  O   UNL A   1      32.683  34.995  30.061  1.00  0.00    -0.460 OA
BRANCH  31  32
ATOM     32  C   UNL A   1      32.920  35.476  31.305  1.00  0.00     0.338 C 
ATOM     33  O   UNL A   1      32.183  36.207  31.949  1.00  0.00    -0.246 OA
BRANCH  32  34
ATOM     34  C   UNL A   1      34.085  34.752  31.877  1.00  0.00     0.060 A 
ATOM     35  C   UNL A   1      35.254  35.482  32.143  1.00  0.00     0.016 A 
ATOM     36  C   UNL A   1      34.023  33.395  32.201  1.00  0.00     0.016 A 
ATOM     37  C   UNL A   1      36.381  34.842  32.662  1.00  0.00     0.010 A 
ATOM     38  C   UNL A   1      35.158  32.753  32.714  1.00  0.00     0.010 A 
ATOM     39  C   UNL A   1      36.359  33.462  32.897  1.00  0.00    -0.014 A 
BRANCH  39  40
ATOM     40  C   UNL A   1      37.641  32.737  33.116  1.00  0.00     0.031 A 
ATOM     41  C   UNL A   1      38.364  32.943  34.426  1.00  0.00     0.074 A 
ATOM     42  C   UNL A   1      38.147  31.882  32.208  1.00  0.00     0.049 A 
ATOM     43  N   UNL A   1      39.469  32.395  34.861  1.00  0.00    -0.248 NA
ATOM     44  C   UNL A   1      37.756  33.897  35.369  1.00  0.00     0.031 C 
ATOM     45  C   UNL A   1      37.562  31.582  30.903  1.00  0.00     0.029 A 
ATOM     46  N   UNL A   1      39.288  31.114  32.250  1.00  0.00    -0.354 N 
ATOM     47  C   UNL A   1      39.699  32.951  36.115  1.00  0.00     0.074 A 
ATOM     48  C   UNL A   1      38.635  33.898  36.360  1.00  0.00     0.031 C 
ATOM     49  C   UNL A   1      38.355  30.706  30.261  1.00  0.00     0.029 A 
ATOM     50  C   UNL A   1      39.513  30.393  31.101  1.00  0.00     0.049 A 
ATOM     51  H   UNL A   1      39.887  31.083  33.030  1.00  0.00     0.167 HD
ATOM     52  C   UNL A   1      40.692  32.688  36.997  1.00  0.00     0.034 A 
ATOM     53  C   UNL A   1      40.537  29.583  30.760  1.00  0.00     0.034 A 
ATOM     54  C   UNL A   1      41.747  31.738  36.774  1.00  0.00     0.049 A 
ATOM     55  C   UNL A   1      41.644  29.322  31.754  1.00  0.00     0.074 A 
ATOM     56  C   UNL A   1      42.774  31.377  37.629  1.00  0.00     0.029 A 
ATOM     57  N   UNL A   1      41.923  31.007  35.610  1.00  0.00    -0.354 N 
ATOM     58  N   UNL A   1      41.781  29.766  32.981  1.00  0.00    -0.248 NA
ATOM     59  C   UNL A   1      42.719  28.412  31.327  1.00  0.00     0.031 C 
ATOM     60  C   UNL A   1      43.590  30.452  36.969  1.00  0.00     0.029 A 
ATOM     61  C   UNL A   1      43.047  30.205  35.720  1.00  0.00     0.049 A 
ATOM     62  H   UNL A   1      41.335  31.052  34.822  1.00  0.00     0.167 HD
ATOM     63  C   UNL A   1      42.930  29.158  33.483  1.00  0.00     0.074 A 
ATOM     64  C   UNL A   1      43.435  28.295  32.436  1.00  0.00     0.031 C 
ATOM     65  C   UNL A   1      43.520  29.311  34.695  1.00  0.00     0.034 A 
BRANCH  52  66
ATOM     66  C   UNL A   1      40.670  33.428  38.310  1.00  0.00     0.023 A 
ATOM     67  C   UNL A   1      40.018  32.859  39.424  1.00  0.00     0.012 A 
ATOM     68  C   UNL A   1      41.334  34.661  38.454  1.00  0.00     0.148 A 
ATOM     69  C   UNL A   1      40.002  33.520  40.651  1.00  0.00     0.002 A 
ATOM     70  C   UNL A   1      41.356  35.290  39.692  1.00  0.00     0.091 A 
ATOM     71  F   UNL A   1      41.927  35.197  37.377  1.00  0.00    -0.205 F 
ATOM     72  C   UNL A   1      40.680  34.729  40.787  1.00  0.00     0.022 A 
BRANCH  70  73
ATOM     73  S   UNL A   1      42.266  36.809  39.993  1.00  0.00     0.127 S 
ATOM     74  O   UNL A   1      41.394  37.804  39.371  1.00  0.00    -0.237 OA
ATOM     75  O   UNL A   1      42.305  36.858  41.455  1.00  0.00    -0.237 OA
ATOM     76  O   UNL A   1      43.564  36.633  39.355  1.00  0.00    -0.744 OA
ENDBRANCH  70  73
ENDBRANCH  52  66
BRANCH  53  77
ATOM     77  C   UNL A   1      40.562  28.920  29.423  1.00  0.00     0.023 A 
ATOM     78  C   UNL A   1      40.920  29.662  28.280  1.00  0.00     0.012 A 
ATOM     79  C   UNL A   1      40.212  27.564  29.278  1.00  0.00     0.148 A 
ATOM     80  C   UNL A   1      40.889  29.078  27.012  1.00  0.00     0.002 A 
ATOM     81  C   UNL A   1      40.242  26.972  28.021  1.00  0.00     0.091 A 
ATOM     82  F   UNL A   1      39.853  26.880  30.373  1.00  0.00    -0.205 F 
ATOM     83  C   UNL A   1      40.560  27.731  26.884  1.00  0.00     0.022 A 
BRANCH  81  84
ATOM     84  S   UNL A   1      39.961  25.216  27.775  1.00  0.00     0.127 S 
ATOM     85  O   UNL A   1      41.109  24.630  28.464  1.00  0.00    -0.237 OA
ATOM     86  O   UNL A   1      38.675  25.022  28.447  1.00  0.00    -0.237 OA
ATOM     87  O   UNL A   1      39.922  25.020  26.333  1.00  0.00    -0.744 OA
ENDBRANCH  81  84
ENDBRANCH  53  77
BRANCH  65  88
ATOM     88  C   UNL A   1      44.756  28.492  34.982  1.00  0.00     0.023 A 
ATOM     89  C   UNL A   1      46.035  29.028  34.731  1.00  0.00     0.012 A 
ATOM     90  C   UNL A   1      44.650  27.203  35.544  1.00  0.00     0.148 A 
ATOM     91  C   UNL A   1      47.183  28.277  34.981  1.00  0.00     0.002 A 
ATOM     92  C   UNL A   1      45.801  26.481  35.841  1.00  0.00     0.091 A 
ATOM     93  F   UNL A   1      43.428  26.699  35.766  1.00  0.00    -0.205 F 
ATOM     94  C   UNL A   1      47.068  27.009  35.544  1.00  0.00     0.022 A 
BRANCH  92  95
ATOM     95  S   UNL A   1      45.748  24.882  36.659  1.00  0.00     0.127 S 
ATOM     96  O   UNL A   1      45.038  25.202  37.896  1.00  0.00    -0.237 OA
ATOM     97  O   UNL A   1      44.984  24.071  35.710  1.00  0.00    -0.237 OA
ATOM     98  O   UNL A   1      47.136  24.470  36.821  1.00  0.00    -0.744 OA
ENDBRANCH  92  95
ENDBRANCH  65  88
ENDBRANCH  39  40
ENDBRANCH  32  34
ENDBRANCH  31  32
ENDBRANCH  30  31
ENDBRANCH  29  30
ENDBRANCH  28  29
ENDBRANCH  27  28
ENDBRANCH   1  27
TORSDOF 23
ENDMDL
MODEL 2
REMARK VINA RESULT:      -9.5      1.233      7.493
REMARK SMILES Cc1nn(C)cc1CNC(=O)[C@H]1[C@@H]2CC[C@@H](C2)[C@@H]1C(=O)OCCOCCOCCOC(=O)c1ccc(-c2c3nc(c(-c4cccc(S(=O)(=O)[O-])c4F)c4ccc([nH]4)c(-c4cccc(S(=O)(=O)[O-])c4F)c4nc(c(-c5cccc(S(=O)(=O)[O-])c5F)c5ccc2[nH]5)C=C4)C=C3)cc1
REMARK SMILES IDX 25 1 24 2 23 3 22 4 21 5 19 6 20 7 18 8 12 9 13 10 14 11
REMARK SMILES IDX 17 12 16 13 15 14 10 15 9 16 11 18 8 19 7 20 1 21 2 22 3 23
REMARK SMILES IDX 4 24 6 25 5 26 26 27 27 28 28 29 29 30 30 31 31 32 32 33
REMARK SMILES IDX 33 34 34 35 95 36 35 37 94 38 36 39 37 40 38 41 88 42 39 43
REMARK SMILES IDX 93 44 87 45 89 46 40 47 92 48 86 49 85 50 41 52 73 53 53 54
REMARK SMILES IDX 72 55 54 56 57 57 71 58 90 59 55 60 56 61 70 63 91 64 58 65
REMARK SMILES IDX 42 66 43 67 51 68 44 69 46 70 52 71 45 72 47 73 48 74 49 75
REMARK SMILES IDX 50 76 74 77 75 78 83 79 76 80 78 81 84 82 77 83 79 84 80 85
REMARK SMILES IDX 81 86 82 87 59 88 60 89 68 90 61 91 63 92 69 93 62 94 64 95
REMARK SMILES IDX 65 96 66 97 67 98
REMARK H PARENT 9 17 89 51 57 62
REMARK Flexibility Score: inf
ROOT
ATOM      1  C   UNL A   1      33.770  31.973  27.929  1.00  0.00     0.188 C 
ENDROOT
BRANCH   1   2
ATOM      2  O   UNL A   1      34.204  30.621  27.871  1.00  0.00    -0.376 OA
BRANCH   2   3
ATOM      3  C   UNL A   1      33.518  29.672  27.075  1.00  0.00     0.202 C 
BRANCH   3   4
ATOM      4  C   UNL A   1      34.347  28.592  26.368  1.00  0.00     0.261 C 
BRANCH   4   5
ATOM      5  O   UNL A   1      33.752  27.296  26.129  1.00  0.00    -0.463 OA
BRANCH   5   6
ATOM      6  C   UNL A   1      33.489  27.032  24.825  1.00  0.00     0.310 C 
ATOM      7  O   UNL A   1      33.938  27.687  23.894  1.00  0.00    -0.252 OA
BRANCH   6   8
ATOM      8  C   UNL A   1      32.559  25.869  24.565  1.00  0.00     0.115 C 
ATOM      9  C   UNL A   1      33.010  24.463  25.005  1.00  0.00     0.096 C 
ATOM     10  C   UNL A   1      32.375  23.571  23.883  1.00  0.00     0.002 C 
ATOM     11  C   UNL A   1      33.272  23.620  22.642  1.00  0.00     0.005 C 
ATOM     12  C   UNL A   1      31.181  24.402  23.384  1.00  0.00     0.009 C 
ATOM     13  C   UNL A   1      32.039  25.647  23.131  1.00  0.00     0.004 C 
ATOM     14  C   UNL A   1      33.107  25.070  22.175  1.00  0.00     0.005 C 
BRANCH   9  15
ATOM     15  C   UNL A   1      32.427  24.127  26.375  1.00  0.00     0.224 C 
ATOM     16  N   UNL A   1      33.134  23.360  27.248  1.00  0.00    -0.352 N 
ATOM     17  H   UNL A   1      32.767  23.335  28.161  1.00  0.00     0.163 HD
ATOM     18  O   UNL A   1      31.328  24.545  26.738  1.00  0.00    -0.275 OA
BRANCH  16  19
ATOM     19  C   UNL A   1      34.335  22.576  27.060  1.00  0.00     0.155 C 
BRANCH  19  20
ATOM     20  C   UNL A   1      34.068  21.395  26.195  1.00  0.00     0.012 A 
ATOM     21  C   UNL A   1      36.050  21.540  24.477  1.00  0.00     0.069 C 
ATOM     22  C   UNL A   1      34.848  20.930  25.095  1.00  0.00     0.064 A 
ATOM     23  N   UNL A   1      34.397  19.767  24.611  1.00  0.00    -0.178 NA
ATOM     24  N   UNL A   1      33.366  19.454  25.417  1.00  0.00    -0.275 N 
ATOM     25  C   UNL A   1      33.069  20.447  26.305  1.00  0.00     0.114 A 
ATOM     26  C   UNL A   1      32.743  18.154  25.328  1.00  0.00     0.173 C 
ENDBRANCH  19  20
ENDBRANCH  16  19
ENDBRANCH   9  15
ENDBRANCH   6   8
ENDBRANCH   5   6
ENDBRANCH   4   5
ENDBRANCH   3   4
ENDBRANCH   2   3
ENDBRANCH   1   2
BRANCH   1  27
ATOM     27  C   UNL A   1      34.763  33.089  28.250  1.00  0.00     0.188 C 
BRANCH  27  28
ATOM     28  O   UNL A   1      34.271  34.015  29.199  1.00  0.00    -0.376 OA
BRANCH  28  29
ATOM     29  C   UNL A   1      33.246  34.893  28.765  1.00  0.00     0.202 C 
BRANCH  29  30
ATOM     30  C   UNL A   1      32.824  35.842  29.894  1.00  0.00     0.261 C 
BRANCH  30  31
ATOM     31  O   UNL A   1      32.527  35.186  31.142  1.00  0.00    -0.460 OA
BRANCH  31  32
ATOM     32  C   UNL A   1      33.201  35.627  32.232  1.00  0.00     0.338 C 
ATOM     33  O   UNL A   1      32.781  36.406  33.074  1.00  0.00    -0.246 OA
BRANCH  32  34
ATOM     34  C   UNL A   1      34.427  34.802  32.394  1.00  0.00     0.060 A 
ATOM     35  C   UNL A   1      34.299  33.533  32.981  1.00  0.00     0.016 A 
ATOM     36  C   UNL A   1      35.672  35.234  31.932  1.00  0.00     0.016 A 
ATOM     37  C   UNL A   1      35.426  32.730  33.172  1.00  0.00     0.010 A 
ATOM     38  C   UNL A   1      36.801  34.429  32.132  1.00  0.00     0.010 A 
ATOM     39  C   UNL A   1      36.693  33.196  32.800  1.00  0.00    -0.014 A 
BRANCH  39  40
ATOM     40  C   UNL A   1      37.906  32.501  33.310  1.00  0.00     0.031 A 
ATOM     41  C   UNL A   1      38.484  31.375  32.487  1.00  0.00     0.074 A 
ATOM     42  C   UNL A   1      38.519  32.869  34.450  1.00  0.00     0.049 A 
ATOM     43  N   UNL A   1      39.551  30.649  32.702  1.00  0.00    -0.248 NA
ATOM     44  C   UNL A   1      37.758  31.022  31.255  1.00  0.00     0.031 C 
ATOM     45  C   UNL A   1      38.078  33.935  35.348  1.00  0.00     0.029 A 
ATOM     46  N   UNL A   1      39.650  32.368  35.054  1.00  0.00    -0.354 N 
ATOM     47  C   UNL A   1      39.612  29.744  31.649  1.00  0.00     0.074 A 
ATOM     48  C   UNL A   1      38.461  29.992  30.809  1.00  0.00     0.031 C 
ATOM     49  C   UNL A   1      38.920  33.998  36.395  1.00  0.00     0.029 A 
ATOM     50  C   UNL A   1      39.951  32.969  36.253  1.00  0.00     0.049 A 
ATOM     51  H   UNL A   1      40.193  31.646  34.662  1.00  0.00     0.167 HD
ATOM     52  C   UNL A   1      40.548  28.801  31.385  1.00  0.00     0.034 A 
ATOM     53  C   UNL A   1      40.936  32.712  37.139  1.00  0.00     0.034 A 
ATOM     54  C   UNL A   1      41.705  28.553  32.201  1.00  0.00     0.049 A 
ATOM     55  C   UNL A   1      41.956  31.641  36.832  1.00  0.00     0.074 A 
ATOM     56  C   UNL A   1      42.726  27.645  31.990  1.00  0.00     0.029 A 
ATOM     57  N   UNL A   1      41.989  29.203  33.392  1.00  0.00    -0.354 N 
ATOM     58  N   UNL A   1      42.063  30.877  35.773  1.00  0.00    -0.248 NA
ATOM     59  C   UNL A   1      43.016  31.428  37.831  1.00  0.00     0.031 C 
ATOM     60  C   UNL A   1      43.613  27.722  33.070  1.00  0.00     0.029 A 
ATOM     61  C   UNL A   1      43.164  28.709  33.932  1.00  0.00     0.049 A 
ATOM     62  H   UNL A   1      41.436  29.912  33.794  1.00  0.00     0.167 HD
ATOM     63  C   UNL A   1      43.222  30.125  35.958  1.00  0.00     0.074 A 
ATOM     64  C   UNL A   1      43.793  30.546  37.219  1.00  0.00     0.031 C 
ATOM     65  C   UNL A   1      43.756  29.164  35.163  1.00  0.00     0.034 A 
BRANCH  52  66
ATOM     66  C   UNL A   1      40.370  27.975  30.136  1.00  0.00     0.023 A 
ATOM     67  C   UNL A   1      39.374  26.978  30.092  1.00  0.00     0.012 A 
ATOM     68  C   UNL A   1      41.156  28.220  28.993  1.00  0.00     0.148 A 
ATOM     69  C   UNL A   1      39.183  26.217  28.940  1.00  0.00     0.002 A 
ATOM     70  C   UNL A   1      40.927  27.490  27.833  1.00  0.00     0.091 A 
ATOM     71  F   UNL A   1      42.113  29.156  29.063  1.00  0.00    -0.205 F 
ATOM     72  C   UNL A   1      39.951  26.480  27.809  1.00  0.00     0.022 A 
BRANCH  70  73
ATOM     73  S   UNL A   1      41.806  27.806  26.299  1.00  0.00     0.127 S 
ATOM     74  O   UNL A   1      41.304  26.731  25.445  1.00  0.00    -0.237 OA
ATOM     75  O   UNL A   1      41.329  29.142  25.943  1.00  0.00    -0.237 OA
ATOM     76  O   UNL A   1      43.224  27.732  26.625  1.00  0.00    -0.744 OA
ENDBRANCH  70  73
ENDBRANCH  52  66
BRANCH  53  77
ATOM     77  C   UNL A   1      41.041  33.505  38.400  1.00  0.00     0.023 A 
ATOM     78  C   UNL A   1      40.363  33.073  39.558  1.00  0.00     0.012 A 
ATOM     79  C   UNL A   1      41.792  34.694  38.451  1.00  0.00     0.148 A 
ATOM     80  C   UNL A   1      40.396  33.831  40.729  1.00  0.00     0.002 A 
ATOM     81  C   UNL A   1      41.872  35.413  39.638  1.00  0.00     0.091 A 
ATOM     82  F   UNL A   1      42.413  35.101  37.335  1.00  0.00    -0.205 F 
ATOM     83  C   UNL A   1      41.159  34.995  40.772  1.00  0.00     0.022 A 
BRANCH  81  84
ATOM     84  S   UNL A   1      42.932  36.850  39.825  1.00  0.00     0.127 S 
ATOM     85  O   UNL A   1      42.121  37.901  39.217  1.00  0.00    -0.237 OA
ATOM     86  O   UNL A   1      43.063  36.936  41.281  1.00  0.00    -0.237 OA
ATOM     87  O   UNL A   1      44.168  36.522  39.129  1.00  0.00    -0.744 OA
ENDBRANCH  81  84
ENDBRANCH  53  77
BRANCH  65  88
ATOM     88  C   UNL A   1      45.054  28.529  35.604  1.00  0.00     0.023 A 
ATOM     89  C   UNL A   1      46.285  29.054  35.163  1.00  0.00     0.012 A 
ATOM     90  C   UNL A   1      45.053  27.434  36.494  1.00  0.00     0.148 A 
ATOM     91  C   UNL A   1      47.489  28.468  35.554  1.00  0.00     0.002 A 
ATOM     92  C   UNL A   1      46.259  26.890  36.922  1.00  0.00     0.091 A 
ATOM     93  F   UNL A   1      43.875  26.936  36.896  1.00  0.00    -0.205 F 
ATOM     94  C   UNL A   1      47.477  27.394  36.439  1.00  0.00     0.022 A 
BRANCH  92  95
ATOM     95  S   UNL A   1      46.339  25.570  38.138  1.00  0.00     0.127 S 
ATOM     96  O   UNL A   1      45.530  24.530  37.505  1.00  0.00    -0.237 OA
ATOM     97  O   UNL A   1      47.772  25.280  38.191  1.00  0.00    -0.237 OA
ATOM     98  O   UNL A   1      45.793  26.128  39.369  1.00  0.00    -0.744 OA
ENDBRANCH  92  95
ENDBRANCH  65  88
ENDBRANCH  39  40
ENDBRANCH  32  34
ENDBRANCH  31  32
ENDBRANCH  30  31
ENDBRANCH  29  30
ENDBRANCH  28  29
ENDBRANCH  27  28
ENDBRANCH   1  27
TORSDOF 23
ENDMDL
MODEL 3
REMARK VINA RESULT:      -9.2      4.868      7.554
REMARK SMILES Cc1nn(C)cc1CNC(=O)[C@H]1[C@@H]2CC[C@@H](C2)[C@@H]1C(=O)OCCOCCOCCOC(=O)c1ccc(-c2c3nc(c(-c4cccc(S(=O)(=O)[O-])c4F)c4ccc([nH]4)c(-c4cccc(S(=O)(=O)[O-])c4F)c4nc(c(-c5cccc(S(=O)(=O)[O-])c5F)c5ccc2[nH]5)C=C4)C=C3)cc1
REMARK SMILES IDX 25 1 24 2 23 3 22 4 21 5 19 6 20 7 18 8 12 9 13 10 14 11
REMARK SMILES IDX 17 12 16 13 15 14 10 15 9 16 11 18 8 19 7 20 1 21 2 22 3 23
REMARK SMILES IDX 4 24 6 25 5 26 26 27 27 28 28 29 29 30 30 31 31 32 32 33
REMARK SMILES IDX 33 34 34 35 95 36 35 37 94 38 36 39 37 40 38 41 88 42 39 43
REMARK SMILES IDX 93 44 87 45 89 46 40 47 92 48 86 49 85 50 41 52 73 53 53 54
REMARK SMILES IDX 72 55 54 56 57 57 71 58 90 59 55 60 56 61 70 63 91 64 58 65
REMARK SMILES IDX 42 66 43 67 51 68 44 69 46 70 52 71 45 72 47 73 48 74 49 75
REMARK SMILES IDX 50 76 74 77 75 78 83 79 76 80 78 81 84 82 77 83 79 84 80 85
REMARK SMILES IDX 81 86 82 87 59 88 60 89 68 90 61 91 63 92 69 93 62 94 64 95
REMARK SMILES IDX 65 96 66 97 67 98
REMARK H PARENT 9 17 89 51 57 62
REMARK Flexibility Score: inf
ROOT
ATOM      1  C   UNL A   1      34.235  31.235  27.509  1.00  0.00     0.188 C 
ENDROOT
BRANCH   1   2
ATOM      2  O   UNL A   1      34.205  29.815  27.476  1.00  0.00    -0.376 OA
BRANCH   2   3
ATOM      3  C   UNL A   1      33.506  29.127  26.456  1.00  0.00     0.202 C 
BRANCH   3   4
ATOM      4  C   UNL A   1      33.722  27.612  26.333  1.00  0.00     0.261 C 
BRANCH   4   5
ATOM      5  O   UNL A   1      33.502  26.975  25.053  1.00  0.00    -0.463 OA
BRANCH   5   6
ATOM      6  C   UNL A   1      34.105  25.767  24.917  1.00  0.00     0.310 C 
ATOM      7  O   UNL A   1      34.896  25.306  25.730  1.00  0.00    -0.252 OA
BRANCH   6   8
ATOM      8  C   UNL A   1      33.768  25.004  23.656  1.00  0.00     0.115 C 
ATOM      9  C   UNL A   1      32.505  25.411  22.874  1.00  0.00     0.096 C 
ATOM     10  C   UNL A   1      32.028  24.024  22.319  1.00  0.00     0.002 C 
ATOM     11  C   UNL A   1      31.271  23.280  23.423  1.00  0.00     0.005 C 
ATOM     12  C   UNL A   1      33.316  23.185  22.265  1.00  0.00     0.009 C 
ATOM     13  C   UNL A   1      33.666  23.467  23.730  1.00  0.00     0.004 C 
ATOM     14  C   UNL A   1      32.382  22.973  24.432  1.00  0.00     0.005 C 
BRANCH   9  15
ATOM     15  C   UNL A   1      32.872  26.364  21.740  1.00  0.00     0.224 C 
ATOM     16  N   UNL A   1      32.745  27.708  21.910  1.00  0.00    -0.352 N 
ATOM     17  H   UNL A   1      33.160  28.252  21.202  1.00  0.00     0.163 HD
ATOM     18  O   UNL A   1      33.304  25.960  20.661  1.00  0.00    -0.275 OA
BRANCH  16  19
ATOM     19  C   UNL A   1      32.103  28.472  22.957  1.00  0.00     0.155 C 
BRANCH  19  20
ATOM     20  C   UNL A   1      30.682  28.752  22.616  1.00  0.00     0.012 A 
ATOM     21  C   UNL A   1      29.430  26.908  24.005  1.00  0.00     0.069 C 
ATOM     22  C   UNL A   1      29.521  28.088  23.112  1.00  0.00     0.064 A 
ATOM     23  N   UNL A   1      28.389  28.670  22.699  1.00  0.00    -0.178 NA
ATOM     24  N   UNL A   1      28.809  29.729  21.982  1.00  0.00    -0.275 N 
ATOM     25  C   UNL A   1      30.163  29.754  21.818  1.00  0.00     0.114 A 
ATOM     26  C   UNL A   1      27.861  30.722  21.532  1.00  0.00     0.173 C 
ENDBRANCH  19  20
ENDBRANCH  16  19
ENDBRANCH   9  15
ENDBRANCH   6   8
ENDBRANCH   5   6
ENDBRANCH   4   5
ENDBRANCH   3   4
ENDBRANCH   2   3
ENDBRANCH   1   2
BRANCH   1  27
ATOM     27  C   UNL A   1      35.417  31.968  28.141  1.00  0.00     0.188 C 
BRANCH  27  28
ATOM     28  O   UNL A   1      35.318  32.072  29.549  1.00  0.00    -0.376 OA
BRANCH  28  29
ATOM     29  C   UNL A   1      34.701  33.240  30.063  1.00  0.00     0.202 C 
BRANCH  29  30
ATOM     30  C   UNL A   1      35.338  33.653  31.396  1.00  0.00     0.261 C 
BRANCH  30  31
ATOM     31  O   UNL A   1      35.006  32.794  32.506  1.00  0.00    -0.460 OA
BRANCH  31  32
ATOM     32  C   UNL A   1      35.769  32.922  33.618  1.00  0.00     0.338 C 
ATOM     33  O   UNL A   1      35.384  33.282  34.720  1.00  0.00    -0.246 OA
BRANCH  32  34
ATOM     34  C   UNL A   1      37.089  32.290  33.359  1.00  0.00     0.060 A 
ATOM     35  C   UNL A   1      38.212  32.802  34.028  1.00  0.00     0.016 A 
ATOM     36  C   UNL A   1      37.223  31.181  32.522  1.00  0.00     0.016 A 
ATOM     37  C   UNL A   1      39.476  32.254  33.803  1.00  0.00     0.010 A 
ATOM     38  C   UNL A   1      38.494  30.637  32.291  1.00  0.00     0.010 A 
ATOM     39  C   UNL A   1      39.634  31.204  32.889  1.00  0.00    -0.014 A 
BRANCH  39  40
ATOM     40  C   UNL A   1      40.998  30.860  32.400  1.00  0.00     0.031 A 
ATOM     41  C   UNL A   1      41.706  29.683  33.027  1.00  0.00     0.074 A 
ATOM     42  C   UNL A   1      41.593  31.534  31.399  1.00  0.00     0.049 A 
ATOM     43  N   UNL A   1      42.875  29.169  32.745  1.00  0.00    -0.248 NA
ATOM     44  C   UNL A   1      40.998  28.997  34.121  1.00  0.00     0.031 C 
ATOM     45  C   UNL A   1      41.033  32.689  30.699  1.00  0.00     0.029 A 
ATOM     46  N   UNL A   1      42.819  31.343  30.805  1.00  0.00    -0.354 N 
ATOM     47  C   UNL A   1      43.051  28.116  33.636  1.00  0.00     0.074 A 
ATOM     48  C   UNL A   1      41.882  28.081  34.486  1.00  0.00     0.031 C 
ATOM     49  C   UNL A   1      41.920  33.113  29.780  1.00  0.00     0.029 A 
ATOM     50  C   UNL A   1      43.117  32.272  29.836  1.00  0.00     0.049 A 
ATOM     51  H   UNL A   1      43.427  30.609  31.051  1.00  0.00     0.167 HD
ATOM     52  C   UNL A   1      44.079  27.240  33.732  1.00  0.00     0.034 A 
ATOM     53  C   UNL A   1      44.228  32.434  29.088  1.00  0.00     0.034 A 
ATOM     54  C   UNL A   1      45.240  27.253  32.883  1.00  0.00     0.049 A 
ATOM     55  C   UNL A   1      45.371  31.456  29.228  1.00  0.00     0.074 A 
ATOM     56  C   UNL A   1      46.313  26.380  32.883  1.00  0.00     0.029 A 
ATOM     57  N   UNL A   1      45.489  28.192  31.895  1.00  0.00    -0.354 N 
ATOM     58  N   UNL A   1      45.467  30.396  29.994  1.00  0.00    -0.248 NA
ATOM     59  C   UNL A   1      46.543  31.677  28.367  1.00  0.00     0.031 C 
ATOM     60  C   UNL A   1      47.228  26.810  31.916  1.00  0.00     0.029 A 
ATOM     61  C   UNL A   1      46.703  27.926  31.285  1.00  0.00     0.049 A 
ATOM     62  H   UNL A   1      44.891  28.938  31.662  1.00  0.00     0.167 HD
ATOM     63  C   UNL A   1      46.688  29.804  29.676  1.00  0.00     0.074 A 
ATOM     64  C   UNL A   1      47.282  30.609  28.631  1.00  0.00     0.031 C 
ATOM     65  C   UNL A   1      47.270  28.701  30.212  1.00  0.00     0.034 A 
BRANCH  52  66
ATOM     66  C   UNL A   1      43.983  26.167  34.785  1.00  0.00     0.023 A 
ATOM     67  C   UNL A   1      43.461  24.901  34.450  1.00  0.00     0.012 A 
ATOM     68  C   UNL A   1      44.453  26.397  36.093  1.00  0.00     0.148 A 
ATOM     69  C   UNL A   1      43.380  23.890  35.407  1.00  0.00     0.002 A 
ATOM     70  C   UNL A   1      44.415  25.369  37.027  1.00  0.00     0.091 A 
ATOM     71  F   UNL A   1      44.924  27.614  36.398  1.00  0.00    -0.205 F 
ATOM     72  C   UNL A   1      43.867  24.121  36.690  1.00  0.00     0.022 A 
BRANCH  70  73
ATOM     73  S   UNL A   1      45.089  25.539  38.683  1.00  0.00     0.127 S 
ATOM     74  O   UNL A   1      44.197  26.542  39.264  1.00  0.00    -0.237 OA
ATOM     75  O   UNL A   1      44.923  24.189  39.221  1.00  0.00    -0.237 OA
ATOM     76  O   UNL A   1      46.473  25.961  38.513  1.00  0.00    -0.744 OA
ENDBRANCH  70  73
ENDBRANCH  52  66
BRANCH  53  77
ATOM     77  C   UNL A   1      44.317  33.551  28.101  1.00  0.00     0.023 A 
ATOM     78  C   UNL A   1      44.052  33.304  26.739  1.00  0.00     0.012 A 
ATOM     79  C   UNL A   1      44.683  34.849  28.503  1.00  0.00     0.148 A 
ATOM     80  C   UNL A   1      44.190  34.319  25.790  1.00  0.00     0.002 A 
ATOM     81  C   UNL A   1      44.759  35.870  27.563  1.00  0.00     0.091 A 
ATOM     82  F   UNL A   1      44.953  35.060  29.799  1.00  0.00    -0.205 F 
ATOM     83  C   UNL A   1      44.533  35.604  26.203  1.00  0.00     0.022 A 
BRANCH  81  84
ATOM     84  S   UNL A   1      45.066  37.579  28.018  1.00  0.00     0.127 S 
ATOM     85  O   UNL A   1      46.423  37.507  28.553  1.00  0.00    -0.237 OA
ATOM     86  O   UNL A   1      44.947  38.258  26.727  1.00  0.00    -0.237 OA
ATOM     87  O   UNL A   1      44.026  37.925  28.977  1.00  0.00    -0.744 OA
ENDBRANCH  81  84
ENDBRANCH  53  77
BRANCH  65  88
ATOM     88  C   UNL A   1      48.600  28.264  29.646  1.00  0.00     0.023 A 
ATOM     89  C   UNL A   1      49.797  28.823  30.137  1.00  0.00     0.012 A 
ATOM     90  C   UNL A   1      48.666  27.264  28.653  1.00  0.00     0.148 A 
ATOM     91  C   UNL A   1      51.031  28.436  29.613  1.00  0.00     0.002 A 
ATOM     92  C   UNL A   1      49.902  26.845  28.174  1.00  0.00     0.091 A 
ATOM     93  F   UNL A   1      47.520  26.750  28.184  1.00  0.00    -0.205 F 
ATOM     94  C   UNL A   1      51.084  27.441  28.640  1.00  0.00     0.022 A 
BRANCH  92  95
ATOM     95  S   UNL A   1      50.070  25.500  26.994  1.00  0.00     0.127 S 
ATOM     96  O   UNL A   1      49.093  25.875  25.973  1.00  0.00    -0.237 OA
ATOM     97  O   UNL A   1      51.466  25.624  26.576  1.00  0.00    -0.237 OA
ATOM     98  O   UNL A   1      49.769  24.281  27.733  1.00  0.00    -0.744 OA
ENDBRANCH  92  95
ENDBRANCH  65  88
ENDBRANCH  39  40
ENDBRANCH  32  34
ENDBRANCH  31  32
ENDBRANCH  30  31
ENDBRANCH  29  30
ENDBRANCH  28  29
ENDBRANCH  27  28
ENDBRANCH   1  27
TORSDOF 23
ENDMDL
