MODEL 1
REMARK VINA RESULT:     -10.6      0.000      0.000
REMARK SMILES C[C@@H]1CN(C(=O)Nc2ccc(O)c(C(=O)OCCOCCOCCOC(=O)c3ccc(-c4c5nc(c(-c6cccc(S(=O)(=O)[O-])c6F)c6ccc([nH]6)c(-c6cccc(S(=O)(=O)[O-])c6F)c6nc(c(-c7cccc(S(=O)(=O)[O-])c7F)c7ccc4[nH]7)C=C6)C=C5)cc3)c2)C[C@H]1C
REMARK SMILES IDX 21 1 20 2 19 3 18 4 17 5 16 6 14 7 15 8 13 9 8 10 9 11 91 12
REMARK SMILES IDX 10 13 11 14 7 15 1 16 2 17 3 18 93 19 4 20 92 21 94 22 5 23
REMARK SMILES IDX 6 24 12 26 22 28 23 29 24 30 25 31 26 32 27 33 28 34 29 35
REMARK SMILES IDX 90 36 30 37 89 38 31 39 32 40 33 41 83 42 34 43 88 44 82 45
REMARK SMILES IDX 84 46 35 47 87 48 81 49 80 50 36 52 68 53 48 54 67 55 49 56
REMARK SMILES IDX 52 57 66 58 85 59 50 60 51 61 65 63 86 64 53 65 37 66 38 67
REMARK SMILES IDX 46 68 39 69 41 70 47 71 40 72 42 73 43 74 44 75 45 76 69 77
REMARK SMILES IDX 70 78 78 79 71 80 73 81 79 82 72 83 74 84 75 85 76 86 77 87
REMARK SMILES IDX 54 88 55 89 63 90 56 91 58 92 64 93 57 94 59 95 60 96 61 97
REMARK SMILES IDX 62 98
REMARK H PARENT 7 25 12 27 84 51 52 62
REMARK Flexibility Score: inf
ROOT
ATOM      1  C   UNL A   1      35.372  23.519  24.859  1.00  0.00     0.188 C 
ENDROOT
BRANCH   1   2
ATOM      2  C   UNL A   1      35.473  23.244  23.344  1.00  0.00     0.188 C 
BRANCH   2   3
ATOM      3  O   UNL A   1      34.301  23.030  22.582  1.00  0.00    -0.376 OA
BRANCH   3   4
ATOM      4  C   UNL A   1      33.284  22.165  23.073  1.00  0.00     0.202 C 
BRANCH   4   5
ATOM      5  C   UNL A   1      31.858  22.672  23.304  1.00  0.00     0.261 C 
BRANCH   5   6
ATOM      6  O   UNL A   1      31.823  23.813  24.166  1.00  0.00    -0.460 OA
BRANCH   6   7
ATOM      7  C   UNL A   1      31.161  24.894  23.675  1.00  0.00     0.342 C 
ATOM      8  O   UNL A   1      29.981  24.978  23.427  1.00  0.00    -0.246 OA
BRANCH   7   9
ATOM      9  C   UNL A   1      32.066  26.064  23.715  1.00  0.00     0.103 A 
ATOM     10  C   UNL A   1      32.723  28.075  24.870  1.00  0.00     0.044 A 
ATOM     11  C   UNL A   1      33.775  28.250  23.966  1.00  0.00     0.030 A 
ATOM     12  C   UNL A   1      31.919  26.942  24.798  1.00  0.00     0.045 A 
ATOM     13  C   UNL A   1      33.936  27.364  22.898  1.00  0.00     0.049 A 
ATOM     14  C   UNL A   1      33.055  26.293  22.752  1.00  0.00     0.130 A 
BRANCH  10  15
ATOM     15  N   UNL A   1      32.418  29.053  25.815  1.00  0.00    -0.308 N 
ATOM     16  C   UNL A   1      28.503  29.156  22.063  1.00  0.00     0.010 C 
ATOM     17  C   UNL A   1      29.396  30.171  22.757  1.00  0.00     0.010 C 
ATOM     18  C   UNL A   1      30.508  29.491  23.545  1.00  0.00     0.125 C 
ATOM     19  C   UNL A   1      28.712  31.019  23.832  1.00  0.00     0.010 C 
ATOM     20  N   UNL A   1      30.852  30.401  24.627  1.00  0.00    -0.324 N 
ATOM     21  C   UNL A   1      29.905  31.508  24.662  1.00  0.00     0.125 C 
ATOM     22  C   UNL A   1      27.874  32.147  23.257  1.00  0.00     0.010 C 
ATOM     23  C   UNL A   1      31.721  30.220  25.677  1.00  0.00     0.321 C 
ATOM     24  O   UNL A   1      31.796  31.041  26.594  1.00  0.00    -0.248 OA
ATOM     25  H   UNL A   1      32.756  28.875  26.722  1.00  0.00     0.171 HD
ENDBRANCH  10  15
BRANCH  14  26
ATOM     26  O   UNL A   1      33.157  25.484  21.658  1.00  0.00    -0.507 OA
ATOM     27  H   UNL A   1      33.980  25.091  21.441  1.00  0.00     0.293 HD
ENDBRANCH  14  26
ENDBRANCH   7   9
ENDBRANCH   6   7
ENDBRANCH   5   6
ENDBRANCH   4   5
ENDBRANCH   3   4
ENDBRANCH   2   3
ENDBRANCH   1   2
BRANCH   1  28
ATOM     28  O   UNL A   1      35.699  22.533  25.815  1.00  0.00    -0.376 OA
BRANCH  28  29
ATOM     29  C   UNL A   1      35.922  21.193  25.415  1.00  0.00     0.202 C 
BRANCH  29  30
ATOM     30  C   UNL A   1      37.299  20.635  25.027  1.00  0.00     0.261 C 
BRANCH  30  31
ATOM     31  O   UNL A   1      38.396  21.551  25.066  1.00  0.00    -0.460 OA
BRANCH  31  32
ATOM     32  C   UNL A   1      39.329  21.266  26.009  1.00  0.00     0.338 C 
ATOM     33  O   UNL A   1      39.924  20.212  26.161  1.00  0.00    -0.246 OA
BRANCH  32  34
ATOM     34  C   UNL A   1      39.684  22.493  26.743  1.00  0.00     0.060 A 
ATOM     35  C   UNL A   1      38.982  23.665  26.435  1.00  0.00     0.016 A 
ATOM     36  C   UNL A   1      40.744  22.511  27.650  1.00  0.00     0.016 A 
ATOM     37  C   UNL A   1      39.380  24.879  26.989  1.00  0.00     0.010 A 
ATOM     38  C   UNL A   1      41.153  23.732  28.192  1.00  0.00     0.010 A 
ATOM     39  C   UNL A   1      40.505  24.925  27.823  1.00  0.00    -0.014 A 
BRANCH  39  40
ATOM     40  C   UNL A   1      41.125  26.240  28.112  1.00  0.00     0.031 A 
ATOM     41  C   UNL A   1      42.527  26.491  27.621  1.00  0.00     0.074 A 
ATOM     42  C   UNL A   1      40.451  27.205  28.761  1.00  0.00     0.049 A 
ATOM     43  N   UNL A   1      43.262  27.567  27.724  1.00  0.00    -0.248 NA
ATOM     44  C   UNL A   1      43.188  25.378  26.917  1.00  0.00     0.031 C 
ATOM     45  C   UNL A   1      39.090  27.085  29.280  1.00  0.00     0.029 A 
ATOM     46  N   UNL A   1      40.834  28.477  29.103  1.00  0.00    -0.354 N 
ATOM     47  C   UNL A   1      44.474  27.256  27.120  1.00  0.00     0.074 A 
ATOM     48  C   UNL A   1      44.386  25.884  26.671  1.00  0.00     0.031 C 
ATOM     49  C   UNL A   1      38.757  28.234  29.895  1.00  0.00     0.029 A 
ATOM     50  C   UNL A   1      39.886  29.162  29.824  1.00  0.00     0.049 A 
ATOM     51  H   UNL A   1      41.705  28.862  28.855  1.00  0.00     0.167 HD
ATOM     52  C   UNL A   1      45.557  28.046  26.932  1.00  0.00     0.034 A 
ATOM     53  C   UNL A   1      39.932  30.392  30.371  1.00  0.00     0.034 A 
ATOM     54  C   UNL A   1      45.641  29.415  27.362  1.00  0.00     0.049 A 
ATOM     55  C   UNL A   1      41.161  31.244  30.167  1.00  0.00     0.074 A 
ATOM     56  C   UNL A   1      46.682  30.309  27.190  1.00  0.00     0.029 A 
ATOM     57  N   UNL A   1      44.648  30.085  28.058  1.00  0.00    -0.354 N 
ATOM     58  N   UNL A   1      42.252  30.978  29.489  1.00  0.00    -0.248 NA
ATOM     59  C   UNL A   1      41.146  32.585  30.773  1.00  0.00     0.031 C 
ATOM     60  C   UNL A   1      46.328  31.515  27.803  1.00  0.00     0.029 A 
ATOM     61  C   UNL A   1      45.054  31.380  28.332  1.00  0.00     0.049 A 
ATOM     62  H   UNL A   1      43.782  29.698  28.320  1.00  0.00     0.167 HD
ATOM     63  C   UNL A   1      43.033  32.128  29.555  1.00  0.00     0.074 A 
ATOM     64  C   UNL A   1      42.279  33.100  30.318  1.00  0.00     0.031 C 
ATOM     65  C   UNL A   1      44.271  32.355  29.046  1.00  0.00     0.034 A 
BRANCH  52  66
ATOM     66  C   UNL A   1      46.732  27.452  26.200  1.00  0.00     0.023 A 
ATOM     67  C   UNL A   1      46.818  27.584  24.799  1.00  0.00     0.012 A 
ATOM     68  C   UNL A   1      47.767  26.800  26.898  1.00  0.00     0.148 A 
ATOM     69  C   UNL A   1      47.899  27.051  24.100  1.00  0.00     0.002 A 
ATOM     70  C   UNL A   1      48.864  26.309  26.200  1.00  0.00     0.091 A 
ATOM     71  F   UNL A   1      47.654  26.662  28.227  1.00  0.00    -0.205 F 
ATOM     72  C   UNL A   1      48.926  26.424  24.801  1.00  0.00     0.022 A 
BRANCH  70  73
ATOM     73  S   UNL A   1      50.272  25.551  27.016  1.00  0.00     0.127 S 
ATOM     74  O   UNL A   1      50.651  26.587  27.975  1.00  0.00    -0.237 OA
ATOM     75  O   UNL A   1      49.674  24.356  27.613  1.00  0.00    -0.237 OA
ATOM     76  O   UNL A   1      51.247  25.283  25.968  1.00  0.00    -0.744 OA
ENDBRANCH  70  73
ENDBRANCH  52  66
BRANCH  53  77
ATOM     77  C   UNL A   1      38.765  30.920  31.133  1.00  0.00     0.023 A 
ATOM     78  C   UNL A   1      38.702  30.733  32.528  1.00  0.00     0.012 A 
ATOM     79  C   UNL A   1      37.713  31.596  30.484  1.00  0.00     0.148 A 
ATOM     80  C   UNL A   1      37.597  31.173  33.256  1.00  0.00     0.002 A 
ATOM     81  C   UNL A   1      36.639  32.079  31.224  1.00  0.00     0.091 A 
ATOM     82  F   UNL A   1      37.781  31.748  29.154  1.00  0.00    -0.205 F 
ATOM     83  C   UNL A   1      36.570  31.852  32.607  1.00  0.00     0.022 A 
BRANCH  81  84
ATOM     84  S   UNL A   1      35.332  33.067  30.489  1.00  0.00     0.127 S 
ATOM     85  O   UNL A   1      36.094  34.053  29.728  1.00  0.00    -0.237 OA
ATOM     86  O   UNL A   1      34.623  32.076  29.678  1.00  0.00    -0.237 OA
ATOM     87  O   UNL A   1      34.558  33.589  31.608  1.00  0.00    -0.744 OA
ENDBRANCH  81  84
ENDBRANCH  53  77
BRANCH  65  88
ATOM     88  C   UNL A   1      44.877  33.719  29.266  1.00  0.00     0.023 A 
ATOM     89  C   UNL A   1      44.667  34.740  28.318  1.00  0.00     0.012 A 
ATOM     90  C   UNL A   1      45.606  34.005  30.438  1.00  0.00     0.148 A 
ATOM     91  C   UNL A   1      45.208  36.011  28.512  1.00  0.00     0.002 A 
ATOM     92  C   UNL A   1      46.098  35.289  30.649  1.00  0.00     0.091 A 
ATOM     93  F   UNL A   1      45.810  33.019  31.322  1.00  0.00    -0.205 F 
ATOM     94  C   UNL A   1      45.914  36.288  29.680  1.00  0.00     0.022 A 
BRANCH  92  95
ATOM     95  S   UNL A   1      46.931  35.758  32.170  1.00  0.00     0.127 S 
ATOM     96  O   UNL A   1      48.218  35.078  32.028  1.00  0.00    -0.237 OA
ATOM     97  O   UNL A   1      46.997  37.215  32.054  1.00  0.00    -0.237 OA
ATOM     98  O   UNL A   1      46.083  35.280  33.253  1.00  0.00    -0.744 OA
ENDBRANCH  92  95
ENDBRANCH  65  88
ENDBRANCH  39  40
ENDBRANCH  32  34
ENDBRANCH  31  32
ENDBRANCH  30  31
ENDBRANCH  29  30
ENDBRANCH  28  29
ENDBRANCH   1  28
TORSDOF 22
ENDMDL
MODEL 2
REMARK VINA RESULT:     -10.5      1.906      2.328
REMARK SMILES C[C@@H]1CN(C(=O)Nc2ccc(O)c(C(=O)OCCOCCOCCOC(=O)c3ccc(-c4c5nc(c(-c6cccc(S(=O)(=O)[O-])c6F)c6ccc([nH]6)c(-c6cccc(S(=O)(=O)[O-])c6F)c6nc(c(-c7cccc(S(=O)(=O)[O-])c7F)c7ccc4[nH]7)C=C6)C=C5)cc3)c2)C[C@H]1C
REMARK SMILES IDX 21 1 20 2 19 3 18 4 17 5 16 6 14 7 15 8 13 9 8 10 9 11 91 12
REMARK SMILES IDX 10 13 11 14 7 15 1 16 2 17 3 18 93 19 4 20 92 21 94 22 5 23
REMARK SMILES IDX 6 24 12 26 22 28 23 29 24 30 25 31 26 32 27 33 28 34 29 35
REMARK SMILES IDX 90 36 30 37 89 38 31 39 32 40 33 41 83 42 34 43 88 44 82 45
REMARK SMILES IDX 84 46 35 47 87 48 81 49 80 50 36 52 68 53 48 54 67 55 49 56
REMARK SMILES IDX 52 57 66 58 85 59 50 60 51 61 65 63 86 64 53 65 37 66 38 67
REMARK SMILES IDX 46 68 39 69 41 70 47 71 40 72 42 73 43 74 44 75 45 76 69 77
REMARK SMILES IDX 70 78 78 79 71 80 73 81 79 82 72 83 74 84 75 85 76 86 77 87
REMARK SMILES IDX 54 88 55 89 63 90 56 91 58 92 64 93 57 94 59 95 60 96 61 97
REMARK SMILES IDX 62 98
REMARK H PARENT 7 25 12 27 84 51 52 62
REMARK Flexibility Score: inf
ROOT
ATOM      1  C   UNL A   1      35.241  22.947  25.135  1.00  0.00     0.188 C 
ENDROOT
BRANCH   1   2
ATOM      2  C   UNL A   1      35.283  23.071  23.597  1.00  0.00     0.188 C 
BRANCH   2   3
ATOM      3  O   UNL A   1      34.090  22.961  22.844  1.00  0.00    -0.376 OA
BRANCH   3   4
ATOM      4  C   UNL A   1      33.205  21.871  23.072  1.00  0.00     0.202 C 
BRANCH   4   5
ATOM      5  C   UNL A   1      31.702  22.096  23.251  1.00  0.00     0.261 C 
BRANCH   5   6
ATOM      6  O   UNL A   1      31.420  23.218  24.093  1.00  0.00    -0.460 OA
BRANCH   6   7
ATOM      7  C   UNL A   1      30.934  24.317  23.457  1.00  0.00     0.342 C 
ATOM      8  O   UNL A   1      29.784  24.536  23.152  1.00  0.00    -0.246 OA
BRANCH   7   9
ATOM      9  C   UNL A   1      31.997  25.344  23.402  1.00  0.00     0.103 A 
ATOM     10  C   UNL A   1      33.604  26.659  24.627  1.00  0.00     0.044 A 
ATOM     11  C   UNL A   1      34.085  27.188  23.426  1.00  0.00     0.030 A 
ATOM     12  C   UNL A   1      32.618  25.677  24.614  1.00  0.00     0.045 A 
ATOM     13  C   UNL A   1      33.481  26.842  22.215  1.00  0.00     0.049 A 
ATOM     14  C   UNL A   1      32.410  25.949  22.210  1.00  0.00     0.130 A 
BRANCH  10  15
ATOM     15  N   UNL A   1      34.050  27.143  25.856  1.00  0.00    -0.308 N 
ATOM     16  C   UNL A   1      29.911  30.279  24.290  1.00  0.00     0.010 C 
ATOM     17  C   UNL A   1      31.322  30.491  24.815  1.00  0.00     0.010 C 
ATOM     18  C   UNL A   1      32.114  29.190  24.828  1.00  0.00     0.125 C 
ATOM     19  C   UNL A   1      31.417  30.941  26.274  1.00  0.00     0.010 C 
ATOM     20  N   UNL A   1      33.105  29.332  25.884  1.00  0.00    -0.324 N 
ATOM     21  C   UNL A   1      32.856  30.555  26.636  1.00  0.00     0.125 C 
ATOM     22  C   UNL A   1      31.124  32.419  26.461  1.00  0.00     0.010 C 
ATOM     23  C   UNL A   1      33.999  28.408  26.372  1.00  0.00     0.321 C 
ATOM     24  O   UNL A   1      34.682  28.643  27.371  1.00  0.00    -0.248 OA
ATOM     25  H   UNL A   1      34.465  26.471  26.443  1.00  0.00     0.171 HD
ENDBRANCH  10  15
BRANCH  14  26
ATOM     26  O   UNL A   1      31.761  25.684  21.039  1.00  0.00    -0.507 OA
ATOM     27  H   UNL A   1      32.172  25.149  20.388  1.00  0.00     0.293 HD
ENDBRANCH  14  26
ENDBRANCH   7   9
ENDBRANCH   6   7
ENDBRANCH   5   6
ENDBRANCH   4   5
ENDBRANCH   3   4
ENDBRANCH   2   3
ENDBRANCH   1   2
BRANCH   1  28
ATOM     28  O   UNL A   1      35.616  21.756  25.793  1.00  0.00    -0.376 OA
BRANCH  28  29
ATOM     29  C   UNL A   1      36.142  20.666  25.058  1.00  0.00     0.202 C 
BRANCH  29  30
ATOM     30  C   UNL A   1      37.606  20.209  25.135  1.00  0.00     0.261 C 
BRANCH  30  31
ATOM     31  O   UNL A   1      38.596  21.239  25.199  1.00  0.00    -0.460 OA
BRANCH  31  32
ATOM     32  C   UNL A   1      39.586  21.007  26.098  1.00  0.00     0.338 C 
ATOM     33  O   UNL A   1      40.250  19.992  26.214  1.00  0.00    -0.246 OA
BRANCH  32  34
ATOM     34  C   UNL A   1      39.898  22.250  26.825  1.00  0.00     0.060 A 
ATOM     35  C   UNL A   1      39.194  23.409  26.472  1.00  0.00     0.016 A 
ATOM     36  C   UNL A   1      40.922  22.295  27.771  1.00  0.00     0.016 A 
ATOM     37  C   UNL A   1      39.557  24.635  27.020  1.00  0.00     0.010 A 
ATOM     38  C   UNL A   1      41.296  23.529  28.309  1.00  0.00     0.010 A 
ATOM     39  C   UNL A   1      40.648  24.708  27.896  1.00  0.00    -0.014 A 
BRANCH  39  40
ATOM     40  C   UNL A   1      41.241  26.035  28.187  1.00  0.00     0.031 A 
ATOM     41  C   UNL A   1      42.635  26.319  27.692  1.00  0.00     0.074 A 
ATOM     42  C   UNL A   1      40.548  26.983  28.843  1.00  0.00     0.049 A 
ATOM     43  N   UNL A   1      43.348  27.410  27.796  1.00  0.00    -0.248 NA
ATOM     44  C   UNL A   1      43.317  25.222  26.982  1.00  0.00     0.031 C 
ATOM     45  C   UNL A   1      39.193  26.832  29.367  1.00  0.00     0.029 A 
ATOM     46  N   UNL A   1      40.905  28.262  29.188  1.00  0.00    -0.354 N 
ATOM     47  C   UNL A   1      44.563  27.127  27.186  1.00  0.00     0.074 A 
ATOM     48  C   UNL A   1      44.503  25.755  26.733  1.00  0.00     0.031 C 
ATOM     49  C   UNL A   1      38.838  27.972  29.987  1.00  0.00     0.029 A 
ATOM     50  C   UNL A   1      39.946  28.924  29.915  1.00  0.00     0.049 A 
ATOM     51  H   UNL A   1      41.767  28.667  28.938  1.00  0.00     0.167 HD
ATOM     52  C   UNL A   1      45.628  27.940  26.997  1.00  0.00     0.034 A 
ATOM     53  C   UNL A   1      39.967  30.153  30.466  1.00  0.00     0.034 A 
ATOM     54  C   UNL A   1      45.685  29.309  27.432  1.00  0.00     0.049 A 
ATOM     55  C   UNL A   1      41.177  31.032  30.261  1.00  0.00     0.074 A 
ATOM     56  C   UNL A   1      46.705  30.226  27.259  1.00  0.00     0.029 A 
ATOM     57  N   UNL A   1      44.680  29.956  28.134  1.00  0.00    -0.354 N 
ATOM     58  N   UNL A   1      42.271  30.792  29.577  1.00  0.00    -0.248 NA
ATOM     59  C   UNL A   1      41.136  32.370  30.872  1.00  0.00     0.031 C 
ATOM     60  C   UNL A   1      46.328  31.423  27.878  1.00  0.00     0.029 A 
ATOM     61  C   UNL A   1      45.059  31.258  28.411  1.00  0.00     0.049 A 
ATOM     62  H   UNL A   1      43.824  29.550  28.398  1.00  0.00     0.167 HD
ATOM     63  C   UNL A   1      43.028  31.958  29.645  1.00  0.00     0.074 A 
ATOM     64  C   UNL A   1      42.255  32.911  30.414  1.00  0.00     0.031 C 
ATOM     65  C   UNL A   1      44.258  32.214  29.132  1.00  0.00     0.034 A 
BRANCH  52  66
ATOM     66  C   UNL A   1      46.813  27.374  26.259  1.00  0.00     0.023 A 
ATOM     67  C   UNL A   1      47.652  26.441  26.901  1.00  0.00     0.012 A 
ATOM     68  C   UNL A   1      47.072  27.733  24.922  1.00  0.00     0.148 A 
ATOM     69  C   UNL A   1      48.750  25.897  26.236  1.00  0.00     0.002 A 
ATOM     70  C   UNL A   1      48.142  27.153  24.250  1.00  0.00     0.091 A 
ATOM     71  F   UNL A   1      46.277  28.640  24.337  1.00  0.00    -0.205 F 
ATOM     72  C   UNL A   1      48.987  26.243  24.909  1.00  0.00     0.022 A 
BRANCH  70  73
ATOM     73  S   UNL A   1      48.490  27.476  22.519  1.00  0.00     0.127 S 
ATOM     74  O   UNL A   1      49.778  28.163  22.600  1.00  0.00    -0.237 OA
ATOM     75  O   UNL A   1      48.554  26.125  21.960  1.00  0.00    -0.237 OA
ATOM     76  O   UNL A   1      47.382  28.284  22.030  1.00  0.00    -0.744 OA
ENDBRANCH  70  73
ENDBRANCH  52  66
BRANCH  53  77
ATOM     77  C   UNL A   1      38.792  30.654  31.235  1.00  0.00     0.023 A 
ATOM     78  C   UNL A   1      38.784  30.549  32.640  1.00  0.00     0.012 A 
ATOM     79  C   UNL A   1      37.680  31.220  30.582  1.00  0.00     0.148 A 
ATOM     80  C   UNL A   1      37.675  30.963  33.378  1.00  0.00     0.002 A 
ATOM     81  C   UNL A   1      36.600  31.680  31.329  1.00  0.00     0.091 A 
ATOM     82  F   UNL A   1      37.698  31.294  29.244  1.00  0.00    -0.205 F 
ATOM     83  C   UNL A   1      36.587  31.536  32.724  1.00  0.00     0.022 A 
BRANCH  81  84
ATOM     84  S   UNL A   1      35.210  32.536  30.581  1.00  0.00     0.127 S 
ATOM     85  O   UNL A   1      34.913  31.681  29.434  1.00  0.00    -0.237 OA
ATOM     86  O   UNL A   1      34.217  32.495  31.654  1.00  0.00    -0.237 OA
ATOM     87  O   UNL A   1      35.696  33.874  30.266  1.00  0.00    -0.744 OA
ENDBRANCH  81  84
ENDBRANCH  53  77
BRANCH  65  88
ATOM     88  C   UNL A   1      44.836  33.589  29.354  1.00  0.00     0.023 A 
ATOM     89  C   UNL A   1      45.479  33.891  30.571  1.00  0.00     0.012 A 
ATOM     90  C   UNL A   1      44.794  34.563  28.336  1.00  0.00     0.148 A 
ATOM     91  C   UNL A   1      46.032  35.153  30.788  1.00  0.00     0.002 A 
ATOM     92  C   UNL A   1      45.393  35.802  28.540  1.00  0.00     0.091 A 
ATOM     93  F   UNL A   1      44.166  34.266  27.190  1.00  0.00    -0.205 F 
ATOM     94  C   UNL A   1      45.999  36.104  29.770  1.00  0.00     0.022 A 
BRANCH  92  95
ATOM     95  S   UNL A   1      45.484  37.047  27.249  1.00  0.00     0.127 S 
ATOM     96  O   UNL A   1      44.085  37.455  27.129  1.00  0.00    -0.237 OA
ATOM     97  O   UNL A   1      46.363  38.054  27.846  1.00  0.00    -0.237 OA
ATOM     98  O   UNL A   1      46.046  36.374  26.085  1.00  0.00    -0.744 OA
ENDBRANCH  92  95
ENDBRANCH  65  88
ENDBRANCH  39  40
ENDBRANCH  32  34
ENDBRANCH  31  32
ENDBRANCH  30  31
ENDBRANCH  29  30
ENDBRANCH  28  29
ENDBRANCH   1  28
TORSDOF 22
ENDMDL
MODEL 3
REMARK VINA RESULT:     -10.5      2.406      3.898
REMARK SMILES C[C@@H]1CN(C(=O)Nc2ccc(O)c(C(=O)OCCOCCOCCOC(=O)c3ccc(-c4c5nc(c(-c6cccc(S(=O)(=O)[O-])c6F)c6ccc([nH]6)c(-c6cccc(S(=O)(=O)[O-])c6F)c6nc(c(-c7cccc(S(=O)(=O)[O-])c7F)c7ccc4[nH]7)C=C6)C=C5)cc3)c2)C[C@H]1C
REMARK SMILES IDX 21 1 20 2 19 3 18 4 17 5 16 6 14 7 15 8 13 9 8 10 9 11 91 12
REMARK SMILES IDX 10 13 11 14 7 15 1 16 2 17 3 18 93 19 4 20 92 21 94 22 5 23
REMARK SMILES IDX 6 24 12 26 22 28 23 29 24 30 25 31 26 32 27 33 28 34 29 35
REMARK SMILES IDX 90 36 30 37 89 38 31 39 32 40 33 41 83 42 34 43 88 44 82 45
REMARK SMILES IDX 84 46 35 47 87 48 81 49 80 50 36 52 68 53 48 54 67 55 49 56
REMARK SMILES IDX 52 57 66 58 85 59 50 60 51 61 65 63 86 64 53 65 37 66 38 67
REMARK SMILES IDX 46 68 39 69 41 70 47 71 40 72 42 73 43 74 44 75 45 76 69 77
REMARK SMILES IDX 70 78 78 79 71 80 73 81 79 82 72 83 74 84 75 85 76 86 77 87
REMARK SMILES IDX 54 88 55 89 63 90 56 91 58 92 64 93 57 94 59 95 60 96 61 97
REMARK SMILES IDX 62 98
REMARK H PARENT 7 25 12 27 84 51 52 62
REMARK Flexibility Score: inf
ROOT
ATOM      1  C   UNL A   1      36.736  23.466  26.043  1.00  0.00     0.188 C 
ENDROOT
BRANCH   1   2
ATOM      2  C   UNL A   1      35.206  23.330  26.189  1.00  0.00     0.188 C 
BRANCH   2   3
ATOM      3  O   UNL A   1      34.344  24.165  25.440  1.00  0.00    -0.376 OA
BRANCH   3   4
ATOM      4  C   UNL A   1      34.775  25.465  25.055  1.00  0.00     0.202 C 
BRANCH   4   5
ATOM      5  C   UNL A   1      34.035  26.256  23.973  1.00  0.00     0.261 C 
BRANCH   5   6
ATOM      6  O   UNL A   1      33.658  27.561  24.421  1.00  0.00    -0.460 OA
BRANCH   6   7
ATOM      7  C   UNL A   1      32.677  28.164  23.698  1.00  0.00     0.342 C 
ATOM      8  O   UNL A   1      32.814  28.997  22.832  1.00  0.00    -0.246 OA
BRANCH   7   9
ATOM      9  C   UNL A   1      31.399  27.465  23.957  1.00  0.00     0.103 A 
ATOM     10  C   UNL A   1      30.141  26.026  25.426  1.00  0.00     0.044 A 
ATOM     11  C   UNL A   1      29.013  26.186  24.615  1.00  0.00     0.030 A 
ATOM     12  C   UNL A   1      31.309  26.728  25.146  1.00  0.00     0.045 A 
ATOM     13  C   UNL A   1      29.095  26.937  23.440  1.00  0.00     0.049 A 
ATOM     14  C   UNL A   1      30.301  27.543  23.092  1.00  0.00     0.130 A 
BRANCH  10  15
ATOM     15  N   UNL A   1      30.142  25.120  26.485  1.00  0.00    -0.308 N 
ATOM     16  C   UNL A   1      33.045  22.915  22.470  1.00  0.00     0.010 C 
ATOM     17  C   UNL A   1      31.921  22.473  23.393  1.00  0.00     0.010 C 
ATOM     18  C   UNL A   1      31.330  23.651  24.156  1.00  0.00     0.125 C 
ATOM     19  C   UNL A   1      32.336  21.531  24.525  1.00  0.00     0.010 C 
ATOM     20  N   UNL A   1      30.799  23.104  25.396  1.00  0.00    -0.324 N 
ATOM     21  C   UNL A   1      31.186  21.705  25.525  1.00  0.00     0.125 C 
ATOM     22  C   UNL A   1      32.525  20.096  24.068  1.00  0.00     0.010 C 
ATOM     23  C   UNL A   1      30.253  23.758  26.476  1.00  0.00     0.321 C 
ATOM     24  O   UNL A   1      29.976  23.156  27.515  1.00  0.00    -0.248 OA
ATOM     25  H   UNL A   1      30.049  25.523  27.378  1.00  0.00     0.171 HD
ENDBRANCH  10  15
BRANCH  14  26
ATOM     26  O   UNL A   1      30.405  28.198  21.900  1.00  0.00    -0.507 OA
ATOM     27  H   UNL A   1      31.199  28.144  21.404  1.00  0.00     0.293 HD
ENDBRANCH  14  26
ENDBRANCH   7   9
ENDBRANCH   6   7
ENDBRANCH   5   6
ENDBRANCH   4   5
ENDBRANCH   3   4
ENDBRANCH   2   3
ENDBRANCH   1   2
BRANCH   1  28
ATOM     28  O   UNL A   1      37.452  22.761  25.052  1.00  0.00    -0.376 OA
BRANCH  28  29
ATOM     29  C   UNL A   1      37.369  21.349  24.975  1.00  0.00     0.202 C 
BRANCH  29  30
ATOM     30  C   UNL A   1      38.561  20.409  25.205  1.00  0.00     0.261 C 
BRANCH  30  31
ATOM     31  O   UNL A   1      39.266  20.557  26.440  1.00  0.00    -0.460 OA
BRANCH  31  32
ATOM     32  C   UNL A   1      40.594  20.292  26.361  1.00  0.00     0.338 C 
ATOM     33  O   UNL A   1      41.118  19.272  25.947  1.00  0.00    -0.246 OA
BRANCH  32  34
ATOM     34  C   UNL A   1      41.363  21.509  26.678  1.00  0.00     0.060 A 
ATOM     35  C   UNL A   1      41.594  21.803  28.028  1.00  0.00     0.016 A 
ATOM     36  C   UNL A   1      41.769  22.387  25.674  1.00  0.00     0.016 A 
ATOM     37  C   UNL A   1      42.181  23.014  28.383  1.00  0.00     0.010 A 
ATOM     38  C   UNL A   1      42.343  23.610  26.033  1.00  0.00     0.010 A 
ATOM     39  C   UNL A   1      42.503  23.948  27.389  1.00  0.00    -0.014 A 
BRANCH  39  40
ATOM     40  C   UNL A   1      42.786  25.346  27.790  1.00  0.00     0.031 A 
ATOM     41  C   UNL A   1      44.196  25.857  27.652  1.00  0.00     0.074 A 
ATOM     42  C   UNL A   1      41.810  26.160  28.230  1.00  0.00     0.049 A 
ATOM     43  N   UNL A   1      44.678  27.045  27.906  1.00  0.00    -0.248 NA
ATOM     44  C   UNL A   1      45.199  24.896  27.159  1.00  0.00     0.031 C 
ATOM     45  C   UNL A   1      40.408  25.786  28.402  1.00  0.00     0.029 A 
ATOM     46  N   UNL A   1      41.862  27.473  28.625  1.00  0.00    -0.354 N 
ATOM     47  C   UNL A   1      46.036  26.971  27.626  1.00  0.00     0.074 A 
ATOM     48  C   UNL A   1      46.310  25.615  27.202  1.00  0.00     0.031 C 
ATOM     49  C   UNL A   1      39.734  26.843  28.889  1.00  0.00     0.029 A 
ATOM     50  C   UNL A   1      40.659  27.960  29.075  1.00  0.00     0.049 A 
ATOM     51  H   UNL A   1      42.683  28.014  28.589  1.00  0.00     0.167 HD
ATOM     52  C   UNL A   1      46.972  27.947  27.690  1.00  0.00     0.034 A 
ATOM     53  C   UNL A   1      40.347  29.167  29.587  1.00  0.00     0.034 A 
ATOM     54  C   UNL A   1      46.700  29.299  28.095  1.00  0.00     0.049 A 
ATOM     55  C   UNL A   1      41.415  30.231  29.670  1.00  0.00     0.074 A 
ATOM     56  C   UNL A   1      47.573  30.369  28.161  1.00  0.00     0.029 A 
ATOM     57  N   UNL A   1      45.462  29.765  28.509  1.00  0.00    -0.354 N 
ATOM     58  N   UNL A   1      42.668  30.180  29.287  1.00  0.00    -0.248 NA
ATOM     59  C   UNL A   1      41.010  31.533  30.222  1.00  0.00     0.031 C 
ATOM     60  C   UNL A   1      46.868  31.479  28.640  1.00  0.00     0.029 A 
ATOM     61  C   UNL A   1      45.549  31.105  28.843  1.00  0.00     0.049 A 
ATOM     62  H   UNL A   1      44.643  29.222  28.560  1.00  0.00     0.167 HD
ATOM     63  C   UNL A   1      43.189  31.450  29.515  1.00  0.00     0.074 A 
ATOM     64  C   UNL A   1      42.108  32.254  30.046  1.00  0.00     0.031 C 
ATOM     65  C   UNL A   1      44.452  31.908  29.320  1.00  0.00     0.034 A 
BRANCH  52  66
ATOM     66  C   UNL A   1      48.377  27.590  27.283  1.00  0.00     0.023 A 
ATOM     67  C   UNL A   1      49.270  27.073  28.245  1.00  0.00     0.012 A 
ATOM     68  C   UNL A   1      48.803  27.728  25.948  1.00  0.00     0.148 A 
ATOM     69  C   UNL A   1      50.573  26.728  27.891  1.00  0.00     0.002 A 
ATOM     70  C   UNL A   1      50.089  27.340  25.593  1.00  0.00     0.091 A 
ATOM     71  F   UNL A   1      47.947  28.244  25.054  1.00  0.00    -0.205 F 
ATOM     72  C   UNL A   1      50.979  26.850  26.565  1.00  0.00     0.022 A 
BRANCH  70  73
ATOM     73  S   UNL A   1      50.685  27.389  23.900  1.00  0.00     0.127 S 
ATOM     74  O   UNL A   1      50.902  28.822  23.706  1.00  0.00    -0.237 OA
ATOM     75  O   UNL A   1      51.909  26.592  23.981  1.00  0.00    -0.237 OA
ATOM     76  O   UNL A   1      49.631  26.802  23.086  1.00  0.00    -0.744 OA
ENDBRANCH  70  73
ENDBRANCH  52  66
BRANCH  53  77
ATOM     77  C   UNL A   1      38.953  29.460  30.026  1.00  0.00     0.023 A 
ATOM     78  C   UNL A   1      38.541  29.092  31.322  1.00  0.00     0.012 A 
ATOM     79  C   UNL A   1      38.032  30.088  29.165  1.00  0.00     0.148 A 
ATOM     80  C   UNL A   1      37.227  29.309  31.739  1.00  0.00     0.002 A 
ATOM     81  C   UNL A   1      36.739  30.349  29.607  1.00  0.00     0.091 A 
ATOM     82  F   UNL A   1      38.437  30.413  27.930  1.00  0.00    -0.205 F 
ATOM     83  C   UNL A   1      36.329  29.945  30.886  1.00  0.00     0.022 A 
BRANCH  81  84
ATOM     84  S   UNL A   1      35.553  31.268  28.619  1.00  0.00     0.127 S 
ATOM     85  O   UNL A   1      34.927  30.204  27.838  1.00  0.00    -0.237 OA
ATOM     86  O   UNL A   1      34.699  31.862  29.647  1.00  0.00    -0.237 OA
ATOM     87  O   UNL A   1      36.338  32.233  27.860  1.00  0.00    -0.744 OA
ENDBRANCH  81  84
ENDBRANCH  53  77
BRANCH  65  88
ATOM     88  C   UNL A   1      44.731  33.353  29.649  1.00  0.00     0.023 A 
ATOM     89  C   UNL A   1      45.222  33.700  30.923  1.00  0.00     0.012 A 
ATOM     90  C   UNL A   1      44.562  34.360  28.677  1.00  0.00     0.148 A 
ATOM     91  C   UNL A   1      45.499  35.030  31.240  1.00  0.00     0.002 A 
ATOM     92  C   UNL A   1      44.889  35.677  28.983  1.00  0.00     0.091 A 
ATOM     93  F   UNL A   1      44.078  34.017  27.475  1.00  0.00    -0.205 F 
ATOM     94  C   UNL A   1      45.343  36.016  30.268  1.00  0.00     0.022 A 
BRANCH  92  95
ATOM     95  S   UNL A   1      44.813  36.992  27.762  1.00  0.00     0.127 S 
ATOM     96  O   UNL A   1      45.540  36.400  26.640  1.00  0.00    -0.237 OA
ATOM     97  O   UNL A   1      43.372  37.137  27.546  1.00  0.00    -0.237 OA
ATOM     98  O   UNL A   1      45.446  38.149  28.382  1.00  0.00    -0.744 OA
ENDBRANCH  92  95
ENDBRANCH  65  88
ENDBRANCH  39  40
ENDBRANCH  32  34
ENDBRANCH  31  32
ENDBRANCH  30  31
ENDBRANCH  29  30
ENDBRANCH  28  29
ENDBRANCH   1  28
TORSDOF 22
ENDMDL
