MODEL 1
REMARK VINA RESULT:     -11.1      0.000      0.000
REMARK SMILES O=C1C[C@H](C(=O)OCCOCCOCCOC(=O)c2ccc(-c3c4nc(c(-c5cccc(S(=O)(=O)[O-])c5F)c5ccc([nH]5)c(-c5cccc(S(=O)(=O)[O-])c5F)c5nc(c(-c6cccc(S(=O)(=O)[O-])c6F)c6ccc3[nH]6)C=C5)C=C4)cc2)c2c(nc(Nc3ccc(Oc4ccccc4)cc3)[nH]c2=O)N1
REMARK SMILES IDX 11 1 10 2 9 3 8 4 7 5 5 6 6 7 4 8 1 9 2 10 3 11 103 12 83 13
REMARK SMILES IDX 82 15 84 16 101 17 85 18 100 19 102 20 86 22 87 24 88 25
REMARK SMILES IDX 99 26 89 27 98 28 90 29 91 30 92 31 93 32 97 33 94 34 96 35
REMARK SMILES IDX 95 36 12 37 13 38 14 39 15 40 16 41 17 42 18 43 19 44 20 45
REMARK SMILES IDX 81 46 21 47 80 48 22 49 23 50 24 51 74 52 25 53 79 54 73 55
REMARK SMILES IDX 75 56 26 57 78 58 72 59 71 60 27 62 59 63 39 64 58 65 40 66
REMARK SMILES IDX 43 67 57 68 76 69 41 70 42 71 56 73 77 74 44 75 28 76 29 77
REMARK SMILES IDX 37 78 30 79 32 80 38 81 31 82 33 83 34 84 35 85 36 86 60 87
REMARK SMILES IDX 61 88 69 89 62 90 64 91 70 92 63 93 65 94 66 95 67 96 68 97
REMARK SMILES IDX 45 98 46 99 54 100 47 101 49 102 55 103 48 104 50 105 51 106
REMARK SMILES IDX 52 107 53 108
REMARK H PARENT 103 14 100 21 86 23 75 61 43 72
REMARK Flexibility Score: inf
ROOT
ATOM      1  C   UNL A   1      35.198  24.906  25.337  1.00  0.00     0.188 C 
ENDROOT
BRANCH   1   2
ATOM      2  O   UNL A   1      34.000  25.396  24.753  1.00  0.00    -0.376 OA
BRANCH   2   3
ATOM      3  C   UNL A   1      33.981  26.612  24.031  1.00  0.00     0.202 C 
BRANCH   3   4
ATOM      4  C   UNL A   1      34.120  27.951  24.774  1.00  0.00     0.261 C 
BRANCH   4   5
ATOM      5  O   UNL A   1      33.327  29.069  24.324  1.00  0.00    -0.463 OA
BRANCH   5   6
ATOM      6  C   UNL A   1      32.395  29.509  25.216  1.00  0.00     0.314 C 
ATOM      7  O   UNL A   1      32.687  30.100  26.247  1.00  0.00    -0.252 OA
BRANCH   6   8
ATOM      8  C   UNL A   1      30.946  29.157  24.843  1.00  0.00     0.148 C 
ATOM      9  O   UNL A   1      28.763  29.147  21.859  1.00  0.00    -0.275 OA
ATOM     10  C   UNL A   1      29.482  28.729  22.763  1.00  0.00     0.226 C 
ATOM     11  C   UNL A   1      30.525  29.588  23.428  1.00  0.00     0.121 C 
ATOM     12  N   UNL A   1      29.477  27.421  23.131  1.00  0.00    -0.310 N 
ATOM     13  C   UNL A   1      30.119  26.904  24.208  1.00  0.00     0.146 A 
ATOM     14  H   UNL A   1      28.965  26.797  22.567  1.00  0.00     0.171 HD
ATOM     15  C   UNL A   1      30.758  27.693  25.071  1.00  0.00     0.075 A 
ATOM     16  N   UNL A   1      29.985  25.566  24.329  1.00  0.00    -0.196 NA
ATOM     17  C   UNL A   1      31.196  27.038  26.317  1.00  0.00     0.258 A 
ATOM     18  C   UNL A   1      30.538  24.971  25.340  1.00  0.00     0.209 A 
ATOM     19  N   UNL A   1      31.192  25.680  26.300  1.00  0.00    -0.292 N 
ATOM     20  O   UNL A   1      31.484  27.647  27.336  1.00  0.00    -0.269 OA
ATOM     21  H   UNL A   1      31.676  25.192  27.006  1.00  0.00     0.173 HD
BRANCH  18  22
ATOM     22  N   UNL A   1      30.457  23.618  25.532  1.00  0.00    -0.326 N 
ATOM     23  H   UNL A   1      29.615  23.218  25.848  1.00  0.00     0.170 HD
BRANCH  22  24
ATOM     24  C   UNL A   1      31.567  22.798  25.276  1.00  0.00     0.041 A 
ATOM     25  C   UNL A   1      32.249  22.199  26.339  1.00  0.00     0.030 A 
ATOM     26  C   UNL A   1      31.849  22.387  23.968  1.00  0.00     0.030 A 
ATOM     27  C   UNL A   1      33.198  21.203  26.095  1.00  0.00     0.049 A 
ATOM     28  C   UNL A   1      32.785  21.390  23.723  1.00  0.00     0.049 A 
ATOM     29  C   UNL A   1      33.477  20.804  24.786  1.00  0.00     0.127 A 
BRANCH  29  30
ATOM     30  O   UNL A   1      34.416  19.799  24.641  1.00  0.00    -0.457 OA
BRANCH  30  31
ATOM     31  C   UNL A   1      33.939  18.511  24.672  1.00  0.00     0.127 A 
ATOM     32  C   UNL A   1      34.729  17.499  24.128  1.00  0.00     0.047 A 
ATOM     33  C   UNL A   1      32.714  18.219  25.278  1.00  0.00     0.047 A 
ATOM     34  C   UNL A   1      34.320  16.173  24.257  1.00  0.00     0.004 A 
ATOM     35  C   UNL A   1      32.317  16.892  25.415  1.00  0.00     0.004 A 
ATOM     36  C   UNL A   1      33.124  15.870  24.912  1.00  0.00     0.000 A 
ENDBRANCH  30  31
ENDBRANCH  29  30
ENDBRANCH  22  24
ENDBRANCH  18  22
ENDBRANCH   6   8
ENDBRANCH   5   6
ENDBRANCH   4   5
ENDBRANCH   3   4
ENDBRANCH   2   3
ENDBRANCH   1   2
BRANCH   1  37
ATOM     37  C   UNL A   1      35.651  23.462  25.077  1.00  0.00     0.188 C 
BRANCH  37  38
ATOM     38  O   UNL A   1      36.947  23.131  25.490  1.00  0.00    -0.376 OA
BRANCH  38  39
ATOM     39  C   UNL A   1      37.560  21.957  25.006  1.00  0.00     0.202 C 
BRANCH  39  40
ATOM     40  C   UNL A   1      38.837  21.328  25.603  1.00  0.00     0.261 C 
BRANCH  40  41
ATOM     41  O   UNL A   1      39.536  22.035  26.633  1.00  0.00    -0.460 OA
BRANCH  41  42
ATOM     42  C   UNL A   1      40.739  22.576  26.309  1.00  0.00     0.338 C 
ATOM     43  O   UNL A   1      41.544  22.139  25.519  1.00  0.00    -0.246 OA
BRANCH  42  44
ATOM     44  C   UNL A   1      40.804  23.925  26.925  1.00  0.00     0.060 A 
ATOM     45  C   UNL A   1      40.616  25.059  26.120  1.00  0.00     0.016 A 
ATOM     46  C   UNL A   1      41.056  24.066  28.290  1.00  0.00     0.016 A 
ATOM     47  C   UNL A   1      40.695  26.339  26.675  1.00  0.00     0.010 A 
ATOM     48  C   UNL A   1      41.180  25.347  28.835  1.00  0.00     0.010 A 
ATOM     49  C   UNL A   1      41.031  26.487  28.026  1.00  0.00    -0.014 A 
BRANCH  49  50
ATOM     50  C   UNL A   1      41.472  27.807  28.539  1.00  0.00     0.031 A 
ATOM     51  C   UNL A   1      40.409  28.780  28.973  1.00  0.00     0.074 A 
ATOM     52  C   UNL A   1      42.769  28.158  28.590  1.00  0.00     0.049 A 
ATOM     53  N   UNL A   1      40.531  30.025  29.351  1.00  0.00    -0.248 NA
ATOM     54  C   UNL A   1      39.022  28.281  28.982  1.00  0.00     0.031 C 
ATOM     55  C   UNL A   1      43.897  27.300  28.236  1.00  0.00     0.029 A 
ATOM     56  N   UNL A   1      43.349  29.354  28.940  1.00  0.00    -0.354 N 
ATOM     57  C   UNL A   1      39.241  30.465  29.614  1.00  0.00     0.074 A 
ATOM     58  C   UNL A   1      38.349  29.357  29.362  1.00  0.00     0.031 C 
ATOM     59  C   UNL A   1      45.035  28.009  28.352  1.00  0.00     0.029 A 
ATOM     60  C   UNL A   1      44.711  29.377  28.761  1.00  0.00     0.049 A 
ATOM     61  H   UNL A   1      42.838  30.121  29.286  1.00  0.00     0.167 HD
ATOM     62  C   UNL A   1      38.834  31.684  30.035  1.00  0.00     0.034 A 
ATOM     63  C   UNL A   1      45.593  30.391  28.886  1.00  0.00     0.034 A 
ATOM     64  C   UNL A   1      39.714  32.786  30.298  1.00  0.00     0.049 A 
ATOM     65  C   UNL A   1      45.109  31.756  29.306  1.00  0.00     0.074 A 
ATOM     66  C   UNL A   1      39.386  34.050  30.754  1.00  0.00     0.029 A 
ATOM     67  N   UNL A   1      41.085  32.762  30.119  1.00  0.00    -0.354 N 
ATOM     68  N   UNL A   1      43.895  32.139  29.619  1.00  0.00    -0.248 NA
ATOM     69  C   UNL A   1      46.118  32.823  29.410  1.00  0.00     0.031 C 
ATOM     70  C   UNL A   1      40.561  34.800  30.833  1.00  0.00     0.029 A 
ATOM     71  C   UNL A   1      41.621  33.994  30.448  1.00  0.00     0.049 A 
ATOM     72  H   UNL A   1      41.603  31.986  29.805  1.00  0.00     0.167 HD
ATOM     73  C   UNL A   1      43.997  33.480  29.979  1.00  0.00     0.074 A 
ATOM     74  C   UNL A   1      45.393  33.841  29.856  1.00  0.00     0.031 C 
ATOM     75  C   UNL A   1      43.018  34.333  30.367  1.00  0.00     0.034 A 
BRANCH  62  76
ATOM     76  C   UNL A   1      37.365  31.891  30.268  1.00  0.00     0.023 A 
ATOM     77  C   UNL A   1      36.813  31.565  31.520  1.00  0.00     0.012 A 
ATOM     78  C   UNL A   1      36.561  32.498  29.285  1.00  0.00     0.148 A 
ATOM     79  C   UNL A   1      35.474  31.840  31.795  1.00  0.00     0.002 A 
ATOM     80  C   UNL A   1      35.237  32.797  29.575  1.00  0.00     0.091 A 
ATOM     81  F   UNL A   1      37.111  32.781  28.095  1.00  0.00    -0.205 F 
ATOM     82  C   UNL A   1      34.691  32.467  30.827  1.00  0.00     0.022 A 
BRANCH  80  83
ATOM     83  S   UNL A   1      34.156  33.648  28.422  1.00  0.00     0.127 S 
ATOM     84  O   UNL A   1      33.466  34.590  29.304  1.00  0.00    -0.237 OA
ATOM     85  O   UNL A   1      35.112  34.261  27.502  1.00  0.00    -0.237 OA
ATOM     86  O   UNL A   1      33.305  32.623  27.832  1.00  0.00    -0.744 OA
ENDBRANCH  80  83
ENDBRANCH  62  76
BRANCH  63  87
ATOM     87  C   UNL A   1      47.038  30.142  28.633  1.00  0.00     0.023 A 
ATOM     88  C   UNL A   1      47.556  30.350  27.341  1.00  0.00     0.012 A 
ATOM     89  C   UNL A   1      47.904  29.741  29.670  1.00  0.00     0.148 A 
ATOM     90  C   UNL A   1      48.914  30.159  27.082  1.00  0.00     0.002 A 
ATOM     91  C   UNL A   1      49.262  29.586  29.412  1.00  0.00     0.091 A 
ATOM     92  F   UNL A   1      47.383  29.540  30.888  1.00  0.00    -0.205 F 
ATOM     93  C   UNL A   1      49.768  29.787  28.119  1.00  0.00     0.022 A 
BRANCH  91  94
ATOM     94  S   UNL A   1      50.456  29.183  30.693  1.00  0.00     0.127 S 
ATOM     95  O   UNL A   1      51.695  29.079  29.925  1.00  0.00    -0.237 OA
ATOM     96  O   UNL A   1      50.368  30.356  31.562  1.00  0.00    -0.237 OA
ATOM     97  O   UNL A   1      49.991  27.941  31.295  1.00  0.00    -0.744 OA
ENDBRANCH  91  94
ENDBRANCH  63  87
BRANCH  75  98
ATOM     98  C   UNL A   1      43.393  35.748  30.713  1.00  0.00     0.023 A 
ATOM     99  C   UNL A   1      43.880  36.041  32.001  1.00  0.00     0.012 A 
ATOM    100  C   UNL A   1      43.401  36.751  29.722  1.00  0.00     0.148 A 
ATOM    101  C   UNL A   1      44.362  37.315  32.301  1.00  0.00     0.002 A 
ATOM    102  C   UNL A   1      43.914  38.008  30.018  1.00  0.00     0.091 A 
ATOM    103  F   UNL A   1      42.932  36.446  28.503  1.00  0.00    -0.205 F 
ATOM    104  C   UNL A   1      44.390  38.293  31.308  1.00  0.00     0.022 A 
BRANCH 102 105
ATOM    105  S   UNL A   1      44.060  39.311  28.791  1.00  0.00     0.127 S 
ATOM    106  O   UNL A   1      44.936  38.688  27.799  1.00  0.00    -0.237 OA
ATOM    107  O   UNL A   1      42.674  39.485  28.357  1.00  0.00    -0.237 OA
ATOM    108  O   UNL A   1      44.629  40.460  29.482  1.00  0.00    -0.744 OA
ENDBRANCH 102 105
ENDBRANCH  75  98
ENDBRANCH  49  50
ENDBRANCH  42  44
ENDBRANCH  41  42
ENDBRANCH  40  41
ENDBRANCH  39  40
ENDBRANCH  38  39
ENDBRANCH  37  38
ENDBRANCH   1  37
TORSDOF 24
ENDMDL
MODEL 2
REMARK VINA RESULT:      -9.9      3.522      7.280
REMARK SMILES O=C1C[C@H](C(=O)OCCOCCOCCOC(=O)c2ccc(-c3c4nc(c(-c5cccc(S(=O)(=O)[O-])c5F)c5ccc([nH]5)c(-c5cccc(S(=O)(=O)[O-])c5F)c5nc(c(-c6cccc(S(=O)(=O)[O-])c6F)c6ccc3[nH]6)C=C5)C=C4)cc2)c2c(nc(Nc3ccc(Oc4ccccc4)cc3)[nH]c2=O)N1
REMARK SMILES IDX 11 1 10 2 9 3 8 4 7 5 5 6 6 7 4 8 1 9 2 10 3 11 103 12 83 13
REMARK SMILES IDX 82 15 84 16 101 17 85 18 100 19 102 20 86 22 87 24 88 25
REMARK SMILES IDX 99 26 89 27 98 28 90 29 91 30 92 31 93 32 97 33 94 34 96 35
REMARK SMILES IDX 95 36 12 37 13 38 14 39 15 40 16 41 17 42 18 43 19 44 20 45
REMARK SMILES IDX 81 46 21 47 80 48 22 49 23 50 24 51 74 52 25 53 79 54 73 55
REMARK SMILES IDX 75 56 26 57 78 58 72 59 71 60 27 62 59 63 39 64 58 65 40 66
REMARK SMILES IDX 43 67 57 68 76 69 41 70 42 71 56 73 77 74 44 75 28 76 29 77
REMARK SMILES IDX 37 78 30 79 32 80 38 81 31 82 33 83 34 84 35 85 36 86 60 87
REMARK SMILES IDX 61 88 69 89 62 90 64 91 70 92 63 93 65 94 66 95 67 96 68 97
REMARK SMILES IDX 45 98 46 99 54 100 47 101 49 102 55 103 48 104 50 105 51 106
REMARK SMILES IDX 52 107 53 108
REMARK H PARENT 103 14 100 21 86 23 75 61 43 72
REMARK Flexibility Score: inf
ROOT
ATOM      1  C   UNL A   1      34.814  24.727  25.261  1.00  0.00     0.188 C 
ENDROOT
BRANCH   1   2
ATOM      2  O   UNL A   1      34.335  25.319  24.063  1.00  0.00    -0.376 OA
BRANCH   2   3
ATOM      3  C   UNL A   1      33.903  26.666  24.032  1.00  0.00     0.202 C 
BRANCH   3   4
ATOM      4  C   UNL A   1      33.761  27.459  25.341  1.00  0.00     0.261 C 
BRANCH   4   5
ATOM      5  O   UNL A   1      33.183  28.779  25.282  1.00  0.00    -0.463 OA
BRANCH   5   6
ATOM      6  C   UNL A   1      31.948  28.891  25.849  1.00  0.00     0.314 C 
ATOM      7  O   UNL A   1      31.777  29.012  27.055  1.00  0.00    -0.252 OA
BRANCH   6   8
ATOM      8  C   UNL A   1      30.782  28.803  24.850  1.00  0.00     0.148 C 
ATOM      9  O   UNL A   1      29.913  30.030  21.472  1.00  0.00    -0.275 OA
ATOM     10  C   UNL A   1      30.262  29.263  22.366  1.00  0.00     0.226 C 
ATOM     11  C   UNL A   1      30.903  29.746  23.640  1.00  0.00     0.121 C 
ATOM     12  N   UNL A   1      30.217  27.915  22.205  1.00  0.00    -0.310 N 
ATOM     13  C   UNL A   1      30.436  26.998  23.182  1.00  0.00     0.146 A 
ATOM     14  H   UNL A   1      30.008  27.575  21.305  1.00  0.00     0.171 HD
ATOM     15  C   UNL A   1      30.634  27.374  24.445  1.00  0.00     0.075 A 
ATOM     16  N   UNL A   1      30.369  25.720  22.751  1.00  0.00    -0.196 NA
ATOM     17  C   UNL A   1      30.612  26.283  25.436  1.00  0.00     0.258 A 
ATOM     18  C   UNL A   1      30.537  24.762  23.609  1.00  0.00     0.209 A 
ATOM     19  N   UNL A   1      30.718  25.027  24.931  1.00  0.00    -0.292 N 
ATOM     20  O   UNL A   1      30.441  26.461  26.633  1.00  0.00    -0.269 OA
ATOM     21  H   UNL A   1      30.932  24.283  25.541  1.00  0.00     0.173 HD
BRANCH  18  22
ATOM     22  N   UNL A   1      30.493  23.441  23.253  1.00  0.00    -0.326 N 
ATOM     23  H   UNL A   1      29.739  23.103  22.719  1.00  0.00     0.170 HD
BRANCH  22  24
ATOM     24  C   UNL A   1      31.518  22.566  23.645  1.00  0.00     0.041 A 
ATOM     25  C   UNL A   1      31.999  22.600  24.957  1.00  0.00     0.030 A 
ATOM     26  C   UNL A   1      31.894  21.508  22.809  1.00  0.00     0.030 A 
ATOM     27  C   UNL A   1      32.843  21.589  25.424  1.00  0.00     0.049 A 
ATOM     28  C   UNL A   1      32.725  20.496  23.273  1.00  0.00     0.049 A 
ATOM     29  C   UNL A   1      33.218  20.542  24.580  1.00  0.00     0.127 A 
BRANCH  29  30
ATOM     30  O   UNL A   1      34.040  19.577  25.134  1.00  0.00    -0.457 OA
BRANCH  30  31
ATOM     31  C   UNL A   1      33.680  18.269  24.912  1.00  0.00     0.127 A 
ATOM     32  C   UNL A   1      34.266  17.594  23.843  1.00  0.00     0.047 A 
ATOM     33  C   UNL A   1      32.785  17.621  25.768  1.00  0.00     0.047 A 
ATOM     34  C   UNL A   1      34.008  16.234  23.673  1.00  0.00     0.004 A 
ATOM     35  C   UNL A   1      32.542  16.261  25.601  1.00  0.00     0.004 A 
ATOM     36  C   UNL A   1      33.159  15.567  24.559  1.00  0.00     0.000 A 
ENDBRANCH  30  31
ENDBRANCH  29  30
ENDBRANCH  22  24
ENDBRANCH  18  22
ENDBRANCH   6   8
ENDBRANCH   5   6
ENDBRANCH   4   5
ENDBRANCH   3   4
ENDBRANCH   2   3
ENDBRANCH   1   2
BRANCH   1  37
ATOM     37  C   UNL A   1      36.091  23.875  25.246  1.00  0.00     0.188 C 
BRANCH  37  38
ATOM     38  O   UNL A   1      36.987  24.075  26.303  1.00  0.00    -0.376 OA
BRANCH  38  39
ATOM     39  C   UNL A   1      38.322  23.633  26.185  1.00  0.00     0.202 C 
BRANCH  39  40
ATOM     40  C   UNL A   1      39.446  23.972  27.186  1.00  0.00     0.261 C 
BRANCH  40  41
ATOM     41  O   UNL A   1      39.485  25.283  27.760  1.00  0.00    -0.460 OA
BRANCH  41  42
ATOM     42  C   UNL A   1      40.321  26.188  27.189  1.00  0.00     0.338 C 
ATOM     43  O   UNL A   1      40.801  26.136  26.078  1.00  0.00    -0.246 OA
BRANCH  42  44
ATOM     44  C   UNL A   1      40.374  27.375  28.079  1.00  0.00     0.060 A 
ATOM     45  C   UNL A   1      39.797  28.581  27.651  1.00  0.00     0.016 A 
ATOM     46  C   UNL A   1      40.996  27.295  29.324  1.00  0.00     0.016 A 
ATOM     47  C   UNL A   1      39.854  29.716  28.464  1.00  0.00     0.010 A 
ATOM     48  C   UNL A   1      41.092  28.444  30.117  1.00  0.00     0.010 A 
ATOM     49  C   UNL A   1      40.550  29.664  29.678  1.00  0.00    -0.014 A 
BRANCH  49  50
ATOM     50  C   UNL A   1      40.931  30.920  30.367  1.00  0.00     0.031 A 
ATOM     51  C   UNL A   1      42.255  31.541  30.011  1.00  0.00     0.074 A 
ATOM     52  C   UNL A   1      40.153  31.486  31.307  1.00  0.00     0.049 A 
ATOM     53  N   UNL A   1      42.859  32.568  30.546  1.00  0.00    -0.248 NA
ATOM     54  C   UNL A   1      42.998  30.917  28.901  1.00  0.00     0.031 C 
ATOM     55  C   UNL A   1      38.835  31.010  31.719  1.00  0.00     0.029 A 
ATOM     56  N   UNL A   1      40.385  32.579  32.107  1.00  0.00    -0.354 N 
ATOM     57  C   UNL A   1      44.060  32.696  29.861  1.00  0.00     0.074 A 
ATOM     58  C   UNL A   1      44.101  31.650  28.865  1.00  0.00     0.031 C 
ATOM     59  C   UNL A   1      38.388  31.787  32.723  1.00  0.00     0.029 A 
ATOM     60  C   UNL A   1      39.400  32.795  33.041  1.00  0.00     0.049 A 
ATOM     61  H   UNL A   1      41.180  33.153  32.020  1.00  0.00     0.167 HD
ATOM     62  C   UNL A   1      45.041  33.609  30.040  1.00  0.00     0.034 A 
ATOM     63  C   UNL A   1      39.334  33.686  34.052  1.00  0.00     0.034 A 
ATOM     64  C   UNL A   1      45.004  34.657  31.018  1.00  0.00     0.049 A 
ATOM     65  C   UNL A   1      40.464  34.661  34.265  1.00  0.00     0.074 A 
ATOM     66  C   UNL A   1      45.945  35.644  31.249  1.00  0.00     0.029 A 
ATOM     67  N   UNL A   1      43.983  34.850  31.932  1.00  0.00    -0.354 N 
ATOM     68  N   UNL A   1      41.562  34.816  33.566  1.00  0.00    -0.248 NA
ATOM     69  C   UNL A   1      40.338  35.597  35.395  1.00  0.00     0.031 C 
ATOM     70  C   UNL A   1      45.502  36.424  32.319  1.00  0.00     0.029 A 
ATOM     71  C   UNL A   1      44.274  35.935  32.737  1.00  0.00     0.049 A 
ATOM     72  H   UNL A   1      43.171  34.297  32.000  1.00  0.00     0.167 HD
ATOM     73  C   UNL A   1      42.244  35.878  34.152  1.00  0.00     0.074 A 
ATOM     74  C   UNL A   1      41.431  36.337  35.259  1.00  0.00     0.031 C 
ATOM     75  C   UNL A   1      43.440  36.415  33.807  1.00  0.00     0.034 A 
BRANCH  62  76
ATOM     76  C   UNL A   1      46.239  33.537  29.138  1.00  0.00     0.023 A 
ATOM     77  C   UNL A   1      47.275  32.633  29.437  1.00  0.00     0.012 A 
ATOM     78  C   UNL A   1      46.288  34.290  27.949  1.00  0.00     0.148 A 
ATOM     79  C   UNL A   1      48.350  32.477  28.564  1.00  0.00     0.002 A 
ATOM     80  C   UNL A   1      47.346  34.107  27.069  1.00  0.00     0.091 A 
ATOM     81  F   UNL A   1      45.295  35.156  27.700  1.00  0.00    -0.205 F 
ATOM     82  C   UNL A   1      48.378  33.204  27.375  1.00  0.00     0.022 A 
BRANCH  80  83
ATOM     83  S   UNL A   1      47.455  34.954  25.489  1.00  0.00     0.127 S 
ATOM     84  O   UNL A   1      48.722  34.442  24.967  1.00  0.00    -0.237 OA
ATOM     85  O   UNL A   1      46.266  34.462  24.796  1.00  0.00    -0.237 OA
ATOM     86  O   UNL A   1      47.446  36.378  25.792  1.00  0.00    -0.744 OA
ENDBRANCH  80  83
ENDBRANCH  62  76
BRANCH  63  87
ATOM     87  C   UNL A   1      38.132  33.713  34.929  1.00  0.00     0.023 A 
ATOM     88  C   UNL A   1      36.931  34.253  34.433  1.00  0.00     0.012 A 
ATOM     89  C   UNL A   1      38.162  33.173  36.230  1.00  0.00     0.148 A 
ATOM     90  C   UNL A   1      35.778  34.260  35.219  1.00  0.00     0.002 A 
ATOM     91  C   UNL A   1      37.001  33.152  36.995  1.00  0.00     0.091 A 
ATOM     92  F   UNL A   1      39.321  32.675  36.683  1.00  0.00    -0.205 F 
ATOM     93  C   UNL A   1      35.810  33.701  36.495  1.00  0.00     0.022 A 
BRANCH  91  94
ATOM     94  S   UNL A   1      36.919  32.389  38.620  1.00  0.00     0.127 S 
ATOM     95  O   UNL A   1      37.327  31.017  38.327  1.00  0.00    -0.237 OA
ATOM     96  O   UNL A   1      37.899  33.175  39.368  1.00  0.00    -0.237 OA
ATOM     97  O   UNL A   1      35.542  32.546  39.066  1.00  0.00    -0.744 OA
ENDBRANCH  91  94
ENDBRANCH  63  87
BRANCH  75  98
ATOM     98  C   UNL A   1      43.963  37.577  34.607  1.00  0.00     0.023 A 
ATOM     99  C   UNL A   1      44.770  37.335  35.734  1.00  0.00     0.012 A 
ATOM    100  C   UNL A   1      43.775  38.900  34.157  1.00  0.00     0.148 A 
ATOM    101  C   UNL A   1      45.377  38.395  36.409  1.00  0.00     0.002 A 
ATOM    102  C   UNL A   1      44.411  39.947  34.813  1.00  0.00     0.091 A 
ATOM    103  F   UNL A   1      43.002  39.103  33.080  1.00  0.00    -0.205 F 
ATOM    104  C   UNL A   1      45.207  39.697  35.941  1.00  0.00     0.022 A 
BRANCH 102 105
ATOM    105  S   UNL A   1      44.313  41.649  34.246  1.00  0.00     0.127 S 
ATOM    106  O   UNL A   1      43.790  42.328  35.433  1.00  0.00    -0.237 OA
ATOM    107  O   UNL A   1      45.710  41.952  33.936  1.00  0.00    -0.237 OA
ATOM    108  O   UNL A   1      43.421  41.644  33.095  1.00  0.00    -0.744 OA
ENDBRANCH 102 105
ENDBRANCH  75  98
ENDBRANCH  49  50
ENDBRANCH  42  44
ENDBRANCH  41  42
ENDBRANCH  40  41
ENDBRANCH  39  40
ENDBRANCH  38  39
ENDBRANCH  37  38
ENDBRANCH   1  37
TORSDOF 24
ENDMDL
MODEL 3
REMARK VINA RESULT:      -9.7      3.592      7.773
REMARK SMILES O=C1C[C@H](C(=O)OCCOCCOCCOC(=O)c2ccc(-c3c4nc(c(-c5cccc(S(=O)(=O)[O-])c5F)c5ccc([nH]5)c(-c5cccc(S(=O)(=O)[O-])c5F)c5nc(c(-c6cccc(S(=O)(=O)[O-])c6F)c6ccc3[nH]6)C=C5)C=C4)cc2)c2c(nc(Nc3ccc(Oc4ccccc4)cc3)[nH]c2=O)N1
REMARK SMILES IDX 11 1 10 2 9 3 8 4 7 5 5 6 6 7 4 8 1 9 2 10 3 11 103 12 83 13
REMARK SMILES IDX 82 15 84 16 101 17 85 18 100 19 102 20 86 22 87 24 88 25
REMARK SMILES IDX 99 26 89 27 98 28 90 29 91 30 92 31 93 32 97 33 94 34 96 35
REMARK SMILES IDX 95 36 12 37 13 38 14 39 15 40 16 41 17 42 18 43 19 44 20 45
REMARK SMILES IDX 81 46 21 47 80 48 22 49 23 50 24 51 74 52 25 53 79 54 73 55
REMARK SMILES IDX 75 56 26 57 78 58 72 59 71 60 27 62 59 63 39 64 58 65 40 66
REMARK SMILES IDX 43 67 57 68 76 69 41 70 42 71 56 73 77 74 44 75 28 76 29 77
REMARK SMILES IDX 37 78 30 79 32 80 38 81 31 82 33 83 34 84 35 85 36 86 60 87
REMARK SMILES IDX 61 88 69 89 62 90 64 91 70 92 63 93 65 94 66 95 67 96 68 97
REMARK SMILES IDX 45 98 46 99 54 100 47 101 49 102 55 103 48 104 50 105 51 106
REMARK SMILES IDX 52 107 53 108
REMARK H PARENT 103 14 100 21 86 23 75 61 43 72
REMARK Flexibility Score: inf
ROOT
ATOM      1  C   UNL A   1      32.943  29.692  26.610  1.00  0.00     0.188 C 
ENDROOT
BRANCH   1   2
ATOM      2  O   UNL A   1      33.540  28.428  26.861  1.00  0.00    -0.376 OA
BRANCH   2   3
ATOM      3  C   UNL A   1      33.509  27.397  25.892  1.00  0.00     0.202 C 
BRANCH   3   4
ATOM      4  C   UNL A   1      32.491  26.252  26.020  1.00  0.00     0.261 C 
BRANCH   4   5
ATOM      5  O   UNL A   1      32.988  24.919  26.256  1.00  0.00    -0.463 OA
BRANCH   5   6
ATOM      6  C   UNL A   1      32.028  23.985  26.512  1.00  0.00     0.314 C 
ATOM      7  O   UNL A   1      31.179  24.124  27.383  1.00  0.00    -0.252 OA
BRANCH   6   8
ATOM      8  C   UNL A   1      32.132  22.717  25.649  1.00  0.00     0.148 C 
ATOM      9  O   UNL A   1      31.679  21.706  22.122  1.00  0.00    -0.275 OA
ATOM     10  C   UNL A   1      32.241  22.008  23.172  1.00  0.00     0.226 C 
ATOM     11  C   UNL A   1      31.585  22.869  24.219  1.00  0.00     0.121 C 
ATOM     12  N   UNL A   1      33.545  21.700  23.397  1.00  0.00    -0.310 N 
ATOM     13  C   UNL A   1      34.199  21.858  24.576  1.00  0.00     0.146 A 
ATOM     14  H   UNL A   1      34.057  21.331  22.642  1.00  0.00     0.171 HD
ATOM     15  C   UNL A   1      33.554  22.265  25.669  1.00  0.00     0.075 A 
ATOM     16  N   UNL A   1      35.502  21.510  24.524  1.00  0.00    -0.196 NA
ATOM     17  C   UNL A   1      34.318  22.157  26.925  1.00  0.00     0.258 A 
ATOM     18  C   UNL A   1      36.215  21.597  25.603  1.00  0.00     0.209 A 
ATOM     19  N   UNL A   1      35.657  21.973  26.786  1.00  0.00    -0.292 N 
ATOM     20  O   UNL A   1      33.802  22.159  28.033  1.00  0.00    -0.269 OA
ATOM     21  H   UNL A   1      36.242  22.116  27.565  1.00  0.00     0.173 HD
BRANCH  18  22
ATOM     22  N   UNL A   1      37.545  21.272  25.634  1.00  0.00    -0.326 N 
ATOM     23  H   UNL A   1      37.833  20.366  25.382  1.00  0.00     0.170 HD
BRANCH  22  24
ATOM     24  C   UNL A   1      38.500  22.226  26.021  1.00  0.00     0.041 A 
ATOM     25  C   UNL A   1      38.153  23.579  26.067  1.00  0.00     0.030 A 
ATOM     26  C   UNL A   1      39.713  21.814  26.585  1.00  0.00     0.030 A 
ATOM     27  C   UNL A   1      39.009  24.505  26.669  1.00  0.00     0.049 A 
ATOM     28  C   UNL A   1      40.561  22.730  27.194  1.00  0.00     0.049 A 
ATOM     29  C   UNL A   1      40.220  24.085  27.224  1.00  0.00     0.127 A 
BRANCH  29  30
ATOM     30  O   UNL A   1      40.992  25.068  27.815  1.00  0.00    -0.457 OA
BRANCH  30  31
ATOM     31  C   UNL A   1      40.551  26.361  27.669  1.00  0.00     0.127 A 
ATOM     32  C   UNL A   1      41.139  27.155  26.687  1.00  0.00     0.047 A 
ATOM     33  C   UNL A   1      39.504  26.849  28.456  1.00  0.00     0.047 A 
ATOM     34  C   UNL A   1      40.625  28.427  26.442  1.00  0.00     0.004 A 
ATOM     35  C   UNL A   1      38.986  28.115  28.197  1.00  0.00     0.004 A 
ATOM     36  C   UNL A   1      39.541  28.899  27.185  1.00  0.00     0.000 A 
ENDBRANCH  30  31
ENDBRANCH  29  30
ENDBRANCH  22  24
ENDBRANCH  18  22
ENDBRANCH   6   8
ENDBRANCH   5   6
ENDBRANCH   4   5
ENDBRANCH   3   4
ENDBRANCH   2   3
ENDBRANCH   1   2
BRANCH   1  37
ATOM     37  C   UNL A   1      33.324  30.910  27.463  1.00  0.00     0.188 C 
BRANCH  37  38
ATOM     38  O   UNL A   1      34.678  31.270  27.467  1.00  0.00    -0.376 OA
BRANCH  38  39
ATOM     39  C   UNL A   1      35.540  30.747  28.453  1.00  0.00     0.202 C 
BRANCH  39  40
ATOM     40  C   UNL A   1      35.743  31.365  29.852  1.00  0.00     0.261 C 
BRANCH  40  41
ATOM     41  O   UNL A   1      36.451  30.612  30.842  1.00  0.00    -0.460 OA
BRANCH  41  42
ATOM     42  C   UNL A   1      37.116  31.311  31.798  1.00  0.00     0.338 C 
ATOM     43  O   UNL A   1      36.692  31.648  32.880  1.00  0.00    -0.246 OA
BRANCH  42  44
ATOM     44  C   UNL A   1      38.538  31.401  31.381  1.00  0.00     0.060 A 
ATOM     45  C   UNL A   1      39.502  31.824  32.310  1.00  0.00     0.016 A 
ATOM     46  C   UNL A   1      38.913  31.074  30.078  1.00  0.00     0.016 A 
ATOM     47  C   UNL A   1      40.842  31.937  31.933  1.00  0.00     0.010 A 
ATOM     48  C   UNL A   1      40.247  31.230  29.689  1.00  0.00     0.010 A 
ATOM     49  C   UNL A   1      41.210  31.690  30.604  1.00  0.00    -0.014 A 
BRANCH  49  50
ATOM     50  C   UNL A   1      42.529  32.148  30.104  1.00  0.00     0.031 A 
ATOM     51  C   UNL A   1      42.686  33.609  29.779  1.00  0.00     0.074 A 
ATOM     52  C   UNL A   1      43.554  31.300  29.907  1.00  0.00     0.049 A 
ATOM     53  N   UNL A   1      43.694  34.232  29.229  1.00  0.00    -0.248 NA
ATOM     54  C   UNL A   1      41.551  34.486  30.120  1.00  0.00     0.031 C 
ATOM     55  C   UNL A   1      43.547  29.872  30.214  1.00  0.00     0.029 A 
ATOM     56  N   UNL A   1      44.798  31.526  29.368  1.00  0.00    -0.354 N 
ATOM     57  C   UNL A   1      43.307  35.561  29.133  1.00  0.00     0.074 A 
ATOM     58  C   UNL A   1      41.976  35.663  29.685  1.00  0.00     0.031 C 
ATOM     59  C   UNL A   1      44.720  29.339  29.826  1.00  0.00     0.029 A 
ATOM     60  C   UNL A   1      45.546  30.383  29.218  1.00  0.00     0.049 A 
ATOM     61  H   UNL A   1      45.122  32.420  29.114  1.00  0.00     0.167 HD
ATOM     62  C   UNL A   1      44.000  36.609  28.633  1.00  0.00     0.034 A 
ATOM     63  C   UNL A   1      46.748  30.196  28.632  1.00  0.00     0.034 A 
ATOM     64  C   UNL A   1      45.326  36.518  28.092  1.00  0.00     0.049 A 
ATOM     65  C   UNL A   1      47.481  31.370  28.036  1.00  0.00     0.074 A 
ATOM     66  C   UNL A   1      46.114  37.538  27.588  1.00  0.00     0.029 A 
ATOM     67  N   UNL A   1      46.054  35.348  27.973  1.00  0.00    -0.354 N 
ATOM     68  N   UNL A   1      47.133  32.634  28.014  1.00  0.00    -0.248 NA
ATOM     69  C   UNL A   1      48.781  31.097  27.399  1.00  0.00     0.031 C 
ATOM     70  C   UNL A   1      47.315  36.979  27.145  1.00  0.00     0.029 A 
ATOM     71  C   UNL A   1      47.280  35.616  27.395  1.00  0.00     0.049 A 
ATOM     72  H   UNL A   1      45.745  34.457  28.257  1.00  0.00     0.167 HD
ATOM     73  C   UNL A   1      48.177  33.308  27.386  1.00  0.00     0.074 A 
ATOM     74  C   UNL A   1      49.176  32.315  27.052  1.00  0.00     0.031 C 
ATOM     75  C   UNL A   1      48.289  34.630  27.106  1.00  0.00     0.034 A 
BRANCH  62  76
ATOM     76  C   UNL A   1      43.352  37.962  28.669  1.00  0.00     0.023 A 
ATOM     77  C   UNL A   1      43.607  38.820  29.755  1.00  0.00     0.012 A 
ATOM     78  C   UNL A   1      42.575  38.415  27.586  1.00  0.00     0.148 A 
ATOM     79  C   UNL A   1      43.097  40.117  29.764  1.00  0.00     0.002 A 
ATOM     80  C   UNL A   1      42.096  39.718  27.588  1.00  0.00     0.091 A 
ATOM     81  F   UNL A   1      42.334  37.568  26.575  1.00  0.00    -0.205 F 
ATOM     82  C   UNL A   1      42.353  40.569  28.676  1.00  0.00     0.022 A 
BRANCH  80  83
ATOM     83  S   UNL A   1      41.171  40.417  26.216  1.00  0.00     0.127 S 
ATOM     84  O   UNL A   1      40.582  39.219  25.618  1.00  0.00    -0.237 OA
ATOM     85  O   UNL A   1      40.219  41.288  26.903  1.00  0.00    -0.237 OA
ATOM     86  O   UNL A   1      42.144  41.106  25.381  1.00  0.00    -0.744 OA
ENDBRANCH  80  83
ENDBRANCH  62  76
BRANCH  63  87
ATOM     87  C   UNL A   1      47.349  28.834  28.609  1.00  0.00     0.023 A 
ATOM     88  C   UNL A   1      48.222  28.450  29.644  1.00  0.00     0.012 A 
ATOM     89  C   UNL A   1      47.030  27.910  27.594  1.00  0.00     0.148 A 
ATOM     90  C   UNL A   1      48.772  27.168  29.669  1.00  0.00     0.002 A 
ATOM     91  C   UNL A   1      47.555  26.624  27.644  1.00  0.00     0.091 A 
ATOM     92  F   UNL A   1      46.205  28.305  26.615  1.00  0.00    -0.205 F 
ATOM     93  C   UNL A   1      48.431  26.253  28.675  1.00  0.00     0.022 A 
BRANCH  91  94
ATOM     94  S   UNL A   1      47.120  25.348  26.455  1.00  0.00     0.127 S 
ATOM     95  O   UNL A   1      45.662  25.443  26.435  1.00  0.00    -0.237 OA
ATOM     96  O   UNL A   1      47.785  25.830  25.245  1.00  0.00    -0.237 OA
ATOM     97  O   UNL A   1      47.655  24.104  26.991  1.00  0.00    -0.744 OA
ENDBRANCH  91  94
ENDBRANCH  63  87
BRANCH  75  98
ATOM     98  C   UNL A   1      49.535  35.115  26.419  1.00  0.00     0.023 A 
ATOM     99  C   UNL A   1      49.531  35.299  25.023  1.00  0.00     0.012 A 
ATOM    100  C   UNL A   1      50.656  35.525  27.170  1.00  0.00     0.148 A 
ATOM    101  C   UNL A   1      50.627  35.877  24.383  1.00  0.00     0.002 A 
ATOM    102  C   UNL A   1      51.731  36.130  26.530  1.00  0.00     0.091 A 
ATOM    103  F   UNL A   1      50.635  35.338  28.498  1.00  0.00    -0.205 F 
ATOM    104  C   UNL A   1      51.720  36.302  25.137  1.00  0.00     0.022 A 
BRANCH 102 105
ATOM    105  S   UNL A   1      53.151  36.777  27.419  1.00  0.00     0.127 S 
ATOM    106  O   UNL A   1      53.991  37.264  26.325  1.00  0.00    -0.237 OA
ATOM    107  O   UNL A   1      52.550  37.827  28.241  1.00  0.00    -0.237 OA
ATOM    108  O   UNL A   1      53.704  35.658  28.171  1.00  0.00    -0.744 OA
ENDBRANCH 102 105
ENDBRANCH  75  98
ENDBRANCH  49  50
ENDBRANCH  42  44
ENDBRANCH  41  42
ENDBRANCH  40  41
ENDBRANCH  39  40
ENDBRANCH  38  39
ENDBRANCH  37  38
ENDBRANCH   1  37
TORSDOF 24
ENDMDL
