MODEL 1
REMARK VINA RESULT:     -10.1      0.000      0.000
REMARK SMILES CCc1ccc2[nH]c(C(=O)c3cc(C)ccn3)c(CC(=O)OCCOCCOCCOC(=O)c3ccc(-c4c5nc(c(-c6cccc(S(=O)(=O)[O-])c6F)c6ccc([nH]6)c(-c6cccc(S(=O)(=O)[O-])c6F)c6nc(c(-c7cccc(S(=O)(=O)[O-])c7F)c7ccc4[nH]7)C=C6)C=C5)cc3)c2c1
REMARK SMILES IDX 26 1 25 2 24 3 23 4 22 5 20 6 21 7 19 8 18 9 3 10 4 11 98 12
REMARK SMILES IDX 5 13 97 14 6 15 7 16 8 17 2 19 1 20 9 21 10 22 11 23 12 24
REMARK SMILES IDX 17 25 13 26 16 27 14 28 15 29 27 30 28 31 29 32 30 33 31 34
REMARK SMILES IDX 32 35 33 36 34 37 35 38 96 39 36 40 95 41 37 42 38 43 39 44
REMARK SMILES IDX 89 45 40 46 94 47 88 48 90 49 41 50 93 51 87 52 86 53 42 55
REMARK SMILES IDX 74 56 54 57 73 58 55 59 58 60 72 61 91 62 56 63 57 64 71 66
REMARK SMILES IDX 92 67 59 68 43 69 44 70 52 71 45 72 47 73 53 74 46 75 48 76
REMARK SMILES IDX 49 77 50 78 51 79 75 80 76 81 84 82 77 83 79 84 85 85 78 86
REMARK SMILES IDX 80 87 81 88 82 89 83 90 60 91 61 92 69 93 62 94 64 95 70 96
REMARK SMILES IDX 63 97 65 98 66 99 67 100 68 101
REMARK H PARENT 7 18 90 54 58 65
REMARK Flexibility Score: inf
ROOT
ATOM      1  C   UNL A   1      34.351  32.988  28.879  1.00  0.00     0.188 C 
ENDROOT
BRANCH   1   2
ATOM      2  O   UNL A   1      34.338  31.579  28.662  1.00  0.00    -0.376 OA
BRANCH   2   3
ATOM      3  C   UNL A   1      35.237  31.038  27.703  1.00  0.00     0.202 C 
BRANCH   3   4
ATOM      4  C   UNL A   1      34.852  29.678  27.107  1.00  0.00     0.261 C 
BRANCH   4   5
ATOM      5  O   UNL A   1      33.424  29.455  27.135  1.00  0.00    -0.463 OA
BRANCH   5   6
ATOM      6  C   UNL A   1      32.673  30.124  26.220  1.00  0.00     0.310 C 
ATOM      7  O   UNL A   1      31.984  31.100  26.502  1.00  0.00    -0.252 OA
BRANCH   6   8
ATOM      8  C   UNL A   1      32.899  29.664  24.780  1.00  0.00     0.161 C 
BRANCH   8   9
ATOM      9  C   UNL A   1      31.846  28.792  24.133  1.00  0.00     0.000 A 
ATOM     10  C   UNL A   1      28.530  30.562  23.382  1.00  0.00    -0.048 A 
ATOM     11  C   UNL A   1      27.943  29.471  22.729  1.00  0.00     0.006 A 
ATOM     12  C   UNL A   1      29.791  30.402  23.993  1.00  0.00     0.014 A 
ATOM     13  C   UNL A   1      28.587  28.233  22.644  1.00  0.00     0.027 A 
ATOM     14  C   UNL A   1      30.497  29.193  23.848  1.00  0.00     0.004 A 
ATOM     15  C   UNL A   1      29.872  28.144  23.180  1.00  0.00     0.046 A 
ATOM     16  N   UNL A   1      30.772  27.111  23.138  1.00  0.00    -0.352 N 
ATOM     17  C   UNL A   1      32.030  27.599  23.414  1.00  0.00     0.093 A 
ATOM     18  H   UNL A   1      30.555  26.171  22.941  1.00  0.00     0.167 HD
BRANCH  10  19
ATOM     19  C   UNL A   1      27.923  31.946  23.398  1.00  0.00     0.032 C 
ATOM     20  C   UNL A   1      28.773  33.075  22.829  1.00  0.00     0.009 C 
ENDBRANCH  10  19
BRANCH  17  21
ATOM     21  C   UNL A   1      33.252  26.986  22.909  1.00  0.00     0.227 C 
ATOM     22  O   UNL A   1      33.975  27.525  22.084  1.00  0.00    -0.285 OA
BRANCH  21  23
ATOM     23  C   UNL A   1      33.596  25.598  23.355  1.00  0.00     0.113 A 
ATOM     24  C   UNL A   1      33.740  25.306  24.709  1.00  0.00     0.036 A 
ATOM     25  N   UNL A   1      33.730  24.681  22.364  1.00  0.00    -0.253 NA
ATOM     26  C   UNL A   1      34.000  23.979  25.075  1.00  0.00    -0.047 A 
ATOM     27  C   UNL A   1      33.899  23.399  22.755  1.00  0.00     0.112 A 
ATOM     28  C   UNL A   1      34.235  23.575  26.501  1.00  0.00     0.044 C 
ATOM     29  C   UNL A   1      34.034  23.005  24.076  1.00  0.00     0.023 A 
ENDBRANCH  21  23
ENDBRANCH  17  21
ENDBRANCH   8   9
ENDBRANCH   6   8
ENDBRANCH   5   6
ENDBRANCH   4   5
ENDBRANCH   3   4
ENDBRANCH   2   3
ENDBRANCH   1   2
BRANCH   1  30
ATOM     30  C   UNL A   1      34.853  33.522  30.240  1.00  0.00     0.188 C 
BRANCH  30  31
ATOM     31  O   UNL A   1      34.513  32.689  31.341  1.00  0.00    -0.376 OA
BRANCH  31  32
ATOM     32  C   UNL A   1      35.609  31.974  31.889  1.00  0.00     0.202 C 
BRANCH  32  33
ATOM     33  C   UNL A   1      36.933  32.303  31.199  1.00  0.00     0.261 C 
BRANCH  33  34
ATOM     34  O   UNL A   1      37.924  32.784  32.134  1.00  0.00    -0.460 OA
BRANCH  34  35
ATOM     35  C   UNL A   1      38.169  34.105  32.179  1.00  0.00     0.338 C 
ATOM     36  O   UNL A   1      37.522  34.935  32.815  1.00  0.00    -0.246 OA
BRANCH  35  37
ATOM     37  C   UNL A   1      39.320  34.462  31.309  1.00  0.00     0.060 A 
ATOM     38  C   UNL A   1      39.186  34.715  29.940  1.00  0.00     0.016 A 
ATOM     39  C   UNL A   1      40.596  34.452  31.866  1.00  0.00     0.016 A 
ATOM     40  C   UNL A   1      40.310  34.899  29.125  1.00  0.00     0.010 A 
ATOM     41  C   UNL A   1      41.717  34.706  31.064  1.00  0.00     0.010 A 
ATOM     42  C   UNL A   1      41.593  34.912  29.679  1.00  0.00    -0.014 A 
BRANCH  42  43
ATOM     43  C   UNL A   1      42.813  35.132  28.848  1.00  0.00     0.031 A 
ATOM     44  C   UNL A   1      43.701  33.967  28.492  1.00  0.00     0.074 A 
ATOM     45  C   UNL A   1      43.183  36.374  28.473  1.00  0.00     0.049 A 
ATOM     46  N   UNL A   1      44.931  33.966  28.046  1.00  0.00    -0.248 NA
ATOM     47  C   UNL A   1      43.129  32.623  28.674  1.00  0.00     0.031 C 
ATOM     48  C   UNL A   1      42.410  37.595  28.691  1.00  0.00     0.029 A 
ATOM     49  N   UNL A   1      44.338  36.816  27.866  1.00  0.00    -0.354 N 
ATOM     50  C   UNL A   1      45.309  32.630  27.966  1.00  0.00     0.074 A 
ATOM     51  C   UNL A   1      44.165  31.846  28.389  1.00  0.00     0.031 C 
ATOM     52  C   UNL A   1      43.115  38.649  28.253  1.00  0.00     0.029 A 
ATOM     53  C   UNL A   1      44.424  38.189  27.798  1.00  0.00     0.049 A 
ATOM     54  H   UNL A   1      45.032  36.212  27.515  1.00  0.00     0.167 HD
ATOM     55  C   UNL A   1      46.497  32.105  27.579  1.00  0.00     0.034 A 
ATOM     56  C   UNL A   1      45.454  38.996  27.473  1.00  0.00     0.034 A 
ATOM     57  C   UNL A   1      47.615  32.882  27.111  1.00  0.00     0.049 A 
ATOM     58  C   UNL A   1      46.778  38.392  27.089  1.00  0.00     0.074 A 
ATOM     59  C   UNL A   1      48.848  32.431  26.668  1.00  0.00     0.029 A 
ATOM     60  N   UNL A   1      47.643  34.264  27.021  1.00  0.00    -0.354 N 
ATOM     61  N   UNL A   1      47.112  37.130  26.984  1.00  0.00    -0.248 NA
ATOM     62  C   UNL A   1      47.866  39.328  26.768  1.00  0.00     0.031 C 
ATOM     63  C   UNL A   1      49.630  33.544  26.336  1.00  0.00     0.029 A 
ATOM     64  C   UNL A   1      48.873  34.685  26.540  1.00  0.00     0.049 A 
ATOM     65  H   UNL A   1      46.898  34.860  27.262  1.00  0.00     0.167 HD
ATOM     66  C   UNL A   1      48.435  37.119  26.557  1.00  0.00     0.074 A 
ATOM     67  C   UNL A   1      48.835  38.501  26.399  1.00  0.00     0.031 C 
ATOM     68  C   UNL A   1      49.250  36.059  26.333  1.00  0.00     0.034 A 
BRANCH  55  69
ATOM     69  C   UNL A   1      46.661  30.608  27.641  1.00  0.00     0.023 A 
ATOM     70  C   UNL A   1      47.040  29.991  28.849  1.00  0.00     0.012 A 
ATOM     71  C   UNL A   1      46.363  29.809  26.519  1.00  0.00     0.148 A 
ATOM     72  C   UNL A   1      47.149  28.602  28.932  1.00  0.00     0.002 A 
ATOM     73  C   UNL A   1      46.433  28.424  26.622  1.00  0.00     0.091 A 
ATOM     74  F   UNL A   1      46.020  30.415  25.373  1.00  0.00    -0.205 F 
ATOM     75  C   UNL A   1      46.835  27.820  27.823  1.00  0.00     0.022 A 
BRANCH  73  76
ATOM     76  S   UNL A   1      45.974  27.327  25.273  1.00  0.00     0.127 S 
ATOM     77  O   UNL A   1      46.110  26.015  25.904  1.00  0.00    -0.237 OA
ATOM     78  O   UNL A   1      44.595  27.733  25.002  1.00  0.00    -0.237 OA
ATOM     79  O   UNL A   1      46.912  27.603  24.194  1.00  0.00    -0.744 OA
ENDBRANCH  73  76
ENDBRANCH  55  69
BRANCH  56  80
ATOM     80  C   UNL A   1      45.279  40.476  27.510  1.00  0.00     0.023 A 
ATOM     81  C   UNL A   1      45.394  41.157  28.737  1.00  0.00     0.012 A 
ATOM     82  C   UNL A   1      45.017  41.215  26.339  1.00  0.00     0.148 A 
ATOM     83  C   UNL A   1      45.227  42.540  28.802  1.00  0.00     0.002 A 
ATOM     84  C   UNL A   1      44.913  42.599  26.400  1.00  0.00     0.091 A 
ATOM     85  F   UNL A   1      44.883  40.548  25.184  1.00  0.00    -0.205 F 
ATOM     86  C   UNL A   1      45.000  43.262  27.634  1.00  0.00     0.022 A 
BRANCH  84  87
ATOM     87  S   UNL A   1      44.754  43.618  24.930  1.00  0.00     0.127 S 
ATOM     88  O   UNL A   1      43.406  43.283  24.477  1.00  0.00    -0.237 OA
ATOM     89  O   UNL A   1      44.903  44.966  25.478  1.00  0.00    -0.237 OA
ATOM     90  O   UNL A   1      45.838  43.206  24.048  1.00  0.00    -0.744 OA
ENDBRANCH  84  87
ENDBRANCH  56  80
BRANCH  68  91
ATOM     91  C   UNL A   1      50.650  36.341  25.849  1.00  0.00     0.023 A 
ATOM     92  C   UNL A   1      50.909  36.457  24.470  1.00  0.00     0.012 A 
ATOM     93  C   UNL A   1      51.698  36.556  26.768  1.00  0.00     0.148 A 
ATOM     94  C   UNL A   1      52.194  36.746  24.008  1.00  0.00     0.002 A 
ATOM     95  C   UNL A   1      52.965  36.892  26.303  1.00  0.00     0.091 A 
ATOM     96  F   UNL A   1      51.438  36.426  28.077  1.00  0.00    -0.205 F 
ATOM     97  C   UNL A   1      53.217  36.974  24.925  1.00  0.00     0.022 A 
BRANCH  95  98
ATOM     98  S   UNL A   1      54.323  37.296  27.409  1.00  0.00     0.127 S 
ATOM     99  O   UNL A   1      54.595  36.001  28.032  1.00  0.00    -0.237 OA
ATOM    100  O   UNL A   1      55.355  37.754  26.479  1.00  0.00    -0.237 OA
ATOM    101  O   UNL A   1      53.818  38.326  28.307  1.00  0.00    -0.744 OA
ENDBRANCH  95  98
ENDBRANCH  68  91
ENDBRANCH  42  43
ENDBRANCH  35  37
ENDBRANCH  34  35
ENDBRANCH  33  34
ENDBRANCH  32  33
ENDBRANCH  31  32
ENDBRANCH  30  31
ENDBRANCH   1  30
TORSDOF 24
ENDMDL
MODEL 2
REMARK VINA RESULT:     -10.0      7.596     13.075
REMARK SMILES CCc1ccc2[nH]c(C(=O)c3cc(C)ccn3)c(CC(=O)OCCOCCOCCOC(=O)c3ccc(-c4c5nc(c(-c6cccc(S(=O)(=O)[O-])c6F)c6ccc([nH]6)c(-c6cccc(S(=O)(=O)[O-])c6F)c6nc(c(-c7cccc(S(=O)(=O)[O-])c7F)c7ccc4[nH]7)C=C6)C=C5)cc3)c2c1
REMARK SMILES IDX 26 1 25 2 24 3 23 4 22 5 20 6 21 7 19 8 18 9 3 10 4 11 98 12
REMARK SMILES IDX 5 13 97 14 6 15 7 16 8 17 2 19 1 20 9 21 10 22 11 23 12 24
REMARK SMILES IDX 17 25 13 26 16 27 14 28 15 29 27 30 28 31 29 32 30 33 31 34
REMARK SMILES IDX 32 35 33 36 34 37 35 38 96 39 36 40 95 41 37 42 38 43 39 44
REMARK SMILES IDX 89 45 40 46 94 47 88 48 90 49 41 50 93 51 87 52 86 53 42 55
REMARK SMILES IDX 74 56 54 57 73 58 55 59 58 60 72 61 91 62 56 63 57 64 71 66
REMARK SMILES IDX 92 67 59 68 43 69 44 70 52 71 45 72 47 73 53 74 46 75 48 76
REMARK SMILES IDX 49 77 50 78 51 79 75 80 76 81 84 82 77 83 79 84 85 85 78 86
REMARK SMILES IDX 80 87 81 88 82 89 83 90 60 91 61 92 69 93 62 94 64 95 70 96
REMARK SMILES IDX 63 97 65 98 66 99 67 100 68 101
REMARK H PARENT 7 18 90 54 58 65
REMARK Flexibility Score: inf
ROOT
ATOM      1  C   UNL A   1      32.927  36.200  31.136  1.00  0.00     0.188 C 
ENDROOT
BRANCH   1   2
ATOM      2  O   UNL A   1      32.696  35.044  31.938  1.00  0.00    -0.376 OA
BRANCH   2   3
ATOM      3  C   UNL A   1      33.739  34.601  32.796  1.00  0.00     0.202 C 
BRANCH   3   4
ATOM      4  C   UNL A   1      35.170  34.891  32.325  1.00  0.00     0.261 C 
BRANCH   4   5
ATOM      5  O   UNL A   1      36.032  33.739  32.462  1.00  0.00    -0.463 OA
BRANCH   5   6
ATOM      6  C   UNL A   1      37.102  33.661  31.627  1.00  0.00     0.310 C 
ATOM      7  O   UNL A   1      37.255  34.403  30.661  1.00  0.00    -0.252 OA
BRANCH   6   8
ATOM      8  C   UNL A   1      38.185  32.689  32.099  1.00  0.00     0.161 C 
BRANCH   8   9
ATOM      9  C   UNL A   1      39.438  33.262  32.722  1.00  0.00     0.000 A 
ATOM     10  C   UNL A   1      41.894  34.840  30.238  1.00  0.00    -0.048 A 
ATOM     11  C   UNL A   1      42.787  35.305  31.212  1.00  0.00     0.006 A 
ATOM     12  C   UNL A   1      40.800  34.041  30.631  1.00  0.00     0.014 A 
ATOM     13  C   UNL A   1      42.606  35.021  32.568  1.00  0.00     0.027 A 
ATOM     14  C   UNL A   1      40.549  33.813  31.997  1.00  0.00     0.004 A 
ATOM     15  C   UNL A   1      41.461  34.306  32.924  1.00  0.00     0.046 A 
ATOM     16  N   UNL A   1      40.972  33.991  34.165  1.00  0.00    -0.352 N 
ATOM     17  C   UNL A   1      39.640  33.661  34.054  1.00  0.00     0.093 A 
ATOM     18  H   UNL A   1      41.490  34.000  35.002  1.00  0.00     0.167 HD
BRANCH  10  19
ATOM     19  C   UNL A   1      41.985  35.219  28.777  1.00  0.00     0.032 C 
ATOM     20  C   UNL A   1      43.308  34.937  28.077  1.00  0.00     0.009 C 
ENDBRANCH  10  19
BRANCH  17  21
ATOM     21  C   UNL A   1      38.680  33.843  35.135  1.00  0.00     0.227 C 
ATOM     22  O   UNL A   1      37.555  33.367  35.113  1.00  0.00    -0.285 OA
BRANCH  21  23
ATOM     23  C   UNL A   1      39.056  34.721  36.288  1.00  0.00     0.113 A 
ATOM     24  C   UNL A   1      38.849  34.295  37.598  1.00  0.00     0.036 A 
ATOM     25  N   UNL A   1      39.613  35.913  35.959  1.00  0.00    -0.253 NA
ATOM     26  C   UNL A   1      39.277  35.127  38.641  1.00  0.00    -0.047 A 
ATOM     27  C   UNL A   1      40.088  36.655  36.985  1.00  0.00     0.112 A 
ATOM     28  C   UNL A   1      39.042  34.787  40.082  1.00  0.00     0.044 C 
ATOM     29  C   UNL A   1      39.949  36.309  38.319  1.00  0.00     0.023 A 
ENDBRANCH  21  23
ENDBRANCH  17  21
ENDBRANCH   8   9
ENDBRANCH   6   8
ENDBRANCH   5   6
ENDBRANCH   4   5
ENDBRANCH   3   4
ENDBRANCH   2   3
ENDBRANCH   1   2
BRANCH   1  30
ATOM     30  C   UNL A   1      32.862  36.059  29.598  1.00  0.00     0.188 C 
BRANCH  30  31
ATOM     31  O   UNL A   1      32.613  34.731  29.156  1.00  0.00    -0.376 OA
BRANCH  31  32
ATOM     32  C   UNL A   1      33.749  34.075  28.617  1.00  0.00     0.202 C 
BRANCH  32  33
ATOM     33  C   UNL A   1      34.168  32.853  29.435  1.00  0.00     0.261 C 
BRANCH  33  34
ATOM     34  O   UNL A   1      35.456  32.344  29.024  1.00  0.00    -0.460 OA
BRANCH  34  35
ATOM     35  C   UNL A   1      35.563  31.034  28.742  1.00  0.00     0.338 C 
ATOM     36  O   UNL A   1      34.688  30.333  28.236  1.00  0.00    -0.246 OA
BRANCH  35  37
ATOM     37  C   UNL A   1      36.885  30.505  29.165  1.00  0.00     0.060 A 
ATOM     38  C   UNL A   1      38.095  31.108  28.803  1.00  0.00     0.016 A 
ATOM     39  C   UNL A   1      36.921  29.307  29.874  1.00  0.00     0.016 A 
ATOM     40  C   UNL A   1      39.322  30.497  29.092  1.00  0.00     0.010 A 
ATOM     41  C   UNL A   1      38.150  28.732  30.225  1.00  0.00     0.010 A 
ATOM     42  C   UNL A   1      39.368  29.307  29.822  1.00  0.00    -0.014 A 
BRANCH  42  43
ATOM     43  C   UNL A   1      40.657  28.641  30.172  1.00  0.00     0.031 A 
ATOM     44  C   UNL A   1      41.538  29.224  31.247  1.00  0.00     0.074 A 
ATOM     45  C   UNL A   1      41.091  27.564  29.484  1.00  0.00     0.049 A 
ATOM     46  N   UNL A   1      42.799  28.991  31.504  1.00  0.00    -0.248 NA
ATOM     47  C   UNL A   1      40.915  30.209  32.146  1.00  0.00     0.031 C 
ATOM     48  C   UNL A   1      40.337  26.850  28.454  1.00  0.00     0.029 A 
ATOM     49  N   UNL A   1      42.303  26.911  29.521  1.00  0.00    -0.354 N 
ATOM     50  C   UNL A   1      43.144  29.853  32.540  1.00  0.00     0.074 A 
ATOM     51  C   UNL A   1      41.949  30.598  32.879  1.00  0.00     0.031 C 
ATOM     52  C   UNL A   1      41.105  25.879  27.939  1.00  0.00     0.029 A 
ATOM     53  C   UNL A   1      42.433  25.952  28.541  1.00  0.00     0.049 A 
ATOM     54  H   UNL A   1      43.006  27.108  30.182  1.00  0.00     0.167 HD
ATOM     55  C   UNL A   1      44.345  30.010  33.149  1.00  0.00     0.034 A 
ATOM     56  C   UNL A   1      43.508  25.254  28.122  1.00  0.00     0.034 A 
ATOM     57  C   UNL A   1      45.519  29.233  32.846  1.00  0.00     0.049 A 
ATOM     58  C   UNL A   1      44.842  25.477  28.784  1.00  0.00     0.074 A 
ATOM     59  C   UNL A   1      46.770  29.302  33.436  1.00  0.00     0.029 A 
ATOM     60  N   UNL A   1      45.592  28.247  31.876  1.00  0.00    -0.354 N 
ATOM     61  N   UNL A   1      45.147  26.267  29.783  1.00  0.00    -0.248 NA
ATOM     62  C   UNL A   1      45.978  24.701  28.265  1.00  0.00     0.031 C 
ATOM     63  C   UNL A   1      47.607  28.376  32.803  1.00  0.00     0.029 A 
ATOM     64  C   UNL A   1      46.869  27.707  31.841  1.00  0.00     0.049 A 
ATOM     65  H   UNL A   1      44.847  27.969  31.295  1.00  0.00     0.167 HD
ATOM     66  C   UNL A   1      46.499  26.062  30.032  1.00  0.00     0.074 A 
ATOM     67  C   UNL A   1      46.950  25.056  29.095  1.00  0.00     0.031 C 
ATOM     68  C   UNL A   1      47.300  26.667  30.944  1.00  0.00     0.034 A 
BRANCH  55  69
ATOM     69  C   UNL A   1      44.461  31.066  34.218  1.00  0.00     0.023 A 
ATOM     70  C   UNL A   1      44.898  32.362  33.882  1.00  0.00     0.012 A 
ATOM     71  C   UNL A   1      44.062  30.792  35.542  1.00  0.00     0.148 A 
ATOM     72  C   UNL A   1      44.964  33.363  34.852  1.00  0.00     0.002 A 
ATOM     73  C   UNL A   1      44.091  31.805  36.494  1.00  0.00     0.091 A 
ATOM     74  F   UNL A   1      43.665  29.548  35.846  1.00  0.00    -0.205 F 
ATOM     75  C   UNL A   1      44.551  33.087  36.154  1.00  0.00     0.022 A 
BRANCH  73  76
ATOM     76  S   UNL A   1      43.506  31.571  38.177  1.00  0.00     0.127 S 
ATOM     77  O   UNL A   1      42.092  31.270  37.957  1.00  0.00    -0.237 OA
ATOM     78  O   UNL A   1      44.308  30.433  38.626  1.00  0.00    -0.237 OA
ATOM     79  O   UNL A   1      43.779  32.820  38.875  1.00  0.00    -0.744 OA
ENDBRANCH  73  76
ENDBRANCH  55  69
BRANCH  56  80
ATOM     80  C   UNL A   1      43.372  24.281  27.001  1.00  0.00     0.023 A 
ATOM     81  C   UNL A   1      43.924  24.592  25.743  1.00  0.00     0.012 A 
ATOM     82  C   UNL A   1      42.717  23.046  27.175  1.00  0.00     0.148 A 
ATOM     83  C   UNL A   1      43.805  23.704  24.674  1.00  0.00     0.002 A 
ATOM     84  C   UNL A   1      42.656  22.139  26.125  1.00  0.00     0.091 A 
ATOM     85  F   UNL A   1      42.175  22.778  28.371  1.00  0.00    -0.205 F 
ATOM     86  C   UNL A   1      43.183  22.473  24.868  1.00  0.00     0.022 A 
BRANCH  84  87
ATOM     87  S   UNL A   1      41.994  20.480  26.322  1.00  0.00     0.127 S 
ATOM     88  O   UNL A   1      42.413  20.152  27.683  1.00  0.00    -0.237 OA
ATOM     89  O   UNL A   1      40.558  20.706  26.158  1.00  0.00    -0.237 OA
ATOM     90  O   UNL A   1      42.603  19.686  25.264  1.00  0.00    -0.744 OA
ENDBRANCH  84  87
ENDBRANCH  56  80
BRANCH  68  91
ATOM     91  C   UNL A   1      48.742  26.231  31.010  1.00  0.00     0.023 A 
ATOM     92  C   UNL A   1      49.691  26.807  30.143  1.00  0.00     0.012 A 
ATOM     93  C   UNL A   1      49.167  25.297  31.976  1.00  0.00     0.148 A 
ATOM     94  C   UNL A   1      51.034  26.434  30.211  1.00  0.00     0.002 A 
ATOM     95  C   UNL A   1      50.514  24.967  32.071  1.00  0.00     0.091 A 
ATOM     96  F   UNL A   1      48.247  24.746  32.781  1.00  0.00    -0.205 F 
ATOM     97  C   UNL A   1      51.447  25.524  31.182  1.00  0.00     0.022 A 
BRANCH  95  98
ATOM     98  S   UNL A   1      51.153  23.876  33.348  1.00  0.00     0.127 S 
ATOM     99  O   UNL A   1      50.467  24.376  34.538  1.00  0.00    -0.237 OA
ATOM    100  O   UNL A   1      50.700  22.563  32.890  1.00  0.00    -0.237 OA
ATOM    101  O   UNL A   1      52.599  24.052  33.341  1.00  0.00    -0.744 OA
ENDBRANCH  95  98
ENDBRANCH  68  91
ENDBRANCH  42  43
ENDBRANCH  35  37
ENDBRANCH  34  35
ENDBRANCH  33  34
ENDBRANCH  32  33
ENDBRANCH  31  32
ENDBRANCH  30  31
ENDBRANCH   1  30
TORSDOF 24
ENDMDL
MODEL 3
REMARK VINA RESULT:      -9.8      7.940     11.300
REMARK SMILES CCc1ccc2[nH]c(C(=O)c3cc(C)ccn3)c(CC(=O)OCCOCCOCCOC(=O)c3ccc(-c4c5nc(c(-c6cccc(S(=O)(=O)[O-])c6F)c6ccc([nH]6)c(-c6cccc(S(=O)(=O)[O-])c6F)c6nc(c(-c7cccc(S(=O)(=O)[O-])c7F)c7ccc4[nH]7)C=C6)C=C5)cc3)c2c1
REMARK SMILES IDX 26 1 25 2 24 3 23 4 22 5 20 6 21 7 19 8 18 9 3 10 4 11 98 12
REMARK SMILES IDX 5 13 97 14 6 15 7 16 8 17 2 19 1 20 9 21 10 22 11 23 12 24
REMARK SMILES IDX 17 25 13 26 16 27 14 28 15 29 27 30 28 31 29 32 30 33 31 34
REMARK SMILES IDX 32 35 33 36 34 37 35 38 96 39 36 40 95 41 37 42 38 43 39 44
REMARK SMILES IDX 89 45 40 46 94 47 88 48 90 49 41 50 93 51 87 52 86 53 42 55
REMARK SMILES IDX 74 56 54 57 73 58 55 59 58 60 72 61 91 62 56 63 57 64 71 66
REMARK SMILES IDX 92 67 59 68 43 69 44 70 52 71 45 72 47 73 53 74 46 75 48 76
REMARK SMILES IDX 49 77 50 78 51 79 75 80 76 81 84 82 77 83 79 84 85 85 78 86
REMARK SMILES IDX 80 87 81 88 82 89 83 90 60 91 61 92 69 93 62 94 64 95 70 96
REMARK SMILES IDX 63 97 65 98 66 99 67 100 68 101
REMARK H PARENT 7 18 90 54 58 65
REMARK Flexibility Score: inf
ROOT
ATOM      1  C   UNL A   1      34.249  32.678  28.230  1.00  0.00     0.188 C 
ENDROOT
BRANCH   1   2
ATOM      2  O   UNL A   1      33.349  31.733  27.659  1.00  0.00    -0.376 OA
BRANCH   2   3
ATOM      3  C   UNL A   1      32.211  32.224  26.962  1.00  0.00     0.202 C 
BRANCH   3   4
ATOM      4  C   UNL A   1      31.368  31.178  26.221  1.00  0.00     0.261 C 
BRANCH   4   5
ATOM      5  O   UNL A   1      32.172  30.087  25.719  1.00  0.00    -0.463 OA
BRANCH   5   6
ATOM      6  C   UNL A   1      31.989  28.867  26.287  1.00  0.00     0.310 C 
ATOM      7  O   UNL A   1      32.490  28.545  27.362  1.00  0.00    -0.252 OA
BRANCH   6   8
ATOM      8  C   UNL A   1      30.964  27.994  25.563  1.00  0.00     0.161 C 
BRANCH   8   9
ATOM      9  C   UNL A   1      31.176  27.712  24.092  1.00  0.00     0.000 A 
ATOM     10  C   UNL A   1      33.612  24.851  23.336  1.00  0.00    -0.048 A 
ATOM     11  C   UNL A   1      33.420  24.877  21.949  1.00  0.00     0.006 A 
ATOM     12  C   UNL A   1      32.998  25.837  24.135  1.00  0.00     0.014 A 
ATOM     13  C   UNL A   1      32.611  25.839  21.338  1.00  0.00     0.027 A 
ATOM     14  C   UNL A   1      32.111  26.763  23.555  1.00  0.00     0.004 A 
ATOM     15  C   UNL A   1      31.947  26.738  22.173  1.00  0.00     0.046 A 
ATOM     16  N   UNL A   1      31.015  27.696  21.869  1.00  0.00    -0.352 N 
ATOM     17  C   UNL A   1      30.336  28.045  23.016  1.00  0.00     0.093 A 
ATOM     18  H   UNL A   1      30.855  28.075  20.974  1.00  0.00     0.167 HD
BRANCH  10  19
ATOM     19  C   UNL A   1      34.382  23.763  24.049  1.00  0.00     0.032 C 
ATOM     20  C   UNL A   1      35.356  24.209  25.132  1.00  0.00     0.009 C 
ENDBRANCH  10  19
BRANCH  17  21
ATOM     21  C   UNL A   1      28.967  28.542  23.012  1.00  0.00     0.227 C 
ATOM     22  O   UNL A   1      28.012  27.864  23.363  1.00  0.00    -0.285 OA
BRANCH  21  23
ATOM     23  C   UNL A   1      28.703  29.915  22.476  1.00  0.00     0.113 A 
ATOM     24  C   UNL A   1      29.047  31.041  23.218  1.00  0.00     0.036 A 
ATOM     25  N   UNL A   1      28.140  29.963  21.243  1.00  0.00    -0.253 NA
ATOM     26  C   UNL A   1      28.837  32.302  22.643  1.00  0.00    -0.047 A 
ATOM     27  C   UNL A   1      28.026  31.189  20.685  1.00  0.00     0.112 A 
ATOM     28  C   UNL A   1      29.116  33.575  23.386  1.00  0.00     0.044 C 
ATOM     29  C   UNL A   1      28.358  32.367  21.334  1.00  0.00     0.023 A 
ENDBRANCH  21  23
ENDBRANCH  17  21
ENDBRANCH   8   9
ENDBRANCH   6   8
ENDBRANCH   5   6
ENDBRANCH   4   5
ENDBRANCH   3   4
ENDBRANCH   2   3
ENDBRANCH   1   2
BRANCH   1  30
ATOM     30  C   UNL A   1      35.769  32.444  28.069  1.00  0.00     0.188 C 
BRANCH  30  31
ATOM     31  O   UNL A   1      36.125  31.074  27.942  1.00  0.00    -0.376 OA
BRANCH  31  32
ATOM     32  C   UNL A   1      36.607  30.485  29.140  1.00  0.00     0.202 C 
BRANCH  32  33
ATOM     33  C   UNL A   1      37.931  31.092  29.605  1.00  0.00     0.261 C 
BRANCH  33  34
ATOM     34  O   UNL A   1      37.809  31.729  30.895  1.00  0.00    -0.460 OA
BRANCH  34  35
ATOM     35  C   UNL A   1      37.721  30.948  31.986  1.00  0.00     0.338 C 
ATOM     36  O   UNL A   1      36.746  30.861  32.731  1.00  0.00    -0.246 OA
BRANCH  35  37
ATOM     37  C   UNL A   1      38.992  30.214  32.218  1.00  0.00     0.060 A 
ATOM     38  C   UNL A   1      40.227  30.859  32.347  1.00  0.00     0.016 A 
ATOM     39  C   UNL A   1      38.961  28.822  32.214  1.00  0.00     0.016 A 
ATOM     40  C   UNL A   1      41.421  30.128  32.412  1.00  0.00     0.010 A 
ATOM     41  C   UNL A   1      40.148  28.091  32.351  1.00  0.00     0.010 A 
ATOM     42  C   UNL A   1      41.397  28.731  32.431  1.00  0.00    -0.014 A 
BRANCH  42  43
ATOM     43  C   UNL A   1      42.645  27.919  32.527  1.00  0.00     0.031 A 
ATOM     44  C   UNL A   1      43.237  27.604  33.878  1.00  0.00     0.074 A 
ATOM     45  C   UNL A   1      43.304  27.525  31.417  1.00  0.00     0.049 A 
ATOM     46  N   UNL A   1      44.438  27.182  34.180  1.00  0.00    -0.248 NA
ATOM     47  C   UNL A   1      42.360  27.804  35.043  1.00  0.00     0.031 C 
ATOM     48  C   UNL A   1      42.839  27.702  30.042  1.00  0.00     0.029 A 
ATOM     49  N   UNL A   1      44.539  26.931  31.276  1.00  0.00    -0.354 N 
ATOM     50  C   UNL A   1      44.489  27.138  35.569  1.00  0.00     0.074 A 
ATOM     51  C   UNL A   1      43.187  27.556  36.049  1.00  0.00     0.031 C 
ATOM     52  C   UNL A   1      43.780  27.255  29.197  1.00  0.00     0.029 A 
ATOM     53  C   UNL A   1      44.948  26.836  29.965  1.00  0.00     0.049 A 
ATOM     54  H   UNL A   1      45.074  26.606  32.036  1.00  0.00     0.167 HD
ATOM     55  C   UNL A   1      45.524  26.785  36.370  1.00  0.00     0.034 A 
ATOM     56  C   UNL A   1      46.145  26.513  29.432  1.00  0.00     0.034 A 
ATOM     57  C   UNL A   1      46.801  26.321  35.891  1.00  0.00     0.049 A 
ATOM     58  C   UNL A   1      47.293  26.167  30.341  1.00  0.00     0.074 A 
ATOM     59  C   UNL A   1      47.897  25.911  36.632  1.00  0.00     0.029 A 
ATOM     60  N   UNL A   1      47.156  26.202  34.558  1.00  0.00    -0.354 N 
ATOM     61  N   UNL A   1      47.320  26.095  31.650  1.00  0.00    -0.248 NA
ATOM     62  C   UNL A   1      48.576  25.847  29.698  1.00  0.00     0.031 C 
ATOM     63  C   UNL A   1      48.925  25.570  35.744  1.00  0.00     0.029 A 
ATOM     64  C   UNL A   1      48.457  25.736  34.451  1.00  0.00     0.049 A 
ATOM     65  H   UNL A   1      46.570  26.417  33.796  1.00  0.00     0.167 HD
ATOM     66  C   UNL A   1      48.608  25.693  31.983  1.00  0.00     0.074 A 
ATOM     67  C   UNL A   1      49.326  25.514  30.739  1.00  0.00     0.031 C 
ATOM     68  C   UNL A   1      49.152  25.507  33.211  1.00  0.00     0.034 A 
BRANCH  55  69
ATOM     69  C   UNL A   1      45.328  26.881  37.861  1.00  0.00     0.023 A 
ATOM     70  C   UNL A   1      44.991  25.731  38.602  1.00  0.00     0.012 A 
ATOM     71  C   UNL A   1      45.553  28.097  38.536  1.00  0.00     0.148 A 
ATOM     72  C   UNL A   1      44.853  25.796  39.989  1.00  0.00     0.002 A 
ATOM     73  C   UNL A   1      45.456  28.145  39.922  1.00  0.00     0.091 A 
ATOM     74  F   UNL A   1      45.857  29.185  37.811  1.00  0.00    -0.205 F 
ATOM     75  C   UNL A   1      45.096  27.000  40.648  1.00  0.00     0.022 A 
BRANCH  73  76
ATOM     76  S   UNL A   1      45.824  29.627  40.870  1.00  0.00     0.127 S 
ATOM     77  O   UNL A   1      46.682  30.362  39.942  1.00  0.00    -0.237 OA
ATOM     78  O   UNL A   1      44.495  30.209  41.061  1.00  0.00    -0.237 OA
ATOM     79  O   UNL A   1      46.470  29.172  42.093  1.00  0.00    -0.744 OA
ENDBRANCH  73  76
ENDBRANCH  55  69
BRANCH  56  80
ATOM     80  C   UNL A   1      46.325  26.515  27.952  1.00  0.00     0.023 A 
ATOM     81  C   UNL A   1      46.745  27.695  27.308  1.00  0.00     0.012 A 
ATOM     82  C   UNL A   1      46.100  25.356  27.183  1.00  0.00     0.148 A 
ATOM     83  C   UNL A   1      46.913  27.727  25.923  1.00  0.00     0.002 A 
ATOM     84  C   UNL A   1      46.329  25.378  25.813  1.00  0.00     0.091 A 
ATOM     85  F   UNL A   1      45.674  24.250  27.809  1.00  0.00    -0.205 F 
ATOM     86  C   UNL A   1      46.719  26.568  25.178  1.00  0.00     0.022 A 
BRANCH  84  87
ATOM     87  S   UNL A   1      46.233  23.899  24.797  1.00  0.00     0.127 S 
ATOM     88  O   UNL A   1      47.231  24.179  23.767  1.00  0.00    -0.237 OA
ATOM     89  O   UNL A   1      46.608  22.854  25.749  1.00  0.00    -0.237 OA
ATOM     90  O   UNL A   1      44.853  23.828  24.338  1.00  0.00    -0.744 OA
ENDBRANCH  84  87
ENDBRANCH  56  80
BRANCH  68  91
ATOM     91  C   UNL A   1      50.585  25.044  33.280  1.00  0.00     0.023 A 
ATOM     92  C   UNL A   1      51.626  25.989  33.371  1.00  0.00     0.012 A 
ATOM     93  C   UNL A   1      50.896  23.670  33.320  1.00  0.00     0.148 A 
ATOM     94  C   UNL A   1      52.956  25.575  33.465  1.00  0.00     0.002 A 
ATOM     95  C   UNL A   1      52.218  23.264  33.462  1.00  0.00     0.091 A 
ATOM     96  F   UNL A   1      49.894  22.784  33.214  1.00  0.00    -0.205 F 
ATOM     97  C   UNL A   1      53.250  24.215  33.521  1.00  0.00     0.022 A 
BRANCH  95  98
ATOM     98  S   UNL A   1      52.685  21.538  33.638  1.00  0.00     0.127 S 
ATOM     99  O   UNL A   1      51.816  20.892  32.655  1.00  0.00    -0.237 OA
ATOM    100  O   UNL A   1      54.102  21.561  33.276  1.00  0.00    -0.237 OA
ATOM    101  O   UNL A   1      52.422  21.190  35.028  1.00  0.00    -0.744 OA
ENDBRANCH  95  98
ENDBRANCH  68  91
ENDBRANCH  42  43
ENDBRANCH  35  37
ENDBRANCH  34  35
ENDBRANCH  33  34
ENDBRANCH  32  33
ENDBRANCH  31  32
ENDBRANCH  30  31
ENDBRANCH   1  30
TORSDOF 24
ENDMDL
