MODEL 1
REMARK VINA RESULT:     -10.7      0.000      0.000
REMARK SMILES C[C@@H](c1ccccc1)[C@@H]1[NH2+][C@@H](C(=O)OCCOCCOCCOC(=O)c2ccc(-c3c4nc(c(-c5cccc(S(=O)(=O)[O-])c5F)c5ccc([nH]5)c(-c5cccc(S(=O)(=O)[O-])c5F)c5nc(c(-c6cccc(S(=O)(=O)[O-])c6F)c6ccc3[nH]6)C=C5)C=C4)cc2)CS1
REMARK SMILES IDX 19 1 18 2 17 3 16 4 15 5 14 6 12 7 13 8 11 9 9 10 10 11
REMARK SMILES IDX 90 12 89 15 2 16 1 17 3 18 4 19 8 20 5 21 7 22 6 23 20 24
REMARK SMILES IDX 21 25 22 26 23 27 24 28 25 29 26 30 27 31 88 32 28 33 87 34
REMARK SMILES IDX 29 35 30 36 31 37 81 38 32 39 86 40 80 41 82 42 33 43 85 44
REMARK SMILES IDX 79 45 78 46 34 48 66 49 46 50 65 51 47 52 50 53 64 54 83 55
REMARK SMILES IDX 48 56 49 57 63 59 84 60 51 61 35 62 36 63 44 64 37 65 39 66
REMARK SMILES IDX 45 67 38 68 40 69 41 70 42 71 43 72 67 73 68 74 76 75 69 76
REMARK SMILES IDX 71 77 77 78 70 79 72 80 73 81 74 82 75 83 52 84 53 85 61 86
REMARK SMILES IDX 54 87 56 88 62 89 55 90 57 91 58 92 59 93 60 94
REMARK H PARENT 10 13 10 14 82 47 50 58
REMARK Flexibility Score: inf
ROOT
ATOM      1  C   UNL A   1      42.091  20.766  26.625  1.00  0.00     0.188 C 
ENDROOT
BRANCH   1   2
ATOM      2  C   UNL A   1      40.546  20.704  26.644  1.00  0.00     0.188 C 
BRANCH   2   3
ATOM      3  O   UNL A   1      39.935  21.920  26.258  1.00  0.00    -0.376 OA
BRANCH   3   4
ATOM      4  C   UNL A   1      38.597  21.837  25.799  1.00  0.00     0.202 C 
BRANCH   4   5
ATOM      5  C   UNL A   1      37.833  23.153  25.578  1.00  0.00     0.261 C 
BRANCH   5   6
ATOM      6  O   UNL A   1      36.557  23.062  24.920  1.00  0.00    -0.459 OA
BRANCH   6   7
ATOM      7  C   UNL A   1      35.500  22.586  25.636  1.00  0.00     0.365 C 
ATOM      8  O   UNL A   1      35.543  21.579  26.330  1.00  0.00    -0.245 OA
BRANCH   7   9
ATOM      9  C   UNL A   1      34.291  23.540  25.517  1.00  0.00     0.304 C 
ATOM     10  C   UNL A   1      32.317  23.844  24.148  1.00  0.00     0.249 C 
ATOM     11  N   UNL A   1      33.132  22.848  24.865  1.00  0.00    -0.322 N 
ATOM     12  S   UNL A   1      33.541  24.936  23.366  1.00  0.00    -0.092 SA
ATOM     13  H   UNL A   1      33.478  22.150  24.207  1.00  0.00     0.348 HD
ATOM     14  H   UNL A   1      32.564  22.386  25.576  1.00  0.00     0.348 HD
ATOM     15  C   UNL A   1      34.698  24.800  24.753  1.00  0.00     0.153 C 
BRANCH  10  16
ATOM     16  C   UNL A   1      31.160  24.568  24.933  1.00  0.00     0.085 C 
ATOM     17  C   UNL A   1      30.684  23.753  26.146  1.00  0.00     0.020 C 
BRANCH  16  18
ATOM     18  C   UNL A   1      31.403  26.038  25.264  1.00  0.00    -0.038 A 
ATOM     19  C   UNL A   1      31.062  27.078  24.392  1.00  0.00     0.004 A 
ATOM     20  C   UNL A   1      31.899  26.369  26.539  1.00  0.00     0.004 A 
ATOM     21  C   UNL A   1      31.114  28.407  24.822  1.00  0.00     0.000 A 
ATOM     22  C   UNL A   1      31.959  27.695  26.964  1.00  0.00     0.000 A 
ATOM     23  C   UNL A   1      31.543  28.713  26.112  1.00  0.00     0.000 A 
ENDBRANCH  16  18
ENDBRANCH  10  16
ENDBRANCH   7   9
ENDBRANCH   6   7
ENDBRANCH   5   6
ENDBRANCH   4   5
ENDBRANCH   3   4
ENDBRANCH   2   3
ENDBRANCH   1   2
BRANCH   1  24
ATOM     24  O   UNL A   1      42.807  20.519  25.420  1.00  0.00    -0.376 OA
BRANCH  24  25
ATOM     25  C   UNL A   1      44.095  21.086  25.242  1.00  0.00     0.202 C 
BRANCH  25  26
ATOM     26  C   UNL A   1      44.292  22.315  24.335  1.00  0.00     0.261 C 
BRANCH  26  27
ATOM     27  O   UNL A   1      43.537  23.491  24.666  1.00  0.00    -0.460 OA
BRANCH  27  28
ATOM     28  C   UNL A   1      44.254  24.563  25.077  1.00  0.00     0.338 C 
ATOM     29  O   UNL A   1      45.361  24.905  24.677  1.00  0.00    -0.246 OA
BRANCH  28  30
ATOM     30  C   UNL A   1      43.440  25.396  25.986  1.00  0.00     0.060 A 
ATOM     31  C   UNL A   1      43.660  26.782  26.008  1.00  0.00     0.016 A 
ATOM     32  C   UNL A   1      42.507  24.820  26.850  1.00  0.00     0.016 A 
ATOM     33  C   UNL A   1      42.970  27.591  26.911  1.00  0.00     0.010 A 
ATOM     34  C   UNL A   1      41.832  25.630  27.771  1.00  0.00     0.010 A 
ATOM     35  C   UNL A   1      42.085  27.014  27.829  1.00  0.00    -0.014 A 
BRANCH  35  36
ATOM     36  C   UNL A   1      41.560  27.820  28.961  1.00  0.00     0.031 A 
ATOM     37  C   UNL A   1      42.348  27.862  30.243  1.00  0.00     0.074 A 
ATOM     38  C   UNL A   1      40.401  28.494  28.864  1.00  0.00     0.049 A 
ATOM     39  N   UNL A   1      42.068  28.461  31.372  1.00  0.00    -0.248 NA
ATOM     40  C   UNL A   1      43.621  27.124  30.251  1.00  0.00     0.031 C 
ATOM     41  C   UNL A   1      39.554  28.553  27.676  1.00  0.00     0.029 A 
ATOM     42  N   UNL A   1      39.727  29.242  29.799  1.00  0.00    -0.354 N 
ATOM     43  C   UNL A   1      43.105  28.137  32.238  1.00  0.00     0.074 A 
ATOM     44  C   UNL A   1      44.016  27.284  31.505  1.00  0.00     0.031 C 
ATOM     45  C   UNL A   1      38.458  29.279  27.961  1.00  0.00     0.029 A 
ATOM     46  C   UNL A   1      38.513  29.709  29.356  1.00  0.00     0.049 A 
ATOM     47  H   UNL A   1      40.080  29.424  30.700  1.00  0.00     0.167 HD
ATOM     48  C   UNL A   1      43.290  28.519  33.525  1.00  0.00     0.034 A 
ATOM     49  C   UNL A   1      37.549  30.387  30.010  1.00  0.00     0.034 A 
ATOM     50  C   UNL A   1      42.388  29.371  34.251  1.00  0.00     0.049 A 
ATOM     51  C   UNL A   1      37.753  30.764  31.457  1.00  0.00     0.074 A 
ATOM     52  C   UNL A   1      42.516  29.861  35.539  1.00  0.00     0.029 A 
ATOM     53  N   UNL A   1      41.176  29.838  33.766  1.00  0.00    -0.354 N 
ATOM     54  N   UNL A   1      38.792  30.551  32.228  1.00  0.00    -0.248 NA
ATOM     55  C   UNL A   1      36.662  31.500  32.112  1.00  0.00     0.031 C 
ATOM     56  C   UNL A   1      41.358  30.585  35.849  1.00  0.00     0.029 A 
ATOM     57  C   UNL A   1      40.533  30.589  34.736  1.00  0.00     0.049 A 
ATOM     58  H   UNL A   1      40.824  29.661  32.864  1.00  0.00     0.167 HD
ATOM     59  C   UNL A   1      38.498  31.163  33.444  1.00  0.00     0.074 A 
ATOM     60  C   UNL A   1      37.188  31.764  33.301  1.00  0.00     0.031 C 
ATOM     61  C   UNL A   1      39.246  31.220  34.574  1.00  0.00     0.034 A 
BRANCH  48  62
ATOM     62  C   UNL A   1      44.519  28.001  34.231  1.00  0.00     0.023 A 
ATOM     63  C   UNL A   1      45.732  28.717  34.154  1.00  0.00     0.012 A 
ATOM     64  C   UNL A   1      44.468  26.811  34.981  1.00  0.00     0.148 A 
ATOM     65  C   UNL A   1      46.887  28.227  34.766  1.00  0.00     0.002 A 
ATOM     66  C   UNL A   1      45.608  26.357  35.632  1.00  0.00     0.091 A 
ATOM     67  F   UNL A   1      43.312  26.132  35.026  1.00  0.00    -0.205 F 
ATOM     68  C   UNL A   1      46.822  27.052  35.511  1.00  0.00     0.022 A 
BRANCH  66  69
ATOM     69  S   UNL A   1      45.603  24.901  36.682  1.00  0.00     0.127 S 
ATOM     70  O   UNL A   1      47.009  24.504  36.645  1.00  0.00    -0.237 OA
ATOM     71  O   UNL A   1      45.158  25.448  37.965  1.00  0.00    -0.237 OA
ATOM     72  O   UNL A   1      44.670  23.966  36.067  1.00  0.00    -0.744 OA
ENDBRANCH  66  69
ENDBRANCH  48  62
BRANCH  49  73
ATOM     73  C   UNL A   1      36.311  30.798  29.288  1.00  0.00     0.023 A 
ATOM     74  C   UNL A   1      35.553  29.822  28.611  1.00  0.00     0.012 A 
ATOM     75  C   UNL A   1      35.868  32.135  29.287  1.00  0.00     0.148 A 
ATOM     76  C   UNL A   1      34.389  30.173  27.926  1.00  0.00     0.002 A 
ATOM     77  C   UNL A   1      34.681  32.469  28.647  1.00  0.00     0.091 A 
ATOM     78  F   UNL A   1      36.611  33.048  29.928  1.00  0.00    -0.205 F 
ATOM     79  C   UNL A   1      33.948  31.494  27.954  1.00  0.00     0.022 A 
BRANCH  77  80
ATOM     80  S   UNL A   1      33.972  34.119  28.717  1.00  0.00     0.127 S 
ATOM     81  O   UNL A   1      32.826  33.990  27.819  1.00  0.00    -0.237 OA
ATOM     82  O   UNL A   1      33.633  34.236  30.135  1.00  0.00    -0.237 OA
ATOM     83  O   UNL A   1      35.022  35.022  28.266  1.00  0.00    -0.744 OA
ENDBRANCH  77  80
ENDBRANCH  49  73
BRANCH  61  84
ATOM     84  C   UNL A   1      38.697  31.997  35.747  1.00  0.00     0.023 A 
ATOM     85  C   UNL A   1      38.735  33.405  35.746  1.00  0.00     0.012 A 
ATOM     86  C   UNL A   1      38.073  31.325  36.818  1.00  0.00     0.148 A 
ATOM     87  C   UNL A   1      38.193  34.131  36.809  1.00  0.00     0.002 A 
ATOM     88  C   UNL A   1      37.487  32.055  37.846  1.00  0.00     0.091 A 
ATOM     89  F   UNL A   1      38.060  29.984  36.811  1.00  0.00    -0.205 F 
ATOM     90  C   UNL A   1      37.559  33.456  37.850  1.00  0.00     0.022 A 
BRANCH  88  91
ATOM     91  S   UNL A   1      36.561  31.279  39.176  1.00  0.00     0.127 S 
ATOM     92  O   UNL A   1      37.563  31.218  40.240  1.00  0.00    -0.237 OA
ATOM     93  O   UNL A   1      35.485  32.243  39.407  1.00  0.00    -0.237 OA
ATOM     94  O   UNL A   1      36.119  29.990  38.661  1.00  0.00    -0.744 OA
ENDBRANCH  88  91
ENDBRANCH  61  84
ENDBRANCH  35  36
ENDBRANCH  28  30
ENDBRANCH  27  28
ENDBRANCH  26  27
ENDBRANCH  25  26
ENDBRANCH  24  25
ENDBRANCH   1  24
TORSDOF 22
ENDMDL
MODEL 2
REMARK VINA RESULT:     -10.6      2.138      3.279
REMARK SMILES C[C@@H](c1ccccc1)[C@@H]1[NH2+][C@@H](C(=O)OCCOCCOCCOC(=O)c2ccc(-c3c4nc(c(-c5cccc(S(=O)(=O)[O-])c5F)c5ccc([nH]5)c(-c5cccc(S(=O)(=O)[O-])c5F)c5nc(c(-c6cccc(S(=O)(=O)[O-])c6F)c6ccc3[nH]6)C=C5)C=C4)cc2)CS1
REMARK SMILES IDX 19 1 18 2 17 3 16 4 15 5 14 6 12 7 13 8 11 9 9 10 10 11
REMARK SMILES IDX 90 12 89 15 2 16 1 17 3 18 4 19 8 20 5 21 7 22 6 23 20 24
REMARK SMILES IDX 21 25 22 26 23 27 24 28 25 29 26 30 27 31 88 32 28 33 87 34
REMARK SMILES IDX 29 35 30 36 31 37 81 38 32 39 86 40 80 41 82 42 33 43 85 44
REMARK SMILES IDX 79 45 78 46 34 48 66 49 46 50 65 51 47 52 50 53 64 54 83 55
REMARK SMILES IDX 48 56 49 57 63 59 84 60 51 61 35 62 36 63 44 64 37 65 39 66
REMARK SMILES IDX 45 67 38 68 40 69 41 70 42 71 43 72 67 73 68 74 76 75 69 76
REMARK SMILES IDX 71 77 77 78 70 79 72 80 73 81 74 82 75 83 52 84 53 85 61 86
REMARK SMILES IDX 54 87 56 88 62 89 55 90 57 91 58 92 59 93 60 94
REMARK H PARENT 10 13 10 14 82 47 50 58
REMARK Flexibility Score: inf
ROOT
ATOM      1  C   UNL A   1      42.291  20.742  26.704  1.00  0.00     0.188 C 
ENDROOT
BRANCH   1   2
ATOM      2  C   UNL A   1      40.745  20.761  26.729  1.00  0.00     0.188 C 
BRANCH   2   3
ATOM      3  O   UNL A   1      40.195  21.972  26.247  1.00  0.00    -0.376 OA
BRANCH   3   4
ATOM      4  C   UNL A   1      38.826  21.944  25.886  1.00  0.00     0.202 C 
BRANCH   4   5
ATOM      5  C   UNL A   1      38.108  23.291  25.695  1.00  0.00     0.261 C 
BRANCH   5   6
ATOM      6  O   UNL A   1      36.694  23.244  25.432  1.00  0.00    -0.459 OA
BRANCH   6   7
ATOM      7  C   UNL A   1      36.287  22.862  24.189  1.00  0.00     0.365 C 
ATOM      8  O   UNL A   1      36.757  23.304  23.150  1.00  0.00    -0.245 OA
BRANCH   7   9
ATOM      9  C   UNL A   1      35.229  21.740  24.287  1.00  0.00     0.304 C 
ATOM     10  C   UNL A   1      32.878  21.470  24.798  1.00  0.00     0.249 C 
ATOM     11  N   UNL A   1      33.853  22.287  24.056  1.00  0.00    -0.322 N 
ATOM     12  S   UNL A   1      33.692  21.148  26.391  1.00  0.00    -0.092 SA
ATOM     13  H   UNL A   1      33.811  23.253  24.384  1.00  0.00     0.348 HD
ATOM     14  H   UNL A   1      33.636  22.263  23.060  1.00  0.00     0.348 HD
ATOM     15  C   UNL A   1      35.338  21.040  25.642  1.00  0.00     0.153 C 
BRANCH  10  16
ATOM     16  C   UNL A   1      32.259  20.212  24.083  1.00  0.00     0.085 C 
ATOM     17  C   UNL A   1      32.142  20.409  22.563  1.00  0.00     0.020 C 
BRANCH  16  18
ATOM     18  C   UNL A   1      32.871  18.866  24.461  1.00  0.00    -0.038 A 
ATOM     19  C   UNL A   1      32.449  18.127  25.573  1.00  0.00     0.004 A 
ATOM     20  C   UNL A   1      33.829  18.295  23.602  1.00  0.00     0.004 A 
ATOM     21  C   UNL A   1      32.893  16.815  25.759  1.00  0.00     0.000 A 
ATOM     22  C   UNL A   1      34.278  16.990  23.795  1.00  0.00     0.000 A 
ATOM     23  C   UNL A   1      33.790  16.242  24.861  1.00  0.00     0.000 A 
ENDBRANCH  16  18
ENDBRANCH  10  16
ENDBRANCH   7   9
ENDBRANCH   6   7
ENDBRANCH   5   6
ENDBRANCH   4   5
ENDBRANCH   3   4
ENDBRANCH   2   3
ENDBRANCH   1   2
BRANCH   1  24
ATOM     24  O   UNL A   1      42.988  20.439  25.501  1.00  0.00    -0.376 OA
BRANCH  24  25
ATOM     25  C   UNL A   1      44.247  21.043  25.250  1.00  0.00     0.202 C 
BRANCH  25  26
ATOM     26  C   UNL A   1      44.356  22.274  24.332  1.00  0.00     0.261 C 
BRANCH  26  27
ATOM     27  O   UNL A   1      43.575  23.423  24.696  1.00  0.00    -0.460 OA
BRANCH  27  28
ATOM     28  C   UNL A   1      44.270  24.516  25.088  1.00  0.00     0.338 C 
ATOM     29  O   UNL A   1      45.366  24.879  24.676  1.00  0.00    -0.246 OA
BRANCH  28  30
ATOM     30  C   UNL A   1      43.443  25.341  25.993  1.00  0.00     0.060 A 
ATOM     31  C   UNL A   1      43.604  26.735  25.969  1.00  0.00     0.016 A 
ATOM     32  C   UNL A   1      42.557  24.753  26.897  1.00  0.00     0.016 A 
ATOM     33  C   UNL A   1      42.903  27.542  26.866  1.00  0.00     0.010 A 
ATOM     34  C   UNL A   1      41.871  25.561  27.811  1.00  0.00     0.010 A 
ATOM     35  C   UNL A   1      42.065  26.956  27.822  1.00  0.00    -0.014 A 
BRANCH  35  36
ATOM     36  C   UNL A   1      41.535  27.772  28.943  1.00  0.00     0.031 A 
ATOM     37  C   UNL A   1      42.313  27.824  30.231  1.00  0.00     0.074 A 
ATOM     38  C   UNL A   1      40.378  28.449  28.833  1.00  0.00     0.049 A 
ATOM     39  N   UNL A   1      42.026  28.433  31.352  1.00  0.00    -0.248 NA
ATOM     40  C   UNL A   1      43.585  27.083  30.255  1.00  0.00     0.031 C 
ATOM     41  C   UNL A   1      39.539  28.499  27.638  1.00  0.00     0.029 A 
ATOM     42  N   UNL A   1      39.699  29.206  29.756  1.00  0.00    -0.354 N 
ATOM     43  C   UNL A   1      43.057  28.114  32.229  1.00  0.00     0.074 A 
ATOM     44  C   UNL A   1      43.971  27.253  31.510  1.00  0.00     0.031 C 
ATOM     45  C   UNL A   1      38.443  29.230  27.908  1.00  0.00     0.029 A 
ATOM     46  C   UNL A   1      38.489  29.672  29.300  1.00  0.00     0.049 A 
ATOM     47  H   UNL A   1      40.046  29.395  30.658  1.00  0.00     0.167 HD
ATOM     48  C   UNL A   1      43.233  28.507  33.513  1.00  0.00     0.034 A 
ATOM     49  C   UNL A   1      37.522  30.358  29.942  1.00  0.00     0.034 A 
ATOM     50  C   UNL A   1      42.328  29.368  34.226  1.00  0.00     0.049 A 
ATOM     51  C   UNL A   1      37.717  30.747  31.386  1.00  0.00     0.074 A 
ATOM     52  C   UNL A   1      42.448  29.869  35.510  1.00  0.00     0.029 A 
ATOM     53  N   UNL A   1      41.120  29.833  33.728  1.00  0.00    -0.354 N 
ATOM     54  N   UNL A   1      38.749  30.538  32.167  1.00  0.00    -0.248 NA
ATOM     55  C   UNL A   1      36.623  31.491  32.027  1.00  0.00     0.031 C 
ATOM     56  C   UNL A   1      41.290  30.597  35.805  1.00  0.00     0.029 A 
ATOM     57  C   UNL A   1      40.472  30.594  34.686  1.00  0.00     0.049 A 
ATOM     58  H   UNL A   1      40.774  29.649  32.825  1.00  0.00     0.167 HD
ATOM     59  C   UNL A   1      38.448  31.162  33.375  1.00  0.00     0.074 A 
ATOM     60  C   UNL A   1      37.141  31.764  33.217  1.00  0.00     0.031 C 
ATOM     61  C   UNL A   1      39.188  31.226  34.510  1.00  0.00     0.034 A 
BRANCH  48  62
ATOM     62  C   UNL A   1      44.456  27.993  34.233  1.00  0.00     0.023 A 
ATOM     63  C   UNL A   1      44.395  26.781  34.953  1.00  0.00     0.012 A 
ATOM     64  C   UNL A   1      45.669  28.705  34.186  1.00  0.00     0.148 A 
ATOM     65  C   UNL A   1      45.506  26.317  35.658  1.00  0.00     0.002 A 
ATOM     66  C   UNL A   1      46.786  28.210  34.847  1.00  0.00     0.091 A 
ATOM     67  F   UNL A   1      45.704  29.866  33.515  1.00  0.00    -0.205 F 
ATOM     68  C   UNL A   1      46.702  27.027  35.598  1.00  0.00     0.022 A 
BRANCH  66  69
ATOM     69  S   UNL A   1      48.391  29.009  34.759  1.00  0.00     0.127 S 
ATOM     70  O   UNL A   1      48.141  30.257  35.478  1.00  0.00    -0.237 OA
ATOM     71  O   UNL A   1      49.248  28.058  35.469  1.00  0.00    -0.237 OA
ATOM     72  O   UNL A   1      48.691  29.151  33.341  1.00  0.00    -0.744 OA
ENDBRANCH  66  69
ENDBRANCH  48  62
BRANCH  49  73
ATOM     73  C   UNL A   1      36.290  30.765  29.206  1.00  0.00     0.023 A 
ATOM     74  C   UNL A   1      35.461  29.772  28.648  1.00  0.00     0.012 A 
ATOM     75  C   UNL A   1      35.923  32.119  29.078  1.00  0.00     0.148 A 
ATOM     76  C   UNL A   1      34.301  30.120  27.956  1.00  0.00     0.002 A 
ATOM     77  C   UNL A   1      34.740  32.456  28.432  1.00  0.00     0.091 A 
ATOM     78  F   UNL A   1      36.733  33.047  29.607  1.00  0.00    -0.205 F 
ATOM     79  C   UNL A   1      33.936  31.460  27.858  1.00  0.00     0.022 A 
BRANCH  77  80
ATOM     80  S   UNL A   1      34.127  34.143  28.348  1.00  0.00     0.127 S 
ATOM     81  O   UNL A   1      34.937  34.702  27.268  1.00  0.00    -0.237 OA
ATOM     82  O   UNL A   1      32.718  33.930  28.015  1.00  0.00    -0.237 OA
ATOM     83  O   UNL A   1      34.360  34.717  29.666  1.00  0.00    -0.744 OA
ENDBRANCH  77  80
ENDBRANCH  49  73
BRANCH  61  84
ATOM     84  C   UNL A   1      38.633  32.015  35.672  1.00  0.00     0.023 A 
ATOM     85  C   UNL A   1      38.559  33.420  35.607  1.00  0.00     0.012 A 
ATOM     86  C   UNL A   1      38.112  31.350  36.801  1.00  0.00     0.148 A 
ATOM     87  C   UNL A   1      38.009  34.152  36.661  1.00  0.00     0.002 A 
ATOM     88  C   UNL A   1      37.517  32.081  37.823  1.00  0.00     0.091 A 
ATOM     89  F   UNL A   1      38.205  30.013  36.855  1.00  0.00    -0.205 F 
ATOM     90  C   UNL A   1      37.478  33.483  37.761  1.00  0.00     0.022 A 
BRANCH  88  91
ATOM     91  S   UNL A   1      36.716  31.302  39.229  1.00  0.00     0.127 S 
ATOM     92  O   UNL A   1      37.855  31.026  40.105  1.00  0.00    -0.237 OA
ATOM     93  O   UNL A   1      35.825  32.361  39.704  1.00  0.00    -0.237 OA
ATOM     94  O   UNL A   1      36.034  30.126  38.705  1.00  0.00    -0.744 OA
ENDBRANCH  88  91
ENDBRANCH  61  84
ENDBRANCH  35  36
ENDBRANCH  28  30
ENDBRANCH  27  28
ENDBRANCH  26  27
ENDBRANCH  25  26
ENDBRANCH  24  25
ENDBRANCH   1  24
TORSDOF 22
ENDMDL
MODEL 3
REMARK VINA RESULT:      -9.9      2.741      8.283
REMARK SMILES C[C@@H](c1ccccc1)[C@@H]1[NH2+][C@@H](C(=O)OCCOCCOCCOC(=O)c2ccc(-c3c4nc(c(-c5cccc(S(=O)(=O)[O-])c5F)c5ccc([nH]5)c(-c5cccc(S(=O)(=O)[O-])c5F)c5nc(c(-c6cccc(S(=O)(=O)[O-])c6F)c6ccc3[nH]6)C=C5)C=C4)cc2)CS1
REMARK SMILES IDX 19 1 18 2 17 3 16 4 15 5 14 6 12 7 13 8 11 9 9 10 10 11
REMARK SMILES IDX 90 12 89 15 2 16 1 17 3 18 4 19 8 20 5 21 7 22 6 23 20 24
REMARK SMILES IDX 21 25 22 26 23 27 24 28 25 29 26 30 27 31 88 32 28 33 87 34
REMARK SMILES IDX 29 35 30 36 31 37 81 38 32 39 86 40 80 41 82 42 33 43 85 44
REMARK SMILES IDX 79 45 78 46 34 48 66 49 46 50 65 51 47 52 50 53 64 54 83 55
REMARK SMILES IDX 48 56 49 57 63 59 84 60 51 61 35 62 36 63 44 64 37 65 39 66
REMARK SMILES IDX 45 67 38 68 40 69 41 70 42 71 43 72 67 73 68 74 76 75 69 76
REMARK SMILES IDX 71 77 77 78 70 79 72 80 73 81 74 82 75 83 52 84 53 85 61 86
REMARK SMILES IDX 54 87 56 88 62 89 55 90 57 91 58 92 59 93 60 94
REMARK H PARENT 10 13 10 14 82 47 50 58
REMARK Flexibility Score: inf
ROOT
ATOM      1  C   UNL A   1      41.927  21.327  26.994  1.00  0.00     0.188 C 
ENDROOT
BRANCH   1   2
ATOM      2  C   UNL A   1      40.409  21.513  27.219  1.00  0.00     0.188 C 
BRANCH   2   3
ATOM      3  O   UNL A   1      39.855  22.558  26.442  1.00  0.00    -0.376 OA
BRANCH   3   4
ATOM      4  C   UNL A   1      38.460  22.498  26.206  1.00  0.00     0.202 C 
BRANCH   4   5
ATOM      5  C   UNL A   1      37.707  23.825  26.019  1.00  0.00     0.261 C 
BRANCH   5   6
ATOM      6  O   UNL A   1      36.318  23.845  26.393  1.00  0.00    -0.459 OA
BRANCH   6   7
ATOM      7  C   UNL A   1      35.399  24.125  25.427  1.00  0.00     0.365 C 
ATOM      8  O   UNL A   1      35.212  25.242  24.965  1.00  0.00    -0.245 OA
BRANCH   7   9
ATOM      9  C   UNL A   1      34.708  22.830  24.945  1.00  0.00     0.304 C 
ATOM     10  C   UNL A   1      34.124  20.636  25.786  1.00  0.00     0.249 C 
ATOM     11  N   UNL A   1      34.132  22.074  26.103  1.00  0.00    -0.322 N 
ATOM     12  S   UNL A   1      35.720  20.357  24.961  1.00  0.00    -0.092 SA
ATOM     13  H   UNL A   1      34.701  22.238  26.934  1.00  0.00     0.348 HD
ATOM     14  H   UNL A   1      33.179  22.392  26.282  1.00  0.00     0.348 HD
ATOM     15  C   UNL A   1      35.698  21.977  24.152  1.00  0.00     0.153 C 
BRANCH  10  16
ATOM     16  C   UNL A   1      32.865  20.038  25.053  1.00  0.00     0.085 C 
ATOM     17  C   UNL A   1      32.470  20.862  23.817  1.00  0.00     0.020 C 
BRANCH  16  18
ATOM     18  C   UNL A   1      32.909  18.539  24.777  1.00  0.00    -0.038 A 
ATOM     19  C   UNL A   1      33.379  18.002  23.573  1.00  0.00     0.004 A 
ATOM     20  C   UNL A   1      32.555  17.652  25.812  1.00  0.00     0.004 A 
ATOM     21  C   UNL A   1      33.590  16.626  23.446  1.00  0.00     0.000 A 
ATOM     22  C   UNL A   1      32.758  16.279  25.681  1.00  0.00     0.000 A 
ATOM     23  C   UNL A   1      33.299  15.769  24.505  1.00  0.00     0.000 A 
ENDBRANCH  16  18
ENDBRANCH  10  16
ENDBRANCH   7   9
ENDBRANCH   6   7
ENDBRANCH   5   6
ENDBRANCH   4   5
ENDBRANCH   3   4
ENDBRANCH   2   3
ENDBRANCH   1   2
BRANCH   1  24
ATOM     24  O   UNL A   1      42.437  21.082  25.687  1.00  0.00    -0.376 OA
BRANCH  24  25
ATOM     25  C   UNL A   1      43.791  21.389  25.395  1.00  0.00     0.202 C 
BRANCH  25  26
ATOM     26  C   UNL A   1      44.143  22.555  24.453  1.00  0.00     0.261 C 
BRANCH  26  27
ATOM     27  O   UNL A   1      43.407  23.776  24.632  1.00  0.00    -0.460 OA
BRANCH  27  28
ATOM     28  C   UNL A   1      44.121  24.846  25.053  1.00  0.00     0.338 C 
ATOM     29  O   UNL A   1      45.183  25.250  24.592  1.00  0.00    -0.246 OA
BRANCH  28  30
ATOM     30  C   UNL A   1      43.356  25.594  26.072  1.00  0.00     0.060 A 
ATOM     31  C   UNL A   1      43.524  26.985  26.153  1.00  0.00     0.016 A 
ATOM     32  C   UNL A   1      42.523  24.934  26.976  1.00  0.00     0.016 A 
ATOM     33  C   UNL A   1      42.884  27.715  27.155  1.00  0.00     0.010 A 
ATOM     34  C   UNL A   1      41.899  25.664  27.994  1.00  0.00     0.010 A 
ATOM     35  C   UNL A   1      42.102  27.053  28.109  1.00  0.00    -0.014 A 
BRANCH  35  36
ATOM     36  C   UNL A   1      41.646  27.774  29.324  1.00  0.00     0.031 A 
ATOM     37  C   UNL A   1      40.310  28.468  29.294  1.00  0.00     0.074 A 
ATOM     38  C   UNL A   1      42.402  27.827  30.435  1.00  0.00     0.049 A 
ATOM     39  N   UNL A   1      39.727  29.190  30.215  1.00  0.00    -0.248 NA
ATOM     40  C   UNL A   1      39.532  28.331  28.052  1.00  0.00     0.031 C 
ATOM     41  C   UNL A   1      43.702  27.183  30.603  1.00  0.00     0.029 A 
ATOM     42  N   UNL A   1      42.189  28.477  31.626  1.00  0.00    -0.354 N 
ATOM     43  C   UNL A   1      38.535  29.630  29.651  1.00  0.00     0.074 A 
ATOM     44  C   UNL A   1      38.483  29.099  28.306  1.00  0.00     0.031 C 
ATOM     45  C   UNL A   1      44.183  27.489  31.821  1.00  0.00     0.029 A 
ATOM     46  C   UNL A   1      43.241  28.373  32.504  1.00  0.00     0.049 A 
ATOM     47  H   UNL A   1      41.361  28.970  31.830  1.00  0.00     0.167 HD
ATOM     48  C   UNL A   1      37.566  30.400  30.202  1.00  0.00     0.034 A 
ATOM     49  C   UNL A   1      43.429  28.944  33.710  1.00  0.00     0.034 A 
ATOM     50  C   UNL A   1      37.614  30.923  31.541  1.00  0.00     0.049 A 
ATOM     51  C   UNL A   1      42.358  29.836  34.287  1.00  0.00     0.074 A 
ATOM     52  C   UNL A   1      36.657  31.664  32.210  1.00  0.00     0.029 A 
ATOM     53  N   UNL A   1      38.689  30.785  32.406  1.00  0.00    -0.354 N 
ATOM     54  N   UNL A   1      41.186  30.148  33.791  1.00  0.00    -0.248 NA
ATOM     55  C   UNL A   1      42.628  30.430  35.605  1.00  0.00     0.031 C 
ATOM     56  C   UNL A   1      37.173  32.016  33.463  1.00  0.00     0.029 A 
ATOM     57  C   UNL A   1      38.431  31.449  33.594  1.00  0.00     0.049 A 
ATOM     58  H   UNL A   1      39.514  30.288  32.206  1.00  0.00     0.167 HD
ATOM     59  C   UNL A   1      40.560  30.938  34.752  1.00  0.00     0.074 A 
ATOM     60  C   UNL A   1      41.482  31.046  35.864  1.00  0.00     0.031 C 
ATOM     61  C   UNL A   1      39.336  31.520  34.715  1.00  0.00     0.034 A 
BRANCH  48  62
ATOM     62  C   UNL A   1      36.371  30.730  29.342  1.00  0.00     0.023 A 
ATOM     63  C   UNL A   1      35.662  29.699  28.691  1.00  0.00     0.012 A 
ATOM     64  C   UNL A   1      35.944  32.063  29.188  1.00  0.00     0.148 A 
ATOM     65  C   UNL A   1      34.582  29.995  27.858  1.00  0.00     0.002 A 
ATOM     66  C   UNL A   1      34.836  32.345  28.399  1.00  0.00     0.091 A 
ATOM     67  F   UNL A   1      36.642  33.033  29.796  1.00  0.00    -0.205 F 
ATOM     68  C   UNL A   1      34.165  31.316  27.719  1.00  0.00     0.022 A 
BRANCH  66  69
ATOM     69  S   UNL A   1      34.173  34.005  28.227  1.00  0.00     0.127 S 
ATOM     70  O   UNL A   1      35.018  34.552  27.167  1.00  0.00    -0.237 OA
ATOM     71  O   UNL A   1      32.789  33.744  27.829  1.00  0.00    -0.237 OA
ATOM     72  O   UNL A   1      34.319  34.632  29.533  1.00  0.00    -0.744 OA
ENDBRANCH  66  69
ENDBRANCH  48  62
BRANCH  49  73
ATOM     73  C   UNL A   1      44.672  28.655  34.482  1.00  0.00     0.023 A 
ATOM     74  C   UNL A   1      44.700  27.546  35.351  1.00  0.00     0.012 A 
ATOM     75  C   UNL A   1      45.827  29.449  34.343  1.00  0.00     0.148 A 
ATOM     76  C   UNL A   1      45.848  27.247  36.086  1.00  0.00     0.002 A 
ATOM     77  C   UNL A   1      46.982  29.115  35.038  1.00  0.00     0.091 A 
ATOM     78  F   UNL A   1      45.773  30.505  33.518  1.00  0.00    -0.205 F 
ATOM     79  C   UNL A   1      46.991  28.025  35.921  1.00  0.00     0.022 A 
BRANCH  77  80
ATOM     80  S   UNL A   1      48.537  29.988  34.811  1.00  0.00     0.127 S 
ATOM     81  O   UNL A   1      49.420  29.266  35.725  1.00  0.00    -0.237 OA
ATOM     82  O   UNL A   1      48.801  29.759  33.390  1.00  0.00    -0.237 OA
ATOM     83  O   UNL A   1      48.270  31.375  35.164  1.00  0.00    -0.744 OA
ENDBRANCH  77  80
ENDBRANCH  49  73
BRANCH  61  84
ATOM     84  C   UNL A   1      38.884  32.296  35.929  1.00  0.00     0.023 A 
ATOM     85  C   UNL A   1      37.998  31.713  36.856  1.00  0.00     0.012 A 
ATOM     86  C   UNL A   1      39.404  33.581  36.187  1.00  0.00     0.148 A 
ATOM     87  C   UNL A   1      37.608  32.410  38.001  1.00  0.00     0.002 A 
ATOM     88  C   UNL A   1      39.055  34.247  37.357  1.00  0.00     0.091 A 
ATOM     89  F   UNL A   1      40.234  34.127  35.287  1.00  0.00    -0.205 F 
ATOM     90  C   UNL A   1      38.146  33.670  38.256  1.00  0.00     0.022 A 
BRANCH  88  91
ATOM     91  S   UNL A   1      39.774  35.826  37.821  1.00  0.00     0.127 S 
ATOM     92  O   UNL A   1      41.174  35.463  38.039  1.00  0.00    -0.237 OA
ATOM     93  O   UNL A   1      39.534  36.638  36.628  1.00  0.00    -0.237 OA
ATOM     94  O   UNL A   1      39.052  36.266  39.007  1.00  0.00    -0.744 OA
ENDBRANCH  88  91
ENDBRANCH  61  84
ENDBRANCH  35  36
ENDBRANCH  28  30
ENDBRANCH  27  28
ENDBRANCH  26  27
ENDBRANCH  25  26
ENDBRANCH  24  25
ENDBRANCH   1  24
TORSDOF 22
ENDMDL
