MODEL 1
REMARK VINA RESULT:      -9.1      0.000      0.000
REMARK SMILES COCCn1nnc(C(=O)OCCOCCOCCOC(=O)c2ccc(-c3c4nc(c(-c5cccc(S(=O)(=O)[O-])c5F)c5ccc([nH]5)c(-c5cccc(S(=O)(=O)[O-])c5F)c5nc(c(-c6cccc(S(=O)(=O)[O-])c6F)c6ccc3[nH]6)C=C5)C=C4)cc2)c1C(F)(F)F
REMARK SMILES IDX 15 1 14 2 13 3 12 4 11 5 9 6 10 7 8 8 5 9 6 10 86 11 7 12
REMARK SMILES IDX 4 13 3 14 2 15 1 16 87 17 88 18 89 19 90 20 16 21 17 22
REMARK SMILES IDX 18 23 19 24 20 25 21 26 22 27 23 28 24 29 85 30 25 31 84 32
REMARK SMILES IDX 26 33 27 34 28 35 78 36 29 37 83 38 77 39 79 40 30 41 82 42
REMARK SMILES IDX 76 43 75 44 31 46 63 47 43 48 62 49 44 50 47 51 61 52 80 53
REMARK SMILES IDX 45 54 46 55 60 57 81 58 48 59 32 60 33 61 41 62 34 63 36 64
REMARK SMILES IDX 42 65 35 66 37 67 38 68 39 69 40 70 64 71 65 72 73 73 66 74
REMARK SMILES IDX 68 75 74 76 67 77 69 78 70 79 71 80 72 81 49 82 50 83 58 84
REMARK SMILES IDX 51 85 53 86 59 87 52 88 54 89 55 90 56 91 57 92
REMARK H PARENT 79 45 47 56
REMARK Flexibility Score: inf
ROOT
ATOM      1  C   UNL A   1      35.490  21.904  25.990  1.00  0.00     0.188 C 
ENDROOT
BRANCH   1   2
ATOM      2  O   UNL A   1      34.705  22.346  27.090  1.00  0.00    -0.376 OA
BRANCH   2   3
ATOM      3  C   UNL A   1      33.323  22.633  26.912  1.00  0.00     0.202 C 
BRANCH   3   4
ATOM      4  C   UNL A   1      32.504  21.831  25.880  1.00  0.00     0.261 C 
BRANCH   4   5
ATOM      5  O   UNL A   1      31.511  22.590  25.161  1.00  0.00    -0.458 OA
BRANCH   5   6
ATOM      6  C   UNL A   1      31.884  23.094  23.950  1.00  0.00     0.361 C 
ATOM      7  O   UNL A   1      31.688  22.531  22.883  1.00  0.00    -0.244 OA
BRANCH   6   8
ATOM      8  C   UNL A   1      32.441  24.443  24.037  1.00  0.00     0.203 A 
ATOM      9  N   UNL A   1      32.857  26.579  24.160  1.00  0.00    -0.237 N 
ATOM     10  N   UNL A   1      34.008  25.959  23.856  1.00  0.00    -0.066 NA
ATOM     11  C   UNL A   1      31.840  25.664  24.306  1.00  0.00     0.177 A 
ATOM     12  N   UNL A   1      33.774  24.662  23.786  1.00  0.00    -0.122 NA
BRANCH   9  13
ATOM     13  C   UNL A   1      32.833  28.025  24.323  1.00  0.00     0.175 C 
BRANCH  13  14
ATOM     14  C   UNL A   1      33.681  28.597  25.470  1.00  0.00     0.183 C 
BRANCH  14  15
ATOM     15  O   UNL A   1      33.214  29.860  25.949  1.00  0.00    -0.383 OA
ATOM     16  C   UNL A   1      31.828  30.081  25.722  1.00  0.00     0.194 C 
ENDBRANCH  14  15
ENDBRANCH  13  14
ENDBRANCH   9  13
BRANCH  11  17
ATOM     17  C   UNL A   1      30.464  26.005  24.677  1.00  0.00     0.435 C 
ATOM     18  F   UNL A   1      29.594  25.854  23.657  1.00  0.00    -0.164 F 
ATOM     19  F   UNL A   1      30.020  25.262  25.720  1.00  0.00    -0.164 F 
ATOM     20  F   UNL A   1      30.353  27.300  25.076  1.00  0.00    -0.164 F 
ENDBRANCH  11  17
ENDBRANCH   6   8
ENDBRANCH   5   6
ENDBRANCH   4   5
ENDBRANCH   3   4
ENDBRANCH   2   3
ENDBRANCH   1   2
BRANCH   1  21
ATOM     21  C   UNL A   1      36.858  22.558  25.700  1.00  0.00     0.188 C 
BRANCH  21  22
ATOM     22  O   UNL A   1      37.787  21.697  25.065  1.00  0.00    -0.376 OA
BRANCH  22  23
ATOM     23  C   UNL A   1      38.986  21.353  25.748  1.00  0.00     0.202 C 
BRANCH  23  24
ATOM     24  C   UNL A   1      39.681  22.423  26.587  1.00  0.00     0.261 C 
BRANCH  24  25
ATOM     25  O   UNL A   1      41.085  22.477  26.419  1.00  0.00    -0.460 OA
BRANCH  25  26
ATOM     26  C   UNL A   1      41.590  23.710  26.218  1.00  0.00     0.338 C 
ATOM     27  O   UNL A   1      42.305  24.074  25.305  1.00  0.00    -0.246 OA
BRANCH  26  28
ATOM     28  C   UNL A   1      41.186  24.538  27.354  1.00  0.00     0.060 A 
ATOM     29  C   UNL A   1      40.086  25.381  27.177  1.00  0.00     0.016 A 
ATOM     30  C   UNL A   1      42.099  24.695  28.406  1.00  0.00     0.016 A 
ATOM     31  C   UNL A   1      40.033  26.535  27.924  1.00  0.00     0.010 A 
ATOM     32  C   UNL A   1      42.070  25.861  29.117  1.00  0.00     0.010 A 
ATOM     33  C   UNL A   1      41.087  26.797  28.802  1.00  0.00    -0.014 A 
BRANCH  33  34
ATOM     34  C   UNL A   1      41.189  28.109  29.387  1.00  0.00     0.031 A 
ATOM     35  C   UNL A   1      42.190  28.976  28.744  1.00  0.00     0.074 A 
ATOM     36  C   UNL A   1      40.310  28.516  30.321  1.00  0.00     0.049 A 
ATOM     37  N   UNL A   1      43.285  29.420  29.263  1.00  0.00    -0.248 NA
ATOM     38  C   UNL A   1      42.041  29.249  27.308  1.00  0.00     0.031 C 
ATOM     39  C   UNL A   1      39.101  27.819  30.774  1.00  0.00     0.029 A 
ATOM     40  N   UNL A   1      40.227  29.722  30.939  1.00  0.00    -0.354 N 
ATOM     41  C   UNL A   1      43.835  30.234  28.282  1.00  0.00     0.074 A 
ATOM     42  C   UNL A   1      43.172  29.904  27.049  1.00  0.00     0.031 C 
ATOM     43  C   UNL A   1      38.288  28.710  31.386  1.00  0.00     0.029 A 
ATOM     44  C   UNL A   1      38.968  29.992  31.459  1.00  0.00     0.049 A 
ATOM     45  H   UNL A   1      40.986  30.346  31.010  1.00  0.00     0.167 HD
ATOM     46  C   UNL A   1      44.580  31.323  28.607  1.00  0.00     0.034 A 
ATOM     47  C   UNL A   1      38.498  31.209  31.827  1.00  0.00     0.034 A 
ATOM     48  C   UNL A   1      44.997  31.298  29.984  1.00  0.00     0.049 A 
ATOM     49  C   UNL A   1      39.669  32.103  32.003  1.00  0.00     0.074 A 
ATOM     50  C   UNL A   1      45.709  30.415  30.772  1.00  0.00     0.029 A 
ATOM     51  N   UNL A   1      44.342  32.142  30.848  1.00  0.00    -0.354 N 
ATOM     52  N   UNL A   1      40.531  31.981  32.974  1.00  0.00    -0.248 NA
ATOM     53  C   UNL A   1      40.122  32.887  30.864  1.00  0.00     0.031 C 
ATOM     54  C   UNL A   1      45.097  30.491  32.057  1.00  0.00     0.029 A 
ATOM     55  C   UNL A   1      44.076  31.440  31.993  1.00  0.00     0.049 A 
ATOM     56  H   UNL A   1      44.108  33.082  30.675  1.00  0.00     0.167 HD
ATOM     57  C   UNL A   1      41.758  32.263  32.385  1.00  0.00     0.074 A 
ATOM     58  C   UNL A   1      41.430  32.945  31.135  1.00  0.00     0.031 C 
ATOM     59  C   UNL A   1      42.902  31.649  32.814  1.00  0.00     0.034 A 
BRANCH  46  60
ATOM     60  C   UNL A   1      44.618  32.587  27.789  1.00  0.00     0.023 A 
ATOM     61  C   UNL A   1      45.725  32.768  26.934  1.00  0.00     0.012 A 
ATOM     62  C   UNL A   1      43.779  33.705  28.001  1.00  0.00     0.148 A 
ATOM     63  C   UNL A   1      46.000  34.008  26.350  1.00  0.00     0.002 A 
ATOM     64  C   UNL A   1      44.001  34.905  27.342  1.00  0.00     0.091 A 
ATOM     65  F   UNL A   1      42.841  33.675  28.955  1.00  0.00    -0.205 F 
ATOM     66  C   UNL A   1      45.130  35.074  26.540  1.00  0.00     0.022 A 
BRANCH  64  67
ATOM     67  S   UNL A   1      42.851  36.277  27.506  1.00  0.00     0.127 S 
ATOM     68  O   UNL A   1      43.052  36.664  28.898  1.00  0.00    -0.237 OA
ATOM     69  O   UNL A   1      43.366  37.224  26.516  1.00  0.00    -0.237 OA
ATOM     70  O   UNL A   1      41.546  35.721  27.170  1.00  0.00    -0.744 OA
ENDBRANCH  64  67
ENDBRANCH  46  60
BRANCH  47  71
ATOM     71  C   UNL A   1      37.110  31.721  31.848  1.00  0.00     0.023 A 
ATOM     72  C   UNL A   1      36.496  32.001  33.084  1.00  0.00     0.012 A 
ATOM     73  C   UNL A   1      36.469  32.168  30.671  1.00  0.00     0.148 A 
ATOM     74  C   UNL A   1      35.301  32.726  33.149  1.00  0.00     0.002 A 
ATOM     75  C   UNL A   1      35.272  32.874  30.739  1.00  0.00     0.091 A 
ATOM     76  F   UNL A   1      37.076  31.985  29.491  1.00  0.00    -0.205 F 
ATOM     77  C   UNL A   1      34.691  33.167  31.978  1.00  0.00     0.022 A 
BRANCH  75  78
ATOM     78  S   UNL A   1      34.437  33.480  29.264  1.00  0.00     0.127 S 
ATOM     79  O   UNL A   1      34.089  32.238  28.576  1.00  0.00    -0.237 OA
ATOM     80  O   UNL A   1      33.304  34.204  29.834  1.00  0.00    -0.237 OA
ATOM     81  O   UNL A   1      35.422  34.294  28.561  1.00  0.00    -0.744 OA
ENDBRANCH  75  78
ENDBRANCH  47  71
BRANCH  59  82
ATOM     82  C   UNL A   1      42.844  30.869  34.107  1.00  0.00     0.023 A 
ATOM     83  C   UNL A   1      42.912  31.504  35.365  1.00  0.00     0.012 A 
ATOM     84  C   UNL A   1      42.542  29.497  34.061  1.00  0.00     0.148 A 
ATOM     85  C   UNL A   1      42.723  30.786  36.547  1.00  0.00     0.002 A 
ATOM     86  C   UNL A   1      42.305  28.795  35.238  1.00  0.00     0.091 A 
ATOM     87  F   UNL A   1      42.469  28.900  32.862  1.00  0.00    -0.205 F 
ATOM     88  C   UNL A   1      42.407  29.433  36.484  1.00  0.00     0.022 A 
BRANCH  86  89
ATOM     89  S   UNL A   1      41.756  27.086  35.210  1.00  0.00     0.127 S 
ATOM     90  O   UNL A   1      43.005  26.366  34.977  1.00  0.00    -0.237 OA
ATOM     91  O   UNL A   1      41.190  26.910  36.549  1.00  0.00    -0.237 OA
ATOM     92  O   UNL A   1      40.770  27.008  34.139  1.00  0.00    -0.744 OA
ENDBRANCH  86  89
ENDBRANCH  59  82
ENDBRANCH  33  34
ENDBRANCH  26  28
ENDBRANCH  25  26
ENDBRANCH  24  25
ENDBRANCH  23  24
ENDBRANCH  22  23
ENDBRANCH  21  22
ENDBRANCH   1  21
TORSDOF 24
ENDMDL
MODEL 2
REMARK VINA RESULT:      -8.9      2.385      2.842
REMARK SMILES COCCn1nnc(C(=O)OCCOCCOCCOC(=O)c2ccc(-c3c4nc(c(-c5cccc(S(=O)(=O)[O-])c5F)c5ccc([nH]5)c(-c5cccc(S(=O)(=O)[O-])c5F)c5nc(c(-c6cccc(S(=O)(=O)[O-])c6F)c6ccc3[nH]6)C=C5)C=C4)cc2)c1C(F)(F)F
REMARK SMILES IDX 15 1 14 2 13 3 12 4 11 5 9 6 10 7 8 8 5 9 6 10 86 11 7 12
REMARK SMILES IDX 4 13 3 14 2 15 1 16 87 17 88 18 89 19 90 20 16 21 17 22
REMARK SMILES IDX 18 23 19 24 20 25 21 26 22 27 23 28 24 29 85 30 25 31 84 32
REMARK SMILES IDX 26 33 27 34 28 35 78 36 29 37 83 38 77 39 79 40 30 41 82 42
REMARK SMILES IDX 76 43 75 44 31 46 63 47 43 48 62 49 44 50 47 51 61 52 80 53
REMARK SMILES IDX 45 54 46 55 60 57 81 58 48 59 32 60 33 61 41 62 34 63 36 64
REMARK SMILES IDX 42 65 35 66 37 67 38 68 39 69 40 70 64 71 65 72 73 73 66 74
REMARK SMILES IDX 68 75 74 76 67 77 69 78 70 79 71 80 72 81 49 82 50 83 58 84
REMARK SMILES IDX 51 85 53 86 59 87 52 88 54 89 55 90 56 91 57 92
REMARK H PARENT 79 45 47 56
REMARK Flexibility Score: inf
ROOT
ATOM      1  C   UNL A   1      35.989  21.081  25.626  1.00  0.00     0.188 C 
ENDROOT
BRANCH   1   2
ATOM      2  O   UNL A   1      34.790  21.822  25.814  1.00  0.00    -0.376 OA
BRANCH   2   3
ATOM      3  C   UNL A   1      33.564  21.146  26.068  1.00  0.00     0.202 C 
BRANCH   3   4
ATOM      4  C   UNL A   1      32.328  21.455  25.199  1.00  0.00     0.261 C 
BRANCH   4   5
ATOM      5  O   UNL A   1      31.639  22.679  25.526  1.00  0.00    -0.458 OA
BRANCH   5   6
ATOM      6  C   UNL A   1      31.494  23.586  24.519  1.00  0.00     0.361 C 
ATOM      7  O   UNL A   1      30.773  23.422  23.545  1.00  0.00    -0.244 OA
BRANCH   6   8
ATOM      8  C   UNL A   1      32.197  24.843  24.772  1.00  0.00     0.203 A 
ATOM      9  N   UNL A   1      33.122  26.816  24.747  1.00  0.00    -0.237 N 
ATOM     10  N   UNL A   1      33.614  26.152  25.805  1.00  0.00    -0.066 NA
ATOM     11  C   UNL A   1      32.207  26.042  24.074  1.00  0.00     0.177 A 
ATOM     12  N   UNL A   1      33.055  24.956  25.838  1.00  0.00    -0.122 NA
BRANCH   9  13
ATOM     13  C   UNL A   1      33.554  28.180  24.484  1.00  0.00     0.175 C 
BRANCH  13  14
ATOM     14  C   UNL A   1      32.740  29.297  25.157  1.00  0.00     0.183 C 
BRANCH  14  15
ATOM     15  O   UNL A   1      33.514  30.119  26.033  1.00  0.00    -0.383 OA
ATOM     16  C   UNL A   1      33.027  30.146  27.370  1.00  0.00     0.194 C 
ENDBRANCH  14  15
ENDBRANCH  13  14
ENDBRANCH   9  13
BRANCH  11  17
ATOM     17  C   UNL A   1      31.454  26.482  22.896  1.00  0.00     0.435 C 
ATOM     18  F   UNL A   1      30.121  26.321  23.036  1.00  0.00    -0.164 F 
ATOM     19  F   UNL A   1      31.689  27.783  22.599  1.00  0.00    -0.164 F 
ATOM     20  F   UNL A   1      31.801  25.783  21.783  1.00  0.00    -0.164 F 
ENDBRANCH  11  17
ENDBRANCH   6   8
ENDBRANCH   5   6
ENDBRANCH   4   5
ENDBRANCH   3   4
ENDBRANCH   2   3
ENDBRANCH   1   2
BRANCH   1  21
ATOM     21  C   UNL A   1      37.253  21.775  25.075  1.00  0.00     0.188 C 
BRANCH  21  22
ATOM     22  O   UNL A   1      38.435  21.004  25.197  1.00  0.00    -0.376 OA
BRANCH  22  23
ATOM     23  C   UNL A   1      39.494  21.490  26.013  1.00  0.00     0.202 C 
BRANCH  23  24
ATOM     24  C   UNL A   1      39.367  22.886  26.619  1.00  0.00     0.261 C 
BRANCH  24  25
ATOM     25  O   UNL A   1      40.419  23.242  27.495  1.00  0.00    -0.460 OA
BRANCH  25  26
ATOM     26  C   UNL A   1      41.148  24.309  27.110  1.00  0.00     0.338 C 
ATOM     27  O   UNL A   1      42.257  24.303  26.611  1.00  0.00    -0.246 OA
BRANCH  26  28
ATOM     28  C   UNL A   1      40.393  25.508  27.474  1.00  0.00     0.060 A 
ATOM     29  C   UNL A   1      40.428  26.585  26.585  1.00  0.00     0.016 A 
ATOM     30  C   UNL A   1      39.976  25.638  28.806  1.00  0.00     0.016 A 
ATOM     31  C   UNL A   1      40.266  27.849  27.100  1.00  0.00     0.010 A 
ATOM     32  C   UNL A   1      39.861  26.896  29.325  1.00  0.00     0.010 A 
ATOM     33  C   UNL A   1      40.093  27.979  28.480  1.00  0.00    -0.014 A 
BRANCH  33  34
ATOM     34  C   UNL A   1      40.193  29.289  29.069  1.00  0.00     0.031 A 
ATOM     35  C   UNL A   1      41.507  29.928  28.890  1.00  0.00     0.074 A 
ATOM     36  C   UNL A   1      39.106  29.900  29.576  1.00  0.00     0.049 A 
ATOM     37  N   UNL A   1      42.367  30.211  29.809  1.00  0.00    -0.248 NA
ATOM     38  C   UNL A   1      41.992  30.129  27.518  1.00  0.00     0.031 C 
ATOM     39  C   UNL A   1      37.711  29.452  29.498  1.00  0.00     0.029 A 
ATOM     40  N   UNL A   1      39.007  31.140  30.119  1.00  0.00    -0.354 N 
ATOM     41  C   UNL A   1      43.400  30.853  29.140  1.00  0.00     0.074 A 
ATOM     42  C   UNL A   1      43.231  30.563  27.741  1.00  0.00     0.031 C 
ATOM     43  C   UNL A   1      36.900  30.506  29.741  1.00  0.00     0.029 A 
ATOM     44  C   UNL A   1      37.717  31.655  30.093  1.00  0.00     0.049 A 
ATOM     45  H   UNL A   1      39.776  31.628  30.496  1.00  0.00     0.167 HD
ATOM     46  C   UNL A   1      44.140  31.817  29.746  1.00  0.00     0.034 A 
ATOM     47  C   UNL A   1      37.371  32.955  30.253  1.00  0.00     0.034 A 
ATOM     48  C   UNL A   1      43.966  31.811  31.175  1.00  0.00     0.049 A 
ATOM     49  C   UNL A   1      38.519  33.645  30.892  1.00  0.00     0.074 A 
ATOM     50  C   UNL A   1      44.132  30.873  32.174  1.00  0.00     0.029 A 
ATOM     51  N   UNL A   1      43.188  32.809  31.712  1.00  0.00    -0.354 N 
ATOM     52  N   UNL A   1      38.887  33.441  32.126  1.00  0.00    -0.248 NA
ATOM     53  C   UNL A   1      39.521  34.265  30.039  1.00  0.00     0.031 C 
ATOM     54  C   UNL A   1      43.087  31.134  33.106  1.00  0.00     0.029 A 
ATOM     55  C   UNL A   1      42.366  32.239  32.647  1.00  0.00     0.049 A 
ATOM     56  H   UNL A   1      43.217  33.762  31.468  1.00  0.00     0.167 HD
ATOM     57  C   UNL A   1      40.276  33.470  32.083  1.00  0.00     0.074 A 
ATOM     58  C   UNL A   1      40.601  34.115  30.812  1.00  0.00     0.031 C 
ATOM     59  C   UNL A   1      41.023  32.698  32.929  1.00  0.00     0.034 A 
BRANCH  46  60
ATOM     60  C   UNL A   1      44.730  33.000  29.025  1.00  0.00     0.023 A 
ATOM     61  C   UNL A   1      46.130  33.163  29.090  1.00  0.00     0.012 A 
ATOM     62  C   UNL A   1      43.979  34.086  28.516  1.00  0.00     0.148 A 
ATOM     63  C   UNL A   1      46.744  34.357  28.701  1.00  0.00     0.002 A 
ATOM     64  C   UNL A   1      44.603  35.230  28.039  1.00  0.00     0.091 A 
ATOM     65  F   UNL A   1      42.645  34.091  28.620  1.00  0.00    -0.205 F 
ATOM     66  C   UNL A   1      45.984  35.385  28.160  1.00  0.00     0.022 A 
BRANCH  64  67
ATOM     67  S   UNL A   1      43.654  36.545  27.265  1.00  0.00     0.127 S 
ATOM     68  O   UNL A   1      44.700  37.505  26.932  1.00  0.00    -0.237 OA
ATOM     69  O   UNL A   1      43.056  35.855  26.121  1.00  0.00    -0.237 OA
ATOM     70  O   UNL A   1      42.689  36.962  28.275  1.00  0.00    -0.744 OA
ENDBRANCH  64  67
ENDBRANCH  46  60
BRANCH  47  71
ATOM     71  C   UNL A   1      36.208  33.698  29.719  1.00  0.00     0.023 A 
ATOM     72  C   UNL A   1      35.739  33.408  28.424  1.00  0.00     0.012 A 
ATOM     73  C   UNL A   1      35.405  34.510  30.551  1.00  0.00     0.148 A 
ATOM     74  C   UNL A   1      34.500  33.885  27.980  1.00  0.00     0.002 A 
ATOM     75  C   UNL A   1      34.181  34.996  30.100  1.00  0.00     0.091 A 
ATOM     76  F   UNL A   1      35.791  34.730  31.814  1.00  0.00    -0.205 F 
ATOM     77  C   UNL A   1      33.719  34.674  28.819  1.00  0.00     0.022 A 
BRANCH  75  78
ATOM     78  S   UNL A   1      33.119  36.013  31.137  1.00  0.00     0.127 S 
ATOM     79  O   UNL A   1      32.331  36.745  30.145  1.00  0.00    -0.237 OA
ATOM     80  O   UNL A   1      32.375  35.006  31.889  1.00  0.00    -0.237 OA
ATOM     81  O   UNL A   1      34.019  36.853  31.918  1.00  0.00    -0.744 OA
ENDBRANCH  75  78
ENDBRANCH  47  71
BRANCH  59  82
ATOM     82  C   UNL A   1      40.315  32.025  34.082  1.00  0.00     0.023 A 
ATOM     83  C   UNL A   1      40.096  30.630  34.111  1.00  0.00     0.012 A 
ATOM     84  C   UNL A   1      40.021  32.776  35.233  1.00  0.00     0.148 A 
ATOM     85  C   UNL A   1      39.562  30.008  35.239  1.00  0.00     0.002 A 
ATOM     86  C   UNL A   1      39.537  32.145  36.374  1.00  0.00     0.091 A 
ATOM     87  F   UNL A   1      40.241  34.099  35.203  1.00  0.00    -0.205 F 
ATOM     88  C   UNL A   1      39.294  30.762  36.376  1.00  0.00     0.022 A 
BRANCH  86  89
ATOM     89  S   UNL A   1      39.307  33.043  37.910  1.00  0.00     0.127 S 
ATOM     90  O   UNL A   1      40.676  33.426  38.249  1.00  0.00    -0.237 OA
ATOM     91  O   UNL A   1      38.445  34.155  37.505  1.00  0.00    -0.237 OA
ATOM     92  O   UNL A   1      38.667  32.104  38.823  1.00  0.00    -0.744 OA
ENDBRANCH  86  89
ENDBRANCH  59  82
ENDBRANCH  33  34
ENDBRANCH  26  28
ENDBRANCH  25  26
ENDBRANCH  24  25
ENDBRANCH  23  24
ENDBRANCH  22  23
ENDBRANCH  21  22
ENDBRANCH   1  21
TORSDOF 24
ENDMDL
MODEL 3
REMARK VINA RESULT:      -8.7      4.552      8.463
REMARK SMILES COCCn1nnc(C(=O)OCCOCCOCCOC(=O)c2ccc(-c3c4nc(c(-c5cccc(S(=O)(=O)[O-])c5F)c5ccc([nH]5)c(-c5cccc(S(=O)(=O)[O-])c5F)c5nc(c(-c6cccc(S(=O)(=O)[O-])c6F)c6ccc3[nH]6)C=C5)C=C4)cc2)c1C(F)(F)F
REMARK SMILES IDX 15 1 14 2 13 3 12 4 11 5 9 6 10 7 8 8 5 9 6 10 86 11 7 12
REMARK SMILES IDX 4 13 3 14 2 15 1 16 87 17 88 18 89 19 90 20 16 21 17 22
REMARK SMILES IDX 18 23 19 24 20 25 21 26 22 27 23 28 24 29 85 30 25 31 84 32
REMARK SMILES IDX 26 33 27 34 28 35 78 36 29 37 83 38 77 39 79 40 30 41 82 42
REMARK SMILES IDX 76 43 75 44 31 46 63 47 43 48 62 49 44 50 47 51 61 52 80 53
REMARK SMILES IDX 45 54 46 55 60 57 81 58 48 59 32 60 33 61 41 62 34 63 36 64
REMARK SMILES IDX 42 65 35 66 37 67 38 68 39 69 40 70 64 71 65 72 73 73 66 74
REMARK SMILES IDX 68 75 74 76 67 77 69 78 70 79 71 80 72 81 49 82 50 83 58 84
REMARK SMILES IDX 51 85 53 86 59 87 52 88 54 89 55 90 56 91 57 92
REMARK H PARENT 79 45 47 56
REMARK Flexibility Score: inf
ROOT
ATOM      1  C   UNL A   1      43.757  22.846  24.973  1.00  0.00     0.188 C 
ENDROOT
BRANCH   1   2
ATOM      2  O   UNL A   1      44.894  23.411  24.333  1.00  0.00    -0.376 OA
BRANCH   2   3
ATOM      3  C   UNL A   1      46.098  23.613  25.064  1.00  0.00     0.202 C 
BRANCH   3   4
ATOM      4  C   UNL A   1      46.055  24.349  26.418  1.00  0.00     0.261 C 
BRANCH   4   5
ATOM      5  O   UNL A   1      47.013  23.896  27.395  1.00  0.00    -0.458 OA
BRANCH   5   6
ATOM      6  C   UNL A   1      47.589  24.852  28.178  1.00  0.00     0.361 C 
ATOM      7  O   UNL A   1      47.110  25.261  29.226  1.00  0.00    -0.244 OA
BRANCH   6   8
ATOM      8  C   UNL A   1      48.909  25.264  27.703  1.00  0.00     0.203 A 
ATOM      9  N   UNL A   1      50.661  26.203  26.808  1.00  0.00    -0.237 N 
ATOM     10  N   UNL A   1      51.023  24.976  27.214  1.00  0.00    -0.066 NA
ATOM     11  C   UNL A   1      49.341  26.443  27.113  1.00  0.00     0.177 A 
ATOM     12  N   UNL A   1      49.973  24.397  27.767  1.00  0.00    -0.122 NA
BRANCH   9  13
ATOM     13  C   UNL A   1      51.640  27.077  26.180  1.00  0.00     0.175 C 
BRANCH  13  14
ATOM     14  C   UNL A   1      53.007  27.183  26.875  1.00  0.00     0.183 C 
BRANCH  14  15
ATOM     15  O   UNL A   1      53.172  26.260  27.953  1.00  0.00    -0.383 OA
ATOM     16  C   UNL A   1      53.587  26.870  29.170  1.00  0.00     0.194 C 
ENDBRANCH  14  15
ENDBRANCH  13  14
ENDBRANCH   9  13
BRANCH  11  17
ATOM     17  C   UNL A   1      48.643  27.702  26.842  1.00  0.00     0.435 C 
ATOM     18  F   UNL A   1      49.121  28.344  25.756  1.00  0.00    -0.164 F 
ATOM     19  F   UNL A   1      47.311  27.518  26.668  1.00  0.00    -0.164 F 
ATOM     20  F   UNL A   1      48.759  28.578  27.876  1.00  0.00    -0.164 F 
ENDBRANCH  11  17
ENDBRANCH   6   8
ENDBRANCH   5   6
ENDBRANCH   4   5
ENDBRANCH   3   4
ENDBRANCH   2   3
ENDBRANCH   1   2
BRANCH   1  21
ATOM     21  C   UNL A   1      43.710  21.335  25.282  1.00  0.00     0.188 C 
BRANCH  21  22
ATOM     22  O   UNL A   1      42.842  20.989  26.347  1.00  0.00    -0.376 OA
BRANCH  22  23
ATOM     23  C   UNL A   1      41.847  19.996  26.131  1.00  0.00     0.202 C 
BRANCH  23  24
ATOM     24  C   UNL A   1      40.398  20.325  26.485  1.00  0.00     0.261 C 
BRANCH  24  25
ATOM     25  O   UNL A   1      40.246  21.428  27.358  1.00  0.00    -0.460 OA
BRANCH  25  26
ATOM     26  C   UNL A   1      39.572  22.476  26.843  1.00  0.00     0.338 C 
ATOM     27  O   UNL A   1      38.458  22.469  26.357  1.00  0.00    -0.246 OA
BRANCH  26  28
ATOM     28  C   UNL A   1      40.461  23.637  26.900  1.00  0.00     0.060 A 
ATOM     29  C   UNL A   1      41.502  23.606  27.831  1.00  0.00     0.016 A 
ATOM     30  C   UNL A   1      40.029  24.820  26.285  1.00  0.00     0.016 A 
ATOM     31  C   UNL A   1      41.958  24.806  28.325  1.00  0.00     0.010 A 
ATOM     32  C   UNL A   1      40.450  26.010  26.808  1.00  0.00     0.010 A 
ATOM     33  C   UNL A   1      41.343  25.976  27.878  1.00  0.00    -0.014 A 
BRANCH  33  34
ATOM     34  C   UNL A   1      41.614  27.209  28.572  1.00  0.00     0.031 A 
ATOM     35  C   UNL A   1      42.824  27.906  28.105  1.00  0.00     0.074 A 
ATOM     36  C   UNL A   1      40.722  27.719  29.441  1.00  0.00     0.049 A 
ATOM     37  N   UNL A   1      43.913  28.104  28.767  1.00  0.00    -0.248 NA
ATOM     38  C   UNL A   1      42.893  28.286  26.687  1.00  0.00     0.031 C 
ATOM     39  C   UNL A   1      39.362  27.239  29.711  1.00  0.00     0.029 A 
ATOM     40  N   UNL A   1      40.789  28.881  30.140  1.00  0.00    -0.354 N 
ATOM     41  C   UNL A   1      44.712  28.855  27.915  1.00  0.00     0.074 A 
ATOM     42  C   UNL A   1      44.146  28.729  26.598  1.00  0.00     0.031 C 
ATOM     43  C   UNL A   1      38.660  28.230  30.305  1.00  0.00     0.029 A 
ATOM     44  C   UNL A   1      39.548  29.354  30.548  1.00  0.00     0.049 A 
ATOM     45  H   UNL A   1      41.635  29.345  30.337  1.00  0.00     0.167 HD
ATOM     46  C   UNL A   1      45.599  29.762  28.399  1.00  0.00     0.034 A 
ATOM     47  C   UNL A   1      39.268  30.614  30.961  1.00  0.00     0.034 A 
ATOM     48  C   UNL A   1      45.844  29.578  29.805  1.00  0.00     0.049 A 
ATOM     49  C   UNL A   1      40.554  31.258  31.326  1.00  0.00     0.074 A 
ATOM     50  C   UNL A   1      46.287  28.532  30.590  1.00  0.00     0.029 A 
ATOM     51  N   UNL A   1      45.258  30.479  30.662  1.00  0.00    -0.354 N 
ATOM     52  N   UNL A   1      41.262  30.919  32.367  1.00  0.00    -0.248 NA
ATOM     53  C   UNL A   1      41.271  32.008  30.304  1.00  0.00     0.031 C 
ATOM     54  C   UNL A   1      45.556  28.646  31.807  1.00  0.00     0.029 A 
ATOM     55  C   UNL A   1      44.738  29.774  31.715  1.00  0.00     0.049 A 
ATOM     56  H   UNL A   1      45.220  31.455  30.541  1.00  0.00     0.167 HD
ATOM     57  C   UNL A   1      42.579  30.997  31.931  1.00  0.00     0.074 A 
ATOM     58  C   UNL A   1      42.527  31.800  30.712  1.00  0.00     0.031 C 
ATOM     59  C   UNL A   1      43.535  30.153  32.425  1.00  0.00     0.034 A 
BRANCH  46  60
ATOM     60  C   UNL A   1      45.961  31.041  27.692  1.00  0.00     0.023 A 
ATOM     61  C   UNL A   1      47.333  31.345  27.571  1.00  0.00     0.012 A 
ATOM     62  C   UNL A   1      45.043  32.070  27.376  1.00  0.00     0.148 A 
ATOM     63  C   UNL A   1      47.767  32.618  27.189  1.00  0.00     0.002 A 
ATOM     64  C   UNL A   1      45.478  33.300  26.903  1.00  0.00     0.091 A 
ATOM     65  F   UNL A   1      43.745  31.930  27.667  1.00  0.00    -0.205 F 
ATOM     66  C   UNL A   1      46.841  33.592  26.839  1.00  0.00     0.022 A 
BRANCH  64  67
ATOM     67  S   UNL A   1      44.305  34.552  26.370  1.00  0.00     0.127 S 
ATOM     68  O   UNL A   1      45.195  35.630  25.950  1.00  0.00    -0.237 OA
ATOM     69  O   UNL A   1      43.602  33.867  25.284  1.00  0.00    -0.237 OA
ATOM     70  O   UNL A   1      43.474  34.816  27.538  1.00  0.00    -0.744 OA
ENDBRANCH  64  67
ENDBRANCH  46  60
BRANCH  47  71
ATOM     71  C   UNL A   1      38.003  31.378  30.880  1.00  0.00     0.023 A 
ATOM     72  C   UNL A   1      37.065  31.054  29.882  1.00  0.00     0.012 A 
ATOM     73  C   UNL A   1      37.600  32.252  31.914  1.00  0.00     0.148 A 
ATOM     74  C   UNL A   1      35.760  31.559  29.926  1.00  0.00     0.002 A 
ATOM     75  C   UNL A   1      36.307  32.765  31.946  1.00  0.00     0.091 A 
ATOM     76  F   UNL A   1      38.449  32.507  32.917  1.00  0.00    -0.205 F 
ATOM     77  C   UNL A   1      35.379  32.410  30.960  1.00  0.00     0.022 A 
BRANCH  75  78
ATOM     78  S   UNL A   1      35.748  33.862  33.258  1.00  0.00     0.127 S 
ATOM     79  O   UNL A   1      34.445  34.299  32.759  1.00  0.00    -0.237 OA
ATOM     80  O   UNL A   1      35.694  32.959  34.405  1.00  0.00    -0.237 OA
ATOM     81  O   UNL A   1      36.743  34.925  33.333  1.00  0.00    -0.744 OA
ENDBRANCH  75  78
ENDBRANCH  47  71
BRANCH  59  82
ATOM     82  C   UNL A   1      43.187  29.324  33.639  1.00  0.00     0.023 A 
ATOM     83  C   UNL A   1      42.351  28.190  33.553  1.00  0.00     0.012 A 
ATOM     84  C   UNL A   1      43.848  29.582  34.853  1.00  0.00     0.148 A 
ATOM     85  C   UNL A   1      42.147  27.359  34.656  1.00  0.00     0.002 A 
ATOM     86  C   UNL A   1      43.683  28.724  35.934  1.00  0.00     0.091 A 
ATOM     87  F   UNL A   1      44.650  30.655  34.925  1.00  0.00    -0.205 F 
ATOM     88  C   UNL A   1      42.823  27.618  35.843  1.00  0.00     0.022 A 
BRANCH  86  89
ATOM     89  S   UNL A   1      44.636  28.928  37.441  1.00  0.00     0.127 S 
ATOM     90  O   UNL A   1      44.270  27.734  38.200  1.00  0.00    -0.237 OA
ATOM     91  O   UNL A   1      46.015  28.940  36.948  1.00  0.00    -0.237 OA
ATOM     92  O   UNL A   1      44.203  30.199  38.010  1.00  0.00    -0.744 OA
ENDBRANCH  86  89
ENDBRANCH  59  82
ENDBRANCH  33  34
ENDBRANCH  26  28
ENDBRANCH  25  26
ENDBRANCH  24  25
ENDBRANCH  23  24
ENDBRANCH  22  23
ENDBRANCH  21  22
ENDBRANCH   1  21
TORSDOF 24
ENDMDL
