MODEL 1
REMARK VINA RESULT:      -9.3      0.000      0.000
REMARK SMILES COc1cc([C@H]([NH3+])CC(=O)OCCOCCOCCOC(=O)c2ccc(-c3c4nc(c(-c5cccc(S(=O)(=O)[O-])c5F)c5ccc([nH]5)c(-c5cccc(S(=O)(=O)[O-])c5F)c5nc(c(-c6cccc(S(=O)(=O)[O-])c6F)c6ccc3[nH]6)C=C5)C=C4)cc2)c([N+](=O)[O-])cc1OC
REMARK SMILES IDX 15 1 14 2 13 3 12 4 11 5 9 6 10 7 8 8 6 9 5 10 3 11 4 12
REMARK SMILES IDX 91 13 90 14 86 15 2 16 1 17 92 18 93 19 87 20 88 21 89 22
REMARK SMILES IDX 7 23 16 27 17 28 18 29 19 30 20 31 21 32 22 33 23 34 24 35
REMARK SMILES IDX 85 36 25 37 84 38 26 39 27 40 28 41 78 42 29 43 83 44 77 45
REMARK SMILES IDX 79 46 30 47 82 48 76 49 75 50 31 52 63 53 43 54 62 55 44 56
REMARK SMILES IDX 47 57 61 58 80 59 45 60 46 61 60 63 81 64 48 65 32 66 33 67
REMARK SMILES IDX 41 68 34 69 36 70 42 71 35 72 37 73 38 74 39 75 40 76 64 77
REMARK SMILES IDX 65 78 73 79 66 80 68 81 74 82 67 83 69 84 70 85 71 86 72 87
REMARK SMILES IDX 49 88 50 89 58 90 51 91 53 92 59 93 52 94 54 95 55 96 56 97
REMARK SMILES IDX 57 98
REMARK H PARENT 7 24 7 25 7 26 79 51 47 62
REMARK Flexibility Score: inf
ROOT
ATOM      1  C   UNL A   1      33.598  28.785  26.419  1.00  0.00     0.188 C 
ENDROOT
BRANCH   1   2
ATOM      2  O   UNL A   1      32.835  27.809  27.125  1.00  0.00    -0.376 OA
BRANCH   2   3
ATOM      3  C   UNL A   1      32.055  26.913  26.331  1.00  0.00     0.202 C 
BRANCH   3   4
ATOM      4  C   UNL A   1      32.415  25.424  26.449  1.00  0.00     0.261 C 
BRANCH   4   5
ATOM      5  O   UNL A   1      31.263  24.573  26.646  1.00  0.00    -0.463 OA
BRANCH   5   6
ATOM      6  C   UNL A   1      31.195  23.495  25.825  1.00  0.00     0.312 C 
ATOM      7  O   UNL A   1      30.342  22.615  25.919  1.00  0.00    -0.252 OA
BRANCH   6   8
ATOM      8  C   UNL A   1      32.149  23.528  24.644  1.00  0.00     0.193 C 
BRANCH   8   9
ATOM      9  C   UNL A   1      31.671  23.850  23.215  1.00  0.00     0.230 C 
BRANCH   9  10
ATOM     10  C   UNL A   1      31.236  25.315  22.919  1.00  0.00     0.091 A 
ATOM     11  C   UNL A   1      29.575  27.115  23.397  1.00  0.00     0.161 A 
ATOM     12  C   UNL A   1      29.969  25.754  23.392  1.00  0.00     0.067 A 
ATOM     13  C   UNL A   1      30.432  28.097  22.900  1.00  0.00     0.167 A 
ATOM     14  C   UNL A   1      31.620  27.678  22.305  1.00  0.00     0.136 A 
ATOM     15  C   UNL A   1      31.999  26.324  22.297  1.00  0.00     0.282 A 
BRANCH  11  16
ATOM     16  O   UNL A   1      28.414  27.411  24.060  1.00  0.00    -0.493 OA
ATOM     17  C   UNL A   1      27.544  26.283  24.175  1.00  0.00     0.278 C 
ENDBRANCH  11  16
BRANCH  13  18
ATOM     18  O   UNL A   1      30.325  29.456  22.911  1.00  0.00    -0.493 OA
ATOM     19  C   UNL A   1      29.753  30.142  21.814  1.00  0.00     0.278 C 
ENDBRANCH  13  18
BRANCH  15  20
ATOM     20  N   UNL A   1      33.215  26.064  21.554  1.00  0.00     0.063 N 
ATOM     21  O   UNL A   1      34.252  26.580  21.986  1.00  0.00    -0.258 OA
ATOM     22  O   UNL A   1      33.121  25.321  20.567  1.00  0.00    -0.258 OA
ENDBRANCH  15  20
ENDBRANCH   9  10
BRANCH   9  23
ATOM     23  N   UNL A   1      30.545  22.949  22.926  1.00  0.00    -0.351 N 
ATOM     24  H   UNL A   1      30.361  22.362  23.739  1.00  0.00     0.345 HD
ATOM     25  H   UNL A   1      30.778  22.359  22.127  1.00  0.00     0.345 HD
ATOM     26  H   UNL A   1      29.714  23.502  22.710  1.00  0.00     0.345 HD
ENDBRANCH   9  23
ENDBRANCH   8   9
ENDBRANCH   6   8
ENDBRANCH   5   6
ENDBRANCH   4   5
ENDBRANCH   3   4
ENDBRANCH   2   3
ENDBRANCH   1   2
BRANCH   1  27
ATOM     27  C   UNL A   1      33.081  30.222  26.538  1.00  0.00     0.188 C 
BRANCH  27  28
ATOM     28  O   UNL A   1      31.965  30.526  25.716  1.00  0.00    -0.376 OA
BRANCH  28  29
ATOM     29  C   UNL A   1      31.136  31.627  26.081  1.00  0.00     0.202 C 
BRANCH  29  30
ATOM     30  C   UNL A   1      31.585  32.513  27.263  1.00  0.00     0.261 C 
BRANCH  30  31
ATOM     31  O   UNL A   1      32.650  33.447  26.994  1.00  0.00    -0.460 OA
BRANCH  31  32
ATOM     32  C   UNL A   1      33.112  34.193  28.024  1.00  0.00     0.338 C 
ATOM     33  O   UNL A   1      32.525  35.117  28.564  1.00  0.00    -0.246 OA
BRANCH  32  34
ATOM     34  C   UNL A   1      34.333  33.540  28.578  1.00  0.00     0.060 A 
ATOM     35  C   UNL A   1      34.170  32.335  29.278  1.00  0.00     0.016 A 
ATOM     36  C   UNL A   1      35.622  34.038  28.356  1.00  0.00     0.016 A 
ATOM     37  C   UNL A   1      35.278  31.657  29.793  1.00  0.00     0.010 A 
ATOM     38  C   UNL A   1      36.732  33.363  28.886  1.00  0.00     0.010 A 
ATOM     39  C   UNL A   1      36.564  32.187  29.639  1.00  0.00    -0.014 A 
BRANCH  39  40
ATOM     40  C   UNL A   1      37.697  31.617  30.418  1.00  0.00     0.031 A 
ATOM     41  C   UNL A   1      38.554  30.559  29.770  1.00  0.00     0.074 A 
ATOM     42  C   UNL A   1      37.988  32.030  31.666  1.00  0.00     0.049 A 
ATOM     43  N   UNL A   1      39.589  29.919  30.248  1.00  0.00    -0.248 NA
ATOM     44  C   UNL A   1      38.193  30.175  28.395  1.00  0.00     0.031 C 
ATOM     45  C   UNL A   1      37.258  33.050  32.414  1.00  0.00     0.029 A 
ATOM     46  N   UNL A   1      38.975  31.619  32.532  1.00  0.00    -0.354 N 
ATOM     47  C   UNL A   1      39.987  29.040  29.248  1.00  0.00     0.074 A 
ATOM     48  C   UNL A   1      39.074  29.219  28.141  1.00  0.00     0.031 C 
ATOM     49  C   UNL A   1      37.805  33.168  33.638  1.00  0.00     0.029 A 
ATOM     50  C   UNL A   1      38.908  32.217  33.770  1.00  0.00     0.049 A 
ATOM     51  H   UNL A   1      39.663  30.959  32.289  1.00  0.00     0.167 HD
ATOM     52  C   UNL A   1      41.027  28.171  29.239  1.00  0.00     0.034 A 
ATOM     53  C   UNL A   1      39.639  32.007  34.886  1.00  0.00     0.034 A 
ATOM     54  C   UNL A   1      41.949  27.995  30.329  1.00  0.00     0.049 A 
ATOM     55  C   UNL A   1      40.766  31.003  34.865  1.00  0.00     0.074 A 
ATOM     56  C   UNL A   1      43.058  27.169  30.388  1.00  0.00     0.029 A 
ATOM     57  N   UNL A   1      41.862  28.633  31.554  1.00  0.00    -0.354 N 
ATOM     58  N   UNL A   1      41.204  30.268  33.871  1.00  0.00    -0.248 NA
ATOM     59  C   UNL A   1      41.525  30.826  36.114  1.00  0.00     0.031 C 
ATOM     60  C   UNL A   1      43.619  27.280  31.663  1.00  0.00     0.029 A 
ATOM     61  C   UNL A   1      42.885  28.207  32.384  1.00  0.00     0.049 A 
ATOM     62  H   UNL A   1      41.173  29.293  31.800  1.00  0.00     0.167 HD
ATOM     63  C   UNL A   1      42.305  29.572  34.363  1.00  0.00     0.074 A 
ATOM     64  C   UNL A   1      42.482  29.990  35.737  1.00  0.00     0.031 C 
ATOM     65  C   UNL A   1      43.090  28.661  33.736  1.00  0.00     0.034 A 
BRANCH  52  66
ATOM     66  C   UNL A   1      41.233  27.347  27.995  1.00  0.00     0.023 A 
ATOM     67  C   UNL A   1      41.801  27.939  26.849  1.00  0.00     0.012 A 
ATOM     68  C   UNL A   1      40.917  25.975  27.981  1.00  0.00     0.148 A 
ATOM     69  C   UNL A   1      42.019  27.186  25.695  1.00  0.00     0.002 A 
ATOM     70  C   UNL A   1      41.181  25.221  26.844  1.00  0.00     0.091 A 
ATOM     71  F   UNL A   1      40.358  25.436  29.074  1.00  0.00    -0.205 F 
ATOM     72  C   UNL A   1      41.719  25.826  25.698  1.00  0.00     0.022 A 
BRANCH  70  73
ATOM     73  S   UNL A   1      40.906  23.447  26.773  1.00  0.00     0.127 S 
ATOM     74  O   UNL A   1      39.478  23.383  26.463  1.00  0.00    -0.237 OA
ATOM     75  O   UNL A   1      41.786  23.044  25.677  1.00  0.00    -0.237 OA
ATOM     76  O   UNL A   1      41.284  22.928  28.080  1.00  0.00    -0.744 OA
ENDBRANCH  70  73
ENDBRANCH  52  66
BRANCH  53  77
ATOM     77  C   UNL A   1      39.344  32.775  36.130  1.00  0.00     0.023 A 
ATOM     78  C   UNL A   1      39.910  34.052  36.315  1.00  0.00     0.012 A 
ATOM     79  C   UNL A   1      38.515  32.240  37.137  1.00  0.00     0.148 A 
ATOM     80  C   UNL A   1      39.683  34.767  37.492  1.00  0.00     0.002 A 
ATOM     81  C   UNL A   1      38.250  32.981  38.282  1.00  0.00     0.091 A 
ATOM     82  F   UNL A   1      38.006  31.014  36.953  1.00  0.00    -0.205 F 
ATOM     83  C   UNL A   1      38.846  34.237  38.471  1.00  0.00     0.022 A 
BRANCH  81  84
ATOM     84  S   UNL A   1      37.097  32.427  39.543  1.00  0.00     0.127 S 
ATOM     85  O   UNL A   1      37.339  33.392  40.613  1.00  0.00    -0.237 OA
ATOM     86  O   UNL A   1      35.811  32.574  38.860  1.00  0.00    -0.237 OA
ATOM     87  O   UNL A   1      37.468  31.051  39.841  1.00  0.00    -0.744 OA
ENDBRANCH  81  84
ENDBRANCH  53  77
BRANCH  65  88
ATOM     88  C   UNL A   1      44.248  28.073  34.506  1.00  0.00     0.023 A 
ATOM     89  C   UNL A   1      45.480  28.756  34.561  1.00  0.00     0.012 A 
ATOM     90  C   UNL A   1      44.092  26.876  35.235  1.00  0.00     0.148 A 
ATOM     91  C   UNL A   1      46.547  28.239  35.297  1.00  0.00     0.002 A 
ATOM     92  C   UNL A   1      45.143  26.394  36.008  1.00  0.00     0.091 A 
ATOM     93  F   UNL A   1      42.919  26.231  35.161  1.00  0.00    -0.205 F 
ATOM     94  C   UNL A   1      46.375  27.067  36.029  1.00  0.00     0.022 A 
BRANCH  92  95
ATOM     95  S   UNL A   1      44.984  24.946  37.059  1.00  0.00     0.127 S 
ATOM     96  O   UNL A   1      46.311  24.871  37.668  1.00  0.00    -0.237 OA
ATOM     97  O   UNL A   1      43.915  25.342  37.976  1.00  0.00    -0.237 OA
ATOM     98  O   UNL A   1      44.641  23.841  36.173  1.00  0.00    -0.744 OA
ENDBRANCH  92  95
ENDBRANCH  65  88
ENDBRANCH  39  40
ENDBRANCH  32  34
ENDBRANCH  31  32
ENDBRANCH  30  31
ENDBRANCH  29  30
ENDBRANCH  28  29
ENDBRANCH  27  28
ENDBRANCH   1  27
TORSDOF 26
ENDMDL
MODEL 2
REMARK VINA RESULT:      -9.1      1.740      3.377
REMARK SMILES COc1cc([C@H]([NH3+])CC(=O)OCCOCCOCCOC(=O)c2ccc(-c3c4nc(c(-c5cccc(S(=O)(=O)[O-])c5F)c5ccc([nH]5)c(-c5cccc(S(=O)(=O)[O-])c5F)c5nc(c(-c6cccc(S(=O)(=O)[O-])c6F)c6ccc3[nH]6)C=C5)C=C4)cc2)c([N+](=O)[O-])cc1OC
REMARK SMILES IDX 15 1 14 2 13 3 12 4 11 5 9 6 10 7 8 8 6 9 5 10 3 11 4 12
REMARK SMILES IDX 91 13 90 14 86 15 2 16 1 17 92 18 93 19 87 20 88 21 89 22
REMARK SMILES IDX 7 23 16 27 17 28 18 29 19 30 20 31 21 32 22 33 23 34 24 35
REMARK SMILES IDX 85 36 25 37 84 38 26 39 27 40 28 41 78 42 29 43 83 44 77 45
REMARK SMILES IDX 79 46 30 47 82 48 76 49 75 50 31 52 63 53 43 54 62 55 44 56
REMARK SMILES IDX 47 57 61 58 80 59 45 60 46 61 60 63 81 64 48 65 32 66 33 67
REMARK SMILES IDX 41 68 34 69 36 70 42 71 35 72 37 73 38 74 39 75 40 76 64 77
REMARK SMILES IDX 65 78 73 79 66 80 68 81 74 82 67 83 69 84 70 85 71 86 72 87
REMARK SMILES IDX 49 88 50 89 58 90 51 91 53 92 59 93 52 94 54 95 55 96 56 97
REMARK SMILES IDX 57 98
REMARK H PARENT 7 24 7 25 7 26 79 51 47 62
REMARK Flexibility Score: inf
ROOT
ATOM      1  C   UNL A   1      33.517  28.003  26.348  1.00  0.00     0.188 C 
ENDROOT
BRANCH   1   2
ATOM      2  O   UNL A   1      32.530  27.407  27.188  1.00  0.00    -0.376 OA
BRANCH   2   3
ATOM      3  C   UNL A   1      31.291  27.060  26.568  1.00  0.00     0.202 C 
BRANCH   3   4
ATOM      4  C   UNL A   1      31.144  25.594  26.134  1.00  0.00     0.261 C 
BRANCH   4   5
ATOM      5  O   UNL A   1      30.379  25.433  24.918  1.00  0.00    -0.463 OA
BRANCH   5   6
ATOM      6  C   UNL A   1      30.880  24.532  24.036  1.00  0.00     0.312 C 
ATOM      7  O   UNL A   1      31.165  24.799  22.870  1.00  0.00    -0.252 OA
BRANCH   6   8
ATOM      8  C   UNL A   1      31.243  23.184  24.635  1.00  0.00     0.193 C 
BRANCH   8   9
ATOM      9  C   UNL A   1      31.779  22.024  23.774  1.00  0.00     0.230 C 
BRANCH   9  10
ATOM     10  C   UNL A   1      33.239  21.553  24.038  1.00  0.00     0.091 A 
ATOM     11  C   UNL A   1      35.621  22.250  24.296  1.00  0.00     0.161 A 
ATOM     12  C   UNL A   1      34.295  22.488  23.857  1.00  0.00     0.067 A 
ATOM     13  C   UNL A   1      35.951  21.045  24.916  1.00  0.00     0.167 A 
ATOM     14  C   UNL A   1      34.968  20.060  24.980  1.00  0.00     0.136 A 
ATOM     15  C   UNL A   1      33.656  20.302  24.534  1.00  0.00     0.282 A 
BRANCH  11  16
ATOM     16  O   UNL A   1      36.483  23.313  24.233  1.00  0.00    -0.493 OA
ATOM     17  C   UNL A   1      36.688  23.928  25.507  1.00  0.00     0.278 C 
ENDBRANCH  11  16
BRANCH  13  18
ATOM     18  O   UNL A   1      37.106  20.645  25.520  1.00  0.00    -0.493 OA
ATOM     19  C   UNL A   1      38.038  19.838  24.826  1.00  0.00     0.278 C 
ENDBRANCH  13  18
BRANCH  15  20
ATOM     20  N   UNL A   1      32.798  19.137  24.591  1.00  0.00     0.063 N 
ATOM     21  O   UNL A   1      32.649  18.609  25.699  1.00  0.00    -0.258 OA
ATOM     22  O   UNL A   1      32.259  18.785  23.532  1.00  0.00    -0.258 OA
ENDBRANCH  15  20
ENDBRANCH   9  10
BRANCH   9  23
ATOM     23  N   UNL A   1      31.657  22.441  22.368  1.00  0.00    -0.351 N 
ATOM     24  H   UNL A   1      30.750  22.883  22.222  1.00  0.00     0.345 HD
ATOM     25  H   UNL A   1      31.738  21.623  21.764  1.00  0.00     0.345 HD
ATOM     26  H   UNL A   1      32.400  23.104  22.145  1.00  0.00     0.345 HD
ENDBRANCH   9  23
ENDBRANCH   8   9
ENDBRANCH   6   8
ENDBRANCH   5   6
ENDBRANCH   4   5
ENDBRANCH   3   4
ENDBRANCH   2   3
ENDBRANCH   1   2
BRANCH   1  27
ATOM     27  C   UNL A   1      33.397  29.521  26.182  1.00  0.00     0.188 C 
BRANCH  27  28
ATOM     28  O   UNL A   1      32.384  29.945  25.282  1.00  0.00    -0.376 OA
BRANCH  28  29
ATOM     29  C   UNL A   1      31.461  30.937  25.723  1.00  0.00     0.202 C 
BRANCH  29  30
ATOM     30  C   UNL A   1      31.857  31.811  26.932  1.00  0.00     0.261 C 
BRANCH  30  31
ATOM     31  O   UNL A   1      32.822  32.853  26.681  1.00  0.00    -0.460 OA
BRANCH  31  32
ATOM     32  C   UNL A   1      33.225  33.609  27.728  1.00  0.00     0.338 C 
ATOM     33  O   UNL A   1      32.581  34.495  28.266  1.00  0.00    -0.246 OA
BRANCH  32  34
ATOM     34  C   UNL A   1      34.465  33.011  28.301  1.00  0.00     0.060 A 
ATOM     35  C   UNL A   1      34.366  31.746  28.899  1.00  0.00     0.016 A 
ATOM     36  C   UNL A   1      35.718  33.624  28.191  1.00  0.00     0.016 A 
ATOM     37  C   UNL A   1      35.498  31.118  29.425  1.00  0.00     0.010 A 
ATOM     38  C   UNL A   1      36.851  32.999  28.732  1.00  0.00     0.010 A 
ATOM     39  C   UNL A   1      36.743  31.758  29.385  1.00  0.00    -0.014 A 
BRANCH  39  40
ATOM     40  C   UNL A   1      37.877  31.218  30.184  1.00  0.00     0.031 A 
ATOM     41  C   UNL A   1      38.772  30.182  29.551  1.00  0.00     0.074 A 
ATOM     42  C   UNL A   1      38.137  31.640  31.435  1.00  0.00     0.049 A 
ATOM     43  N   UNL A   1      39.815  29.570  30.047  1.00  0.00    -0.248 NA
ATOM     44  C   UNL A   1      38.443  29.787  28.171  1.00  0.00     0.031 C 
ATOM     45  C   UNL A   1      37.368  32.642  32.170  1.00  0.00     0.029 A 
ATOM     46  N   UNL A   1      39.120  31.255  32.318  1.00  0.00    -0.354 N 
ATOM     47  C   UNL A   1      40.252  28.700  29.055  1.00  0.00     0.074 A 
ATOM     48  C   UNL A   1      39.353  28.854  27.932  1.00  0.00     0.031 C 
ATOM     49  C   UNL A   1      37.893  32.775  33.403  1.00  0.00     0.029 A 
ATOM     50  C   UNL A   1      39.018  31.853  33.553  1.00  0.00     0.049 A 
ATOM     51  H   UNL A   1      39.829  30.613  32.087  1.00  0.00     0.167 HD
ATOM     52  C   UNL A   1      41.314  27.859  29.064  1.00  0.00     0.034 A 
ATOM     53  C   UNL A   1      39.735  31.663  34.681  1.00  0.00     0.034 A 
ATOM     54  C   UNL A   1      42.222  27.708  30.168  1.00  0.00     0.049 A 
ATOM     55  C   UNL A   1      40.889  30.690  34.680  1.00  0.00     0.074 A 
ATOM     56  C   UNL A   1      43.351  26.911  30.247  1.00  0.00     0.029 A 
ATOM     57  N   UNL A   1      42.099  28.345  31.392  1.00  0.00    -0.354 N 
ATOM     58  N   UNL A   1      41.361  29.965  33.695  1.00  0.00    -0.248 NA
ATOM     59  C   UNL A   1      41.631  30.534  35.942  1.00  0.00     0.031 C 
ATOM     60  C   UNL A   1      43.889  27.038  31.531  1.00  0.00     0.029 A 
ATOM     61  C   UNL A   1      43.119  27.947  32.239  1.00  0.00     0.049 A 
ATOM     62  H   UNL A   1      41.389  28.987  31.625  1.00  0.00     0.167 HD
ATOM     63  C   UNL A   1      42.472  29.298  34.205  1.00  0.00     0.074 A 
ATOM     64  C   UNL A   1      42.616  29.722  35.582  1.00  0.00     0.031 C 
ATOM     65  C   UNL A   1      43.291  28.407  33.592  1.00  0.00     0.034 A 
BRANCH  52  66
ATOM     66  C   UNL A   1      41.562  27.039  27.825  1.00  0.00     0.023 A 
ATOM     67  C   UNL A   1      42.131  27.644  26.686  1.00  0.00     0.012 A 
ATOM     68  C   UNL A   1      41.283  25.658  27.808  1.00  0.00     0.148 A 
ATOM     69  C   UNL A   1      42.387  26.896  25.537  1.00  0.00     0.002 A 
ATOM     70  C   UNL A   1      41.586  24.910  26.677  1.00  0.00     0.091 A 
ATOM     71  F   UNL A   1      40.723  25.106  28.893  1.00  0.00    -0.205 F 
ATOM     72  C   UNL A   1      42.125  25.528  25.538  1.00  0.00     0.022 A 
BRANCH  70  73
ATOM     73  S   UNL A   1      41.361  23.130  26.605  1.00  0.00     0.127 S 
ATOM     74  O   UNL A   1      39.909  23.023  26.463  1.00  0.00    -0.237 OA
ATOM     75  O   UNL A   1      42.118  22.773  25.406  1.00  0.00    -0.237 OA
ATOM     76  O   UNL A   1      41.906  22.604  27.849  1.00  0.00    -0.744 OA
ENDBRANCH  70  73
ENDBRANCH  52  66
BRANCH  53  77
ATOM     77  C   UNL A   1      39.400  32.425  35.920  1.00  0.00     0.023 A 
ATOM     78  C   UNL A   1      39.991  33.684  36.148  1.00  0.00     0.012 A 
ATOM     79  C   UNL A   1      38.509  31.901  36.877  1.00  0.00     0.148 A 
ATOM     80  C   UNL A   1      39.726  34.391  37.322  1.00  0.00     0.002 A 
ATOM     81  C   UNL A   1      38.207  32.636  38.018  1.00  0.00     0.091 A 
ATOM     82  F   UNL A   1      37.976  30.693  36.653  1.00  0.00    -0.205 F 
ATOM     83  C   UNL A   1      38.827  33.873  38.252  1.00  0.00     0.022 A 
BRANCH  81  84
ATOM     84  S   UNL A   1      36.979  32.100  39.214  1.00  0.00     0.127 S 
ATOM     85  O   UNL A   1      37.421  32.788  40.424  1.00  0.00    -0.237 OA
ATOM     86  O   UNL A   1      35.743  32.619  38.628  1.00  0.00    -0.237 OA
ATOM     87  O   UNL A   1      37.068  30.647  39.246  1.00  0.00    -0.744 OA
ENDBRANCH  81  84
ENDBRANCH  53  77
BRANCH  65  88
ATOM     88  C   UNL A   1      44.451  27.851  34.382  1.00  0.00     0.023 A 
ATOM     89  C   UNL A   1      45.690  28.522  34.386  1.00  0.00     0.012 A 
ATOM     90  C   UNL A   1      44.291  26.698  35.179  1.00  0.00     0.148 A 
ATOM     91  C   UNL A   1      46.760  28.035  35.139  1.00  0.00     0.002 A 
ATOM     92  C   UNL A   1      45.344  26.248  35.966  1.00  0.00     0.091 A 
ATOM     93  F   UNL A   1      43.111  26.063  35.153  1.00  0.00    -0.205 F 
ATOM     94  C   UNL A   1      46.584  26.907  35.937  1.00  0.00     0.022 A 
BRANCH  92  95
ATOM     95  S   UNL A   1      45.183  24.863  37.098  1.00  0.00     0.127 S 
ATOM     96  O   UNL A   1      44.084  25.304  37.956  1.00  0.00    -0.237 OA
ATOM     97  O   UNL A   1      44.847  23.761  36.196  1.00  0.00    -0.237 OA
ATOM     98  O   UNL A   1      46.475  24.730  37.759  1.00  0.00    -0.744 OA
ENDBRANCH  92  95
ENDBRANCH  65  88
ENDBRANCH  39  40
ENDBRANCH  32  34
ENDBRANCH  31  32
ENDBRANCH  30  31
ENDBRANCH  29  30
ENDBRANCH  28  29
ENDBRANCH  27  28
ENDBRANCH   1  27
TORSDOF 26
ENDMDL
MODEL 3
REMARK VINA RESULT:      -9.1      3.693      8.738
REMARK SMILES COc1cc([C@H]([NH3+])CC(=O)OCCOCCOCCOC(=O)c2ccc(-c3c4nc(c(-c5cccc(S(=O)(=O)[O-])c5F)c5ccc([nH]5)c(-c5cccc(S(=O)(=O)[O-])c5F)c5nc(c(-c6cccc(S(=O)(=O)[O-])c6F)c6ccc3[nH]6)C=C5)C=C4)cc2)c([N+](=O)[O-])cc1OC
REMARK SMILES IDX 15 1 14 2 13 3 12 4 11 5 9 6 10 7 8 8 6 9 5 10 3 11 4 12
REMARK SMILES IDX 91 13 90 14 86 15 2 16 1 17 92 18 93 19 87 20 88 21 89 22
REMARK SMILES IDX 7 23 16 27 17 28 18 29 19 30 20 31 21 32 22 33 23 34 24 35
REMARK SMILES IDX 85 36 25 37 84 38 26 39 27 40 28 41 78 42 29 43 83 44 77 45
REMARK SMILES IDX 79 46 30 47 82 48 76 49 75 50 31 52 63 53 43 54 62 55 44 56
REMARK SMILES IDX 47 57 61 58 80 59 45 60 46 61 60 63 81 64 48 65 32 66 33 67
REMARK SMILES IDX 41 68 34 69 36 70 42 71 35 72 37 73 38 74 39 75 40 76 64 77
REMARK SMILES IDX 65 78 73 79 66 80 68 81 74 82 67 83 69 84 70 85 71 86 72 87
REMARK SMILES IDX 49 88 50 89 58 90 51 91 53 92 59 93 52 94 54 95 55 96 56 97
REMARK SMILES IDX 57 98
REMARK H PARENT 7 24 7 25 7 26 79 51 47 62
REMARK Flexibility Score: inf
ROOT
ATOM      1  C   UNL A   1      33.090  27.154  25.164  1.00  0.00     0.188 C 
ENDROOT
BRANCH   1   2
ATOM      2  O   UNL A   1      32.221  26.749  26.220  1.00  0.00    -0.376 OA
BRANCH   2   3
ATOM      3  C   UNL A   1      30.821  26.917  25.994  1.00  0.00     0.202 C 
BRANCH   3   4
ATOM      4  C   UNL A   1      30.049  25.653  25.587  1.00  0.00     0.261 C 
BRANCH   4   5
ATOM      5  O   UNL A   1      30.021  25.437  24.158  1.00  0.00    -0.463 OA
BRANCH   5   6
ATOM      6  C   UNL A   1      31.007  24.642  23.674  1.00  0.00     0.312 C 
ATOM      7  O   UNL A   1      31.735  24.947  22.731  1.00  0.00    -0.252 OA
BRANCH   6   8
ATOM      8  C   UNL A   1      31.285  23.395  24.496  1.00  0.00     0.193 C 
BRANCH   8   9
ATOM      9  C   UNL A   1      31.677  22.055  23.844  1.00  0.00     0.230 C 
BRANCH   9  10
ATOM     10  C   UNL A   1      33.130  21.546  24.074  1.00  0.00     0.091 A 
ATOM     11  C   UNL A   1      35.507  22.191  24.481  1.00  0.00     0.161 A 
ATOM     12  C   UNL A   1      34.191  22.492  24.048  1.00  0.00     0.067 A 
ATOM     13  C   UNL A   1      35.820  20.910  24.937  1.00  0.00     0.167 A 
ATOM     14  C   UNL A   1      34.836  19.930  24.841  1.00  0.00     0.136 A 
ATOM     15  C   UNL A   1      33.535  20.236  24.403  1.00  0.00     0.282 A 
BRANCH  11  16
ATOM     16  O   UNL A   1      36.371  23.248  24.586  1.00  0.00    -0.493 OA
ATOM     17  C   UNL A   1      35.804  24.353  25.292  1.00  0.00     0.278 C 
ENDBRANCH  11  16
BRANCH  13  18
ATOM     18  O   UNL A   1      36.960  20.426  25.506  1.00  0.00    -0.493 OA
ATOM     19  C   UNL A   1      37.809  19.552  24.786  1.00  0.00     0.278 C 
ENDBRANCH  13  18
BRANCH  15  20
ATOM     20  N   UNL A   1      32.674  19.078  24.278  1.00  0.00     0.063 N 
ATOM     21  O   UNL A   1      32.520  18.621  23.139  1.00  0.00    -0.258 OA
ATOM     22  O   UNL A   1      32.191  18.623  25.323  1.00  0.00    -0.258 OA
ENDBRANCH  15  20
ENDBRANCH   9  10
BRANCH   9  23
ATOM     23  N   UNL A   1      31.444  22.197  22.398  1.00  0.00    -0.351 N 
ATOM     24  H   UNL A   1      30.441  22.261  22.221  1.00  0.00     0.345 HD
ATOM     25  H   UNL A   1      31.823  21.385  21.912  1.00  0.00     0.345 HD
ATOM     26  H   UNL A   1      31.905  23.042  22.061  1.00  0.00     0.345 HD
ENDBRANCH   9  23
ENDBRANCH   8   9
ENDBRANCH   6   8
ENDBRANCH   5   6
ENDBRANCH   4   5
ENDBRANCH   3   4
ENDBRANCH   2   3
ENDBRANCH   1   2
BRANCH   1  27
ATOM     27  C   UNL A   1      33.580  28.603  25.248  1.00  0.00     0.188 C 
BRANCH  27  28
ATOM     28  O   UNL A   1      32.557  29.585  25.185  1.00  0.00    -0.376 OA
BRANCH  28  29
ATOM     29  C   UNL A   1      32.372  30.441  26.308  1.00  0.00     0.202 C 
BRANCH  29  30
ATOM     30  C   UNL A   1      33.414  30.383  27.445  1.00  0.00     0.261 C 
BRANCH  30  31
ATOM     31  O   UNL A   1      34.261  31.541  27.598  1.00  0.00    -0.460 OA
BRANCH  31  32
ATOM     32  C   UNL A   1      34.730  31.824  28.834  1.00  0.00     0.338 C 
ATOM     33  O   UNL A   1      34.123  32.406  29.719  1.00  0.00    -0.246 OA
BRANCH  32  34
ATOM     34  C   UNL A   1      36.003  31.076  29.046  1.00  0.00     0.060 A 
ATOM     35  C   UNL A   1      35.972  29.959  29.894  1.00  0.00     0.016 A 
ATOM     36  C   UNL A   1      37.188  31.399  28.375  1.00  0.00     0.016 A 
ATOM     37  C   UNL A   1      37.124  29.197  30.108  1.00  0.00     0.010 A 
ATOM     38  C   UNL A   1      38.347  30.642  28.601  1.00  0.00     0.010 A 
ATOM     39  C   UNL A   1      38.331  29.557  29.497  1.00  0.00    -0.014 A 
BRANCH  39  40
ATOM     40  C   UNL A   1      39.602  28.920  29.940  1.00  0.00     0.031 A 
ATOM     41  C   UNL A   1      40.313  29.494  31.140  1.00  0.00     0.074 A 
ATOM     42  C   UNL A   1      40.117  27.843  29.319  1.00  0.00     0.049 A 
ATOM     43  N   UNL A   1      41.426  29.111  31.708  1.00  0.00    -0.248 NA
ATOM     44  C   UNL A   1      39.678  30.655  31.785  1.00  0.00     0.031 C 
ATOM     45  C   UNL A   1      39.537  27.174  28.157  1.00  0.00     0.029 A 
ATOM     46  N   UNL A   1      41.268  27.134  29.575  1.00  0.00    -0.354 N 
ATOM     47  C   UNL A   1      41.641  29.996  32.758  1.00  0.00     0.074 A 
ATOM     48  C   UNL A   1      40.548  30.945  32.740  1.00  0.00     0.031 C 
ATOM     49  C   UNL A   1      40.348  26.166  27.785  1.00  0.00     0.029 A 
ATOM     50  C   UNL A   1      41.516  26.133  28.664  1.00  0.00     0.049 A 
ATOM     51  H   UNL A   1      41.859  27.326  30.338  1.00  0.00     0.167 HD
ATOM     52  C   UNL A   1      42.644  30.015  33.668  1.00  0.00     0.034 A 
ATOM     53  C   UNL A   1      42.571  25.300  28.541  1.00  0.00     0.034 A 
ATOM     54  C   UNL A   1      43.728  29.070  33.703  1.00  0.00     0.049 A 
ATOM     55  C   UNL A   1      43.698  25.366  29.543  1.00  0.00     0.074 A 
ATOM     56  C   UNL A   1      44.763  28.988  34.617  1.00  0.00     0.029 A 
ATOM     57  N   UNL A   1      43.931  28.059  32.779  1.00  0.00    -0.354 N 
ATOM     58  N   UNL A   1      43.824  26.132  30.600  1.00  0.00    -0.248 NA
ATOM     59  C   UNL A   1      44.816  24.427  29.353  1.00  0.00     0.031 C 
ATOM     60  C   UNL A   1      45.614  27.950  34.223  1.00  0.00     0.029 A 
ATOM     61  C   UNL A   1      45.085  27.359  33.088  1.00  0.00     0.049 A 
ATOM     62  H   UNL A   1      43.341  27.867  32.013  1.00  0.00     0.167 HD
ATOM     63  C   UNL A   1      45.010  25.744  31.218  1.00  0.00     0.074 A 
ATOM     64  C   UNL A   1      45.555  24.659  30.428  1.00  0.00     0.031 C 
ATOM     65  C   UNL A   1      45.600  26.248  32.330  1.00  0.00     0.034 A 
BRANCH  52  66
ATOM     66  C   UNL A   1      42.610  31.094  34.718  1.00  0.00     0.023 A 
ATOM     67  C   UNL A   1      41.975  30.850  35.953  1.00  0.00     0.012 A 
ATOM     68  C   UNL A   1      43.254  32.328  34.504  1.00  0.00     0.148 A 
ATOM     69  C   UNL A   1      41.952  31.829  36.945  1.00  0.00     0.002 A 
ATOM     70  C   UNL A   1      43.268  33.281  35.515  1.00  0.00     0.091 A 
ATOM     71  F   UNL A   1      43.833  32.548  33.315  1.00  0.00    -0.205 F 
ATOM     72  C   UNL A   1      42.608  33.039  36.730  1.00  0.00     0.022 A 
BRANCH  70  73
ATOM     73  S   UNL A   1      44.151  34.838  35.367  1.00  0.00     0.127 S 
ATOM     74  O   UNL A   1      43.893  35.448  36.671  1.00  0.00    -0.237 OA
ATOM     75  O   UNL A   1      45.529  34.391  35.166  1.00  0.00    -0.237 OA
ATOM     76  O   UNL A   1      43.562  35.529  34.228  1.00  0.00    -0.744 OA
ENDBRANCH  70  73
ENDBRANCH  52  66
BRANCH  53  77
ATOM     77  C   UNL A   1      42.615  24.306  27.429  1.00  0.00     0.023 A 
ATOM     78  C   UNL A   1      43.222  24.651  26.206  1.00  0.00     0.012 A 
ATOM     79  C   UNL A   1      42.047  23.025  27.575  1.00  0.00     0.148 A 
ATOM     80  C   UNL A   1      43.233  23.752  25.138  1.00  0.00     0.002 A 
ATOM     81  C   UNL A   1      42.110  22.115  26.526  1.00  0.00     0.091 A 
ATOM     82  F   UNL A   1      41.454  22.724  28.739  1.00  0.00    -0.205 F 
ATOM     83  C   UNL A   1      42.687  22.481  25.301  1.00  0.00     0.022 A 
BRANCH  81  84
ATOM     84  S   UNL A   1      41.533  20.421  26.683  1.00  0.00     0.127 S 
ATOM     85  O   UNL A   1      42.309  19.947  27.826  1.00  0.00    -0.237 OA
ATOM     86  O   UNL A   1      40.106  20.613  26.944  1.00  0.00    -0.237 OA
ATOM     87  O   UNL A   1      41.833  19.782  25.409  1.00  0.00    -0.744 OA
ENDBRANCH  81  84
ENDBRANCH  53  77
BRANCH  65  88
ATOM     88  C   UNL A   1      46.886  25.614  32.801  1.00  0.00     0.023 A 
ATOM     89  C   UNL A   1      46.867  24.666  33.843  1.00  0.00     0.012 A 
ATOM     90  C   UNL A   1      48.108  25.905  32.159  1.00  0.00     0.148 A 
ATOM     91  C   UNL A   1      48.045  24.048  34.264  1.00  0.00     0.002 A 
ATOM     92  C   UNL A   1      49.269  25.247  32.549  1.00  0.00     0.091 A 
ATOM     93  F   UNL A   1      48.112  26.818  31.178  1.00  0.00    -0.205 F 
ATOM     94  C   UNL A   1      49.243  24.329  33.611  1.00  0.00     0.022 A 
BRANCH  92  95
ATOM     95  S   UNL A   1      50.838  25.472  31.702  1.00  0.00     0.127 S 
ATOM     96  O   UNL A   1      51.718  24.586  32.463  1.00  0.00    -0.237 OA
ATOM     97  O   UNL A   1      50.530  25.009  30.349  1.00  0.00    -0.237 OA
ATOM     98  O   UNL A   1      51.147  26.892  31.799  1.00  0.00    -0.744 OA
ENDBRANCH  92  95
ENDBRANCH  65  88
ENDBRANCH  39  40
ENDBRANCH  32  34
ENDBRANCH  31  32
ENDBRANCH  30  31
ENDBRANCH  29  30
ENDBRANCH  28  29
ENDBRANCH  27  28
ENDBRANCH   1  27
TORSDOF 26
ENDMDL
