MODEL 1
REMARK VINA RESULT:     -11.0      0.000      0.000
REMARK SMILES O=C(OCCOCCOCCOC(=O)[C@@H]1[C@H](C(=O)NCc2ccncc2)[C@H]2C=C[C@@H]1O2)c1ccc(-c2c3nc(c(-c4cccc(S(=O)(=O)[O-])c4F)c4ccc([nH]4)c(-c4cccc(S(=O)(=O)[O-])c4F)c4nc(c(-c5cccc(S(=O)(=O)[O-])c5F)c5ccc2[nH]5)C=C4)C=C3)cc1
REMARK SMILES IDX 7 1 6 2 5 3 4 4 3 5 2 6 1 7 32 8 33 9 94 10 34 11 93 12
REMARK SMILES IDX 35 13 36 14 37 15 87 16 38 17 92 18 86 19 88 20 39 21 91 22
REMARK SMILES IDX 85 23 84 24 40 26 72 27 52 28 71 29 53 30 56 31 70 32 89 33
REMARK SMILES IDX 54 34 55 35 69 37 90 38 57 39 41 40 42 41 50 42 43 43 45 44
REMARK SMILES IDX 51 45 44 46 46 47 47 48 48 49 49 50 73 51 74 52 82 53 75 54
REMARK SMILES IDX 77 55 83 56 76 57 78 58 79 59 80 60 81 61 58 62 59 63 67 64
REMARK SMILES IDX 60 65 62 66 68 67 61 68 63 69 64 70 65 71 66 72 8 73 9 74
REMARK SMILES IDX 10 75 11 76 12 77 13 78 14 79 15 80 16 81 30 82 27 83 29 84
REMARK SMILES IDX 31 85 28 86 17 87 18 88 19 89 20 91 21 92 22 93 26 94 23 95
REMARK SMILES IDX 25 96 24 97
REMARK H PARENT 88 25 56 36 19 90
REMARK Flexibility Score: inf
ROOT
ATOM      1  C   UNL A   1      31.938  28.466  26.602  1.00  0.00     0.188 C 
ENDROOT
BRANCH   1   2
ATOM      2  O   UNL A   1      31.778  29.748  27.210  1.00  0.00    -0.376 OA
BRANCH   2   3
ATOM      3  C   UNL A   1      31.874  30.826  26.284  1.00  0.00     0.202 C 
BRANCH   3   4
ATOM      4  C   UNL A   1      31.403  32.154  26.883  1.00  0.00     0.261 C 
BRANCH   4   5
ATOM      5  O   UNL A   1      32.408  33.182  26.874  1.00  0.00    -0.460 OA
BRANCH   5   6
ATOM      6  C   UNL A   1      33.241  33.586  27.866  1.00  0.00     0.338 C 
ATOM      7  O   UNL A   1      33.010  34.686  28.375  1.00  0.00    -0.246 OA
BRANCH   6   8
ATOM      8  C   UNL A   1      34.434  32.821  28.382  1.00  0.00     0.060 A 
ATOM      9  C   UNL A   1      34.447  31.487  28.796  1.00  0.00     0.016 A 
ATOM     10  C   UNL A   1      35.657  33.521  28.440  1.00  0.00     0.016 A 
ATOM     11  C   UNL A   1      35.616  30.858  29.221  1.00  0.00     0.010 A 
ATOM     12  C   UNL A   1      36.833  32.909  28.896  1.00  0.00     0.010 A 
ATOM     13  C   UNL A   1      36.806  31.571  29.298  1.00  0.00    -0.014 A 
BRANCH  13  14
ATOM     14  C   UNL A   1      37.947  30.937  29.981  1.00  0.00     0.031 A 
ATOM     15  C   UNL A   1      38.269  31.389  31.371  1.00  0.00     0.074 A 
ATOM     16  C   UNL A   1      38.595  29.897  29.427  1.00  0.00     0.049 A 
ATOM     17  N   UNL A   1      39.181  30.941  32.187  1.00  0.00    -0.248 NA
ATOM     18  C   UNL A   1      37.414  32.450  31.934  1.00  0.00     0.031 C 
ATOM     19  C   UNL A   1      38.253  29.283  28.147  1.00  0.00     0.029 A 
ATOM     20  N   UNL A   1      39.671  29.173  29.867  1.00  0.00    -0.354 N 
ATOM     21  C   UNL A   1      39.011  31.660  33.362  1.00  0.00     0.074 A 
ATOM     22  C   UNL A   1      37.908  32.571  33.157  1.00  0.00     0.031 C 
ATOM     23  C   UNL A   1      39.142  28.313  27.877  1.00  0.00     0.029 A 
ATOM     24  C   UNL A   1      40.137  28.274  28.937  1.00  0.00     0.049 A 
ATOM     25  H   UNL A   1      40.072  29.285  30.760  1.00  0.00     0.167 HD
ATOM     26  C   UNL A   1      39.714  31.558  34.509  1.00  0.00     0.034 A 
ATOM     27  C   UNL A   1      41.267  27.541  28.926  1.00  0.00     0.034 A 
ATOM     28  C   UNL A   1      40.830  30.673  34.681  1.00  0.00     0.049 A 
ATOM     29  C   UNL A   1      42.138  27.577  30.150  1.00  0.00     0.074 A 
ATOM     30  C   UNL A   1      41.634  30.506  35.791  1.00  0.00     0.029 A 
ATOM     31  N   UNL A   1      41.321  29.829  33.694  1.00  0.00    -0.354 N 
ATOM     32  N   UNL A   1      41.930  28.206  31.282  1.00  0.00    -0.248 NA
ATOM     33  C   UNL A   1      43.368  26.777  30.120  1.00  0.00     0.031 C 
ATOM     34  C   UNL A   1      42.639  29.590  35.461  1.00  0.00     0.029 A 
ATOM     35  C   UNL A   1      42.439  29.163  34.156  1.00  0.00     0.049 A 
ATOM     36  H   UNL A   1      40.929  29.722  32.796  1.00  0.00     0.167 HD
ATOM     37  C   UNL A   1      42.978  27.846  32.116  1.00  0.00     0.074 A 
ATOM     38  C   UNL A   1      43.816  26.935  31.358  1.00  0.00     0.031 C 
ATOM     39  C   UNL A   1      43.228  28.233  33.390  1.00  0.00     0.034 A 
BRANCH  26  40
ATOM     40  C   UNL A   1      39.311  32.456  35.640  1.00  0.00     0.023 A 
ATOM     41  C   UNL A   1      39.733  33.801  35.658  1.00  0.00     0.012 A 
ATOM     42  C   UNL A   1      38.511  31.964  36.687  1.00  0.00     0.148 A 
ATOM     43  C   UNL A   1      39.378  34.638  36.714  1.00  0.00     0.002 A 
ATOM     44  C   UNL A   1      38.134  32.812  37.719  1.00  0.00     0.091 A 
ATOM     45  F   UNL A   1      38.150  30.673  36.658  1.00  0.00    -0.205 F 
ATOM     46  C   UNL A   1      38.574  34.146  37.739  1.00  0.00     0.022 A 
BRANCH  44  47
ATOM     47  S   UNL A   1      37.068  32.287  39.064  1.00  0.00     0.127 S 
ATOM     48  O   UNL A   1      37.447  33.222  40.123  1.00  0.00    -0.237 OA
ATOM     49  O   UNL A   1      35.738  32.507  38.499  1.00  0.00    -0.237 OA
ATOM     50  O   UNL A   1      37.402  30.893  39.325  1.00  0.00    -0.744 OA
ENDBRANCH  44  47
ENDBRANCH  26  40
BRANCH  27  51
ATOM     51  C   UNL A   1      41.655  26.756  27.720  1.00  0.00     0.023 A 
ATOM     52  C   UNL A   1      42.208  27.399  26.598  1.00  0.00     0.012 A 
ATOM     53  C   UNL A   1      41.450  25.360  27.678  1.00  0.00     0.148 A 
ATOM     54  C   UNL A   1      42.521  26.672  25.446  1.00  0.00     0.002 A 
ATOM     55  C   UNL A   1      41.798  24.637  26.542  1.00  0.00     0.091 A 
ATOM     56  F   UNL A   1      40.909  24.766  28.751  1.00  0.00    -0.205 F 
ATOM     57  C   UNL A   1      42.323  25.294  25.420  1.00  0.00     0.022 A 
BRANCH  55  58
ATOM     58  S   UNL A   1      41.636  22.848  26.456  1.00  0.00     0.127 S 
ATOM     59  O   UNL A   1      40.185  22.681  26.460  1.00  0.00    -0.237 OA
ATOM     60  O   UNL A   1      42.287  22.542  25.183  1.00  0.00    -0.237 OA
ATOM     61  O   UNL A   1      42.335  22.340  27.629  1.00  0.00    -0.744 OA
ENDBRANCH  55  58
ENDBRANCH  27  51
BRANCH  39  62
ATOM     62  C   UNL A   1      44.438  27.647  34.058  1.00  0.00     0.023 A 
ATOM     63  C   UNL A   1      45.664  28.337  34.016  1.00  0.00     0.012 A 
ATOM     64  C   UNL A   1      44.331  26.455  34.799  1.00  0.00     0.148 A 
ATOM     65  C   UNL A   1      46.778  27.832  34.683  1.00  0.00     0.002 A 
ATOM     66  C   UNL A   1      45.431  25.987  35.503  1.00  0.00     0.091 A 
ATOM     67  F   UNL A   1      43.158  25.806  34.803  1.00  0.00    -0.205 F 
ATOM     68  C   UNL A   1      46.658  26.667  35.437  1.00  0.00     0.022 A 
BRANCH  66  69
ATOM     69  S   UNL A   1      45.334  24.556  36.584  1.00  0.00     0.127 S 
ATOM     70  O   UNL A   1      45.075  23.480  35.630  1.00  0.00    -0.237 OA
ATOM     71  O   UNL A   1      46.667  24.532  37.187  1.00  0.00    -0.237 OA
ATOM     72  O   UNL A   1      44.254  24.836  37.521  1.00  0.00    -0.744 OA
ENDBRANCH  66  69
ENDBRANCH  39  62
ENDBRANCH  13  14
ENDBRANCH   6   8
ENDBRANCH   5   6
ENDBRANCH   4   5
ENDBRANCH   3   4
ENDBRANCH   2   3
ENDBRANCH   1   2
BRANCH   1  73
ATOM     73  C   UNL A   1      32.413  28.553  25.149  1.00  0.00     0.188 C 
BRANCH  73  74
ATOM     74  O   UNL A   1      32.326  27.305  24.457  1.00  0.00    -0.376 OA
BRANCH  74  75
ATOM     75  C   UNL A   1      31.183  26.525  24.839  1.00  0.00     0.202 C 
BRANCH  75  76
ATOM     76  C   UNL A   1      31.436  25.031  25.063  1.00  0.00     0.261 C 
BRANCH  76  77
ATOM     77  O   UNL A   1      32.260  24.776  26.223  1.00  0.00    -0.463 OA
BRANCH  77  78
ATOM     78  C   UNL A   1      32.838  23.549  26.299  1.00  0.00     0.312 C 
ATOM     79  O   UNL A   1      32.434  22.656  27.031  1.00  0.00    -0.252 OA
BRANCH  78  80
ATOM     80  C   UNL A   1      34.081  23.489  25.448  1.00  0.00     0.147 C 
ATOM     81  C   UNL A   1      34.155  22.483  24.277  1.00  0.00     0.128 C 
ATOM     82  C   UNL A   1      35.252  23.013  26.324  1.00  0.00     0.157 C 
ATOM     83  C   UNL A   1      35.277  21.535  24.725  1.00  0.00     0.155 C 
ATOM     84  C   UNL A   1      36.556  23.185  25.607  1.00  0.00     0.004 C 
ATOM     85  O   UNL A   1      35.102  21.574  26.164  1.00  0.00    -0.365 OA
ATOM     86  C   UNL A   1      36.583  22.260  24.639  1.00  0.00     0.004 C 
BRANCH  81  87
ATOM     87  C   UNL A   1      32.922  21.801  23.735  1.00  0.00     0.227 C 
ATOM     88  O   UNL A   1      32.365  22.289  22.740  1.00  0.00    -0.275 OA
ATOM     89  N   UNL A   1      32.333  20.686  24.207  1.00  0.00    -0.352 N 
ATOM     90  H   UNL A   1      31.601  20.369  23.630  1.00  0.00     0.163 HD
BRANCH  89  91
ATOM     91  C   UNL A   1      32.531  19.847  25.374  1.00  0.00     0.151 C 
BRANCH  91  92
ATOM     92  C   UNL A   1      32.964  18.450  24.988  1.00  0.00    -0.026 A 
ATOM     93  C   UNL A   1      32.548  17.362  25.763  1.00  0.00     0.025 A 
ATOM     94  C   UNL A   1      33.756  18.182  23.865  1.00  0.00     0.025 A 
ATOM     95  C   UNL A   1      32.860  16.077  25.348  1.00  0.00     0.111 A 
ATOM     96  C   UNL A   1      34.025  16.860  23.535  1.00  0.00     0.111 A 
ATOM     97  N   UNL A   1      33.591  15.800  24.247  1.00  0.00    -0.265 NA
ENDBRANCH  91  92
ENDBRANCH  89  91
ENDBRANCH  81  87
ENDBRANCH  78  80
ENDBRANCH  77  78
ENDBRANCH  76  77
ENDBRANCH  75  76
ENDBRANCH  74  75
ENDBRANCH  73  74
ENDBRANCH   1  73
TORSDOF 23
ENDMDL
MODEL 2
REMARK VINA RESULT:     -10.9      1.585      2.027
REMARK SMILES O=C(OCCOCCOCCOC(=O)[C@@H]1[C@H](C(=O)NCc2ccncc2)[C@H]2C=C[C@@H]1O2)c1ccc(-c2c3nc(c(-c4cccc(S(=O)(=O)[O-])c4F)c4ccc([nH]4)c(-c4cccc(S(=O)(=O)[O-])c4F)c4nc(c(-c5cccc(S(=O)(=O)[O-])c5F)c5ccc2[nH]5)C=C4)C=C3)cc1
REMARK SMILES IDX 7 1 6 2 5 3 4 4 3 5 2 6 1 7 32 8 33 9 94 10 34 11 93 12
REMARK SMILES IDX 35 13 36 14 37 15 87 16 38 17 92 18 86 19 88 20 39 21 91 22
REMARK SMILES IDX 85 23 84 24 40 26 72 27 52 28 71 29 53 30 56 31 70 32 89 33
REMARK SMILES IDX 54 34 55 35 69 37 90 38 57 39 41 40 42 41 50 42 43 43 45 44
REMARK SMILES IDX 51 45 44 46 46 47 47 48 48 49 49 50 73 51 74 52 82 53 75 54
REMARK SMILES IDX 77 55 83 56 76 57 78 58 79 59 80 60 81 61 58 62 59 63 67 64
REMARK SMILES IDX 60 65 62 66 68 67 61 68 63 69 64 70 65 71 66 72 8 73 9 74
REMARK SMILES IDX 10 75 11 76 12 77 13 78 14 79 15 80 16 81 30 82 27 83 29 84
REMARK SMILES IDX 31 85 28 86 17 87 18 88 19 89 20 91 21 92 22 93 26 94 23 95
REMARK SMILES IDX 25 96 24 97
REMARK H PARENT 88 25 56 36 19 90
REMARK Flexibility Score: inf
ROOT
ATOM      1  C   UNL A   1      30.377  28.995  23.657  1.00  0.00     0.188 C 
ENDROOT
BRANCH   1   2
ATOM      2  O   UNL A   1      31.346  29.127  24.698  1.00  0.00    -0.376 OA
BRANCH   2   3
ATOM      3  C   UNL A   1      31.335  30.410  25.318  1.00  0.00     0.202 C 
BRANCH   3   4
ATOM      4  C   UNL A   1      32.439  30.560  26.368  1.00  0.00     0.261 C 
BRANCH   4   5
ATOM      5  O   UNL A   1      32.480  31.859  26.983  1.00  0.00    -0.460 OA
BRANCH   5   6
ATOM      6  C   UNL A   1      33.504  32.485  27.616  1.00  0.00     0.338 C 
ATOM      7  O   UNL A   1      33.422  33.710  27.731  1.00  0.00    -0.246 OA
BRANCH   6   8
ATOM      8  C   UNL A   1      34.737  31.818  28.170  1.00  0.00     0.060 A 
ATOM      9  C   UNL A   1      34.827  30.511  28.656  1.00  0.00     0.016 A 
ATOM     10  C   UNL A   1      35.919  32.588  28.186  1.00  0.00     0.016 A 
ATOM     11  C   UNL A   1      36.029  29.973  29.112  1.00  0.00     0.010 A 
ATOM     12  C   UNL A   1      37.128  32.069  28.671  1.00  0.00     0.010 A 
ATOM     13  C   UNL A   1      37.177  30.757  29.146  1.00  0.00    -0.014 A 
BRANCH  13  14
ATOM     14  C   UNL A   1      38.352  30.226  29.859  1.00  0.00     0.031 A 
ATOM     15  C   UNL A   1      38.610  30.722  31.247  1.00  0.00     0.074 A 
ATOM     16  C   UNL A   1      39.092  29.235  29.333  1.00  0.00     0.049 A 
ATOM     17  N   UNL A   1      39.539  30.361  32.087  1.00  0.00    -0.248 NA
ATOM     18  C   UNL A   1      37.662  31.718  31.778  1.00  0.00     0.031 C 
ATOM     19  C   UNL A   1      38.825  28.577  28.057  1.00  0.00     0.029 A 
ATOM     20  N   UNL A   1      40.214  28.606  29.804  1.00  0.00    -0.354 N 
ATOM     21  C   UNL A   1      39.289  31.080  33.246  1.00  0.00     0.074 A 
ATOM     22  C   UNL A   1      38.121  31.896  33.008  1.00  0.00     0.031 C 
ATOM     23  C   UNL A   1      39.795  27.678  27.818  1.00  0.00     0.029 A 
ATOM     24  C   UNL A   1      40.769  27.735  28.896  1.00  0.00     0.049 A 
ATOM     25  H   UNL A   1      40.587  28.763  30.702  1.00  0.00     0.167 HD
ATOM     26  C   UNL A   1      39.976  31.052  34.408  1.00  0.00     0.034 A 
ATOM     27  C   UNL A   1      41.954  27.095  28.917  1.00  0.00     0.034 A 
ATOM     28  C   UNL A   1      41.156  30.262  34.613  1.00  0.00     0.049 A 
ATOM     29  C   UNL A   1      42.795  27.218  30.155  1.00  0.00     0.074 A 
ATOM     30  C   UNL A   1      41.949  30.177  35.741  1.00  0.00     0.029 A 
ATOM     31  N   UNL A   1      41.732  29.447  33.648  1.00  0.00    -0.354 N 
ATOM     32  N   UNL A   1      42.516  27.844  31.274  1.00  0.00    -0.248 NA
ATOM     33  C   UNL A   1      44.086  26.520  30.161  1.00  0.00     0.031 C 
ATOM     34  C   UNL A   1      43.031  29.340  35.443  1.00  0.00     0.029 A 
ATOM     35  C   UNL A   1      42.891  28.880  34.141  1.00  0.00     0.049 A 
ATOM     36  H   UNL A   1      41.367  29.296  32.746  1.00  0.00     0.167 HD
ATOM     37  C   UNL A   1      43.574  27.582  32.132  1.00  0.00     0.074 A 
ATOM     38  C   UNL A   1      44.496  26.731  31.404  1.00  0.00     0.031 C 
ATOM     39  C   UNL A   1      43.767  28.006  33.404  1.00  0.00     0.034 A 
BRANCH  26  40
ATOM     40  C   UNL A   1      39.480  31.931  35.517  1.00  0.00     0.023 A 
ATOM     41  C   UNL A   1      38.534  31.438  36.438  1.00  0.00     0.012 A 
ATOM     42  C   UNL A   1      39.957  33.248  35.646  1.00  0.00     0.148 A 
ATOM     43  C   UNL A   1      38.054  32.253  37.461  1.00  0.00     0.002 A 
ATOM     44  C   UNL A   1      39.499  34.044  36.687  1.00  0.00     0.091 A 
ATOM     45  F   UNL A   1      40.834  33.698  34.737  1.00  0.00    -0.205 F 
ATOM     46  C   UNL A   1      38.542  33.552  37.589  1.00  0.00     0.022 A 
BRANCH  44  47
ATOM     47  S   UNL A   1      40.094  35.714  36.962  1.00  0.00     0.127 S 
ATOM     48  O   UNL A   1      39.430  36.060  38.219  1.00  0.00    -0.237 OA
ATOM     49  O   UNL A   1      41.537  35.508  37.069  1.00  0.00    -0.237 OA
ATOM     50  O   UNL A   1      39.668  36.492  35.807  1.00  0.00    -0.744 OA
ENDBRANCH  44  47
ENDBRANCH  26  40
BRANCH  27  51
ATOM     51  C   UNL A   1      42.427  26.327  27.730  1.00  0.00     0.023 A 
ATOM     52  C   UNL A   1      43.171  26.962  26.720  1.00  0.00     0.012 A 
ATOM     53  C   UNL A   1      42.114  24.958  27.592  1.00  0.00     0.148 A 
ATOM     54  C   UNL A   1      43.568  26.256  25.581  1.00  0.00     0.002 A 
ATOM     55  C   UNL A   1      42.543  24.252  26.473  1.00  0.00     0.091 A 
ATOM     56  F   UNL A   1      41.391  24.372  28.558  1.00  0.00    -0.205 F 
ATOM     57  C   UNL A   1      43.261  24.903  25.460  1.00  0.00     0.022 A 
BRANCH  55  58
ATOM     58  S   UNL A   1      42.245  22.490  26.278  1.00  0.00     0.127 S 
ATOM     59  O   UNL A   1      42.908  22.216  25.005  1.00  0.00    -0.237 OA
ATOM     60  O   UNL A   1      42.915  21.933  27.453  1.00  0.00    -0.237 OA
ATOM     61  O   UNL A   1      40.796  22.339  26.282  1.00  0.00    -0.744 OA
ENDBRANCH  55  58
ENDBRANCH  27  51
BRANCH  39  62
ATOM     62  C   UNL A   1      45.007  27.529  34.103  1.00  0.00     0.023 A 
ATOM     63  C   UNL A   1      46.174  28.316  34.073  1.00  0.00     0.012 A 
ATOM     64  C   UNL A   1      44.983  26.342  34.859  1.00  0.00     0.148 A 
ATOM     65  C   UNL A   1      47.312  27.913  34.768  1.00  0.00     0.002 A 
ATOM     66  C   UNL A   1      46.103  25.974  35.590  1.00  0.00     0.091 A 
ATOM     67  F   UNL A   1      43.866  25.600  34.851  1.00  0.00    -0.205 F 
ATOM     68  C   UNL A   1      47.272  26.751  35.537  1.00  0.00     0.022 A 
BRANCH  66  69
ATOM     69  S   UNL A   1      46.101  24.554  36.690  1.00  0.00     0.127 S 
ATOM     70  O   UNL A   1      47.280  24.816  37.515  1.00  0.00    -0.237 OA
ATOM     71  O   UNL A   1      44.823  24.703  37.386  1.00  0.00    -0.237 OA
ATOM     72  O   UNL A   1      46.186  23.382  35.829  1.00  0.00    -0.744 OA
ENDBRANCH  66  69
ENDBRANCH  39  62
ENDBRANCH  13  14
ENDBRANCH   6   8
ENDBRANCH   5   6
ENDBRANCH   4   5
ENDBRANCH   3   4
ENDBRANCH   2   3
ENDBRANCH   1   2
BRANCH   1  73
ATOM     73  C   UNL A   1      30.912  28.236  22.440  1.00  0.00     0.188 C 
BRANCH  73  74
ATOM     74  O   UNL A   1      31.664  27.073  22.793  1.00  0.00    -0.376 OA
BRANCH  74  75
ATOM     75  C   UNL A   1      31.004  25.845  22.450  1.00  0.00     0.202 C 
BRANCH  75  76
ATOM     76  C   UNL A   1      31.199  24.683  23.428  1.00  0.00     0.261 C 
BRANCH  76  77
ATOM     77  O   UNL A   1      32.479  24.031  23.267  1.00  0.00    -0.463 OA
BRANCH  77  78
ATOM     78  C   UNL A   1      32.862  23.191  24.264  1.00  0.00     0.312 C 
ATOM     79  O   UNL A   1      32.259  23.079  25.322  1.00  0.00    -0.252 OA
BRANCH  78  80
ATOM     80  C   UNL A   1      34.167  22.516  23.923  1.00  0.00     0.147 C 
ATOM     81  C   UNL A   1      34.792  21.518  24.924  1.00  0.00     0.128 C 
ATOM     82  C   UNL A   1      35.267  23.587  23.844  1.00  0.00     0.157 C 
ATOM     83  C   UNL A   1      36.089  22.230  25.336  1.00  0.00     0.155 C 
ATOM     84  C   UNL A   1      36.521  23.017  23.256  1.00  0.00     0.004 C 
ATOM     85  O   UNL A   1      35.674  23.617  25.241  1.00  0.00    -0.365 OA
ATOM     86  C   UNL A   1      37.041  22.202  24.183  1.00  0.00     0.004 C 
BRANCH  81  87
ATOM     87  C   UNL A   1      33.995  20.932  26.066  1.00  0.00     0.227 C 
ATOM     88  O   UNL A   1      34.188  21.374  27.209  1.00  0.00    -0.275 OA
ATOM     89  N   UNL A   1      33.065  19.962  25.998  1.00  0.00    -0.352 N 
ATOM     90  H   UNL A   1      32.605  19.815  26.855  1.00  0.00     0.163 HD
BRANCH  89  91
ATOM     91  C   UNL A   1      32.587  19.083  24.947  1.00  0.00     0.151 C 
BRANCH  91  92
ATOM     92  C   UNL A   1      33.194  17.702  25.057  1.00  0.00    -0.026 A 
ATOM     93  C   UNL A   1      32.411  16.642  25.527  1.00  0.00     0.025 A 
ATOM     94  C   UNL A   1      34.516  17.421  24.689  1.00  0.00     0.025 A 
ATOM     95  C   UNL A   1      32.940  15.360  25.529  1.00  0.00     0.111 A 
ATOM     96  C   UNL A   1      34.958  16.105  24.735  1.00  0.00     0.111 A 
ATOM     97  N   UNL A   1      34.199  15.066  25.141  1.00  0.00    -0.265 NA
ENDBRANCH  91  92
ENDBRANCH  89  91
ENDBRANCH  81  87
ENDBRANCH  78  80
ENDBRANCH  77  78
ENDBRANCH  76  77
ENDBRANCH  75  76
ENDBRANCH  74  75
ENDBRANCH  73  74
ENDBRANCH   1  73
TORSDOF 23
ENDMDL
MODEL 3
REMARK VINA RESULT:     -10.8      2.439      3.980
REMARK SMILES O=C(OCCOCCOCCOC(=O)[C@@H]1[C@H](C(=O)NCc2ccncc2)[C@H]2C=C[C@@H]1O2)c1ccc(-c2c3nc(c(-c4cccc(S(=O)(=O)[O-])c4F)c4ccc([nH]4)c(-c4cccc(S(=O)(=O)[O-])c4F)c4nc(c(-c5cccc(S(=O)(=O)[O-])c5F)c5ccc2[nH]5)C=C4)C=C3)cc1
REMARK SMILES IDX 7 1 6 2 5 3 4 4 3 5 2 6 1 7 32 8 33 9 94 10 34 11 93 12
REMARK SMILES IDX 35 13 36 14 37 15 87 16 38 17 92 18 86 19 88 20 39 21 91 22
REMARK SMILES IDX 85 23 84 24 40 26 72 27 52 28 71 29 53 30 56 31 70 32 89 33
REMARK SMILES IDX 54 34 55 35 69 37 90 38 57 39 41 40 42 41 50 42 43 43 45 44
REMARK SMILES IDX 51 45 44 46 46 47 47 48 48 49 49 50 73 51 74 52 82 53 75 54
REMARK SMILES IDX 77 55 83 56 76 57 78 58 79 59 80 60 81 61 58 62 59 63 67 64
REMARK SMILES IDX 60 65 62 66 68 67 61 68 63 69 64 70 65 71 66 72 8 73 9 74
REMARK SMILES IDX 10 75 11 76 12 77 13 78 14 79 15 80 16 81 30 82 27 83 29 84
REMARK SMILES IDX 31 85 28 86 17 87 18 88 19 89 20 91 21 92 22 93 26 94 23 95
REMARK SMILES IDX 25 96 24 97
REMARK H PARENT 88 25 56 36 19 90
REMARK Flexibility Score: inf
ROOT
ATOM      1  C   UNL A   1      32.999  29.114  26.288  1.00  0.00     0.188 C 
ENDROOT
BRANCH   1   2
ATOM      2  O   UNL A   1      32.920  30.530  26.123  1.00  0.00    -0.376 OA
BRANCH   2   3
ATOM      3  C   UNL A   1      31.583  31.019  26.090  1.00  0.00     0.202 C 
BRANCH   3   4
ATOM      4  C   UNL A   1      31.398  32.273  26.948  1.00  0.00     0.261 C 
BRANCH   4   5
ATOM      5  O   UNL A   1      32.497  33.197  26.867  1.00  0.00    -0.460 OA
BRANCH   5   6
ATOM      6  C   UNL A   1      33.356  33.608  27.833  1.00  0.00     0.338 C 
ATOM      7  O   UNL A   1      33.166  34.729  28.309  1.00  0.00    -0.246 OA
BRANCH   6   8
ATOM      8  C   UNL A   1      34.532  32.823  28.359  1.00  0.00     0.060 A 
ATOM      9  C   UNL A   1      34.504  31.516  28.852  1.00  0.00     0.016 A 
ATOM     10  C   UNL A   1      35.785  33.472  28.338  1.00  0.00     0.016 A 
ATOM     11  C   UNL A   1      35.659  30.863  29.279  1.00  0.00     0.010 A 
ATOM     12  C   UNL A   1      36.948  32.837  28.794  1.00  0.00     0.010 A 
ATOM     13  C   UNL A   1      36.880  31.528  29.276  1.00  0.00    -0.014 A 
BRANCH  13  14
ATOM     14  C   UNL A   1      38.015  30.886  29.962  1.00  0.00     0.031 A 
ATOM     15  C   UNL A   1      38.329  31.327  31.357  1.00  0.00     0.074 A 
ATOM     16  C   UNL A   1      38.664  29.849  29.404  1.00  0.00     0.049 A 
ATOM     17  N   UNL A   1      39.235  30.871  32.176  1.00  0.00    -0.248 NA
ATOM     18  C   UNL A   1      37.473  32.385  31.923  1.00  0.00     0.031 C 
ATOM     19  C   UNL A   1      38.329  29.245  28.117  1.00  0.00     0.029 A 
ATOM     20  N   UNL A   1      39.736  29.120  29.846  1.00  0.00    -0.354 N 
ATOM     21  C   UNL A   1      39.059  31.581  33.354  1.00  0.00     0.074 A 
ATOM     22  C   UNL A   1      37.959  32.496  33.150  1.00  0.00     0.031 C 
ATOM     23  C   UNL A   1      39.218  28.275  27.845  1.00  0.00     0.029 A 
ATOM     24  C   UNL A   1      40.206  28.227  28.911  1.00  0.00     0.049 A 
ATOM     25  H   UNL A   1      40.131  29.224  30.742  1.00  0.00     0.167 HD
ATOM     26  C   UNL A   1      39.755  31.469  34.505  1.00  0.00     0.034 A 
ATOM     27  C   UNL A   1      41.335  27.492  28.902  1.00  0.00     0.034 A 
ATOM     28  C   UNL A   1      40.868  30.580  34.677  1.00  0.00     0.049 A 
ATOM     29  C   UNL A   1      42.197  27.516  30.131  1.00  0.00     0.074 A 
ATOM     30  C   UNL A   1      41.664  30.404  35.792  1.00  0.00     0.029 A 
ATOM     31  N   UNL A   1      41.363  29.743  33.687  1.00  0.00    -0.354 N 
ATOM     32  N   UNL A   1      41.984  28.137  31.267  1.00  0.00    -0.248 NA
ATOM     33  C   UNL A   1      43.426  26.714  30.103  1.00  0.00     0.031 C 
ATOM     34  C   UNL A   1      42.669  29.488  35.460  1.00  0.00     0.029 A 
ATOM     35  C   UNL A   1      42.476  29.071  34.151  1.00  0.00     0.049 A 
ATOM     36  H   UNL A   1      40.977  29.644  32.786  1.00  0.00     0.167 HD
ATOM     37  C   UNL A   1      43.026  27.768  32.104  1.00  0.00     0.074 A 
ATOM     38  C   UNL A   1      43.867  26.862  31.346  1.00  0.00     0.031 C 
ATOM     39  C   UNL A   1      43.269  28.145  33.383  1.00  0.00     0.034 A 
BRANCH  26  40
ATOM     40  C   UNL A   1      39.346  32.360  35.641  1.00  0.00     0.023 A 
ATOM     41  C   UNL A   1      38.435  31.895  36.609  1.00  0.00     0.012 A 
ATOM     42  C   UNL A   1      39.870  33.662  35.745  1.00  0.00     0.148 A 
ATOM     43  C   UNL A   1      38.036  32.722  37.658  1.00  0.00     0.002 A 
ATOM     44  C   UNL A   1      39.493  34.468  36.810  1.00  0.00     0.091 A 
ATOM     45  F   UNL A   1      40.711  34.087  34.791  1.00  0.00    -0.205 F 
ATOM     46  C   UNL A   1      38.570  34.004  37.761  1.00  0.00     0.022 A 
BRANCH  44  47
ATOM     47  S   UNL A   1      40.153  36.119  37.055  1.00  0.00     0.127 S 
ATOM     48  O   UNL A   1      39.385  36.575  38.213  1.00  0.00    -0.237 OA
ATOM     49  O   UNL A   1      41.563  35.843  37.327  1.00  0.00    -0.237 OA
ATOM     50  O   UNL A   1      39.896  36.846  35.820  1.00  0.00    -0.744 OA
ENDBRANCH  44  47
ENDBRANCH  26  40
BRANCH  27  51
ATOM     51  C   UNL A   1      41.728  26.714  27.692  1.00  0.00     0.023 A 
ATOM     52  C   UNL A   1      42.298  27.363  26.583  1.00  0.00     0.012 A 
ATOM     53  C   UNL A   1      41.512  25.321  27.634  1.00  0.00     0.148 A 
ATOM     54  C   UNL A   1      42.618  26.645  25.427  1.00  0.00     0.002 A 
ATOM     55  C   UNL A   1      41.865  24.605  26.495  1.00  0.00     0.091 A 
ATOM     56  F   UNL A   1      40.954  24.721  28.696  1.00  0.00    -0.205 F 
ATOM     57  C   UNL A   1      42.408  25.268  25.385  1.00  0.00     0.022 A 
BRANCH  55  58
ATOM     58  S   UNL A   1      41.689  22.820  26.390  1.00  0.00     0.127 S 
ATOM     59  O   UNL A   1      42.537  22.504  25.244  1.00  0.00    -0.237 OA
ATOM     60  O   UNL A   1      42.215  22.383  27.683  1.00  0.00    -0.237 OA
ATOM     61  O   UNL A   1      40.264  22.581  26.207  1.00  0.00    -0.744 OA
ENDBRANCH  55  58
ENDBRANCH  27  51
BRANCH  39  62
ATOM     62  C   UNL A   1      44.473  27.552  34.054  1.00  0.00     0.023 A 
ATOM     63  C   UNL A   1      45.702  28.238  34.022  1.00  0.00     0.012 A 
ATOM     64  C   UNL A   1      44.359  26.357  34.789  1.00  0.00     0.148 A 
ATOM     65  C   UNL A   1      46.811  27.726  34.692  1.00  0.00     0.002 A 
ATOM     66  C   UNL A   1      45.454  25.881  35.496  1.00  0.00     0.091 A 
ATOM     67  F   UNL A   1      43.183  25.711  34.784  1.00  0.00    -0.205 F 
ATOM     68  C   UNL A   1      46.683  26.557  35.440  1.00  0.00     0.022 A 
BRANCH  66  69
ATOM     69  S   UNL A   1      45.346  24.445  36.569  1.00  0.00     0.127 S 
ATOM     70  O   UNL A   1      44.422  24.914  37.601  1.00  0.00    -0.237 OA
ATOM     71  O   UNL A   1      44.796  23.428  35.672  1.00  0.00    -0.237 OA
ATOM     72  O   UNL A   1      46.706  24.181  37.020  1.00  0.00    -0.744 OA
ENDBRANCH  66  69
ENDBRANCH  39  62
ENDBRANCH  13  14
ENDBRANCH   6   8
ENDBRANCH   5   6
ENDBRANCH   4   5
ENDBRANCH   3   4
ENDBRANCH   2   3
ENDBRANCH   1   2
BRANCH   1  73
ATOM     73  C   UNL A   1      31.629  28.432  26.230  1.00  0.00     0.188 C 
BRANCH  73  74
ATOM     74  O   UNL A   1      31.401  27.542  27.325  1.00  0.00    -0.376 OA
BRANCH  74  75
ATOM     75  C   UNL A   1      31.316  26.165  26.927  1.00  0.00     0.202 C 
BRANCH  75  76
ATOM     76  C   UNL A   1      30.440  25.875  25.704  1.00  0.00     0.261 C 
BRANCH  76  77
ATOM     77  O   UNL A   1      30.649  24.545  25.176  1.00  0.00    -0.463 OA
BRANCH  77  78
ATOM     78  C   UNL A   1      31.183  24.465  23.929  1.00  0.00     0.312 C 
ATOM     79  O   UNL A   1      30.512  24.355  22.912  1.00  0.00    -0.252 OA
BRANCH  78  80
ATOM     80  C   UNL A   1      32.689  24.426  23.992  1.00  0.00     0.147 C 
ATOM     81  C   UNL A   1      33.515  24.840  22.753  1.00  0.00     0.128 C 
ATOM     82  C   UNL A   1      33.134  22.965  24.172  1.00  0.00     0.157 C 
ATOM     83  C   UNL A   1      34.208  23.527  22.362  1.00  0.00     0.155 C 
ATOM     84  C   UNL A   1      34.593  22.891  24.503  1.00  0.00     0.004 C 
ATOM     85  O   UNL A   1      33.207  22.563  22.775  1.00  0.00    -0.365 OA
ATOM     86  C   UNL A   1      35.255  23.213  23.384  1.00  0.00     0.004 C 
BRANCH  81  87
ATOM     87  C   UNL A   1      32.898  25.603  21.605  1.00  0.00     0.227 C 
ATOM     88  O   UNL A   1      32.977  25.121  20.465  1.00  0.00    -0.275 OA
ATOM     89  N   UNL A   1      32.244  26.778  21.664  1.00  0.00    -0.352 N 
ATOM     90  H   UNL A   1      31.839  27.032  20.804  1.00  0.00     0.163 HD
BRANCH  89  91
ATOM     91  C   UNL A   1      32.000  27.755  22.708  1.00  0.00     0.151 C 
BRANCH  91  92
ATOM     92  C   UNL A   1      30.652  28.422  22.544  1.00  0.00    -0.026 A 
ATOM     93  C   UNL A   1      29.500  27.763  22.986  1.00  0.00     0.025 A 
ATOM     94  C   UNL A   1      30.498  29.694  21.980  1.00  0.00     0.025 A 
ATOM     95  C   UNL A   1      28.280  28.419  22.927  1.00  0.00     0.111 A 
ATOM     96  C   UNL A   1      29.232  30.266  21.955  1.00  0.00     0.111 A 
ATOM     97  N   UNL A   1      28.120  29.661  22.422  1.00  0.00    -0.265 NA
ENDBRANCH  91  92
ENDBRANCH  89  91
ENDBRANCH  81  87
ENDBRANCH  78  80
ENDBRANCH  77  78
ENDBRANCH  76  77
ENDBRANCH  75  76
ENDBRANCH  74  75
ENDBRANCH  73  74
ENDBRANCH   1  73
TORSDOF 23
ENDMDL
