MODEL 1
REMARK VINA RESULT:     -10.0      0.000      0.000
REMARK SMILES CC(=O)c1nnn(-c2ccc(C(=O)OCCOCCOCCOC(=O)c3ccc(-c4c5nc(c(-c6cccc(S(=O)(=O)[O-])c6F)c6ccc([nH]6)c(-c6cccc(S(=O)(=O)[O-])c6F)c6nc(c(-c7cccc(S(=O)(=O)[O-])c7F)c7ccc4[nH]7)C=C6)C=C5)cc3)cc2)c1C
REMARK SMILES IDX 19 1 18 2 17 3 16 4 15 5 14 6 12 7 13 8 11 9 8 10 9 11 90 12
REMARK SMILES IDX 10 13 89 14 7 15 4 16 5 17 91 18 6 19 92 20 2 21 1 22 3 23
REMARK SMILES IDX 20 24 21 25 22 26 23 27 24 28 25 29 26 30 27 31 88 32 28 33
REMARK SMILES IDX 87 34 29 35 30 36 31 37 81 38 32 39 86 40 80 41 82 42 33 43
REMARK SMILES IDX 85 44 79 45 78 46 34 48 66 49 46 50 65 51 47 52 50 53 64 54
REMARK SMILES IDX 83 55 48 56 49 57 63 59 84 60 51 61 35 62 36 63 44 64 37 65
REMARK SMILES IDX 39 66 45 67 38 68 40 69 41 70 42 71 43 72 67 73 68 74 76 75
REMARK SMILES IDX 69 76 71 77 77 78 70 79 72 80 73 81 74 82 75 83 52 84 53 85
REMARK SMILES IDX 61 86 54 87 56 88 62 89 55 90 57 91 58 92 59 93 60 94
REMARK H PARENT 82 47 50 58
REMARK Flexibility Score: inf
ROOT
ATOM      1  C   UNL A   1      41.685  20.717  26.404  1.00  0.00     0.188 C 
ENDROOT
BRANCH   1   2
ATOM      2  C   UNL A   1      40.155  20.901  26.477  1.00  0.00     0.188 C 
BRANCH   2   3
ATOM      3  O   UNL A   1      39.551  22.121  26.104  1.00  0.00    -0.376 OA
BRANCH   3   4
ATOM      4  C   UNL A   1      38.206  22.190  25.670  1.00  0.00     0.202 C 
BRANCH   4   5
ATOM      5  C   UNL A   1      37.348  23.469  25.673  1.00  0.00     0.261 C 
BRANCH   5   6
ATOM      6  O   UNL A   1      36.143  23.435  24.908  1.00  0.00    -0.460 OA
BRANCH   6   7
ATOM      7  C   UNL A   1      35.022  23.808  25.560  1.00  0.00     0.338 C 
ATOM      8  O   UNL A   1      34.625  23.404  26.644  1.00  0.00    -0.246 OA
BRANCH   7   9
ATOM      9  C   UNL A   1      34.365  24.914  24.832  1.00  0.00     0.060 A 
ATOM     10  C   UNL A   1      32.882  26.933  23.662  1.00  0.00     0.067 A 
ATOM     11  C   UNL A   1      33.487  27.178  24.894  1.00  0.00     0.029 A 
ATOM     12  C   UNL A   1      33.145  25.756  22.942  1.00  0.00     0.029 A 
ATOM     13  C   UNL A   1      34.208  26.145  25.493  1.00  0.00     0.018 A 
ATOM     14  C   UNL A   1      33.899  24.745  23.526  1.00  0.00     0.018 A 
BRANCH  10  15
ATOM     15  N   UNL A   1      31.792  27.734  23.267  1.00  0.00    -0.217 N 
ATOM     16  C   UNL A   1      29.793  28.568  23.011  1.00  0.00     0.151 A 
ATOM     17  N   UNL A   1      30.713  29.374  22.383  1.00  0.00    -0.126 NA
ATOM     18  C   UNL A   1      30.470  27.543  23.653  1.00  0.00     0.073 A 
ATOM     19  N   UNL A   1      31.930  28.923  22.657  1.00  0.00    -0.061 NA
ATOM     20  C   UNL A   1      30.071  26.471  24.601  1.00  0.00     0.069 C 
BRANCH  16  21
ATOM     21  C   UNL A   1      28.368  28.877  22.978  1.00  0.00     0.181 C 
ATOM     22  C   UNL A   1      27.933  30.282  22.645  1.00  0.00     0.095 C 
ATOM     23  O   UNL A   1      27.515  28.020  23.210  1.00  0.00    -0.293 OA
ENDBRANCH  16  21
ENDBRANCH  10  15
ENDBRANCH   7   9
ENDBRANCH   6   7
ENDBRANCH   5   6
ENDBRANCH   4   5
ENDBRANCH   3   4
ENDBRANCH   2   3
ENDBRANCH   1   2
BRANCH   1  24
ATOM     24  O   UNL A   1      42.402  21.389  25.391  1.00  0.00    -0.376 OA
BRANCH  24  25
ATOM     25  C   UNL A   1      43.126  22.584  25.623  1.00  0.00     0.202 C 
BRANCH  25  26
ATOM     26  C   UNL A   1      42.577  24.007  25.540  1.00  0.00     0.261 C 
BRANCH  26  27
ATOM     27  O   UNL A   1      43.328  24.935  24.795  1.00  0.00    -0.460 OA
BRANCH  27  28
ATOM     28  C   UNL A   1      44.148  25.683  25.561  1.00  0.00     0.338 C 
ATOM     29  O   UNL A   1      45.368  25.657  25.577  1.00  0.00    -0.246 OA
BRANCH  28  30
ATOM     30  C   UNL A   1      43.335  26.472  26.480  1.00  0.00     0.060 A 
ATOM     31  C   UNL A   1      42.468  27.396  25.900  1.00  0.00     0.016 A 
ATOM     32  C   UNL A   1      43.733  26.536  27.823  1.00  0.00     0.016 A 
ATOM     33  C   UNL A   1      42.192  28.538  26.608  1.00  0.00     0.010 A 
ATOM     34  C   UNL A   1      43.478  27.688  28.518  1.00  0.00     0.010 A 
ATOM     35  C   UNL A   1      42.790  28.705  27.864  1.00  0.00    -0.014 A 
BRANCH  35  36
ATOM     36  C   UNL A   1      42.567  29.956  28.545  1.00  0.00     0.031 A 
ATOM     37  C   UNL A   1      43.684  30.893  28.319  1.00  0.00     0.074 A 
ATOM     38  C   UNL A   1      41.437  30.216  29.227  1.00  0.00     0.049 A 
ATOM     39  N   UNL A   1      44.600  31.226  29.165  1.00  0.00    -0.248 NA
ATOM     40  C   UNL A   1      43.961  31.306  26.934  1.00  0.00     0.031 C 
ATOM     41  C   UNL A   1      40.199  29.432  29.241  1.00  0.00     0.029 A 
ATOM     42  N   UNL A   1      41.109  31.324  29.943  1.00  0.00    -0.354 N 
ATOM     43  C   UNL A   1      45.399  32.130  28.475  1.00  0.00     0.074 A 
ATOM     44  C   UNL A   1      45.137  31.915  27.080  1.00  0.00     0.031 C 
ATOM     45  C   UNL A   1      39.193  30.211  29.703  1.00  0.00     0.029 A 
ATOM     46  C   UNL A   1      39.739  31.491  30.122  1.00  0.00     0.049 A 
ATOM     47  H   UNL A   1      41.779  31.949  30.303  1.00  0.00     0.167 HD
ATOM     48  C   UNL A   1      45.920  33.206  29.121  1.00  0.00     0.034 A 
ATOM     49  C   UNL A   1      39.111  32.639  30.485  1.00  0.00     0.034 A 
ATOM     50  C   UNL A   1      45.903  33.008  30.552  1.00  0.00     0.049 A 
ATOM     51  C   UNL A   1      40.132  33.524  31.097  1.00  0.00     0.074 A 
ATOM     52  C   UNL A   1      46.402  32.052  31.415  1.00  0.00     0.029 A 
ATOM     53  N   UNL A   1      44.937  33.689  31.252  1.00  0.00    -0.354 N 
ATOM     54  N   UNL A   1      40.709  33.276  32.239  1.00  0.00    -0.248 NA
ATOM     55  C   UNL A   1      40.832  34.457  30.229  1.00  0.00     0.031 C 
ATOM     56  C   UNL A   1      45.413  31.917  32.433  1.00  0.00     0.029 A 
ATOM     57  C   UNL A   1      44.401  32.845  32.183  1.00  0.00     0.049 A 
ATOM     58  H   UNL A   1      44.676  34.627  31.109  1.00  0.00     0.167 HD
ATOM     59  C   UNL A   1      42.038  33.622  32.027  1.00  0.00     0.074 A 
ATOM     60  C   UNL A   1      42.029  34.447  30.821  1.00  0.00     0.031 C 
ATOM     61  C   UNL A   1      43.042  32.954  32.667  1.00  0.00     0.034 A 
BRANCH  48  62
ATOM     62  C   UNL A   1      46.004  34.598  28.520  1.00  0.00     0.023 A 
ATOM     63  C   UNL A   1      47.243  35.264  28.654  1.00  0.00     0.012 A 
ATOM     64  C   UNL A   1      44.899  35.388  28.119  1.00  0.00     0.148 A 
ATOM     65  C   UNL A   1      47.354  36.649  28.494  1.00  0.00     0.002 A 
ATOM     66  C   UNL A   1      45.030  36.750  27.885  1.00  0.00     0.091 A 
ATOM     67  F   UNL A   1      43.672  34.871  28.073  1.00  0.00    -0.205 F 
ATOM     68  C   UNL A   1      46.247  37.394  28.110  1.00  0.00     0.022 A 
BRANCH  66  69
ATOM     69  S   UNL A   1      43.638  37.754  27.345  1.00  0.00     0.127 S 
ATOM     70  O   UNL A   1      42.982  38.050  28.615  1.00  0.00    -0.237 OA
ATOM     71  O   UNL A   1      44.319  38.886  26.717  1.00  0.00    -0.237 OA
ATOM     72  O   UNL A   1      42.881  36.923  26.417  1.00  0.00    -0.744 OA
ENDBRANCH  66  69
ENDBRANCH  48  62
BRANCH  49  73
ATOM     73  C   UNL A   1      37.779  33.164  30.094  1.00  0.00     0.023 A 
ATOM     74  C   UNL A   1      37.321  32.976  28.774  1.00  0.00     0.012 A 
ATOM     75  C   UNL A   1      36.842  33.580  31.067  1.00  0.00     0.148 A 
ATOM     76  C   UNL A   1      35.972  33.154  28.442  1.00  0.00     0.002 A 
ATOM     77  C   UNL A   1      35.504  33.766  30.731  1.00  0.00     0.091 A 
ATOM     78  F   UNL A   1      37.239  33.697  32.340  1.00  0.00    -0.205 F 
ATOM     79  C   UNL A   1      35.062  33.541  29.421  1.00  0.00     0.022 A 
BRANCH  77  80
ATOM     80  S   UNL A   1      34.271  34.239  31.950  1.00  0.00     0.127 S 
ATOM     81  O   UNL A   1      33.165  34.690  31.103  1.00  0.00    -0.237 OA
ATOM     82  O   UNL A   1      34.034  32.978  32.646  1.00  0.00    -0.237 OA
ATOM     83  O   UNL A   1      34.882  35.297  32.745  1.00  0.00    -0.744 OA
ENDBRANCH  77  80
ENDBRANCH  49  73
BRANCH  61  84
ATOM     84  C   UNL A   1      42.682  32.082  33.841  1.00  0.00     0.023 A 
ATOM     85  C   UNL A   1      42.475  32.587  35.142  1.00  0.00     0.012 A 
ATOM     86  C   UNL A   1      42.393  30.733  33.580  1.00  0.00     0.148 A 
ATOM     87  C   UNL A   1      42.010  31.752  36.163  1.00  0.00     0.002 A 
ATOM     88  C   UNL A   1      41.883  29.921  34.582  1.00  0.00     0.091 A 
ATOM     89  F   UNL A   1      42.602  30.270  32.337  1.00  0.00    -0.205 F 
ATOM     90  C   UNL A   1      41.700  30.423  35.880  1.00  0.00     0.022 A 
BRANCH  88  91
ATOM     91  S   UNL A   1      41.353  28.243  34.235  1.00  0.00     0.127 S 
ATOM     92  O   UNL A   1      40.119  28.462  33.485  1.00  0.00    -0.237 OA
ATOM     93  O   UNL A   1      42.467  27.718  33.443  1.00  0.00    -0.237 OA
ATOM     94  O   UNL A   1      41.196  27.598  35.533  1.00  0.00    -0.744 OA
ENDBRANCH  88  91
ENDBRANCH  61  84
ENDBRANCH  35  36
ENDBRANCH  28  30
ENDBRANCH  27  28
ENDBRANCH  26  27
ENDBRANCH  25  26
ENDBRANCH  24  25
ENDBRANCH   1  24
TORSDOF 22
ENDMDL
MODEL 2
REMARK VINA RESULT:      -9.7      3.938     10.390
REMARK SMILES CC(=O)c1nnn(-c2ccc(C(=O)OCCOCCOCCOC(=O)c3ccc(-c4c5nc(c(-c6cccc(S(=O)(=O)[O-])c6F)c6ccc([nH]6)c(-c6cccc(S(=O)(=O)[O-])c6F)c6nc(c(-c7cccc(S(=O)(=O)[O-])c7F)c7ccc4[nH]7)C=C6)C=C5)cc3)cc2)c1C
REMARK SMILES IDX 19 1 18 2 17 3 16 4 15 5 14 6 12 7 13 8 11 9 8 10 9 11 90 12
REMARK SMILES IDX 10 13 89 14 7 15 4 16 5 17 91 18 6 19 92 20 2 21 1 22 3 23
REMARK SMILES IDX 20 24 21 25 22 26 23 27 24 28 25 29 26 30 27 31 88 32 28 33
REMARK SMILES IDX 87 34 29 35 30 36 31 37 81 38 32 39 86 40 80 41 82 42 33 43
REMARK SMILES IDX 85 44 79 45 78 46 34 48 66 49 46 50 65 51 47 52 50 53 64 54
REMARK SMILES IDX 83 55 48 56 49 57 63 59 84 60 51 61 35 62 36 63 44 64 37 65
REMARK SMILES IDX 39 66 45 67 38 68 40 69 41 70 42 71 43 72 67 73 68 74 76 75
REMARK SMILES IDX 69 76 71 77 77 78 70 79 72 80 73 81 74 82 75 83 52 84 53 85
REMARK SMILES IDX 61 86 54 87 56 88 62 89 55 90 57 91 58 92 59 93 60 94
REMARK H PARENT 82 47 50 58
REMARK Flexibility Score: inf
ROOT
ATOM      1  C   UNL A   1      34.083  36.294  31.981  1.00  0.00     0.188 C 
ENDROOT
BRANCH   1   2
ATOM      2  C   UNL A   1      32.826  35.424  31.780  1.00  0.00     0.188 C 
BRANCH   2   3
ATOM      3  O   UNL A   1      32.370  35.092  30.485  1.00  0.00    -0.376 OA
BRANCH   3   4
ATOM      4  C   UNL A   1      33.200  35.215  29.345  1.00  0.00     0.202 C 
BRANCH   4   5
ATOM      5  C   UNL A   1      34.294  34.209  28.945  1.00  0.00     0.261 C 
BRANCH   5   6
ATOM      6  O   UNL A   1      33.867  33.046  28.234  1.00  0.00    -0.460 OA
BRANCH   6   7
ATOM      7  C   UNL A   1      34.770  32.047  28.145  1.00  0.00     0.338 C 
ATOM      8  O   UNL A   1      35.880  32.003  28.656  1.00  0.00    -0.246 OA
BRANCH   7   9
ATOM      9  C   UNL A   1      34.176  30.899  27.427  1.00  0.00     0.060 A 
ATOM     10  C   UNL A   1      32.875  28.715  26.342  1.00  0.00     0.067 A 
ATOM     11  C   UNL A   1      32.234  29.954  26.317  1.00  0.00     0.029 A 
ATOM     12  C   UNL A   1      34.213  28.595  26.751  1.00  0.00     0.029 A 
ATOM     13  C   UNL A   1      32.883  31.044  26.895  1.00  0.00     0.018 A 
ATOM     14  C   UNL A   1      34.871  29.695  27.288  1.00  0.00     0.018 A 
BRANCH  10  15
ATOM     15  N   UNL A   1      32.100  27.545  26.222  1.00  0.00    -0.217 N 
ATOM     16  C   UNL A   1      31.251  25.660  25.525  1.00  0.00     0.151 A 
ATOM     17  N   UNL A   1      30.694  25.997  26.738  1.00  0.00    -0.126 NA
ATOM     18  C   UNL A   1      32.215  26.603  25.205  1.00  0.00     0.073 A 
ATOM     19  N   UNL A   1      31.313  27.073  27.204  1.00  0.00    -0.061 NA
ATOM     20  C   UNL A   1      33.244  26.713  24.139  1.00  0.00     0.069 C 
BRANCH  16  21
ATOM     21  C   UNL A   1      30.844  24.452  24.815  1.00  0.00     0.181 C 
ATOM     22  C   UNL A   1      30.449  24.557  23.364  1.00  0.00     0.095 C 
ATOM     23  O   UNL A   1      30.820  23.354  25.370  1.00  0.00    -0.293 OA
ENDBRANCH  16  21
ENDBRANCH  10  15
ENDBRANCH   7   9
ENDBRANCH   6   7
ENDBRANCH   5   6
ENDBRANCH   4   5
ENDBRANCH   3   4
ENDBRANCH   2   3
ENDBRANCH   1   2
BRANCH   1  24
ATOM     24  O   UNL A   1      34.853  36.114  33.150  1.00  0.00    -0.376 OA
BRANCH  24  25
ATOM     25  C   UNL A   1      35.684  34.986  33.359  1.00  0.00     0.202 C 
BRANCH  25  26
ATOM     26  C   UNL A   1      36.213  34.037  32.286  1.00  0.00     0.261 C 
BRANCH  26  27
ATOM     27  O   UNL A   1      37.275  33.191  32.653  1.00  0.00    -0.460 OA
BRANCH  27  28
ATOM     28  C   UNL A   1      37.071  31.907  32.294  1.00  0.00     0.338 C 
ATOM     29  O   UNL A   1      36.090  31.447  31.733  1.00  0.00    -0.246 OA
BRANCH  28  30
ATOM     30  C   UNL A   1      38.180  31.102  32.792  1.00  0.00     0.060 A 
ATOM     31  C   UNL A   1      39.441  31.694  32.752  1.00  0.00     0.016 A 
ATOM     32  C   UNL A   1      37.991  29.717  32.906  1.00  0.00     0.016 A 
ATOM     33  C   UNL A   1      40.523  30.871  32.575  1.00  0.00     0.010 A 
ATOM     34  C   UNL A   1      39.069  28.898  32.703  1.00  0.00     0.010 A 
ATOM     35  C   UNL A   1      40.301  29.494  32.449  1.00  0.00    -0.014 A 
BRANCH  35  36
ATOM     36  C   UNL A   1      41.441  28.660  32.163  1.00  0.00     0.031 A 
ATOM     37  C   UNL A   1      42.236  28.406  33.380  1.00  0.00     0.074 A 
ATOM     38  C   UNL A   1      41.671  28.143  30.942  1.00  0.00     0.049 A 
ATOM     39  N   UNL A   1      43.379  28.922  33.681  1.00  0.00    -0.248 NA
ATOM     40  C   UNL A   1      41.575  27.707  34.494  1.00  0.00     0.031 C 
ATOM     41  C   UNL A   1      40.768  28.137  29.787  1.00  0.00     0.029 A 
ATOM     42  N   UNL A   1      42.715  27.381  30.521  1.00  0.00    -0.354 N 
ATOM     43  C   UNL A   1      43.701  28.362  34.912  1.00  0.00     0.074 A 
ATOM     44  C   UNL A   1      42.469  27.877  35.468  1.00  0.00     0.031 C 
ATOM     45  C   UNL A   1      41.186  27.196  28.909  1.00  0.00     0.029 A 
ATOM     46  C   UNL A   1      42.437  26.629  29.383  1.00  0.00     0.049 A 
ATOM     47  H   UNL A   1      43.587  27.364  30.978  1.00  0.00     0.167 HD
ATOM     48  C   UNL A   1      44.989  28.024  35.189  1.00  0.00     0.034 A 
ATOM     49  C   UNL A   1      43.139  25.553  28.943  1.00  0.00     0.034 A 
ATOM     50  C   UNL A   1      45.902  28.704  34.299  1.00  0.00     0.049 A 
ATOM     51  C   UNL A   1      44.474  25.604  29.586  1.00  0.00     0.074 A 
ATOM     52  C   UNL A   1      46.153  30.022  33.973  1.00  0.00     0.029 A 
ATOM     53  N   UNL A   1      46.451  27.949  33.292  1.00  0.00    -0.354 N 
ATOM     54  N   UNL A   1      45.368  26.513  29.319  1.00  0.00    -0.248 NA
ATOM     55  C   UNL A   1      44.647  24.904  30.849  1.00  0.00     0.031 C 
ATOM     56  C   UNL A   1      46.448  30.010  32.578  1.00  0.00     0.029 A 
ATOM     57  C   UNL A   1      46.435  28.684  32.141  1.00  0.00     0.049 A 
ATOM     58  H   UNL A   1      46.799  27.032  33.384  1.00  0.00     0.167 HD
ATOM     59  C   UNL A   1      45.906  26.832  30.560  1.00  0.00     0.074 A 
ATOM     60  C   UNL A   1      45.511  25.734  31.440  1.00  0.00     0.031 C 
ATOM     61  C   UNL A   1      46.349  28.097  30.822  1.00  0.00     0.034 A 
BRANCH  48  62
ATOM     62  C   UNL A   1      45.396  26.757  35.919  1.00  0.00     0.023 A 
ATOM     63  C   UNL A   1      46.373  26.903  36.929  1.00  0.00     0.012 A 
ATOM     64  C   UNL A   1      45.121  25.436  35.487  1.00  0.00     0.148 A 
ATOM     65  C   UNL A   1      47.101  25.810  37.410  1.00  0.00     0.002 A 
ATOM     66  C   UNL A   1      45.792  24.345  36.025  1.00  0.00     0.091 A 
ATOM     67  F   UNL A   1      44.298  25.210  34.465  1.00  0.00    -0.205 F 
ATOM     68  C   UNL A   1      46.812  24.530  36.958  1.00  0.00     0.022 A 
BRANCH  66  69
ATOM     69  S   UNL A   1      45.426  22.662  35.505  1.00  0.00     0.127 S 
ATOM     70  O   UNL A   1      46.155  22.582  34.243  1.00  0.00    -0.237 OA
ATOM     71  O   UNL A   1      45.997  21.885  36.604  1.00  0.00    -0.237 OA
ATOM     72  O   UNL A   1      43.974  22.580  35.406  1.00  0.00    -0.744 OA
ENDBRANCH  66  69
ENDBRANCH  48  62
BRANCH  49  73
ATOM     73  C   UNL A   1      42.672  24.328  28.246  1.00  0.00     0.023 A 
ATOM     74  C   UNL A   1      41.308  23.974  28.308  1.00  0.00     0.012 A 
ATOM     75  C   UNL A   1      43.482  23.675  27.290  1.00  0.00     0.148 A 
ATOM     76  C   UNL A   1      40.761  23.036  27.423  1.00  0.00     0.002 A 
ATOM     77  C   UNL A   1      42.937  22.736  26.420  1.00  0.00     0.091 A 
ATOM     78  F   UNL A   1      44.763  24.045  27.167  1.00  0.00    -0.205 F 
ATOM     79  C   UNL A   1      41.573  22.423  26.473  1.00  0.00     0.022 A 
BRANCH  77  80
ATOM     80  S   UNL A   1      43.922  21.925  25.152  1.00  0.00     0.127 S 
ATOM     81  O   UNL A   1      45.257  21.938  25.752  1.00  0.00    -0.237 OA
ATOM     82  O   UNL A   1      43.296  20.608  25.079  1.00  0.00    -0.237 OA
ATOM     83  O   UNL A   1      43.796  22.754  23.960  1.00  0.00    -0.744 OA
ENDBRANCH  77  80
ENDBRANCH  49  73
BRANCH  61  84
ATOM     84  C   UNL A   1      46.559  29.033  29.662  1.00  0.00     0.023 A 
ATOM     85  C   UNL A   1      47.772  29.119  28.948  1.00  0.00     0.012 A 
ATOM     86  C   UNL A   1      45.438  29.732  29.185  1.00  0.00     0.148 A 
ATOM     87  C   UNL A   1      47.866  29.905  27.796  1.00  0.00     0.002 A 
ATOM     88  C   UNL A   1      45.521  30.470  28.014  1.00  0.00     0.091 A 
ATOM     89  F   UNL A   1      44.293  29.643  29.880  1.00  0.00    -0.205 F 
ATOM     90  C   UNL A   1      46.737  30.569  27.320  1.00  0.00     0.022 A 
BRANCH  88  91
ATOM     91  S   UNL A   1      44.067  31.237  27.297  1.00  0.00     0.127 S 
ATOM     92  O   UNL A   1      43.117  30.127  27.273  1.00  0.00    -0.237 OA
ATOM     93  O   UNL A   1      43.755  32.288  28.266  1.00  0.00    -0.237 OA
ATOM     94  O   UNL A   1      44.483  31.739  25.993  1.00  0.00    -0.744 OA
ENDBRANCH  88  91
ENDBRANCH  61  84
ENDBRANCH  35  36
ENDBRANCH  28  30
ENDBRANCH  27  28
ENDBRANCH  26  27
ENDBRANCH  25  26
ENDBRANCH  24  25
ENDBRANCH   1  24
TORSDOF 22
ENDMDL
MODEL 3
REMARK VINA RESULT:      -9.5      2.067      2.500
REMARK SMILES CC(=O)c1nnn(-c2ccc(C(=O)OCCOCCOCCOC(=O)c3ccc(-c4c5nc(c(-c6cccc(S(=O)(=O)[O-])c6F)c6ccc([nH]6)c(-c6cccc(S(=O)(=O)[O-])c6F)c6nc(c(-c7cccc(S(=O)(=O)[O-])c7F)c7ccc4[nH]7)C=C6)C=C5)cc3)cc2)c1C
REMARK SMILES IDX 19 1 18 2 17 3 16 4 15 5 14 6 12 7 13 8 11 9 8 10 9 11 90 12
REMARK SMILES IDX 10 13 89 14 7 15 4 16 5 17 91 18 6 19 92 20 2 21 1 22 3 23
REMARK SMILES IDX 20 24 21 25 22 26 23 27 24 28 25 29 26 30 27 31 88 32 28 33
REMARK SMILES IDX 87 34 29 35 30 36 31 37 81 38 32 39 86 40 80 41 82 42 33 43
REMARK SMILES IDX 85 44 79 45 78 46 34 48 66 49 46 50 65 51 47 52 50 53 64 54
REMARK SMILES IDX 83 55 48 56 49 57 63 59 84 60 51 61 35 62 36 63 44 64 37 65
REMARK SMILES IDX 39 66 45 67 38 68 40 69 41 70 42 71 43 72 67 73 68 74 76 75
REMARK SMILES IDX 69 76 71 77 77 78 70 79 72 80 73 81 74 82 75 83 52 84 53 85
REMARK SMILES IDX 61 86 54 87 56 88 62 89 55 90 57 91 58 92 59 93 60 94
REMARK H PARENT 82 47 50 58
REMARK Flexibility Score: inf
ROOT
ATOM      1  C   UNL A   1      40.802  19.375  26.484  1.00  0.00     0.188 C 
ENDROOT
BRANCH   1   2
ATOM      2  C   UNL A   1      39.524  19.711  25.688  1.00  0.00     0.188 C 
BRANCH   2   3
ATOM      3  O   UNL A   1      38.937  20.993  25.762  1.00  0.00    -0.376 OA
BRANCH   3   4
ATOM      4  C   UNL A   1      37.781  21.332  25.020  1.00  0.00     0.202 C 
BRANCH   4   5
ATOM      5  C   UNL A   1      37.056  22.689  25.099  1.00  0.00     0.261 C 
BRANCH   5   6
ATOM      6  O   UNL A   1      35.890  22.841  24.288  1.00  0.00    -0.460 OA
BRANCH   6   7
ATOM      7  C   UNL A   1      34.772  23.233  24.934  1.00  0.00     0.338 C 
ATOM      8  O   UNL A   1      34.269  22.720  25.923  1.00  0.00    -0.246 OA
BRANCH   7   9
ATOM      9  C   UNL A   1      34.274  24.496  24.350  1.00  0.00     0.060 A 
ATOM     10  C   UNL A   1      33.080  26.818  23.440  1.00  0.00     0.067 A 
ATOM     11  C   UNL A   1      33.690  26.828  24.695  1.00  0.00     0.029 A 
ATOM     12  C   UNL A   1      33.206  25.717  22.578  1.00  0.00     0.029 A 
ATOM     13  C   UNL A   1      34.262  25.645  25.160  1.00  0.00     0.018 A 
ATOM     14  C   UNL A   1      33.815  24.552  23.031  1.00  0.00     0.018 A 
BRANCH  10  15
ATOM     15  N   UNL A   1      32.109  27.795  23.147  1.00  0.00    -0.217 N 
ATOM     16  C   UNL A   1      30.270  28.967  23.094  1.00  0.00     0.151 A 
ATOM     17  N   UNL A   1      31.237  29.591  22.340  1.00  0.00    -0.126 NA
ATOM     18  C   UNL A   1      30.828  27.845  23.686  1.00  0.00     0.073 A 
ATOM     19  N   UNL A   1      32.379  28.934  22.488  1.00  0.00    -0.061 NA
ATOM     20  C   UNL A   1      30.363  26.870  24.707  1.00  0.00     0.069 C 
BRANCH  16  21
ATOM     21  C   UNL A   1      28.927  29.523  23.213  1.00  0.00     0.181 C 
ATOM     22  C   UNL A   1      27.743  28.654  22.867  1.00  0.00     0.095 C 
ATOM     23  O   UNL A   1      28.737  30.678  23.592  1.00  0.00    -0.293 OA
ENDBRANCH  16  21
ENDBRANCH  10  15
ENDBRANCH   7   9
ENDBRANCH   6   7
ENDBRANCH   5   6
ENDBRANCH   4   5
ENDBRANCH   3   4
ENDBRANCH   2   3
ENDBRANCH   1   2
BRANCH   1  24
ATOM     24  O   UNL A   1      41.275  20.307  27.432  1.00  0.00    -0.376 OA
BRANCH  24  25
ATOM     25  C   UNL A   1      42.372  21.169  27.185  1.00  0.00     0.202 C 
BRANCH  25  26
ATOM     26  C   UNL A   1      42.841  21.671  25.821  1.00  0.00     0.261 C 
BRANCH  26  27
ATOM     27  O   UNL A   1      42.279  22.876  25.360  1.00  0.00    -0.460 OA
BRANCH  27  28
ATOM     28  C   UNL A   1      43.035  23.953  25.653  1.00  0.00     0.338 C 
ATOM     29  O   UNL A   1      44.157  24.200  25.241  1.00  0.00    -0.246 OA
BRANCH  28  30
ATOM     30  C   UNL A   1      42.339  24.751  26.656  1.00  0.00     0.060 A 
ATOM     31  C   UNL A   1      41.354  25.617  26.182  1.00  0.00     0.016 A 
ATOM     32  C   UNL A   1      42.933  24.888  27.918  1.00  0.00     0.016 A 
ATOM     33  C   UNL A   1      41.141  26.777  26.882  1.00  0.00     0.010 A 
ATOM     34  C   UNL A   1      42.737  26.059  28.602  1.00  0.00     0.010 A 
ATOM     35  C   UNL A   1      41.915  27.021  28.023  1.00  0.00    -0.014 A 
BRANCH  35  36
ATOM     36  C   UNL A   1      41.745  28.291  28.683  1.00  0.00     0.031 A 
ATOM     37  C   UNL A   1      42.722  29.282  28.193  1.00  0.00     0.074 A 
ATOM     38  C   UNL A   1      40.761  28.518  29.572  1.00  0.00     0.049 A 
ATOM     39  N   UNL A   1      43.764  29.718  28.817  1.00  0.00    -0.248 NA
ATOM     40  C   UNL A   1      42.681  29.634  26.765  1.00  0.00     0.031 C 
ATOM     41  C   UNL A   1      39.611  27.660  29.874  1.00  0.00     0.029 A 
ATOM     42  N   UNL A   1      40.505  29.640  30.295  1.00  0.00    -0.354 N 
ATOM     43  C   UNL A   1      44.339  30.630  27.941  1.00  0.00     0.074 A 
ATOM     44  C   UNL A   1      43.815  30.323  26.640  1.00  0.00     0.031 C 
ATOM     45  C   UNL A   1      38.666  28.398  30.501  1.00  0.00     0.029 A 
ATOM     46  C   UNL A   1      39.192  29.731  30.745  1.00  0.00     0.049 A 
ATOM     47  H   UNL A   1      41.187  30.326  30.482  1.00  0.00     0.167 HD
ATOM     48  C   UNL A   1      44.901  31.772  28.420  1.00  0.00     0.034 A 
ATOM     49  C   UNL A   1      38.570  30.857  31.182  1.00  0.00     0.034 A 
ATOM     50  C   UNL A   1      45.188  31.652  29.831  1.00  0.00     0.049 A 
ATOM     51  C   UNL A   1      39.627  31.836  31.533  1.00  0.00     0.074 A 
ATOM     52  C   UNL A   1      45.920  30.778  30.611  1.00  0.00     0.029 A 
ATOM     53  N   UNL A   1      44.338  32.309  30.686  1.00  0.00    -0.354 N 
ATOM     54  N   UNL A   1      40.440  31.688  32.540  1.00  0.00    -0.248 NA
ATOM     55  C   UNL A   1      40.066  32.761  30.501  1.00  0.00     0.031 C 
ATOM     56  C   UNL A   1      45.172  30.639  31.816  1.00  0.00     0.029 A 
ATOM     57  C   UNL A   1      44.065  31.486  31.742  1.00  0.00     0.049 A 
ATOM     58  H   UNL A   1      43.986  33.220  30.561  1.00  0.00     0.167 HD
ATOM     59  C   UNL A   1      41.669  32.104  32.045  1.00  0.00     0.074 A 
ATOM     60  C   UNL A   1      41.356  32.859  30.833  1.00  0.00     0.031 C 
ATOM     61  C   UNL A   1      42.828  31.536  32.491  1.00  0.00     0.034 A 
BRANCH  48  62
ATOM     62  C   UNL A   1      44.760  33.131  27.758  1.00  0.00     0.023 A 
ATOM     63  C   UNL A   1      45.889  33.604  27.053  1.00  0.00     0.012 A 
ATOM     64  C   UNL A   1      43.739  34.074  28.029  1.00  0.00     0.148 A 
ATOM     65  C   UNL A   1      46.037  34.955  26.725  1.00  0.00     0.002 A 
ATOM     66  C   UNL A   1      43.855  35.400  27.631  1.00  0.00     0.091 A 
ATOM     67  F   UNL A   1      42.690  33.748  28.782  1.00  0.00    -0.205 F 
ATOM     68  C   UNL A   1      45.020  35.855  27.014  1.00  0.00     0.022 A 
BRANCH  66  69
ATOM     69  S   UNL A   1      42.549  36.598  27.944  1.00  0.00     0.127 S 
ATOM     70  O   UNL A   1      42.964  37.710  27.094  1.00  0.00    -0.237 OA
ATOM     71  O   UNL A   1      41.367  35.869  27.484  1.00  0.00    -0.237 OA
ATOM     72  O   UNL A   1      42.573  36.851  29.379  1.00  0.00    -0.744 OA
ENDBRANCH  66  69
ENDBRANCH  48  62
BRANCH  49  73
ATOM     73  C   UNL A   1      37.151  31.275  31.053  1.00  0.00     0.023 A 
ATOM     74  C   UNL A   1      36.426  31.628  32.210  1.00  0.00     0.012 A 
ATOM     75  C   UNL A   1      36.598  31.611  29.798  1.00  0.00     0.148 A 
ATOM     76  C   UNL A   1      35.216  32.327  32.122  1.00  0.00     0.002 A 
ATOM     77  C   UNL A   1      35.390  32.297  29.714  1.00  0.00     0.091 A 
ATOM     78  F   UNL A   1      37.301  31.348  28.689  1.00  0.00    -0.205 F 
ATOM     79  C   UNL A   1      34.701  32.669  30.876  1.00  0.00     0.022 A 
BRANCH  77  80
ATOM     80  S   UNL A   1      34.681  32.793  28.138  1.00  0.00     0.127 S 
ATOM     81  O   UNL A   1      34.383  31.500  27.519  1.00  0.00    -0.237 OA
ATOM     82  O   UNL A   1      33.508  33.554  28.560  1.00  0.00    -0.237 OA
ATOM     83  O   UNL A   1      35.719  33.555  27.456  1.00  0.00    -0.744 OA
ENDBRANCH  77  80
ENDBRANCH  49  73
BRANCH  61  84
ATOM     84  C   UNL A   1      42.778  30.711  33.749  1.00  0.00     0.023 A 
ATOM     85  C   UNL A   1      42.560  29.318  33.751  1.00  0.00     0.012 A 
ATOM     86  C   UNL A   1      43.120  31.348  34.953  1.00  0.00     0.148 A 
ATOM     87  C   UNL A   1      42.659  28.583  34.936  1.00  0.00     0.002 A 
ATOM     88  C   UNL A   1      43.269  30.608  36.117  1.00  0.00     0.091 A 
ATOM     89  F   UNL A   1      43.320  32.675  34.933  1.00  0.00    -0.205 F 
ATOM     90  C   UNL A   1      43.028  29.226  36.117  1.00  0.00     0.022 A 
BRANCH  88  91
ATOM     91  S   UNL A   1      43.862  31.369  37.629  1.00  0.00     0.127 S 
ATOM     92  O   UNL A   1      45.113  31.983  37.191  1.00  0.00    -0.237 OA
ATOM     93  O   UNL A   1      42.793  32.317  37.946  1.00  0.00    -0.237 OA
ATOM     94  O   UNL A   1      43.997  30.285  38.594  1.00  0.00    -0.744 OA
ENDBRANCH  88  91
ENDBRANCH  61  84
ENDBRANCH  35  36
ENDBRANCH  28  30
ENDBRANCH  27  28
ENDBRANCH  26  27
ENDBRANCH  25  26
ENDBRANCH  24  25
ENDBRANCH   1  24
TORSDOF 22
ENDMDL
