MODEL 1
REMARK VINA RESULT:      -9.9      0.000      0.000
REMARK SMILES C[C@@H]1C[N@@H+](C[C@]2(C(=O)OCCOCCOCCOC(=O)c3ccc(-c4c5nc(c(-c6cccc(S(=O)(=O)[O-])c6F)c6ccc([nH]6)c(-c6cccc(S(=O)(=O)[O-])c6F)c6nc(c(-c7cccc(S(=O)(=O)[O-])c7F)c7ccc4[nH]7)C=C6)C=C5)cc3)CCOC2)C[C@@H]1C
REMARK SMILES IDX 14 1 13 2 12 3 11 4 10 5 9 6 7 7 8 8 6 9 84 10 87 11 85 12
REMARK SMILES IDX 86 13 5 14 4 15 1 16 2 17 3 18 89 19 88 20 90 21 15 23 16 24
REMARK SMILES IDX 17 25 18 26 19 27 20 28 21 29 22 30 83 31 23 32 82 33 24 34
REMARK SMILES IDX 25 35 26 36 76 37 27 38 81 39 75 40 77 41 28 42 80 43 74 44
REMARK SMILES IDX 73 45 29 47 61 48 41 49 60 50 42 51 45 52 59 53 78 54 43 55
REMARK SMILES IDX 44 56 58 58 79 59 46 60 30 61 31 62 39 63 32 64 34 65 40 66
REMARK SMILES IDX 33 67 35 68 36 69 37 70 38 71 62 72 63 73 71 74 64 75 66 76
REMARK SMILES IDX 72 77 65 78 67 79 68 80 69 81 70 82 47 83 48 84 56 85 49 86
REMARK SMILES IDX 51 87 57 88 50 89 52 90 53 91 54 92 55 93
REMARK H PARENT 4 22 77 46 45 57
REMARK Flexibility Score: inf
ROOT
ATOM      1  C   UNL A   1      33.659  20.662  25.032  1.00  0.00     0.188 C 
ENDROOT
BRANCH   1   2
ATOM      2  C   UNL A   1      33.224  22.090  25.370  1.00  0.00     0.188 C 
BRANCH   2   3
ATOM      3  O   UNL A   1      32.963  22.964  24.282  1.00  0.00    -0.376 OA
BRANCH   3   4
ATOM      4  C   UNL A   1      34.032  23.198  23.375  1.00  0.00     0.202 C 
BRANCH   4   5
ATOM      5  C   UNL A   1      34.152  24.608  22.773  1.00  0.00     0.261 C 
BRANCH   5   6
ATOM      6  O   UNL A   1      32.901  25.240  22.430  1.00  0.00    -0.463 OA
BRANCH   6   7
ATOM      7  C   UNL A   1      32.966  26.584  22.221  1.00  0.00     0.320 C 
ATOM      8  O   UNL A   1      33.872  27.143  21.610  1.00  0.00    -0.251 OA
BRANCH   7   9
ATOM      9  C   UNL A   1      31.820  27.371  22.857  1.00  0.00     0.142 C 
ATOM     10  C   UNL A   1      32.096  28.846  22.569  1.00  0.00     0.055 C 
ATOM     11  C   UNL A   1      30.472  27.189  22.173  1.00  0.00     0.185 C 
ATOM     12  C   UNL A   1      30.740  29.493  22.422  1.00  0.00     0.161 C 
ATOM     13  O   UNL A   1      29.787  28.451  22.190  1.00  0.00    -0.380 OA
BRANCH   9  14
ATOM     14  C   UNL A   1      31.837  26.932  24.351  1.00  0.00     0.283 C 
BRANCH  14  15
ATOM     15  N   UNL A   1      32.409  27.719  25.432  1.00  0.00    -0.333 N 
ATOM     16  C   UNL A   1      32.329  31.080  27.003  1.00  0.00     0.014 C 
ATOM     17  C   UNL A   1      32.679  29.976  26.019  1.00  0.00     0.049 C 
ATOM     18  C   UNL A   1      31.678  28.827  26.016  1.00  0.00     0.265 C 
ATOM     19  C   UNL A   1      34.033  29.277  26.211  1.00  0.00     0.049 C 
ATOM     20  C   UNL A   1      33.842  27.951  25.464  1.00  0.00     0.265 C 
ATOM     21  C   UNL A   1      34.432  29.043  27.666  1.00  0.00     0.014 C 
ATOM     22  H   UNL A   1      32.227  26.949  26.076  1.00  0.00     0.348 HD
ENDBRANCH  14  15
ENDBRANCH   9  14
ENDBRANCH   7   9
ENDBRANCH   6   7
ENDBRANCH   5   6
ENDBRANCH   4   5
ENDBRANCH   3   4
ENDBRANCH   2   3
ENDBRANCH   1   2
BRANCH   1  23
ATOM     23  O   UNL A   1      34.803  20.177  25.731  1.00  0.00    -0.376 OA
BRANCH  23  24
ATOM     24  C   UNL A   1      35.975  19.955  24.933  1.00  0.00     0.202 C 
BRANCH  24  25
ATOM     25  C   UNL A   1      36.890  21.168  24.669  1.00  0.00     0.261 C 
BRANCH  25  26
ATOM     26  O   UNL A   1      37.496  21.725  25.855  1.00  0.00    -0.460 OA
BRANCH  26  27
ATOM     27  C   UNL A   1      38.802  21.442  26.076  1.00  0.00     0.338 C 
ATOM     28  O   UNL A   1      39.391  20.437  25.712  1.00  0.00    -0.246 OA
BRANCH  27  29
ATOM     29  C   UNL A   1      39.466  22.669  26.601  1.00  0.00     0.060 A 
ATOM     30  C   UNL A   1      38.996  23.918  26.172  1.00  0.00     0.016 A 
ATOM     31  C   UNL A   1      40.476  22.604  27.567  1.00  0.00     0.016 A 
ATOM     32  C   UNL A   1      39.577  25.097  26.653  1.00  0.00     0.010 A 
ATOM     33  C   UNL A   1      41.058  23.783  28.047  1.00  0.00     0.010 A 
ATOM     34  C   UNL A   1      40.644  25.036  27.561  1.00  0.00    -0.014 A 
BRANCH  34  35
ATOM     35  C   UNL A   1      41.476  26.240  27.827  1.00  0.00     0.031 A 
ATOM     36  C   UNL A   1      40.840  27.387  28.569  1.00  0.00     0.074 A 
ATOM     37  C   UNL A   1      42.755  26.344  27.419  1.00  0.00     0.049 A 
ATOM     38  N   UNL A   1      41.335  28.557  28.875  1.00  0.00    -0.248 NA
ATOM     39  C   UNL A   1      39.452  27.185  29.020  1.00  0.00     0.031 C 
ATOM     40  C   UNL A   1      43.507  25.320  26.700  1.00  0.00     0.029 A 
ATOM     41  N   UNL A   1      43.640  27.392  27.537  1.00  0.00    -0.354 N 
ATOM     42  C   UNL A   1      40.315  29.241  29.526  1.00  0.00     0.074 A 
ATOM     43  C   UNL A   1      39.169  28.359  29.559  1.00  0.00     0.031 C 
ATOM     44  C   UNL A   1      44.731  25.800  26.412  1.00  0.00     0.029 A 
ATOM     45  C   UNL A   1      44.843  27.174  26.907  1.00  0.00     0.049 A 
ATOM     46  H   UNL A   1      43.431  28.220  28.026  1.00  0.00     0.167 HD
ATOM     47  C   UNL A   1      40.328  30.481  30.067  1.00  0.00     0.034 A 
ATOM     48  C   UNL A   1      45.902  27.993  26.731  1.00  0.00     0.034 A 
ATOM     49  C   UNL A   1      41.463  31.360  30.060  1.00  0.00     0.049 A 
ATOM     50  C   UNL A   1      45.881  29.387  27.312  1.00  0.00     0.074 A 
ATOM     51  C   UNL A   1      41.576  32.618  30.626  1.00  0.00     0.029 A 
ATOM     52  N   UNL A   1      42.675  31.086  29.450  1.00  0.00    -0.354 N 
ATOM     53  N   UNL A   1      44.955  29.970  28.033  1.00  0.00    -0.248 NA
ATOM     54  C   UNL A   1      47.069  30.227  27.080  1.00  0.00     0.031 C 
ATOM     55  C   UNL A   1      42.850  33.117  30.333  1.00  0.00     0.029 A 
ATOM     56  C   UNL A   1      43.539  32.155  29.612  1.00  0.00     0.049 A 
ATOM     57  H   UNL A   1      42.891  30.254  28.970  1.00  0.00     0.167 HD
ATOM     58  C   UNL A   1      45.462  31.222  28.373  1.00  0.00     0.074 A 
ATOM     59  C   UNL A   1      46.785  31.309  27.792  1.00  0.00     0.031 C 
ATOM     60  C   UNL A   1      44.879  32.214  29.091  1.00  0.00     0.034 A 
BRANCH  47  61
ATOM     61  C   UNL A   1      39.067  30.955  30.737  1.00  0.00     0.023 A 
ATOM     62  C   UNL A   1      38.961  30.896  32.142  1.00  0.00     0.012 A 
ATOM     63  C   UNL A   1      38.010  31.499  29.984  1.00  0.00     0.148 A 
ATOM     64  C   UNL A   1      37.807  31.342  32.783  1.00  0.00     0.002 A 
ATOM     65  C   UNL A   1      36.882  31.982  30.634  1.00  0.00     0.091 A 
ATOM     66  F   UNL A   1      38.121  31.520  28.648  1.00  0.00    -0.205 F 
ATOM     67  C   UNL A   1      36.774  31.895  32.031  1.00  0.00     0.022 A 
BRANCH  65  68
ATOM     68  S   UNL A   1      35.532  32.781  29.759  1.00  0.00     0.127 S 
ATOM     69  O   UNL A   1      35.504  32.024  28.508  1.00  0.00    -0.237 OA
ATOM     70  O   UNL A   1      34.398  32.533  30.648  1.00  0.00    -0.237 OA
ATOM     71  O   UNL A   1      35.910  34.182  29.634  1.00  0.00    -0.744 OA
ENDBRANCH  65  68
ENDBRANCH  47  61
BRANCH  48  72
ATOM     72  C   UNL A   1      47.103  27.514  25.987  1.00  0.00     0.023 A 
ATOM     73  C   UNL A   1      48.064  26.724  26.649  1.00  0.00     0.012 A 
ATOM     74  C   UNL A   1      47.307  27.848  24.634  1.00  0.00     0.148 A 
ATOM     75  C   UNL A   1      49.218  26.302  25.988  1.00  0.00     0.002 A 
ATOM     76  C   UNL A   1      48.431  27.380  23.966  1.00  0.00     0.091 A 
ATOM     77  F   UNL A   1      46.393  28.620  24.028  1.00  0.00    -0.205 F 
ATOM     78  C   UNL A   1      49.397  26.621  24.645  1.00  0.00     0.022 A 
BRANCH  76  79
ATOM     79  S   UNL A   1      48.692  27.646  22.208  1.00  0.00     0.127 S 
ATOM     80  O   UNL A   1      48.826  26.277  21.715  1.00  0.00    -0.237 OA
ATOM     81  O   UNL A   1      47.453  28.322  21.822  1.00  0.00    -0.237 OA
ATOM     82  O   UNL A   1      49.886  28.473  22.109  1.00  0.00    -0.744 OA
ENDBRANCH  76  79
ENDBRANCH  48  72
BRANCH  60  83
ATOM     83  C   UNL A   1      45.669  33.474  29.346  1.00  0.00     0.023 A 
ATOM     84  C   UNL A   1      46.386  33.625  30.550  1.00  0.00     0.012 A 
ATOM     85  C   UNL A   1      45.781  34.466  28.350  1.00  0.00     0.148 A 
ATOM     86  C   UNL A   1      47.178  34.753  30.768  1.00  0.00     0.002 A 
ATOM     87  C   UNL A   1      46.609  35.564  28.554  1.00  0.00     0.091 A 
ATOM     88  F   UNL A   1      45.081  34.314  27.215  1.00  0.00    -0.205 F 
ATOM     89  C   UNL A   1      47.300  35.714  29.768  1.00  0.00     0.022 A 
BRANCH  87  90
ATOM     90  S   UNL A   1      46.903  36.801  27.285  1.00  0.00     0.127 S 
ATOM     91  O   UNL A   1      46.329  36.160  26.103  1.00  0.00    -0.237 OA
ATOM     92  O   UNL A   1      46.144  37.948  27.786  1.00  0.00    -0.237 OA
ATOM     93  O   UNL A   1      48.346  37.003  27.248  1.00  0.00    -0.744 OA
ENDBRANCH  87  90
ENDBRANCH  60  83
ENDBRANCH  34  35
ENDBRANCH  27  29
ENDBRANCH  26  27
ENDBRANCH  25  26
ENDBRANCH  24  25
ENDBRANCH  23  24
ENDBRANCH   1  23
TORSDOF 22
ENDMDL
MODEL 2
REMARK VINA RESULT:      -9.6      1.874      2.125
REMARK SMILES C[C@@H]1C[N@@H+](C[C@]2(C(=O)OCCOCCOCCOC(=O)c3ccc(-c4c5nc(c(-c6cccc(S(=O)(=O)[O-])c6F)c6ccc([nH]6)c(-c6cccc(S(=O)(=O)[O-])c6F)c6nc(c(-c7cccc(S(=O)(=O)[O-])c7F)c7ccc4[nH]7)C=C6)C=C5)cc3)CCOC2)C[C@@H]1C
REMARK SMILES IDX 14 1 13 2 12 3 11 4 10 5 9 6 7 7 8 8 6 9 84 10 87 11 85 12
REMARK SMILES IDX 86 13 5 14 4 15 1 16 2 17 3 18 89 19 88 20 90 21 15 23 16 24
REMARK SMILES IDX 17 25 18 26 19 27 20 28 21 29 22 30 83 31 23 32 82 33 24 34
REMARK SMILES IDX 25 35 26 36 76 37 27 38 81 39 75 40 77 41 28 42 80 43 74 44
REMARK SMILES IDX 73 45 29 47 61 48 41 49 60 50 42 51 45 52 59 53 78 54 43 55
REMARK SMILES IDX 44 56 58 58 79 59 46 60 30 61 31 62 39 63 32 64 34 65 40 66
REMARK SMILES IDX 33 67 35 68 36 69 37 70 38 71 62 72 63 73 71 74 64 75 66 76
REMARK SMILES IDX 72 77 65 78 67 79 68 80 69 81 70 82 47 83 48 84 56 85 49 86
REMARK SMILES IDX 51 87 57 88 50 89 52 90 53 91 54 92 55 93
REMARK H PARENT 4 22 77 46 45 57
REMARK Flexibility Score: inf
ROOT
ATOM      1  C   UNL A   1      34.207  20.135  24.637  1.00  0.00     0.188 C 
ENDROOT
BRANCH   1   2
ATOM      2  C   UNL A   1      33.983  21.617  24.952  1.00  0.00     0.188 C 
BRANCH   2   3
ATOM      3  O   UNL A   1      33.493  22.435  23.900  1.00  0.00    -0.376 OA
BRANCH   3   4
ATOM      4  C   UNL A   1      34.428  23.297  23.267  1.00  0.00     0.202 C 
BRANCH   4   5
ATOM      5  C   UNL A   1      33.934  24.692  22.849  1.00  0.00     0.261 C 
BRANCH   5   6
ATOM      6  O   UNL A   1      32.534  24.776  22.515  1.00  0.00    -0.463 OA
BRANCH   6   7
ATOM      7  C   UNL A   1      32.025  26.036  22.449  1.00  0.00     0.320 C 
ATOM      8  O   UNL A   1      32.381  26.882  21.634  1.00  0.00    -0.251 OA
BRANCH   7   9
ATOM      9  C   UNL A   1      30.980  26.346  23.522  1.00  0.00     0.142 C 
ATOM     10  C   UNL A   1      30.515  27.780  23.272  1.00  0.00     0.055 C 
ATOM     11  C   UNL A   1      29.671  25.585  23.369  1.00  0.00     0.185 C 
ATOM     12  C   UNL A   1      29.063  27.814  23.686  1.00  0.00     0.161 C 
ATOM     13  O   UNL A   1      28.597  26.462  23.737  1.00  0.00    -0.380 OA
BRANCH   9  14
ATOM     14  C   UNL A   1      31.719  26.072  24.866  1.00  0.00     0.283 C 
BRANCH  14  15
ATOM     15  N   UNL A   1      32.390  27.091  25.658  1.00  0.00    -0.333 N 
ATOM     16  C   UNL A   1      32.105  30.610  26.798  1.00  0.00     0.014 C 
ATOM     17  C   UNL A   1      32.393  29.427  25.889  1.00  0.00     0.049 C 
ATOM     18  C   UNL A   1      31.640  28.162  26.285  1.00  0.00     0.265 C 
ATOM     19  C   UNL A   1      33.854  28.964  25.791  1.00  0.00     0.049 C 
ATOM     20  C   UNL A   1      33.723  27.524  25.279  1.00  0.00     0.265 C 
ATOM     21  C   UNL A   1      34.632  29.019  27.104  1.00  0.00     0.014 C 
ATOM     22  H   UNL A   1      32.510  26.413  26.411  1.00  0.00     0.348 HD
ENDBRANCH  14  15
ENDBRANCH   9  14
ENDBRANCH   7   9
ENDBRANCH   6   7
ENDBRANCH   5   6
ENDBRANCH   4   5
ENDBRANCH   3   4
ENDBRANCH   2   3
ENDBRANCH   1   2
BRANCH   1  23
ATOM     23  O   UNL A   1      35.247  19.493  25.372  1.00  0.00    -0.376 OA
BRANCH  23  24
ATOM     24  C   UNL A   1      36.483  19.303  24.668  1.00  0.00     0.202 C 
BRANCH  24  25
ATOM     25  C   UNL A   1      37.393  20.536  24.491  1.00  0.00     0.261 C 
BRANCH  25  26
ATOM     26  O   UNL A   1      37.815  21.145  25.729  1.00  0.00    -0.460 OA
BRANCH  26  27
ATOM     27  C   UNL A   1      39.088  20.914  26.132  1.00  0.00     0.338 C 
ATOM     28  O   UNL A   1      39.735  19.902  25.921  1.00  0.00    -0.246 OA
BRANCH  27  29
ATOM     29  C   UNL A   1      39.658  22.193  26.643  1.00  0.00     0.060 A 
ATOM     30  C   UNL A   1      39.097  23.399  26.199  1.00  0.00     0.016 A 
ATOM     31  C   UNL A   1      40.669  22.215  27.610  1.00  0.00     0.016 A 
ATOM     32  C   UNL A   1      39.588  24.623  26.667  1.00  0.00     0.010 A 
ATOM     33  C   UNL A   1      41.161  23.440  28.076  1.00  0.00     0.010 A 
ATOM     34  C   UNL A   1      40.655  24.652  27.575  1.00  0.00    -0.014 A 
BRANCH  34  35
ATOM     35  C   UNL A   1      41.395  25.918  27.827  1.00  0.00     0.031 A 
ATOM     36  C   UNL A   1      40.691  27.005  28.598  1.00  0.00     0.074 A 
ATOM     37  C   UNL A   1      42.648  26.129  27.382  1.00  0.00     0.049 A 
ATOM     38  N   UNL A   1      41.099  28.209  28.900  1.00  0.00    -0.248 NA
ATOM     39  C   UNL A   1      39.339  26.688  29.089  1.00  0.00     0.031 C 
ATOM     40  C   UNL A   1      43.458  25.173  26.631  1.00  0.00     0.029 A 
ATOM     41  N   UNL A   1      43.449  27.244  27.482  1.00  0.00    -0.354 N 
ATOM     42  C   UNL A   1      40.048  28.803  29.588  1.00  0.00     0.074 A 
ATOM     43  C   UNL A   1      38.978  27.832  29.647  1.00  0.00     0.031 C 
ATOM     44  C   UNL A   1      44.630  25.753  26.311  1.00  0.00     0.029 A 
ATOM     45  C   UNL A   1      44.646  27.128  26.815  1.00  0.00     0.049 A 
ATOM     46  H   UNL A   1      43.189  28.049  27.985  1.00  0.00     0.167 HD
ATOM     47  C   UNL A   1      39.977  30.037  30.139  1.00  0.00     0.034 A 
ATOM     48  C   UNL A   1      45.629  28.032  26.615  1.00  0.00     0.034 A 
ATOM     49  C   UNL A   1      41.036  31.006  30.107  1.00  0.00     0.049 A 
ATOM     50  C   UNL A   1      45.513  29.416  27.209  1.00  0.00     0.074 A 
ATOM     51  C   UNL A   1      41.064  32.265  30.680  1.00  0.00     0.029 A 
ATOM     52  N   UNL A   1      42.247  30.835  29.458  1.00  0.00    -0.354 N 
ATOM     53  N   UNL A   1      44.565  29.917  27.962  1.00  0.00    -0.248 NA
ATOM     54  C   UNL A   1      46.621  30.351  26.949  1.00  0.00     0.031 C 
ATOM     55  C   UNL A   1      42.284  32.867  30.354  1.00  0.00     0.029 A 
ATOM     56  C   UNL A   1      43.026  31.969  29.604  1.00  0.00     0.049 A 
ATOM     57  H   UNL A   1      42.515  30.025  28.964  1.00  0.00     0.167 HD
ATOM     58  C   UNL A   1      44.980  31.204  28.299  1.00  0.00     0.074 A 
ATOM     59  C   UNL A   1      46.273  31.401  27.679  1.00  0.00     0.031 C 
ATOM     60  C   UNL A   1      44.341  32.140  29.043  1.00  0.00     0.034 A 
BRANCH  47  61
ATOM     61  C   UNL A   1      38.703  30.403  30.852  1.00  0.00     0.023 A 
ATOM     62  C   UNL A   1      38.518  30.010  32.193  1.00  0.00     0.012 A 
ATOM     63  C   UNL A   1      37.713  31.172  30.211  1.00  0.00     0.148 A 
ATOM     64  C   UNL A   1      37.351  30.349  32.875  1.00  0.00     0.002 A 
ATOM     65  C   UNL A   1      36.573  31.544  30.912  1.00  0.00     0.091 A 
ATOM     66  F   UNL A   1      37.898  31.511  28.927  1.00  0.00    -0.205 F 
ATOM     67  C   UNL A   1      36.385  31.125  32.239  1.00  0.00     0.022 A 
BRANCH  65  68
ATOM     68  S   UNL A   1      35.310  32.605  30.203  1.00  0.00     0.127 S 
ATOM     69  O   UNL A   1      34.860  31.807  29.064  1.00  0.00    -0.237 OA
ATOM     70  O   UNL A   1      34.343  32.706  31.297  1.00  0.00    -0.237 OA
ATOM     71  O   UNL A   1      35.979  33.855  29.868  1.00  0.00    -0.744 OA
ENDBRANCH  65  68
ENDBRANCH  47  61
BRANCH  48  72
ATOM     72  C   UNL A   1      46.841  27.657  25.830  1.00  0.00     0.023 A 
ATOM     73  C   UNL A   1      46.863  27.877  24.438  1.00  0.00     0.012 A 
ATOM     74  C   UNL A   1      47.963  27.073  26.449  1.00  0.00     0.148 A 
ATOM     75  C   UNL A   1      47.967  27.493  23.674  1.00  0.00     0.002 A 
ATOM     76  C   UNL A   1      49.080  26.744  25.691  1.00  0.00     0.091 A 
ATOM     77  F   UNL A   1      47.913  26.852  27.770  1.00  0.00    -0.205 F 
ATOM     78  C   UNL A   1      49.078  26.936  24.301  1.00  0.00     0.022 A 
BRANCH  76  79
ATOM     79  S   UNL A   1      50.599  26.126  26.425  1.00  0.00     0.127 S 
ATOM     80  O   UNL A   1      51.469  26.007  25.258  1.00  0.00    -0.237 OA
ATOM     81  O   UNL A   1      50.947  27.209  27.347  1.00  0.00    -0.237 OA
ATOM     82  O   UNL A   1      50.240  24.873  27.076  1.00  0.00    -0.744 OA
ENDBRANCH  76  79
ENDBRANCH  48  72
BRANCH  60  83
ATOM     83  C   UNL A   1      45.034  33.459  29.286  1.00  0.00     0.023 A 
ATOM     84  C   UNL A   1      44.826  34.537  28.403  1.00  0.00     0.012 A 
ATOM     85  C   UNL A   1      45.813  33.658  30.444  1.00  0.00     0.148 A 
ATOM     86  C   UNL A   1      45.403  35.782  28.655  1.00  0.00     0.002 A 
ATOM     87  C   UNL A   1      46.345  34.913  30.714  1.00  0.00     0.091 A 
ATOM     88  F   UNL A   1      46.013  32.617  31.267  1.00  0.00    -0.205 F 
ATOM     89  C   UNL A   1      46.151  35.974  29.815  1.00  0.00     0.022 A 
BRANCH  87  90
ATOM     90  S   UNL A   1      47.239  35.278  32.230  1.00  0.00     0.127 S 
ATOM     91  O   UNL A   1      48.443  34.463  32.071  1.00  0.00    -0.237 OA
ATOM     92  O   UNL A   1      47.461  36.721  32.121  1.00  0.00    -0.237 OA
ATOM     93  O   UNL A   1      46.357  34.884  33.321  1.00  0.00    -0.744 OA
ENDBRANCH  87  90
ENDBRANCH  60  83
ENDBRANCH  34  35
ENDBRANCH  27  29
ENDBRANCH  26  27
ENDBRANCH  25  26
ENDBRANCH  24  25
ENDBRANCH  23  24
ENDBRANCH   1  23
TORSDOF 22
ENDMDL
MODEL 3
REMARK VINA RESULT:      -9.3      2.996      4.932
REMARK SMILES C[C@@H]1C[N@@H+](C[C@]2(C(=O)OCCOCCOCCOC(=O)c3ccc(-c4c5nc(c(-c6cccc(S(=O)(=O)[O-])c6F)c6ccc([nH]6)c(-c6cccc(S(=O)(=O)[O-])c6F)c6nc(c(-c7cccc(S(=O)(=O)[O-])c7F)c7ccc4[nH]7)C=C6)C=C5)cc3)CCOC2)C[C@@H]1C
REMARK SMILES IDX 14 1 13 2 12 3 11 4 10 5 9 6 7 7 8 8 6 9 84 10 87 11 85 12
REMARK SMILES IDX 86 13 5 14 4 15 1 16 2 17 3 18 89 19 88 20 90 21 15 23 16 24
REMARK SMILES IDX 17 25 18 26 19 27 20 28 21 29 22 30 83 31 23 32 82 33 24 34
REMARK SMILES IDX 25 35 26 36 76 37 27 38 81 39 75 40 77 41 28 42 80 43 74 44
REMARK SMILES IDX 73 45 29 47 61 48 41 49 60 50 42 51 45 52 59 53 78 54 43 55
REMARK SMILES IDX 44 56 58 58 79 59 46 60 30 61 31 62 39 63 32 64 34 65 40 66
REMARK SMILES IDX 33 67 35 68 36 69 37 70 38 71 62 72 63 73 71 74 64 75 66 76
REMARK SMILES IDX 72 77 65 78 67 79 68 80 69 81 70 82 47 83 48 84 56 85 49 86
REMARK SMILES IDX 51 87 57 88 50 89 52 90 53 91 54 92 55 93
REMARK H PARENT 4 22 77 46 45 57
REMARK Flexibility Score: inf
ROOT
ATOM      1  C   UNL A   1      39.082  22.512  26.299  1.00  0.00     0.188 C 
ENDROOT
BRANCH   1   2
ATOM      2  C   UNL A   1      38.417  21.457  25.411  1.00  0.00     0.188 C 
BRANCH   2   3
ATOM      3  O   UNL A   1      37.043  21.185  25.643  1.00  0.00    -0.376 OA
BRANCH   3   4
ATOM      4  C   UNL A   1      36.181  22.307  25.781  1.00  0.00     0.202 C 
BRANCH   4   5
ATOM      5  C   UNL A   1      35.745  23.026  24.494  1.00  0.00     0.261 C 
BRANCH   5   6
ATOM      6  O   UNL A   1      34.582  23.869  24.623  1.00  0.00    -0.463 OA
BRANCH   6   7
ATOM      7  C   UNL A   1      33.774  23.918  23.529  1.00  0.00     0.320 C 
ATOM      8  O   UNL A   1      34.173  23.823  22.372  1.00  0.00    -0.251 OA
BRANCH   7   9
ATOM      9  C   UNL A   1      32.298  24.151  23.853  1.00  0.00     0.142 C 
ATOM     10  C   UNL A   1      32.263  25.034  25.100  1.00  0.00     0.055 C 
ATOM     11  C   UNL A   1      31.563  25.033  22.853  1.00  0.00     0.185 C 
ATOM     12  C   UNL A   1      31.031  25.896  24.953  1.00  0.00     0.161 C 
ATOM     13  O   UNL A   1      30.640  25.860  23.578  1.00  0.00    -0.380 OA
BRANCH   9  14
ATOM     14  C   UNL A   1      31.705  22.718  23.991  1.00  0.00     0.283 C 
BRANCH  14  15
ATOM     15  N   UNL A   1      32.488  21.495  23.926  1.00  0.00    -0.333 N 
ATOM     16  C   UNL A   1      32.523  18.082  22.470  1.00  0.00     0.014 C 
ATOM     17  C   UNL A   1      32.177  19.226  23.408  1.00  0.00     0.049 C 
ATOM     18  C   UNL A   1      32.386  20.603  22.788  1.00  0.00     0.265 C 
ATOM     19  C   UNL A   1      32.955  19.302  24.730  1.00  0.00     0.049 C 
ATOM     20  C   UNL A   1      32.774  20.766  25.150  1.00  0.00     0.265 C 
ATOM     21  C   UNL A   1      34.432  18.932  24.625  1.00  0.00     0.014 C 
ATOM     22  H   UNL A   1      33.319  22.049  23.719  1.00  0.00     0.348 HD
ENDBRANCH  14  15
ENDBRANCH   9  14
ENDBRANCH   7   9
ENDBRANCH   6   7
ENDBRANCH   5   6
ENDBRANCH   4   5
ENDBRANCH   3   4
ENDBRANCH   2   3
ENDBRANCH   1   2
BRANCH   1  23
ATOM     23  O   UNL A   1      40.228  22.080  27.029  1.00  0.00    -0.376 OA
BRANCH  23  24
ATOM     24  C   UNL A   1      40.804  20.836  26.607  1.00  0.00     0.202 C 
BRANCH  24  25
ATOM     25  C   UNL A   1      42.269  20.862  26.125  1.00  0.00     0.261 C 
BRANCH  25  26
ATOM     26  O   UNL A   1      42.995  22.052  26.498  1.00  0.00    -0.460 OA
BRANCH  26  27
ATOM     27  C   UNL A   1      43.098  23.033  25.568  1.00  0.00     0.338 C 
ATOM     28  O   UNL A   1      43.030  22.886  24.359  1.00  0.00    -0.246 OA
BRANCH  27  29
ATOM     29  C   UNL A   1      43.045  24.349  26.265  1.00  0.00     0.060 A 
ATOM     30  C   UNL A   1      42.709  25.487  25.519  1.00  0.00     0.016 A 
ATOM     31  C   UNL A   1      43.234  24.458  27.647  1.00  0.00     0.016 A 
ATOM     32  C   UNL A   1      42.628  26.740  26.136  1.00  0.00     0.010 A 
ATOM     33  C   UNL A   1      43.155  25.713  28.264  1.00  0.00     0.010 A 
ATOM     34  C   UNL A   1      42.896  26.868  27.506  1.00  0.00    -0.014 A 
BRANCH  34  35
ATOM     35  C   UNL A   1      43.135  28.209  28.105  1.00  0.00     0.031 A 
ATOM     36  C   UNL A   1      41.961  28.927  28.719  1.00  0.00     0.074 A 
ATOM     37  C   UNL A   1      44.344  28.802  28.101  1.00  0.00     0.049 A 
ATOM     38  N   UNL A   1      41.900  30.118  29.254  1.00  0.00    -0.248 NA
ATOM     39  C   UNL A   1      40.680  28.200  28.723  1.00  0.00     0.031 C 
ATOM     40  C   UNL A   1      45.571  28.232  27.552  1.00  0.00     0.029 A 
ATOM     41  N   UNL A   1      44.724  30.042  28.561  1.00  0.00    -0.354 N 
ATOM     42  C   UNL A   1      40.574  30.296  29.630  1.00  0.00     0.074 A 
ATOM     43  C   UNL A   1      39.862  29.095  29.251  1.00  0.00     0.031 C 
ATOM     44  C   UNL A   1      46.563  29.133  27.679  1.00  0.00     0.029 A 
ATOM     45  C   UNL A   1      46.038  30.352  28.298  1.00  0.00     0.049 A 
ATOM     46  H   UNL A   1      44.113  30.651  29.034  1.00  0.00     0.167 HD
ATOM     47  C   UNL A   1      39.997  31.350  30.252  1.00  0.00     0.034 A 
ATOM     48  C   UNL A   1      46.731  31.491  28.510  1.00  0.00     0.034 A 
ATOM     49  C   UNL A   1      40.694  32.540  30.654  1.00  0.00     0.049 A 
ATOM     50  C   UNL A   1      46.057  32.670  29.173  1.00  0.00     0.074 A 
ATOM     51  C   UNL A   1      40.194  33.639  31.330  1.00  0.00     0.029 A 
ATOM     52  N   UNL A   1      42.032  32.796  30.406  1.00  0.00    -0.354 N 
ATOM     53  N   UNL A   1      44.835  32.773  29.635  1.00  0.00    -0.248 NA
ATOM     54  C   UNL A   1      46.870  33.881  29.372  1.00  0.00     0.031 C 
ATOM     55  C   UNL A   1      41.226  34.574  31.468  1.00  0.00     0.029 A 
ATOM     56  C   UNL A   1      42.374  34.042  30.904  1.00  0.00     0.049 A 
ATOM     57  H   UNL A   1      42.649  32.184  29.944  1.00  0.00     0.167 HD
ATOM     58  C   UNL A   1      44.747  34.038  30.213  1.00  0.00     0.074 A 
ATOM     59  C   UNL A   1      46.044  34.660  30.056  1.00  0.00     0.031 C 
ATOM     60  C   UNL A   1      43.683  34.633  30.807  1.00  0.00     0.034 A 
BRANCH  47  61
ATOM     61  C   UNL A   1      38.528  31.252  30.559  1.00  0.00     0.023 A 
ATOM     62  C   UNL A   1      38.096  30.475  31.654  1.00  0.00     0.012 A 
ATOM     63  C   UNL A   1      37.582  31.960  29.795  1.00  0.00     0.148 A 
ATOM     64  C   UNL A   1      36.740  30.381  31.963  1.00  0.00     0.002 A 
ATOM     65  C   UNL A   1      36.237  31.897  30.136  1.00  0.00     0.091 A 
ATOM     66  F   UNL A   1      38.013  32.670  28.742  1.00  0.00    -0.205 F 
ATOM     67  C   UNL A   1      35.813  31.100  31.212  1.00  0.00     0.022 A 
BRANCH  65  68
ATOM     68  S   UNL A   1      34.978  32.847  29.278  1.00  0.00     0.127 S 
ATOM     69  O   UNL A   1      34.034  33.128  30.359  1.00  0.00    -0.237 OA
ATOM     70  O   UNL A   1      35.734  34.009  28.811  1.00  0.00    -0.237 OA
ATOM     71  O   UNL A   1      34.478  31.983  28.217  1.00  0.00    -0.744 OA
ENDBRANCH  65  68
ENDBRANCH  47  61
BRANCH  48  72
ATOM     72  C   UNL A   1      48.166  31.580  28.115  1.00  0.00     0.023 A 
ATOM     73  C   UNL A   1      48.518  32.231  26.915  1.00  0.00     0.012 A 
ATOM     74  C   UNL A   1      49.181  31.012  28.909  1.00  0.00     0.148 A 
ATOM     75  C   UNL A   1      49.850  32.288  26.499  1.00  0.00     0.002 A 
ATOM     76  C   UNL A   1      50.510  31.119  28.517  1.00  0.00     0.091 A 
ATOM     77  F   UNL A   1      48.824  30.378  30.034  1.00  0.00    -0.205 F 
ATOM     78  C   UNL A   1      50.845  31.741  27.304  1.00  0.00     0.022 A 
BRANCH  76  79
ATOM     79  S   UNL A   1      51.869  30.545  29.541  1.00  0.00     0.127 S 
ATOM     80  O   UNL A   1      51.637  29.103  29.566  1.00  0.00    -0.237 OA
ATOM     81  O   UNL A   1      53.032  30.969  28.760  1.00  0.00    -0.237 OA
ATOM     82  O   UNL A   1      51.717  31.231  30.817  1.00  0.00    -0.744 OA
ENDBRANCH  76  79
ENDBRANCH  48  72
BRANCH  60  83
ATOM     83  C   UNL A   1      43.866  36.014  31.388  1.00  0.00     0.023 A 
ATOM     84  C   UNL A   1      44.242  36.167  32.737  1.00  0.00     0.012 A 
ATOM     85  C   UNL A   1      43.763  37.157  30.568  1.00  0.00     0.148 A 
ATOM     86  C   UNL A   1      44.485  37.434  33.267  1.00  0.00     0.002 A 
ATOM     87  C   UNL A   1      44.052  38.412  31.090  1.00  0.00     0.091 A 
ATOM     88  F   UNL A   1      43.390  36.995  29.289  1.00  0.00    -0.205 F 
ATOM     89  C   UNL A   1      44.402  38.554  32.442  1.00  0.00     0.022 A 
BRANCH  87  90
ATOM     90  S   UNL A   1      44.067  39.899  30.080  1.00  0.00     0.127 S 
ATOM     91  O   UNL A   1      44.893  39.482  28.947  1.00  0.00    -0.237 OA
ATOM     92  O   UNL A   1      42.648  40.077  29.766  1.00  0.00    -0.237 OA
ATOM     93  O   UNL A   1      44.636  40.947  30.916  1.00  0.00    -0.744 OA
ENDBRANCH  87  90
ENDBRANCH  60  83
ENDBRANCH  34  35
ENDBRANCH  27  29
ENDBRANCH  26  27
ENDBRANCH  25  26
ENDBRANCH  24  25
ENDBRANCH  23  24
ENDBRANCH   1  23
TORSDOF 22
ENDMDL
