MODEL 1
REMARK VINA RESULT:     -10.5      0.000      0.000
REMARK SMILES Cc1cc(N(C)[C@H]2CC[C@@H](C)CC2)cc(C(=O)OCCOCCOCCOC(=O)c2ccc(-c3c4nc(c(-c5cccc(S(=O)(=O)[O-])c5F)c5ccc([nH]5)c(-c5cccc(S(=O)(=O)[O-])c5F)c5nc(c(-c6cccc(S(=O)(=O)[O-])c6F)c6ccc3[nH]6)C=C5)C=C4)cc2)c1N
REMARK SMILES IDX 23 1 22 2 21 3 20 4 19 5 18 6 16 7 17 8 15 9 1 10 2 11 3 12
REMARK SMILES IDX 93 13 4 14 14 15 94 16 5 19 6 20 7 21 8 22 13 23 9 24 12 25
REMARK SMILES IDX 10 26 11 27 24 28 25 29 26 30 27 31 28 32 29 33 30 34 31 35
REMARK SMILES IDX 92 36 32 37 91 38 33 39 34 40 35 41 85 42 36 43 90 44 84 45
REMARK SMILES IDX 86 46 37 47 89 48 83 49 82 50 38 52 70 53 50 54 69 55 51 56
REMARK SMILES IDX 54 57 68 58 87 59 52 60 53 61 67 63 88 64 55 65 39 66 40 67
REMARK SMILES IDX 48 68 41 69 43 70 49 71 42 72 44 73 45 74 46 75 47 76 71 77
REMARK SMILES IDX 72 78 80 79 73 80 75 81 81 82 74 83 76 84 77 85 78 86 79 87
REMARK SMILES IDX 56 88 57 89 65 90 58 91 60 92 66 93 59 94 61 95 62 96 63 97
REMARK SMILES IDX 64 98
REMARK H PARENT 94 17 94 18 86 51 54 62
REMARK Flexibility Score: inf
ROOT
ATOM      1  C   UNL A   1      42.243  19.181  26.150  1.00  0.00     0.188 C 
ENDROOT
BRANCH   1   2
ATOM      2  C   UNL A   1      41.674  19.857  27.416  1.00  0.00     0.188 C 
BRANCH   2   3
ATOM      3  O   UNL A   1      40.914  21.026  27.151  1.00  0.00    -0.376 OA
BRANCH   3   4
ATOM      4  C   UNL A   1      39.743  20.835  26.371  1.00  0.00     0.202 C 
BRANCH   4   5
ATOM      5  C   UNL A   1      39.059  22.109  25.843  1.00  0.00     0.261 C 
BRANCH   5   6
ATOM      6  O   UNL A   1      37.632  22.031  25.664  1.00  0.00    -0.460 OA
BRANCH   6   7
ATOM      7  C   UNL A   1      36.942  23.161  25.944  1.00  0.00     0.340 C 
ATOM      8  O   UNL A   1      37.350  24.072  26.648  1.00  0.00    -0.246 OA
BRANCH   7   9
ATOM      9  C   UNL A   1      35.668  23.220  25.175  1.00  0.00     0.085 A 
ATOM     10  C   UNL A   1      32.902  20.915  23.985  1.00  0.00     0.047 C 
ATOM     11  C   UNL A   1      33.888  22.044  24.124  1.00  0.00    -0.025 A 
ATOM     12  C   UNL A   1      33.689  23.188  23.341  1.00  0.00     0.031 A 
ATOM     13  C   UNL A   1      34.908  22.043  25.066  1.00  0.00     0.049 A 
ATOM     14  C   UNL A   1      34.073  24.456  23.752  1.00  0.00     0.038 A 
ATOM     15  C   UNL A   1      35.196  24.430  24.597  1.00  0.00     0.043 A 
BRANCH  13  16
ATOM     16  N   UNL A   1      35.032  20.987  25.965  1.00  0.00    -0.398 N 
ATOM     17  H   UNL A   1      34.274  20.739  26.543  1.00  0.00     0.156 HD
ATOM     18  H   UNL A   1      35.878  20.486  26.023  1.00  0.00     0.156 HD
ENDBRANCH  13  16
BRANCH  14  19
ATOM     19  N   UNL A   1      33.330  25.604  23.421  1.00  0.00    -0.372 N 
ATOM     20  C   UNL A   1      33.354  26.000  22.006  1.00  0.00     0.144 C 
BRANCH  19  21
ATOM     21  C   UNL A   1      32.277  26.294  24.288  1.00  0.00     0.082 C 
ATOM     22  C   UNL A   1      32.479  26.136  25.828  1.00  0.00     0.025 C 
ATOM     23  C   UNL A   1      30.796  25.926  24.111  1.00  0.00     0.025 C 
ATOM     24  C   UNL A   1      31.900  24.870  26.510  1.00  0.00     0.005 C 
ATOM     25  C   UNL A   1      30.582  24.445  24.382  1.00  0.00     0.005 C 
ATOM     26  C   UNL A   1      30.659  24.206  25.880  1.00  0.00    -0.014 C 
ATOM     27  C   UNL A   1      30.611  22.702  26.169  1.00  0.00     0.007 C 
ENDBRANCH  19  21
ENDBRANCH  14  19
ENDBRANCH   7   9
ENDBRANCH   6   7
ENDBRANCH   5   6
ENDBRANCH   4   5
ENDBRANCH   3   4
ENDBRANCH   2   3
ENDBRANCH   1   2
BRANCH   1  28
ATOM     28  O   UNL A   1      43.501  19.579  25.618  1.00  0.00    -0.376 OA
BRANCH  28  29
ATOM     29  C   UNL A   1      43.746  20.956  25.379  1.00  0.00     0.202 C 
BRANCH  29  30
ATOM     30  C   UNL A   1      45.149  21.551  25.608  1.00  0.00     0.261 C 
BRANCH  30  31
ATOM     31  O   UNL A   1      45.212  22.833  26.255  1.00  0.00    -0.460 OA
BRANCH  31  32
ATOM     32  C   UNL A   1      44.805  23.891  25.508  1.00  0.00     0.338 C 
ATOM     33  O   UNL A   1      44.928  24.031  24.306  1.00  0.00    -0.246 OA
BRANCH  32  34
ATOM     34  C   UNL A   1      44.022  24.826  26.349  1.00  0.00     0.060 A 
ATOM     35  C   UNL A   1      44.387  26.180  26.368  1.00  0.00     0.016 A 
ATOM     36  C   UNL A   1      42.987  24.367  27.165  1.00  0.00     0.016 A 
ATOM     37  C   UNL A   1      43.736  27.075  27.218  1.00  0.00     0.010 A 
ATOM     38  C   UNL A   1      42.351  25.261  28.036  1.00  0.00     0.010 A 
ATOM     39  C   UNL A   1      42.743  26.613  28.090  1.00  0.00    -0.014 A 
BRANCH  39  40
ATOM     40  C   UNL A   1      42.231  27.500  29.165  1.00  0.00     0.031 A 
ATOM     41  C   UNL A   1      42.902  27.467  30.513  1.00  0.00     0.074 A 
ATOM     42  C   UNL A   1      41.185  28.320  28.957  1.00  0.00     0.049 A 
ATOM     43  N   UNL A   1      42.589  28.102  31.612  1.00  0.00    -0.248 NA
ATOM     44  C   UNL A   1      44.084  26.596  30.638  1.00  0.00     0.031 C 
ATOM     45  C   UNL A   1      40.454  28.455  27.699  1.00  0.00     0.029 A 
ATOM     46  N   UNL A   1      40.535  29.172  29.818  1.00  0.00    -0.354 N 
ATOM     47  C   UNL A   1      43.513  27.688  32.566  1.00  0.00     0.074 A 
ATOM     48  C   UNL A   1      44.392  26.739  31.919  1.00  0.00     0.031 C 
ATOM     49  C   UNL A   1      39.430  29.309  27.880  1.00  0.00     0.029 A 
ATOM     50  C   UNL A   1      39.417  29.758  29.272  1.00  0.00     0.049 A 
ATOM     51  H   UNL A   1      40.841  29.345  30.738  1.00  0.00     0.167 HD
ATOM     52  C   UNL A   1      43.628  28.072  33.860  1.00  0.00     0.034 A 
ATOM     53  C   UNL A   1      38.475  30.539  29.838  1.00  0.00     0.034 A 
ATOM     54  C   UNL A   1      42.762  29.025  34.502  1.00  0.00     0.049 A 
ATOM     55  C   UNL A   1      38.606  30.922  31.293  1.00  0.00     0.074 A 
ATOM     56  C   UNL A   1      42.826  29.505  35.798  1.00  0.00     0.029 A 
ATOM     57  N   UNL A   1      41.670  29.630  33.903  1.00  0.00    -0.354 N 
ATOM     58  N   UNL A   1      39.546  30.609  32.150  1.00  0.00    -0.248 NA
ATOM     59  C   UNL A   1      37.558  31.794  31.848  1.00  0.00     0.031 C 
ATOM     60  C   UNL A   1      41.749  30.376  35.994  1.00  0.00     0.029 A 
ATOM     61  C   UNL A   1      41.042  30.472  34.807  1.00  0.00     0.049 A 
ATOM     62  H   UNL A   1      41.382  29.485  32.974  1.00  0.00     0.167 HD
ATOM     63  C   UNL A   1      39.227  31.277  33.329  1.00  0.00     0.074 A 
ATOM     64  C   UNL A   1      38.018  32.028  33.070  1.00  0.00     0.031 C 
ATOM     65  C   UNL A   1      39.871  31.261  34.522  1.00  0.00     0.034 A 
BRANCH  52  66
ATOM     66  C   UNL A   1      44.747  27.475  34.673  1.00  0.00     0.023 A 
ATOM     67  C   UNL A   1      45.998  28.124  34.721  1.00  0.00     0.012 A 
ATOM     68  C   UNL A   1      44.540  26.313  35.441  1.00  0.00     0.148 A 
ATOM     69  C   UNL A   1      47.033  27.610  35.500  1.00  0.00     0.002 A 
ATOM     70  C   UNL A   1      45.563  25.833  36.251  1.00  0.00     0.091 A 
ATOM     71  F   UNL A   1      43.350  25.701  35.366  1.00  0.00    -0.205 F 
ATOM     72  C   UNL A   1      46.813  26.472  36.273  1.00  0.00     0.022 A 
BRANCH  70  73
ATOM     73  S   UNL A   1      45.354  24.424  37.346  1.00  0.00     0.127 S 
ATOM     74  O   UNL A   1      45.020  23.361  36.398  1.00  0.00    -0.237 OA
ATOM     75  O   UNL A   1      46.682  24.307  37.950  1.00  0.00    -0.237 OA
ATOM     76  O   UNL A   1      44.292  24.786  38.273  1.00  0.00    -0.744 OA
ENDBRANCH  70  73
ENDBRANCH  52  66
BRANCH  53  77
ATOM     77  C   UNL A   1      37.319  31.028  29.033  1.00  0.00     0.023 A 
ATOM     78  C   UNL A   1      37.186  32.405  28.765  1.00  0.00     0.012 A 
ATOM     79  C   UNL A   1      36.343  30.137  28.546  1.00  0.00     0.148 A 
ATOM     80  C   UNL A   1      36.081  32.889  28.063  1.00  0.00     0.002 A 
ATOM     81  C   UNL A   1      35.276  30.619  27.798  1.00  0.00     0.091 A 
ATOM     82  F   UNL A   1      36.478  28.833  28.827  1.00  0.00    -0.205 F 
ATOM     83  C   UNL A   1      35.132  31.997  27.573  1.00  0.00     0.022 A 
BRANCH  81  84
ATOM     84  S   UNL A   1      34.073  29.534  27.024  1.00  0.00     0.127 S 
ATOM     85  O   UNL A   1      34.912  28.758  26.114  1.00  0.00    -0.237 OA
ATOM     86  O   UNL A   1      33.558  28.789  28.174  1.00  0.00    -0.237 OA
ATOM     87  O   UNL A   1      33.099  30.414  26.393  1.00  0.00    -0.744 OA
ENDBRANCH  81  84
ENDBRANCH  53  77
BRANCH  65  88
ATOM     88  C   UNL A   1      39.324  32.122  35.633  1.00  0.00     0.023 A 
ATOM     89  C   UNL A   1      38.399  31.587  36.552  1.00  0.00     0.012 A 
ATOM     90  C   UNL A   1      39.788  33.441  35.809  1.00  0.00     0.148 A 
ATOM     91  C   UNL A   1      37.918  32.365  37.607  1.00  0.00     0.002 A 
ATOM     92  C   UNL A   1      39.345  34.191  36.892  1.00  0.00     0.091 A 
ATOM     93  F   UNL A   1      40.657  33.938  34.917  1.00  0.00    -0.205 F 
ATOM     94  C   UNL A   1      38.399  33.660  37.783  1.00  0.00     0.022 A 
BRANCH  92  95
ATOM     95  S   UNL A   1      39.981  35.831  37.256  1.00  0.00     0.127 S 
ATOM     96  O   UNL A   1      39.311  36.137  38.520  1.00  0.00    -0.237 OA
ATOM     97  O   UNL A   1      41.419  35.587  37.371  1.00  0.00    -0.237 OA
ATOM     98  O   UNL A   1      39.598  36.672  36.129  1.00  0.00    -0.744 OA
ENDBRANCH  92  95
ENDBRANCH  65  88
ENDBRANCH  39  40
ENDBRANCH  32  34
ENDBRANCH  31  32
ENDBRANCH  30  31
ENDBRANCH  29  30
ENDBRANCH  28  29
ENDBRANCH   1  28
TORSDOF 23
ENDMDL
MODEL 2
REMARK VINA RESULT:     -10.0      5.048      8.717
REMARK SMILES Cc1cc(N(C)[C@H]2CC[C@@H](C)CC2)cc(C(=O)OCCOCCOCCOC(=O)c2ccc(-c3c4nc(c(-c5cccc(S(=O)(=O)[O-])c5F)c5ccc([nH]5)c(-c5cccc(S(=O)(=O)[O-])c5F)c5nc(c(-c6cccc(S(=O)(=O)[O-])c6F)c6ccc3[nH]6)C=C5)C=C4)cc2)c1N
REMARK SMILES IDX 23 1 22 2 21 3 20 4 19 5 18 6 16 7 17 8 15 9 1 10 2 11 3 12
REMARK SMILES IDX 93 13 4 14 14 15 94 16 5 19 6 20 7 21 8 22 13 23 9 24 12 25
REMARK SMILES IDX 10 26 11 27 24 28 25 29 26 30 27 31 28 32 29 33 30 34 31 35
REMARK SMILES IDX 92 36 32 37 91 38 33 39 34 40 35 41 85 42 36 43 90 44 84 45
REMARK SMILES IDX 86 46 37 47 89 48 83 49 82 50 38 52 70 53 50 54 69 55 51 56
REMARK SMILES IDX 54 57 68 58 87 59 52 60 53 61 67 63 88 64 55 65 39 66 40 67
REMARK SMILES IDX 48 68 41 69 43 70 49 71 42 72 44 73 45 74 46 75 47 76 71 77
REMARK SMILES IDX 72 78 80 79 73 80 75 81 81 82 74 83 76 84 77 85 78 86 79 87
REMARK SMILES IDX 56 88 57 89 65 90 58 91 60 92 66 93 59 94 61 95 62 96 63 97
REMARK SMILES IDX 64 98
REMARK H PARENT 94 17 94 18 86 51 54 62
REMARK Flexibility Score: inf
ROOT
ATOM      1  C   UNL A   1      34.946  17.657  24.301  1.00  0.00     0.188 C 
ENDROOT
BRANCH   1   2
ATOM      2  C   UNL A   1      33.901  16.913  25.161  1.00  0.00     0.188 C 
BRANCH   2   3
ATOM      3  O   UNL A   1      32.647  17.573  25.239  1.00  0.00    -0.376 OA
BRANCH   3   4
ATOM      4  C   UNL A   1      32.416  18.575  24.260  1.00  0.00     0.202 C 
BRANCH   4   5
ATOM      5  C   UNL A   1      32.798  20.014  24.653  1.00  0.00     0.261 C 
BRANCH   5   6
ATOM      6  O   UNL A   1      31.768  21.007  24.491  1.00  0.00    -0.460 OA
BRANCH   6   7
ATOM      7  C   UNL A   1      31.940  21.871  23.464  1.00  0.00     0.340 C 
ATOM      8  O   UNL A   1      32.057  21.548  22.292  1.00  0.00    -0.246 OA
BRANCH   7   9
ATOM      9  C   UNL A   1      31.835  23.284  23.924  1.00  0.00     0.085 A 
ATOM     10  C   UNL A   1      33.603  25.708  26.242  1.00  0.00     0.047 C 
ATOM     11  C   UNL A   1      32.578  24.984  25.412  1.00  0.00    -0.025 A 
ATOM     12  C   UNL A   1      31.350  25.619  25.187  1.00  0.00     0.031 A 
ATOM     13  C   UNL A   1      32.838  23.777  24.775  1.00  0.00     0.049 A 
ATOM     14  C   UNL A   1      30.602  25.420  24.036  1.00  0.00     0.038 A 
ATOM     15  C   UNL A   1      30.782  24.136  23.491  1.00  0.00     0.043 A 
BRANCH  13  16
ATOM     16  N   UNL A   1      34.103  23.201  24.853  1.00  0.00    -0.398 N 
ATOM     17  H   UNL A   1      34.904  23.743  24.669  1.00  0.00     0.156 HD
ATOM     18  H   UNL A   1      34.198  22.251  25.092  1.00  0.00     0.156 HD
ENDBRANCH  13  16
BRANCH  14  19
ATOM     19  N   UNL A   1      29.840  26.450  23.455  1.00  0.00    -0.372 N 
ATOM     20  C   UNL A   1      28.458  26.582  23.940  1.00  0.00     0.144 C 
BRANCH  19  21
ATOM     21  C   UNL A   1      30.365  27.616  22.618  1.00  0.00     0.082 C 
ATOM     22  C   UNL A   1      31.855  27.491  22.167  1.00  0.00     0.025 C 
ATOM     23  C   UNL A   1      30.315  29.040  23.193  1.00  0.00     0.025 C 
ATOM     24  C   UNL A   1      32.953  27.978  23.145  1.00  0.00     0.005 C 
ATOM     25  C   UNL A   1      31.121  29.119  24.482  1.00  0.00     0.005 C 
ATOM     26  C   UNL A   1      32.599  29.107  24.135  1.00  0.00    -0.014 C 
ATOM     27  C   UNL A   1      33.432  29.021  25.418  1.00  0.00     0.007 C 
ENDBRANCH  19  21
ENDBRANCH  14  19
ENDBRANCH   7   9
ENDBRANCH   6   7
ENDBRANCH   5   6
ENDBRANCH   4   5
ENDBRANCH   3   4
ENDBRANCH   2   3
ENDBRANCH   1   2
BRANCH   1  28
ATOM     28  O   UNL A   1      35.974  18.427  24.914  1.00  0.00    -0.376 OA
BRANCH  28  29
ATOM     29  C   UNL A   1      36.088  19.805  24.595  1.00  0.00     0.202 C 
BRANCH  29  30
ATOM     30  C   UNL A   1      36.815  20.770  25.552  1.00  0.00     0.261 C 
BRANCH  30  31
ATOM     31  O   UNL A   1      38.100  21.257  25.131  1.00  0.00    -0.460 OA
BRANCH  31  32
ATOM     32  C   UNL A   1      39.139  20.969  25.957  1.00  0.00     0.338 C 
ATOM     33  O   UNL A   1      39.688  19.893  26.096  1.00  0.00    -0.246 OA
BRANCH  32  34
ATOM     34  C   UNL A   1      39.643  22.215  26.580  1.00  0.00     0.060 A 
ATOM     35  C   UNL A   1      39.143  23.444  26.123  1.00  0.00     0.016 A 
ATOM     36  C   UNL A   1      40.645  22.182  27.550  1.00  0.00     0.016 A 
ATOM     37  C   UNL A   1      39.661  24.643  26.616  1.00  0.00     0.010 A 
ATOM     38  C   UNL A   1      41.180  23.386  28.025  1.00  0.00     0.010 A 
ATOM     39  C   UNL A   1      40.713  24.623  27.539  1.00  0.00    -0.014 A 
BRANCH  39  40
ATOM     40  C   UNL A   1      41.432  25.879  27.870  1.00  0.00     0.031 A 
ATOM     41  C   UNL A   1      40.695  26.961  28.616  1.00  0.00     0.074 A 
ATOM     42  C   UNL A   1      42.715  26.066  27.513  1.00  0.00     0.049 A 
ATOM     43  N   UNL A   1      41.098  28.158  28.954  1.00  0.00    -0.248 NA
ATOM     44  C   UNL A   1      39.316  26.650  29.033  1.00  0.00     0.031 C 
ATOM     45  C   UNL A   1      43.544  25.097  26.798  1.00  0.00     0.029 A 
ATOM     46  N   UNL A   1      43.536  27.156  27.677  1.00  0.00    -0.354 N 
ATOM     47  C   UNL A   1      40.017  28.754  29.595  1.00  0.00     0.074 A 
ATOM     48  C   UNL A   1      38.938  27.790  29.591  1.00  0.00     0.031 C 
ATOM     49  C   UNL A   1      44.744  25.651  26.549  1.00  0.00     0.029 A 
ATOM     50  C   UNL A   1      44.759  27.021  27.062  1.00  0.00     0.049 A 
ATOM     51  H   UNL A   1      43.273  27.957  28.185  1.00  0.00     0.167 HD
ATOM     52  C   UNL A   1      39.933  29.987  30.151  1.00  0.00     0.034 A 
ATOM     53  C   UNL A   1      45.760  27.911  26.902  1.00  0.00     0.034 A 
ATOM     54  C   UNL A   1      41.009  30.941  30.167  1.00  0.00     0.049 A 
ATOM     55  C   UNL A   1      45.627  29.291  27.498  1.00  0.00     0.074 A 
ATOM     56  C   UNL A   1      41.030  32.201  30.741  1.00  0.00     0.029 A 
ATOM     57  N   UNL A   1      42.246  30.751  29.575  1.00  0.00    -0.354 N 
ATOM     58  N   UNL A   1      44.642  29.800  28.196  1.00  0.00    -0.248 NA
ATOM     59  C   UNL A   1      46.761  30.210  27.309  1.00  0.00     0.031 C 
ATOM     60  C   UNL A   1      42.270  32.786  30.464  1.00  0.00     0.029 A 
ATOM     61  C   UNL A   1      43.036  31.874  29.757  1.00  0.00     0.049 A 
ATOM     62  H   UNL A   1      42.523  29.938  29.095  1.00  0.00     0.167 HD
ATOM     63  C   UNL A   1      45.053  31.079  28.563  1.00  0.00     0.074 A 
ATOM     64  C   UNL A   1      46.385  31.259  28.028  1.00  0.00     0.031 C 
ATOM     65  C   UNL A   1      44.383  32.022  29.271  1.00  0.00     0.034 A 
BRANCH  52  66
ATOM     66  C   UNL A   1      38.634  30.374  30.808  1.00  0.00     0.023 A 
ATOM     67  C   UNL A   1      38.409  30.038  32.159  1.00  0.00     0.012 A 
ATOM     68  C   UNL A   1      37.671  31.129  30.113  1.00  0.00     0.148 A 
ATOM     69  C   UNL A   1      37.231  30.423  32.797  1.00  0.00     0.002 A 
ATOM     70  C   UNL A   1      36.520  31.549  30.770  1.00  0.00     0.091 A 
ATOM     71  F   UNL A   1      37.896  31.422  28.824  1.00  0.00    -0.205 F 
ATOM     72  C   UNL A   1      36.293  31.187  32.107  1.00  0.00     0.022 A 
BRANCH  70  73
ATOM     73  S   UNL A   1      35.290  32.604  29.996  1.00  0.00     0.127 S 
ATOM     74  O   UNL A   1      34.298  32.733  31.064  1.00  0.00    -0.237 OA
ATOM     75  O   UNL A   1      36.056  33.821  29.726  1.00  0.00    -0.237 OA
ATOM     76  O   UNL A   1      34.836  31.893  28.809  1.00  0.00    -0.744 OA
ENDBRANCH  70  73
ENDBRANCH  52  66
BRANCH  53  77
ATOM     77  C   UNL A   1      46.992  27.531  26.152  1.00  0.00     0.023 A 
ATOM     78  C   UNL A   1      48.078  26.952  26.838  1.00  0.00     0.012 A 
ATOM     79  C   UNL A   1      47.098  27.757  24.766  1.00  0.00     0.148 A 
ATOM     80  C   UNL A   1      49.260  26.643  26.165  1.00  0.00     0.002 A 
ATOM     81  C   UNL A   1      48.257  27.394  24.091  1.00  0.00     0.091 A 
ATOM     82  F   UNL A   1      46.061  28.326  24.134  1.00  0.00    -0.205 F 
ATOM     83  C   UNL A   1      49.348  26.856  24.793  1.00  0.00     0.022 A 
BRANCH  81  84
ATOM     84  S   UNL A   1      48.412  27.518  22.307  1.00  0.00     0.127 S 
ATOM     85  O   UNL A   1      48.533  26.115  21.919  1.00  0.00    -0.237 OA
ATOM     86  O   UNL A   1      47.146  28.152  21.939  1.00  0.00    -0.237 OA
ATOM     87  O   UNL A   1      49.589  28.344  22.071  1.00  0.00    -0.744 OA
ENDBRANCH  81  84
ENDBRANCH  53  77
BRANCH  65  88
ATOM     88  C   UNL A   1      45.092  33.321  29.565  1.00  0.00     0.023 A 
ATOM     89  C   UNL A   1      45.885  33.447  30.723  1.00  0.00     0.012 A 
ATOM     90  C   UNL A   1      45.033  34.391  28.650  1.00  0.00     0.148 A 
ATOM     91  C   UNL A   1      46.577  34.631  30.983  1.00  0.00     0.002 A 
ATOM     92  C   UNL A   1      45.768  35.546  28.888  1.00  0.00     0.091 A 
ATOM     93  F   UNL A   1      44.263  34.257  27.559  1.00  0.00    -0.205 F 
ATOM     94  C   UNL A   1      46.528  35.674  30.062  1.00  0.00     0.022 A 
BRANCH  92  95
ATOM     95  S   UNL A   1      45.844  36.902  27.712  1.00  0.00     0.127 S 
ATOM     96  O   UNL A   1      46.177  36.202  26.472  1.00  0.00    -0.237 OA
ATOM     97  O   UNL A   1      44.482  37.435  27.766  1.00  0.00    -0.237 OA
ATOM     98  O   UNL A   1      46.869  37.810  28.210  1.00  0.00    -0.744 OA
ENDBRANCH  92  95
ENDBRANCH  65  88
ENDBRANCH  39  40
ENDBRANCH  32  34
ENDBRANCH  31  32
ENDBRANCH  30  31
ENDBRANCH  29  30
ENDBRANCH  28  29
ENDBRANCH   1  28
TORSDOF 23
ENDMDL
MODEL 3
REMARK VINA RESULT:      -9.9      1.858      2.183
REMARK SMILES Cc1cc(N(C)[C@H]2CC[C@@H](C)CC2)cc(C(=O)OCCOCCOCCOC(=O)c2ccc(-c3c4nc(c(-c5cccc(S(=O)(=O)[O-])c5F)c5ccc([nH]5)c(-c5cccc(S(=O)(=O)[O-])c5F)c5nc(c(-c6cccc(S(=O)(=O)[O-])c6F)c6ccc3[nH]6)C=C5)C=C4)cc2)c1N
REMARK SMILES IDX 23 1 22 2 21 3 20 4 19 5 18 6 16 7 17 8 15 9 1 10 2 11 3 12
REMARK SMILES IDX 93 13 4 14 14 15 94 16 5 19 6 20 7 21 8 22 13 23 9 24 12 25
REMARK SMILES IDX 10 26 11 27 24 28 25 29 26 30 27 31 28 32 29 33 30 34 31 35
REMARK SMILES IDX 92 36 32 37 91 38 33 39 34 40 35 41 85 42 36 43 90 44 84 45
REMARK SMILES IDX 86 46 37 47 89 48 83 49 82 50 38 52 70 53 50 54 69 55 51 56
REMARK SMILES IDX 54 57 68 58 87 59 52 60 53 61 67 63 88 64 55 65 39 66 40 67
REMARK SMILES IDX 48 68 41 69 43 70 49 71 42 72 44 73 45 74 46 75 47 76 71 77
REMARK SMILES IDX 72 78 80 79 73 80 75 81 81 82 74 83 76 84 77 85 78 86 79 87
REMARK SMILES IDX 56 88 57 89 65 90 58 91 60 92 66 93 59 94 61 95 62 96 63 97
REMARK SMILES IDX 64 98
REMARK H PARENT 94 17 94 18 86 51 54 62
REMARK Flexibility Score: inf
ROOT
ATOM      1  C   UNL A   1      42.280  19.145  26.132  1.00  0.00     0.188 C 
ENDROOT
BRANCH   1   2
ATOM      2  C   UNL A   1      41.881  19.634  27.542  1.00  0.00     0.188 C 
BRANCH   2   3
ATOM      3  O   UNL A   1      40.924  20.682  27.537  1.00  0.00    -0.376 OA
BRANCH   3   4
ATOM      4  C   UNL A   1      39.983  20.652  26.475  1.00  0.00     0.202 C 
BRANCH   4   5
ATOM      5  C   UNL A   1      39.374  22.005  26.063  1.00  0.00     0.261 C 
BRANCH   5   6
ATOM      6  O   UNL A   1      37.980  21.987  25.704  1.00  0.00    -0.460 OA
BRANCH   6   7
ATOM      7  C   UNL A   1      37.327  23.165  25.826  1.00  0.00     0.340 C 
ATOM      8  O   UNL A   1      37.791  24.172  26.338  1.00  0.00    -0.246 OA
BRANCH   7   9
ATOM      9  C   UNL A   1      36.008  23.125  25.133  1.00  0.00     0.085 A 
ATOM     10  C   UNL A   1      32.991  20.854  24.792  1.00  0.00     0.047 C 
ATOM     11  C   UNL A   1      34.070  21.876  24.553  1.00  0.00    -0.025 A 
ATOM     12  C   UNL A   1      33.904  22.764  23.482  1.00  0.00     0.031 A 
ATOM     13  C   UNL A   1      35.152  22.045  25.406  1.00  0.00     0.049 A 
ATOM     14  C   UNL A   1      34.416  24.054  23.491  1.00  0.00     0.038 A 
ATOM     15  C   UNL A   1      35.592  24.162  24.253  1.00  0.00     0.043 A 
BRANCH  13  16
ATOM     16  N   UNL A   1      35.259  21.280  26.564  1.00  0.00    -0.398 N 
ATOM     17  H   UNL A   1      34.455  20.872  26.962  1.00  0.00     0.156 HD
ATOM     18  H   UNL A   1      36.138  21.146  26.987  1.00  0.00     0.156 HD
ENDBRANCH  13  16
BRANCH  14  19
ATOM     19  N   UNL A   1      33.743  25.127  22.878  1.00  0.00    -0.372 N 
ATOM     20  C   UNL A   1      32.853  24.775  21.761  1.00  0.00     0.144 C 
BRANCH  19  21
ATOM     21  C   UNL A   1      33.597  26.547  23.422  1.00  0.00     0.082 C 
ATOM     22  C   UNL A   1      33.159  26.643  24.918  1.00  0.00     0.025 C 
ATOM     23  C   UNL A   1      32.629  27.523  22.734  1.00  0.00     0.025 C 
ATOM     24  C   UNL A   1      31.642  26.595  25.235  1.00  0.00     0.005 C 
ATOM     25  C   UNL A   1      31.212  26.970  22.761  1.00  0.00     0.005 C 
ATOM     26  C   UNL A   1      30.658  27.115  24.168  1.00  0.00    -0.014 C 
ATOM     27  C   UNL A   1      29.296  26.420  24.263  1.00  0.00     0.007 C 
ENDBRANCH  19  21
ENDBRANCH  14  19
ENDBRANCH   7   9
ENDBRANCH   6   7
ENDBRANCH   5   6
ENDBRANCH   4   5
ENDBRANCH   3   4
ENDBRANCH   2   3
ENDBRANCH   1   2
BRANCH   1  28
ATOM     28  O   UNL A   1      43.455  19.637  25.500  1.00  0.00    -0.376 OA
BRANCH  28  29
ATOM     29  C   UNL A   1      43.633  21.038  25.363  1.00  0.00     0.202 C 
BRANCH  29  30
ATOM     30  C   UNL A   1      45.034  21.665  25.508  1.00  0.00     0.261 C 
BRANCH  30  31
ATOM     31  O   UNL A   1      45.107  22.950  26.146  1.00  0.00    -0.460 OA
BRANCH  31  32
ATOM     32  C   UNL A   1      44.657  24.000  25.412  1.00  0.00     0.338 C 
ATOM     33  O   UNL A   1      44.777  24.159  24.212  1.00  0.00    -0.246 OA
BRANCH  32  34
ATOM     34  C   UNL A   1      43.833  24.890  26.262  1.00  0.00     0.060 A 
ATOM     35  C   UNL A   1      44.116  26.264  26.268  1.00  0.00     0.016 A 
ATOM     36  C   UNL A   1      42.843  24.374  27.099  1.00  0.00     0.016 A 
ATOM     37  C   UNL A   1      43.426  27.122  27.126  1.00  0.00     0.010 A 
ATOM     38  C   UNL A   1      42.170  25.233  27.977  1.00  0.00     0.010 A 
ATOM     39  C   UNL A   1      42.479  26.606  28.018  1.00  0.00    -0.014 A 
BRANCH  39  40
ATOM     40  C   UNL A   1      41.934  27.467  29.098  1.00  0.00     0.031 A 
ATOM     41  C   UNL A   1      42.681  27.554  30.403  1.00  0.00     0.074 A 
ATOM     42  C   UNL A   1      40.791  28.158  28.931  1.00  0.00     0.049 A 
ATOM     43  N   UNL A   1      42.362  28.188  31.501  1.00  0.00    -0.248 NA
ATOM     44  C   UNL A   1      43.959  26.825  30.479  1.00  0.00     0.031 C 
ATOM     45  C   UNL A   1      39.978  28.169  27.717  1.00  0.00     0.029 A 
ATOM     46  N   UNL A   1      40.100  28.962  29.807  1.00  0.00    -0.354 N 
ATOM     47  C   UNL A   1      43.380  27.911  32.407  1.00  0.00     0.074 A 
ATOM     48  C   UNL A   1      44.322  27.044  31.734  1.00  0.00     0.031 C 
ATOM     49  C   UNL A   1      38.877  28.910  27.937  1.00  0.00     0.029 A 
ATOM     50  C   UNL A   1      38.894  29.401  29.315  1.00  0.00     0.049 A 
ATOM     51  H   UNL A   1      40.438  29.198  30.701  1.00  0.00     0.167 HD
ATOM     52  C   UNL A   1      43.525  28.349  33.681  1.00  0.00     0.034 A 
ATOM     53  C   UNL A   1      37.904  30.092  29.916  1.00  0.00     0.034 A 
ATOM     54  C   UNL A   1      42.596  29.221  34.348  1.00  0.00     0.049 A 
ATOM     55  C   UNL A   1      38.075  30.536  31.349  1.00  0.00     0.074 A 
ATOM     56  C   UNL A   1      42.680  29.749  35.624  1.00  0.00     0.029 A 
ATOM     57  N   UNL A   1      41.410  29.681  33.801  1.00  0.00    -0.354 N 
ATOM     58  N   UNL A   1      39.092  30.359  32.155  1.00  0.00    -0.248 NA
ATOM     59  C   UNL A   1      36.969  31.304  31.943  1.00  0.00     0.031 C 
ATOM     60  C   UNL A   1      41.525  30.501  35.862  1.00  0.00     0.029 A 
ATOM     61  C   UNL A   1      40.745  30.478  34.718  1.00  0.00     0.049 A 
ATOM     62  H   UNL A   1      41.087  29.473  32.895  1.00  0.00     0.167 HD
ATOM     63  C   UNL A   1      38.768  31.026  33.333  1.00  0.00     0.074 A 
ATOM     64  C   UNL A   1      37.469  31.629  33.128  1.00  0.00     0.031 C 
ATOM     65  C   UNL A   1      39.478  31.122  34.485  1.00  0.00     0.034 A 
BRANCH  52  66
ATOM     66  C   UNL A   1      44.750  27.907  34.440  1.00  0.00     0.023 A 
ATOM     67  C   UNL A   1      45.930  28.675  34.367  1.00  0.00     0.012 A 
ATOM     68  C   UNL A   1      44.711  26.776  35.276  1.00  0.00     0.148 A 
ATOM     69  C   UNL A   1      47.061  28.306  35.094  1.00  0.00     0.002 A 
ATOM     70  C   UNL A   1      45.827  26.441  36.034  1.00  0.00     0.091 A 
ATOM     71  F   UNL A   1      43.585  26.049  35.316  1.00  0.00    -0.205 F 
ATOM     72  C   UNL A   1      47.006  27.197  35.935  1.00  0.00     0.022 A 
BRANCH  70  73
ATOM     73  S   UNL A   1      45.833  25.081  37.208  1.00  0.00     0.127 S 
ATOM     74  O   UNL A   1      47.081  24.400  36.864  1.00  0.00    -0.237 OA
ATOM     75  O   UNL A   1      45.855  25.784  38.490  1.00  0.00    -0.237 OA
ATOM     76  O   UNL A   1      44.619  24.319  36.950  1.00  0.00    -0.744 OA
ENDBRANCH  70  73
ENDBRANCH  52  66
BRANCH  53  77
ATOM     77  C   UNL A   1      36.656  30.423  29.170  1.00  0.00     0.023 A 
ATOM     78  C   UNL A   1      35.892  29.390  28.591  1.00  0.00     0.012 A 
ATOM     79  C   UNL A   1      36.232  31.757  29.017  1.00  0.00     0.148 A 
ATOM     80  C   UNL A   1      34.753  29.683  27.840  1.00  0.00     0.002 A 
ATOM     81  C   UNL A   1      35.065  32.038  28.317  1.00  0.00     0.091 A 
ATOM     82  F   UNL A   1      36.982  32.727  29.559  1.00  0.00    -0.205 F 
ATOM     83  C   UNL A   1      34.336  31.004  27.710  1.00  0.00     0.022 A 
BRANCH  81  84
ATOM     84  S   UNL A   1      34.385  33.696  28.202  1.00  0.00     0.127 S 
ATOM     85  O   UNL A   1      35.297  34.329  27.254  1.00  0.00    -0.237 OA
ATOM     86  O   UNL A   1      33.041  33.433  27.685  1.00  0.00    -0.237 OA
ATOM     87  O   UNL A   1      34.413  34.226  29.559  1.00  0.00    -0.744 OA
ENDBRANCH  81  84
ENDBRANCH  53  77
BRANCH  65  88
ATOM     88  C   UNL A   1      38.902  31.955  35.603  1.00  0.00     0.023 A 
ATOM     89  C   UNL A   1      38.938  33.361  35.528  1.00  0.00     0.012 A 
ATOM     90  C   UNL A   1      38.255  31.338  36.692  1.00  0.00     0.148 A 
ATOM     91  C   UNL A   1      38.371  34.140  36.539  1.00  0.00     0.002 A 
ATOM     92  C   UNL A   1      37.646  32.119  37.668  1.00  0.00     0.091 A 
ATOM     93  F   UNL A   1      38.242  29.998  36.754  1.00  0.00    -0.205 F 
ATOM     94  C   UNL A   1      37.716  33.520  37.600  1.00  0.00     0.022 A 
BRANCH  92  95
ATOM     95  S   UNL A   1      36.697  31.412  39.019  1.00  0.00     0.127 S 
ATOM     96  O   UNL A   1      37.618  31.568  40.144  1.00  0.00    -0.237 OA
ATOM     97  O   UNL A   1      35.524  32.286  39.063  1.00  0.00    -0.237 OA
ATOM     98  O   UNL A   1      36.412  30.035  38.634  1.00  0.00    -0.744 OA
ENDBRANCH  92  95
ENDBRANCH  65  88
ENDBRANCH  39  40
ENDBRANCH  32  34
ENDBRANCH  31  32
ENDBRANCH  30  31
ENDBRANCH  29  30
ENDBRANCH  28  29
ENDBRANCH   1  28
TORSDOF 23
ENDMDL
