MODEL 1
REMARK VINA RESULT:     -11.0      0.000      0.000
REMARK SMILES O=C(OCCOCCOCCOC(=O)[C@]1(C2CCCC2)CCOc2ccccc21)c1ccc(-c2c3nc(c(-c4cccc(S(=O)(=O)[O-])c4F)c4ccc([nH]4)c(-c4cccc(S(=O)(=O)[O-])c4F)c4nc(c(-c5cccc(S(=O)(=O)[O-])c5F)c5ccc2[nH]5)C=C4)C=C3)cc1
REMARK SMILES IDX 7 1 6 2 5 3 4 4 3 5 2 6 1 7 30 8 31 9 92 10 32 11 91 12
REMARK SMILES IDX 33 13 34 14 35 15 85 16 36 17 90 18 84 19 86 20 37 21 89 22
REMARK SMILES IDX 83 23 82 24 38 26 70 27 50 28 69 29 51 30 54 31 68 32 87 33
REMARK SMILES IDX 52 34 53 35 67 37 88 38 55 39 39 40 40 41 48 42 41 43 43 44
REMARK SMILES IDX 49 45 42 46 44 47 45 48 46 49 47 50 71 51 72 52 80 53 73 54
REMARK SMILES IDX 75 55 81 56 74 57 76 58 77 59 78 60 79 61 56 62 57 63 65 64
REMARK SMILES IDX 58 65 60 66 66 67 59 68 61 69 62 70 63 71 64 72 8 73 9 74
REMARK SMILES IDX 10 75 11 76 12 77 13 78 14 79 15 80 21 81 29 82 22 83 24 84
REMARK SMILES IDX 28 85 23 86 25 87 27 88 26 89 16 90 17 91 20 92 18 93 19 94
REMARK H PARENT 86 25 54 36
REMARK Flexibility Score: inf
ROOT
ATOM      1  C   UNL A   1      29.454  30.157  23.212  1.00  0.00     0.188 C 
ENDROOT
BRANCH   1   2
ATOM      2  O   UNL A   1      29.790  31.054  24.275  1.00  0.00    -0.376 OA
BRANCH   2   3
ATOM      3  C   UNL A   1      30.870  30.578  25.086  1.00  0.00     0.202 C 
BRANCH   3   4
ATOM      4  C   UNL A   1      31.361  31.538  26.187  1.00  0.00     0.261 C 
BRANCH   4   5
ATOM      5  O   UNL A   1      32.600  31.152  26.806  1.00  0.00    -0.460 OA
BRANCH   5   6
ATOM      6  C   UNL A   1      33.483  31.897  27.519  1.00  0.00     0.338 C 
ATOM      7  O   UNL A   1      33.189  33.073  27.737  1.00  0.00    -0.246 OA
BRANCH   6   8
ATOM      8  C   UNL A   1      34.793  31.388  28.046  1.00  0.00     0.060 A 
ATOM      9  C   UNL A   1      35.041  30.081  28.465  1.00  0.00     0.016 A 
ATOM     10  C   UNL A   1      35.866  32.298  28.108  1.00  0.00     0.016 A 
ATOM     11  C   UNL A   1      36.259  29.702  29.010  1.00  0.00     0.010 A 
ATOM     12  C   UNL A   1      37.116  31.914  28.614  1.00  0.00     0.010 A 
ATOM     13  C   UNL A   1      37.303  30.615  29.097  1.00  0.00    -0.014 A 
BRANCH  13  14
ATOM     14  C   UNL A   1      38.527  30.184  29.802  1.00  0.00     0.031 A 
ATOM     15  C   UNL A   1      38.780  30.734  31.164  1.00  0.00     0.074 A 
ATOM     16  C   UNL A   1      39.298  29.202  29.297  1.00  0.00     0.049 A 
ATOM     17  N   UNL A   1      39.700  30.384  32.017  1.00  0.00    -0.248 NA
ATOM     18  C   UNL A   1      37.836  31.748  31.664  1.00  0.00     0.031 C 
ATOM     19  C   UNL A   1      39.005  28.485  28.067  1.00  0.00     0.029 A 
ATOM     20  N   UNL A   1      40.459  28.623  29.727  1.00  0.00    -0.354 N 
ATOM     21  C   UNL A   1      39.434  31.114  33.164  1.00  0.00     0.074 A 
ATOM     22  C   UNL A   1      38.288  31.952  32.891  1.00  0.00     0.031 C 
ATOM     23  C   UNL A   1      40.005  27.649  27.761  1.00  0.00     0.029 A 
ATOM     24  C   UNL A   1      40.992  27.729  28.822  1.00  0.00     0.049 A 
ATOM     25  H   UNL A   1      40.873  28.824  30.597  1.00  0.00     0.167 HD
ATOM     26  C   UNL A   1      40.080  31.057  34.347  1.00  0.00     0.034 A 
ATOM     27  C   UNL A   1      42.145  27.039  28.863  1.00  0.00     0.034 A 
ATOM     28  C   UNL A   1      41.241  30.242  34.570  1.00  0.00     0.049 A 
ATOM     29  C   UNL A   1      42.922  27.107  30.143  1.00  0.00     0.074 A 
ATOM     30  C   UNL A   1      42.029  30.157  35.699  1.00  0.00     0.029 A 
ATOM     31  N   UNL A   1      41.794  29.387  33.624  1.00  0.00    -0.354 N 
ATOM     32  N   UNL A   1      42.629  27.764  31.241  1.00  0.00    -0.248 NA
ATOM     33  C   UNL A   1      44.135  26.289  30.228  1.00  0.00     0.031 C 
ATOM     34  C   UNL A   1      43.082  29.278  35.424  1.00  0.00     0.029 A 
ATOM     35  C   UNL A   1      42.928  28.784  34.137  1.00  0.00     0.049 A 
ATOM     36  H   UNL A   1      41.431  29.233  32.722  1.00  0.00     0.167 HD
ATOM     37  C   UNL A   1      43.598  27.410  32.164  1.00  0.00     0.074 A 
ATOM     38  C   UNL A   1      44.472  26.460  31.499  1.00  0.00     0.031 C 
ATOM     39  C   UNL A   1      43.759  27.832  33.442  1.00  0.00     0.034 A 
BRANCH  26  40
ATOM     40  C   UNL A   1      39.546  31.921  35.451  1.00  0.00     0.023 A 
ATOM     41  C   UNL A   1      38.545  31.423  36.311  1.00  0.00     0.012 A 
ATOM     42  C   UNL A   1      40.017  33.235  35.618  1.00  0.00     0.148 A 
ATOM     43  C   UNL A   1      38.002  32.234  37.307  1.00  0.00     0.002 A 
ATOM     44  C   UNL A   1      39.498  34.024  36.635  1.00  0.00     0.091 A 
ATOM     45  F   UNL A   1      40.943  33.693  34.765  1.00  0.00    -0.205 F 
ATOM     46  C   UNL A   1      38.483  33.531  37.473  1.00  0.00     0.022 A 
BRANCH  44  47
ATOM     47  S   UNL A   1      40.077  35.691  36.961  1.00  0.00     0.127 S 
ATOM     48  O   UNL A   1      39.682  36.386  35.737  1.00  0.00    -0.237 OA
ATOM     49  O   UNL A   1      39.306  36.052  38.147  1.00  0.00    -0.237 OA
ATOM     50  O   UNL A   1      41.516  35.584  37.171  1.00  0.00    -0.744 OA
ENDBRANCH  44  47
ENDBRANCH  26  40
BRANCH  27  51
ATOM     51  C   UNL A   1      42.597  26.202  27.717  1.00  0.00     0.023 A 
ATOM     52  C   UNL A   1      43.354  26.775  26.678  1.00  0.00     0.012 A 
ATOM     53  C   UNL A   1      42.230  24.843  27.627  1.00  0.00     0.148 A 
ATOM     54  C   UNL A   1      43.699  26.025  25.551  1.00  0.00     0.002 A 
ATOM     55  C   UNL A   1      42.584  24.098  26.504  1.00  0.00     0.091 A 
ATOM     56  F   UNL A   1      41.519  24.308  28.629  1.00  0.00    -0.205 F 
ATOM     57  C   UNL A   1      43.317  24.689  25.464  1.00  0.00     0.022 A 
BRANCH  55  58
ATOM     58  S   UNL A   1      42.145  22.360  26.328  1.00  0.00     0.127 S 
ATOM     59  O   UNL A   1      42.892  21.984  25.131  1.00  0.00    -0.237 OA
ATOM     60  O   UNL A   1      42.653  21.784  27.575  1.00  0.00    -0.237 OA
ATOM     61  O   UNL A   1      40.693  22.343  26.209  1.00  0.00    -0.744 OA
ENDBRANCH  55  58
ENDBRANCH  27  51
BRANCH  39  62
ATOM     62  C   UNL A   1      44.927  27.261  34.191  1.00  0.00     0.023 A 
ATOM     63  C   UNL A   1      46.152  27.957  34.209  1.00  0.00     0.012 A 
ATOM     64  C   UNL A   1      44.793  26.062  34.915  1.00  0.00     0.148 A 
ATOM     65  C   UNL A   1      47.243  27.442  34.904  1.00  0.00     0.002 A 
ATOM     66  C   UNL A   1      45.866  25.587  35.653  1.00  0.00     0.091 A 
ATOM     67  F   UNL A   1      43.623  25.408  34.861  1.00  0.00    -0.205 F 
ATOM     68  C   UNL A   1      47.096  26.266  35.636  1.00  0.00     0.022 A 
BRANCH  66  69
ATOM     69  S   UNL A   1      45.731  24.144  36.710  1.00  0.00     0.127 S 
ATOM     70  O   UNL A   1      47.097  24.017  37.216  1.00  0.00    -0.237 OA
ATOM     71  O   UNL A   1      44.748  24.579  37.704  1.00  0.00    -0.237 OA
ATOM     72  O   UNL A   1      45.278  23.059  35.850  1.00  0.00    -0.744 OA
ENDBRANCH  66  69
ENDBRANCH  39  62
ENDBRANCH  13  14
ENDBRANCH   6   8
ENDBRANCH   5   6
ENDBRANCH   4   5
ENDBRANCH   3   4
ENDBRANCH   2   3
ENDBRANCH   1   2
BRANCH   1  73
ATOM     73  C   UNL A   1      30.507  29.098  22.893  1.00  0.00     0.188 C 
BRANCH  73  74
ATOM     74  O   UNL A   1      30.435  27.845  23.561  1.00  0.00    -0.376 OA
BRANCH  74  75
ATOM     75  C   UNL A   1      30.420  26.661  22.776  1.00  0.00     0.202 C 
BRANCH  75  76
ATOM     76  C   UNL A   1      31.710  26.149  22.114  1.00  0.00     0.261 C 
BRANCH  76  77
ATOM     77  O   UNL A   1      31.981  24.748  22.225  1.00  0.00    -0.463 OA
BRANCH  77  78
ATOM     78  C   UNL A   1      33.076  24.446  22.981  1.00  0.00     0.317 C 
ATOM     79  O   UNL A   1      34.211  24.395  22.510  1.00  0.00    -0.251 OA
BRANCH  78  80
ATOM     80  C   UNL A   1      32.730  24.052  24.450  1.00  0.00     0.102 C 
ATOM     81  C   UNL A   1      31.316  23.452  24.552  1.00  0.00     0.065 C 
ATOM     82  C   UNL A   1      32.738  25.311  25.349  1.00  0.00     0.012 A 
ATOM     83  C   UNL A   1      30.769  23.494  25.971  1.00  0.00     0.231 C 
ATOM     84  C   UNL A   1      31.649  25.626  26.188  1.00  0.00     0.123 A 
ATOM     85  C   UNL A   1      33.774  26.259  25.282  1.00  0.00     0.009 A 
ATOM     86  O   UNL A   1      30.540  24.841  26.351  1.00  0.00    -0.493 OA
ATOM     87  C   UNL A   1      31.581  26.833  26.891  1.00  0.00     0.047 A 
ATOM     88  C   UNL A   1      33.692  27.481  25.963  1.00  0.00     0.001 A 
ATOM     89  C   UNL A   1      32.596  27.768  26.769  1.00  0.00     0.004 A 
BRANCH  80  90
ATOM     90  C   UNL A   1      33.846  22.984  24.757  1.00  0.00     0.011 C 
ATOM     91  C   UNL A   1      34.625  23.076  26.065  1.00  0.00     0.005 C 
ATOM     92  C   UNL A   1      33.318  21.520  24.823  1.00  0.00     0.005 C 
ATOM     93  C   UNL A   1      35.352  21.742  26.119  1.00  0.00     0.000 C 
ATOM     94  C   UNL A   1      34.344  20.721  25.617  1.00  0.00     0.000 C 
ENDBRANCH  80  90
ENDBRANCH  78  80
ENDBRANCH  77  78
ENDBRANCH  76  77
ENDBRANCH  75  76
ENDBRANCH  74  75
ENDBRANCH  73  74
ENDBRANCH   1  73
TORSDOF 21
ENDMDL
MODEL 2
REMARK VINA RESULT:     -10.8      1.468      2.706
REMARK SMILES O=C(OCCOCCOCCOC(=O)[C@]1(C2CCCC2)CCOc2ccccc21)c1ccc(-c2c3nc(c(-c4cccc(S(=O)(=O)[O-])c4F)c4ccc([nH]4)c(-c4cccc(S(=O)(=O)[O-])c4F)c4nc(c(-c5cccc(S(=O)(=O)[O-])c5F)c5ccc2[nH]5)C=C4)C=C3)cc1
REMARK SMILES IDX 7 1 6 2 5 3 4 4 3 5 2 6 1 7 30 8 31 9 92 10 32 11 91 12
REMARK SMILES IDX 33 13 34 14 35 15 85 16 36 17 90 18 84 19 86 20 37 21 89 22
REMARK SMILES IDX 83 23 82 24 38 26 70 27 50 28 69 29 51 30 54 31 68 32 87 33
REMARK SMILES IDX 52 34 53 35 67 37 88 38 55 39 39 40 40 41 48 42 41 43 43 44
REMARK SMILES IDX 49 45 42 46 44 47 45 48 46 49 47 50 71 51 72 52 80 53 73 54
REMARK SMILES IDX 75 55 81 56 74 57 76 58 77 59 78 60 79 61 56 62 57 63 65 64
REMARK SMILES IDX 58 65 60 66 66 67 59 68 61 69 62 70 63 71 64 72 8 73 9 74
REMARK SMILES IDX 10 75 11 76 12 77 13 78 14 79 15 80 21 81 29 82 22 83 24 84
REMARK SMILES IDX 28 85 23 86 25 87 27 88 26 89 16 90 17 91 20 92 18 93 19 94
REMARK H PARENT 86 25 54 36
REMARK Flexibility Score: inf
ROOT
ATOM      1  C   UNL A   1      30.345  29.295  23.378  1.00  0.00     0.188 C 
ENDROOT
BRANCH   1   2
ATOM      2  O   UNL A   1      30.884  29.257  24.703  1.00  0.00    -0.376 OA
BRANCH   2   3
ATOM      3  C   UNL A   1      32.301  29.460  24.736  1.00  0.00     0.202 C 
BRANCH   3   4
ATOM      4  C   UNL A   1      32.926  29.630  26.135  1.00  0.00     0.261 C 
BRANCH   4   5
ATOM      5  O   UNL A   1      32.757  30.938  26.709  1.00  0.00    -0.460 OA
BRANCH   5   6
ATOM      6  C   UNL A   1      33.624  31.683  27.440  1.00  0.00     0.338 C 
ATOM      7  O   UNL A   1      33.319  32.855  27.662  1.00  0.00    -0.246 OA
BRANCH   6   8
ATOM      8  C   UNL A   1      34.930  31.179  27.983  1.00  0.00     0.060 A 
ATOM      9  C   UNL A   1      35.162  29.888  28.456  1.00  0.00     0.016 A 
ATOM     10  C   UNL A   1      36.016  32.075  28.000  1.00  0.00     0.016 A 
ATOM     11  C   UNL A   1      36.377  29.516  29.012  1.00  0.00     0.010 A 
ATOM     12  C   UNL A   1      37.263  31.696  28.517  1.00  0.00     0.010 A 
ATOM     13  C   UNL A   1      37.434  30.417  29.055  1.00  0.00    -0.014 A 
BRANCH  13  14
ATOM     14  C   UNL A   1      38.655  29.999  29.772  1.00  0.00     0.031 A 
ATOM     15  C   UNL A   1      38.920  30.598  31.111  1.00  0.00     0.074 A 
ATOM     16  C   UNL A   1      39.414  28.990  29.303  1.00  0.00     0.049 A 
ATOM     17  N   UNL A   1      39.838  30.271  31.974  1.00  0.00    -0.248 NA
ATOM     18  C   UNL A   1      37.988  31.642  31.574  1.00  0.00     0.031 C 
ATOM     19  C   UNL A   1      39.108  28.229  28.101  1.00  0.00     0.029 A 
ATOM     20  N   UNL A   1      40.570  28.415  29.751  1.00  0.00    -0.354 N 
ATOM     21  C   UNL A   1      39.584  31.047  33.092  1.00  0.00     0.074 A 
ATOM     22  C   UNL A   1      38.447  31.887  32.792  1.00  0.00     0.031 C 
ATOM     23  C   UNL A   1      40.098  27.370  27.825  1.00  0.00     0.029 A 
ATOM     24  C   UNL A   1      41.090  27.481  28.879  1.00  0.00     0.049 A 
ATOM     25  H   UNL A   1      40.989  28.644  30.611  1.00  0.00     0.167 HD
ATOM     26  C   UNL A   1      40.234  31.028  34.275  1.00  0.00     0.034 A 
ATOM     27  C   UNL A   1      42.235  26.779  28.943  1.00  0.00     0.034 A 
ATOM     28  C   UNL A   1      41.387  30.209  34.526  1.00  0.00     0.049 A 
ATOM     29  C   UNL A   1      43.017  26.888  30.218  1.00  0.00     0.074 A 
ATOM     30  C   UNL A   1      42.178  30.159  35.655  1.00  0.00     0.029 A 
ATOM     31  N   UNL A   1      41.927  29.312  33.612  1.00  0.00    -0.354 N 
ATOM     32  N   UNL A   1      42.735  27.590  31.290  1.00  0.00    -0.248 NA
ATOM     33  C   UNL A   1      44.220  26.060  30.330  1.00  0.00     0.031 C 
ATOM     34  C   UNL A   1      43.220  29.258  35.411  1.00  0.00     0.029 A 
ATOM     35  C   UNL A   1      43.056  28.717  34.143  1.00  0.00     0.049 A 
ATOM     36  H   UNL A   1      41.559  29.128  32.717  1.00  0.00     0.167 HD
ATOM     37  C   UNL A   1      43.704  27.260  32.223  1.00  0.00     0.074 A 
ATOM     38  C   UNL A   1      44.565  26.275  31.593  1.00  0.00     0.031 C 
ATOM     39  C   UNL A   1      43.873  27.729  33.483  1.00  0.00     0.034 A 
BRANCH  26  40
ATOM     40  C   UNL A   1      39.714  31.940  35.346  1.00  0.00     0.023 A 
ATOM     41  C   UNL A   1      40.074  33.304  35.345  1.00  0.00     0.012 A 
ATOM     42  C   UNL A   1      38.890  31.440  36.369  1.00  0.00     0.148 A 
ATOM     43  C   UNL A   1      39.641  34.151  36.365  1.00  0.00     0.002 A 
ATOM     44  C   UNL A   1      38.432  32.296  37.360  1.00  0.00     0.091 A 
ATOM     45  F   UNL A   1      38.591  30.133  36.364  1.00  0.00    -0.205 F 
ATOM     46  C   UNL A   1      38.815  33.648  37.367  1.00  0.00     0.022 A 
BRANCH  44  47
ATOM     47  S   UNL A   1      37.331  31.761  38.672  1.00  0.00     0.127 S 
ATOM     48  O   UNL A   1      36.220  32.701  38.528  1.00  0.00    -0.237 OA
ATOM     49  O   UNL A   1      37.029  30.389  38.273  1.00  0.00    -0.237 OA
ATOM     50  O   UNL A   1      38.088  31.888  39.912  1.00  0.00    -0.744 OA
ENDBRANCH  44  47
ENDBRANCH  26  40
BRANCH  27  51
ATOM     51  C   UNL A   1      42.673  25.893  27.829  1.00  0.00     0.023 A 
ATOM     52  C   UNL A   1      43.500  26.399  26.807  1.00  0.00     0.012 A 
ATOM     53  C   UNL A   1      42.226  24.558  27.749  1.00  0.00     0.148 A 
ATOM     54  C   UNL A   1      43.837  25.607  25.707  1.00  0.00     0.002 A 
ATOM     55  C   UNL A   1      42.571  23.771  26.653  1.00  0.00     0.091 A 
ATOM     56  F   UNL A   1      41.449  24.088  28.735  1.00  0.00    -0.205 F 
ATOM     57  C   UNL A   1      43.375  24.296  25.630  1.00  0.00     0.022 A 
BRANCH  55  58
ATOM     58  S   UNL A   1      42.032  22.061  26.492  1.00  0.00     0.127 S 
ATOM     59  O   UNL A   1      42.463  21.492  27.766  1.00  0.00    -0.237 OA
ATOM     60  O   UNL A   1      40.583  22.205  26.343  1.00  0.00    -0.237 OA
ATOM     61  O   UNL A   1      42.709  21.557  25.305  1.00  0.00    -0.744 OA
ENDBRANCH  55  58
ENDBRANCH  27  51
BRANCH  39  62
ATOM     62  C   UNL A   1      45.037  27.174  34.250  1.00  0.00     0.023 A 
ATOM     63  C   UNL A   1      46.283  27.831  34.200  1.00  0.00     0.012 A 
ATOM     64  C   UNL A   1      44.881  26.032  35.056  1.00  0.00     0.148 A 
ATOM     65  C   UNL A   1      47.371  27.331  34.910  1.00  0.00     0.002 A 
ATOM     66  C   UNL A   1      45.953  25.575  35.808  1.00  0.00     0.091 A 
ATOM     67  F   UNL A   1      43.691  25.413  35.067  1.00  0.00    -0.205 F 
ATOM     68  C   UNL A   1      47.202  26.212  35.724  1.00  0.00     0.022 A 
BRANCH  66  69
ATOM     69  S   UNL A   1      45.795  24.212  36.963  1.00  0.00     0.127 S 
ATOM     70  O   UNL A   1      45.284  23.148  36.101  1.00  0.00    -0.237 OA
ATOM     71  O   UNL A   1      47.176  24.026  37.413  1.00  0.00    -0.237 OA
ATOM     72  O   UNL A   1      44.881  24.671  38.001  1.00  0.00    -0.744 OA
ENDBRANCH  66  69
ENDBRANCH  39  62
ENDBRANCH  13  14
ENDBRANCH   6   8
ENDBRANCH   5   6
ENDBRANCH   4   5
ENDBRANCH   3   4
ENDBRANCH   2   3
ENDBRANCH   1   2
BRANCH   1  73
ATOM     73  C   UNL A   1      29.752  27.980  22.877  1.00  0.00     0.188 C 
BRANCH  73  74
ATOM     74  O   UNL A   1      30.602  26.845  22.776  1.00  0.00    -0.376 OA
BRANCH  74  75
ATOM     75  C   UNL A   1      31.705  26.905  21.882  1.00  0.00     0.202 C 
BRANCH  75  76
ATOM     76  C   UNL A   1      32.975  26.083  22.156  1.00  0.00     0.261 C 
BRANCH  76  77
ATOM     77  O   UNL A   1      32.790  24.717  22.541  1.00  0.00    -0.463 OA
BRANCH  77  78
ATOM     78  C   UNL A   1      33.835  24.182  23.235  1.00  0.00     0.317 C 
ATOM     79  O   UNL A   1      34.959  24.062  22.751  1.00  0.00    -0.251 OA
BRANCH  78  80
ATOM     80  C   UNL A   1      33.433  23.629  24.638  1.00  0.00     0.102 C 
ATOM     81  C   UNL A   1      34.549  23.858  25.672  1.00  0.00     0.065 C 
ATOM     82  C   UNL A   1      33.215  22.100  24.558  1.00  0.00     0.012 A 
ATOM     83  C   UNL A   1      34.412  22.949  26.885  1.00  0.00     0.231 C 
ATOM     84  C   UNL A   1      33.854  21.216  25.453  1.00  0.00     0.123 A 
ATOM     85  C   UNL A   1      32.469  21.513  23.522  1.00  0.00     0.009 A 
ATOM     86  O   UNL A   1      34.646  21.605  26.498  1.00  0.00    -0.493 OA
ATOM     87  C   UNL A   1      33.782  19.828  25.299  1.00  0.00     0.047 A 
ATOM     88  C   UNL A   1      32.421  20.123  23.350  1.00  0.00     0.001 A 
ATOM     89  C   UNL A   1      33.076  19.279  24.240  1.00  0.00     0.004 A 
BRANCH  80  90
ATOM     90  C   UNL A   1      32.152  24.489  24.956  1.00  0.00     0.011 C 
ATOM     91  C   UNL A   1      31.036  23.878  25.797  1.00  0.00     0.005 C 
ATOM     92  C   UNL A   1      32.449  25.795  25.750  1.00  0.00     0.005 C 
ATOM     93  C   UNL A   1      30.165  25.081  26.126  1.00  0.00     0.000 C 
ATOM     94  C   UNL A   1      31.141  26.210  26.413  1.00  0.00     0.000 C 
ENDBRANCH  80  90
ENDBRANCH  78  80
ENDBRANCH  77  78
ENDBRANCH  76  77
ENDBRANCH  75  76
ENDBRANCH  74  75
ENDBRANCH  73  74
ENDBRANCH   1  73
TORSDOF 21
ENDMDL
MODEL 3
REMARK VINA RESULT:     -10.7      1.690      2.487
REMARK SMILES O=C(OCCOCCOCCOC(=O)[C@]1(C2CCCC2)CCOc2ccccc21)c1ccc(-c2c3nc(c(-c4cccc(S(=O)(=O)[O-])c4F)c4ccc([nH]4)c(-c4cccc(S(=O)(=O)[O-])c4F)c4nc(c(-c5cccc(S(=O)(=O)[O-])c5F)c5ccc2[nH]5)C=C4)C=C3)cc1
REMARK SMILES IDX 7 1 6 2 5 3 4 4 3 5 2 6 1 7 30 8 31 9 92 10 32 11 91 12
REMARK SMILES IDX 33 13 34 14 35 15 85 16 36 17 90 18 84 19 86 20 37 21 89 22
REMARK SMILES IDX 83 23 82 24 38 26 70 27 50 28 69 29 51 30 54 31 68 32 87 33
REMARK SMILES IDX 52 34 53 35 67 37 88 38 55 39 39 40 40 41 48 42 41 43 43 44
REMARK SMILES IDX 49 45 42 46 44 47 45 48 46 49 47 50 71 51 72 52 80 53 73 54
REMARK SMILES IDX 75 55 81 56 74 57 76 58 77 59 78 60 79 61 56 62 57 63 65 64
REMARK SMILES IDX 58 65 60 66 66 67 59 68 61 69 62 70 63 71 64 72 8 73 9 74
REMARK SMILES IDX 10 75 11 76 12 77 13 78 14 79 15 80 21 81 29 82 22 83 24 84
REMARK SMILES IDX 28 85 23 86 25 87 27 88 26 89 16 90 17 91 20 92 18 93 19 94
REMARK H PARENT 86 25 54 36
REMARK Flexibility Score: inf
ROOT
ATOM      1  C   UNL A   1      33.372  28.184  24.400  1.00  0.00     0.188 C 
ENDROOT
BRANCH   1   2
ATOM      2  O   UNL A   1      32.850  27.681  25.633  1.00  0.00    -0.376 OA
BRANCH   2   3
ATOM      3  C   UNL A   1      32.808  28.671  26.667  1.00  0.00     0.202 C 
BRANCH   3   4
ATOM      4  C   UNL A   1      32.417  30.094  26.223  1.00  0.00     0.261 C 
BRANCH   4   5
ATOM      5  O   UNL A   1      32.492  31.085  27.263  1.00  0.00    -0.460 OA
BRANCH   5   6
ATOM      6  C   UNL A   1      33.530  31.879  27.631  1.00  0.00     0.338 C 
ATOM      7  O   UNL A   1      33.374  33.096  27.538  1.00  0.00    -0.246 OA
BRANCH   6   8
ATOM      8  C   UNL A   1      34.852  31.372  28.130  1.00  0.00     0.060 A 
ATOM      9  C   UNL A   1      35.096  30.083  28.603  1.00  0.00     0.016 A 
ATOM     10  C   UNL A   1      35.941  32.264  28.103  1.00  0.00     0.016 A 
ATOM     11  C   UNL A   1      36.329  29.710  29.117  1.00  0.00     0.010 A 
ATOM     12  C   UNL A   1      37.205  31.884  28.577  1.00  0.00     0.010 A 
ATOM     13  C   UNL A   1      37.390  30.607  29.117  1.00  0.00    -0.014 A 
BRANCH  13  14
ATOM     14  C   UNL A   1      38.634  30.189  29.792  1.00  0.00     0.031 A 
ATOM     15  C   UNL A   1      38.928  30.763  31.136  1.00  0.00     0.074 A 
ATOM     16  C   UNL A   1      39.392  29.198  29.282  1.00  0.00     0.049 A 
ATOM     17  N   UNL A   1      39.873  30.429  31.968  1.00  0.00    -0.248 NA
ATOM     18  C   UNL A   1      37.998  31.786  31.645  1.00  0.00     0.031 C 
ATOM     19  C   UNL A   1      39.062  28.459  28.074  1.00  0.00     0.029 A 
ATOM     20  N   UNL A   1      40.565  28.627  29.687  1.00  0.00    -0.354 N 
ATOM     21  C   UNL A   1      39.640  31.179  33.108  1.00  0.00     0.074 A 
ATOM     22  C   UNL A   1      38.486  32.012  32.855  1.00  0.00     0.031 C 
ATOM     23  C   UNL A   1      40.054  27.617  27.754  1.00  0.00     0.029 A 
ATOM     24  C   UNL A   1      41.072  27.717  28.783  1.00  0.00     0.049 A 
ATOM     25  H   UNL A   1      41.005  28.844  30.541  1.00  0.00     0.167 HD
ATOM     26  C   UNL A   1      40.322  31.143  34.272  1.00  0.00     0.034 A 
ATOM     27  C   UNL A   1      42.226  27.028  28.802  1.00  0.00     0.034 A 
ATOM     28  C   UNL A   1      41.489  30.333  34.476  1.00  0.00     0.049 A 
ATOM     29  C   UNL A   1      43.041  27.120  30.058  1.00  0.00     0.074 A 
ATOM     30  C   UNL A   1      42.311  30.268  35.582  1.00  0.00     0.029 A 
ATOM     31  N   UNL A   1      42.015  29.461  33.529  1.00  0.00    -0.354 N 
ATOM     32  N   UNL A   1      42.780  27.796  31.152  1.00  0.00    -0.248 NA
ATOM     33  C   UNL A   1      44.256  26.303  30.121  1.00  0.00     0.031 C 
ATOM     34  C   UNL A   1      43.356  29.385  35.292  1.00  0.00     0.029 A 
ATOM     35  C   UNL A   1      43.164  28.868  34.018  1.00  0.00     0.049 A 
ATOM     36  H   UNL A   1      41.626  29.291  32.641  1.00  0.00     0.167 HD
ATOM     37  C   UNL A   1      43.776  27.459  32.052  1.00  0.00     0.074 A 
ATOM     38  C   UNL A   1      44.631  26.497  31.378  1.00  0.00     0.031 C 
ATOM     39  C   UNL A   1      43.975  27.903  33.316  1.00  0.00     0.034 A 
BRANCH  26  40
ATOM     40  C   UNL A   1      39.820  32.027  35.376  1.00  0.00     0.023 A 
ATOM     41  C   UNL A   1      40.252  33.367  35.455  1.00  0.00     0.012 A 
ATOM     42  C   UNL A   1      38.942  31.521  36.350  1.00  0.00     0.148 A 
ATOM     43  C   UNL A   1      39.836  34.184  36.506  1.00  0.00     0.002 A 
ATOM     44  C   UNL A   1      38.502  32.350  37.372  1.00  0.00     0.091 A 
ATOM     45  F   UNL A   1      38.574  30.235  36.269  1.00  0.00    -0.205 F 
ATOM     46  C   UNL A   1      38.956  33.677  37.459  1.00  0.00     0.022 A 
BRANCH  44  47
ATOM     47  S   UNL A   1      37.337  31.810  38.625  1.00  0.00     0.127 S 
ATOM     48  O   UNL A   1      38.110  32.003  39.851  1.00  0.00    -0.237 OA
ATOM     49  O   UNL A   1      36.236  32.752  38.440  1.00  0.00    -0.237 OA
ATOM     50  O   UNL A   1      37.019  30.422  38.311  1.00  0.00    -0.744 OA
ENDBRANCH  44  47
ENDBRANCH  26  40
BRANCH  27  51
ATOM     51  C   UNL A   1      42.644  26.170  27.659  1.00  0.00     0.023 A 
ATOM     52  C   UNL A   1      43.398  26.718  26.603  1.00  0.00     0.012 A 
ATOM     53  C   UNL A   1      42.248  24.819  27.587  1.00  0.00     0.148 A 
ATOM     54  C   UNL A   1      43.712  25.950  25.480  1.00  0.00     0.002 A 
ATOM     55  C   UNL A   1      42.570  24.056  26.467  1.00  0.00     0.091 A 
ATOM     56  F   UNL A   1      41.539  24.309  28.604  1.00  0.00    -0.205 F 
ATOM     57  C   UNL A   1      43.301  24.622  25.411  1.00  0.00     0.022 A 
BRANCH  55  58
ATOM     58  S   UNL A   1      42.093  22.326  26.314  1.00  0.00     0.127 S 
ATOM     59  O   UNL A   1      42.766  21.939  25.078  1.00  0.00    -0.237 OA
ATOM     60  O   UNL A   1      42.658  21.740  27.531  1.00  0.00    -0.237 OA
ATOM     61  O   UNL A   1      40.636  22.334  26.275  1.00  0.00    -0.744 OA
ENDBRANCH  55  58
ENDBRANCH  27  51
BRANCH  39  62
ATOM     62  C   UNL A   1      45.165  27.346  34.040  1.00  0.00     0.023 A 
ATOM     63  C   UNL A   1      46.398  28.026  33.982  1.00  0.00     0.012 A 
ATOM     64  C   UNL A   1      45.045  26.179  34.815  1.00  0.00     0.148 A 
ATOM     65  C   UNL A   1      47.509  27.524  34.653  1.00  0.00     0.002 A 
ATOM     66  C   UNL A   1      46.142  25.718  35.529  1.00  0.00     0.091 A 
ATOM     67  F   UNL A   1      43.867  25.539  34.834  1.00  0.00    -0.205 F 
ATOM     68  C   UNL A   1      47.378  26.379  35.437  1.00  0.00     0.022 A 
BRANCH  66  69
ATOM     69  S   UNL A   1      46.032  24.320  36.647  1.00  0.00     0.127 S 
ATOM     70  O   UNL A   1      44.757  24.570  37.314  1.00  0.00    -0.237 OA
ATOM     71  O   UNL A   1      46.027  23.185  35.722  1.00  0.00    -0.237 OA
ATOM     72  O   UNL A   1      47.211  24.395  37.499  1.00  0.00    -0.744 OA
ENDBRANCH  66  69
ENDBRANCH  39  62
ENDBRANCH  13  14
ENDBRANCH   6   8
ENDBRANCH   5   6
ENDBRANCH   4   5
ENDBRANCH   3   4
ENDBRANCH   2   3
ENDBRANCH   1   2
BRANCH   1  73
ATOM     73  C   UNL A   1      33.100  27.316  23.173  1.00  0.00     0.188 C 
BRANCH  73  74
ATOM     74  O   UNL A   1      31.749  27.037  22.824  1.00  0.00    -0.376 OA
BRANCH  74  75
ATOM     75  C   UNL A   1      31.352  25.679  22.699  1.00  0.00     0.202 C 
BRANCH  75  76
ATOM     76  C   UNL A   1      32.392  24.551  22.800  1.00  0.00     0.261 C 
BRANCH  76  77
ATOM     77  O   UNL A   1      32.179  23.564  23.814  1.00  0.00    -0.463 OA
BRANCH  77  78
ATOM     78  C   UNL A   1      32.681  22.332  23.513  1.00  0.00     0.317 C 
ATOM     79  O   UNL A   1      32.463  21.773  22.439  1.00  0.00    -0.251 OA
BRANCH  78  80
ATOM     80  C   UNL A   1      33.438  21.660  24.700  1.00  0.00     0.102 C 
ATOM     81  C   UNL A   1      32.704  21.888  26.034  1.00  0.00     0.065 C 
ATOM     82  C   UNL A   1      34.840  22.293  24.856  1.00  0.00     0.012 A 
ATOM     83  C   UNL A   1      33.611  21.674  27.238  1.00  0.00     0.231 C 
ATOM     84  C   UNL A   1      35.294  22.786  26.098  1.00  0.00     0.123 A 
ATOM     85  C   UNL A   1      35.677  22.516  23.749  1.00  0.00     0.009 A 
ATOM     86  O   UNL A   1      34.599  22.691  27.273  1.00  0.00    -0.493 OA
ATOM     87  C   UNL A   1      36.495  23.491  26.220  1.00  0.00     0.047 A 
ATOM     88  C   UNL A   1      36.866  23.248  23.866  1.00  0.00     0.001 A 
ATOM     89  C   UNL A   1      37.277  23.735  25.102  1.00  0.00     0.004 A 
BRANCH  80  90
ATOM     90  C   UNL A   1      33.414  20.146  24.267  1.00  0.00     0.011 C 
ATOM     91  C   UNL A   1      34.581  19.243  24.654  1.00  0.00     0.005 C 
ATOM     92  C   UNL A   1      32.208  19.344  24.842  1.00  0.00     0.005 C 
ATOM     93  C   UNL A   1      34.050  17.853  24.338  1.00  0.00     0.000 C 
ATOM     94  C   UNL A   1      32.599  17.872  24.788  1.00  0.00     0.000 C 
ENDBRANCH  80  90
ENDBRANCH  78  80
ENDBRANCH  77  78
ENDBRANCH  76  77
ENDBRANCH  75  76
ENDBRANCH  74  75
ENDBRANCH  73  74
ENDBRANCH   1  73
TORSDOF 21
ENDMDL
