MODEL 1
REMARK VINA RESULT:      -8.3      0.000      0.000
REMARK SMILES CC(C)(C)N(CC(=O)OCCOCCOCCOC(=O)c1ccc(-c2c3nc(c(-c4cccc(S(=O)(=O)[O-])c4F)c4ccc([nH]4)c(-c4cccc(S(=O)(=O)[O-])c4F)c4nc(c(-c5cccc(S(=O)(=O)[O-])c5F)c5ccc2[nH]5)C=C4)C=C3)cc1)C(=O)C1C[NH2+]C1
REMARK SMILES IDX 13 1 12 2 11 3 10 4 9 5 7 6 8 7 6 8 5 9 2 10 1 11 3 12 4 13
REMARK SMILES IDX 84 14 85 15 86 16 87 17 89 18 88 19 14 22 15 23 16 24 17 25
REMARK SMILES IDX 18 26 19 27 20 28 21 29 22 30 83 31 23 32 82 33 24 34 25 35
REMARK SMILES IDX 26 36 76 37 27 38 81 39 75 40 77 41 28 42 80 43 74 44 73 45
REMARK SMILES IDX 29 47 61 48 41 49 60 50 42 51 45 52 59 53 78 54 43 55 44 56
REMARK SMILES IDX 58 58 79 59 46 60 30 61 31 62 39 63 32 64 34 65 40 66 33 67
REMARK SMILES IDX 35 68 36 69 37 70 38 71 62 72 63 73 71 74 64 75 66 76 72 77
REMARK SMILES IDX 65 78 67 79 68 80 69 81 70 82 47 83 48 84 56 85 49 86 51 87
REMARK SMILES IDX 57 88 50 89 52 90 53 91 54 92 55 93
REMARK H PARENT 88 20 88 21 77 46 45 57
REMARK Flexibility Score: inf
ROOT
ATOM      1  C   UNL A   1      36.439  31.747  27.943  1.00  0.00     0.188 C 
ENDROOT
BRANCH   1   2
ATOM      2  O   UNL A   1      36.082  30.448  27.502  1.00  0.00    -0.376 OA
BRANCH   2   3
ATOM      3  C   UNL A   1      34.740  30.019  27.697  1.00  0.00     0.202 C 
BRANCH   3   4
ATOM      4  C   UNL A   1      34.132  29.095  26.633  1.00  0.00     0.261 C 
BRANCH   4   5
ATOM      5  O   UNL A   1      33.138  29.750  25.801  1.00  0.00    -0.462 OA
BRANCH   5   6
ATOM      6  C   UNL A   1      32.770  29.053  24.694  1.00  0.00     0.325 C 
ATOM      7  O   UNL A   1      33.205  29.304  23.571  1.00  0.00    -0.250 OA
BRANCH   6   8
ATOM      8  C   UNL A   1      31.806  27.863  24.920  1.00  0.00     0.242 C 
BRANCH   8   9
ATOM      9  N   UNL A   1      30.985  27.232  23.860  1.00  0.00    -0.326 N 
BRANCH   9  10
ATOM     10  C   UNL A   1      31.511  26.010  23.132  1.00  0.00     0.035 C 
ATOM     11  C   UNL A   1      31.557  26.181  21.595  1.00  0.00     0.034 C 
ATOM     12  C   UNL A   1      30.649  24.763  23.415  1.00  0.00     0.034 C 
ATOM     13  C   UNL A   1      32.984  25.729  23.551  1.00  0.00     0.034 C 
ENDBRANCH   9  10
BRANCH   9  14
ATOM     14  C   UNL A   1      29.677  27.669  23.534  1.00  0.00     0.238 C 
ATOM     15  O   UNL A   1      28.718  26.887  23.680  1.00  0.00    -0.274 OA
BRANCH  14  16
ATOM     16  C   UNL A   1      29.325  29.077  23.077  1.00  0.00     0.188 C 
ATOM     17  C   UNL A   1      30.054  29.723  21.902  1.00  0.00     0.280 C 
ATOM     18  C   UNL A   1      28.027  29.547  22.430  1.00  0.00     0.280 C 
ATOM     19  N   UNL A   1      28.795  30.335  21.460  1.00  0.00    -0.345 N 
ATOM     20  H   UNL A   1      28.558  30.133  20.488  1.00  0.00     0.346 HD
ATOM     21  H   UNL A   1      28.705  31.351  21.450  1.00  0.00     0.346 HD
ENDBRANCH  14  16
ENDBRANCH   9  14
ENDBRANCH   8   9
ENDBRANCH   6   8
ENDBRANCH   5   6
ENDBRANCH   4   5
ENDBRANCH   3   4
ENDBRANCH   2   3
ENDBRANCH   1   2
BRANCH   1  22
ATOM     22  C   UNL A   1      35.340  32.682  28.476  1.00  0.00     0.188 C 
BRANCH  22  23
ATOM     23  O   UNL A   1      34.786  33.697  27.662  1.00  0.00    -0.376 OA
BRANCH  23  24
ATOM     24  C   UNL A   1      34.330  34.882  28.281  1.00  0.00     0.202 C 
BRANCH  24  25
ATOM     25  C   UNL A   1      33.253  34.785  29.367  1.00  0.00     0.261 C 
BRANCH  25  26
ATOM     26  O   UNL A   1      33.448  35.621  30.518  1.00  0.00    -0.460 OA
BRANCH  26  27
ATOM     27  C   UNL A   1      33.466  34.955  31.706  1.00  0.00     0.338 C 
ATOM     28  O   UNL A   1      32.537  34.816  32.476  1.00  0.00    -0.246 OA
BRANCH  27  29
ATOM     29  C   UNL A   1      34.770  34.277  31.901  1.00  0.00     0.060 A 
ATOM     30  C   UNL A   1      34.755  33.026  32.522  1.00  0.00     0.016 A 
ATOM     31  C   UNL A   1      35.987  34.860  31.542  1.00  0.00     0.016 A 
ATOM     32  C   UNL A   1      35.946  32.327  32.738  1.00  0.00     0.010 A 
ATOM     33  C   UNL A   1      37.189  34.183  31.812  1.00  0.00     0.010 A 
ATOM     34  C   UNL A   1      37.176  32.910  32.409  1.00  0.00    -0.014 A 
BRANCH  34  35
ATOM     35  C   UNL A   1      38.430  32.244  32.853  1.00  0.00     0.031 A 
ATOM     36  C   UNL A   1      39.017  31.161  31.987  1.00  0.00     0.074 A 
ATOM     37  C   UNL A   1      39.075  32.618  33.974  1.00  0.00     0.049 A 
ATOM     38  N   UNL A   1      40.096  30.445  32.173  1.00  0.00    -0.248 NA
ATOM     39  C   UNL A   1      38.303  30.863  30.735  1.00  0.00     0.031 C 
ATOM     40  C   UNL A   1      38.661  33.694  34.871  1.00  0.00     0.029 A 
ATOM     41  N   UNL A   1      40.222  32.123  34.552  1.00  0.00    -0.354 N 
ATOM     42  C   UNL A   1      40.177  29.596  31.077  1.00  0.00     0.074 A 
ATOM     43  C   UNL A   1      39.057  29.905  30.216  1.00  0.00     0.031 C 
ATOM     44  C   UNL A   1      39.530  33.767  35.896  1.00  0.00     0.029 A 
ATOM     45  C   UNL A   1      40.534  32.711  35.757  1.00  0.00     0.049 A 
ATOM     46  H   UNL A   1      40.769  31.415  34.141  1.00  0.00     0.167 HD
ATOM     47  C   UNL A   1      41.091  28.633  30.813  1.00  0.00     0.034 A 
ATOM     48  C   UNL A   1      41.489  32.405  36.662  1.00  0.00     0.034 A 
ATOM     49  C   UNL A   1      42.189  28.293  31.675  1.00  0.00     0.049 A 
ATOM     50  C   UNL A   1      42.441  31.264  36.382  1.00  0.00     0.074 A 
ATOM     51  C   UNL A   1      43.150  27.313  31.493  1.00  0.00     0.029 A 
ATOM     52  N   UNL A   1      42.457  28.895  32.892  1.00  0.00    -0.354 N 
ATOM     53  N   UNL A   1      42.546  30.516  35.311  1.00  0.00    -0.248 NA
ATOM     54  C   UNL A   1      43.417  30.934  37.435  1.00  0.00     0.031 C 
ATOM     55  C   UNL A   1      43.973  27.293  32.623  1.00  0.00     0.029 A 
ATOM     56  C   UNL A   1      43.556  28.296  33.483  1.00  0.00     0.049 A 
ATOM     57  H   UNL A   1      41.943  29.639  33.281  1.00  0.00     0.167 HD
ATOM     58  C   UNL A   1      43.617  29.658  35.546  1.00  0.00     0.074 A 
ATOM     59  C   UNL A   1      44.143  29.991  36.852  1.00  0.00     0.031 C 
ATOM     60  C   UNL A   1      44.112  28.671  34.758  1.00  0.00     0.034 A 
BRANCH  47  61
ATOM     61  C   UNL A   1      40.913  27.839  29.549  1.00  0.00     0.023 A 
ATOM     62  C   UNL A   1      39.900  26.864  29.461  1.00  0.00     0.012 A 
ATOM     63  C   UNL A   1      41.728  28.097  28.430  1.00  0.00     0.148 A 
ATOM     64  C   UNL A   1      39.720  26.137  28.285  1.00  0.00     0.002 A 
ATOM     65  C   UNL A   1      41.514  27.402  27.248  1.00  0.00     0.091 A 
ATOM     66  F   UNL A   1      42.700  29.014  28.548  1.00  0.00    -0.205 F 
ATOM     67  C   UNL A   1      40.519  26.413  27.177  1.00  0.00     0.022 A 
BRANCH  65  68
ATOM     68  S   UNL A   1      42.441  27.736  25.748  1.00  0.00     0.127 S 
ATOM     69  O   UNL A   1      41.986  29.085  25.414  1.00  0.00    -0.237 OA
ATOM     70  O   UNL A   1      43.823  27.656  26.221  1.00  0.00    -0.237 OA
ATOM     71  O   UNL A   1      42.061  26.700  24.798  1.00  0.00    -0.744 OA
ENDBRANCH  65  68
ENDBRANCH  47  61
BRANCH  48  72
ATOM     72  C   UNL A   1      41.587  33.155  37.950  1.00  0.00     0.023 A 
ATOM     73  C   UNL A   1      40.852  32.730  39.076  1.00  0.00     0.012 A 
ATOM     74  C   UNL A   1      42.365  34.326  38.048  1.00  0.00     0.148 A 
ATOM     75  C   UNL A   1      40.858  33.478  40.256  1.00  0.00     0.002 A 
ATOM     76  C   UNL A   1      42.417  35.031  39.244  1.00  0.00     0.091 A 
ATOM     77  F   UNL A   1      43.033  34.736  36.961  1.00  0.00    -0.205 F 
ATOM     78  C   UNL A   1      41.646  34.622  40.343  1.00  0.00     0.022 A 
BRANCH  76  79
ATOM     79  S   UNL A   1      43.497  36.446  39.479  1.00  0.00     0.127 S 
ATOM     80  O   UNL A   1      42.937  37.410  38.535  1.00  0.00    -0.237 OA
ATOM     81  O   UNL A   1      43.274  36.763  40.889  1.00  0.00    -0.237 OA
ATOM     82  O   UNL A   1      44.839  35.970  39.175  1.00  0.00    -0.744 OA
ENDBRANCH  76  79
ENDBRANCH  48  72
BRANCH  60  83
ATOM     83  C   UNL A   1      45.319  27.906  35.241  1.00  0.00     0.023 A 
ATOM     84  C   UNL A   1      46.617  28.387  34.978  1.00  0.00     0.012 A 
ATOM     85  C   UNL A   1      45.160  26.755  36.039  1.00  0.00     0.148 A 
ATOM     86  C   UNL A   1      47.736  27.718  35.475  1.00  0.00     0.002 A 
ATOM     87  C   UNL A   1      46.276  26.124  36.575  1.00  0.00     0.091 A 
ATOM     88  F   UNL A   1      43.918  26.303  36.266  1.00  0.00    -0.205 F 
ATOM     89  C   UNL A   1      47.566  26.596  36.283  1.00  0.00     0.022 A 
BRANCH  87  90
ATOM     90  S   UNL A   1      46.149  24.736  37.710  1.00  0.00     0.127 S 
ATOM     91  O   UNL A   1      45.536  23.715  36.862  1.00  0.00    -0.237 OA
ATOM     92  O   UNL A   1      47.549  24.487  38.052  1.00  0.00    -0.237 OA
ATOM     93  O   UNL A   1      45.328  25.198  38.821  1.00  0.00    -0.744 OA
ENDBRANCH  87  90
ENDBRANCH  60  83
ENDBRANCH  34  35
ENDBRANCH  27  29
ENDBRANCH  26  27
ENDBRANCH  25  26
ENDBRANCH  24  25
ENDBRANCH  23  24
ENDBRANCH  22  23
ENDBRANCH   1  22
TORSDOF 24
ENDMDL
MODEL 2
REMARK VINA RESULT:      -8.0      1.776      2.435
REMARK SMILES CC(C)(C)N(CC(=O)OCCOCCOCCOC(=O)c1ccc(-c2c3nc(c(-c4cccc(S(=O)(=O)[O-])c4F)c4ccc([nH]4)c(-c4cccc(S(=O)(=O)[O-])c4F)c4nc(c(-c5cccc(S(=O)(=O)[O-])c5F)c5ccc2[nH]5)C=C4)C=C3)cc1)C(=O)C1C[NH2+]C1
REMARK SMILES IDX 13 1 12 2 11 3 10 4 9 5 7 6 8 7 6 8 5 9 2 10 1 11 3 12 4 13
REMARK SMILES IDX 84 14 85 15 86 16 87 17 89 18 88 19 14 22 15 23 16 24 17 25
REMARK SMILES IDX 18 26 19 27 20 28 21 29 22 30 83 31 23 32 82 33 24 34 25 35
REMARK SMILES IDX 26 36 76 37 27 38 81 39 75 40 77 41 28 42 80 43 74 44 73 45
REMARK SMILES IDX 29 47 61 48 41 49 60 50 42 51 45 52 59 53 78 54 43 55 44 56
REMARK SMILES IDX 58 58 79 59 46 60 30 61 31 62 39 63 32 64 34 65 40 66 33 67
REMARK SMILES IDX 35 68 36 69 37 70 38 71 62 72 63 73 71 74 64 75 66 76 72 77
REMARK SMILES IDX 65 78 67 79 68 80 69 81 70 82 47 83 48 84 56 85 49 86 51 87
REMARK SMILES IDX 57 88 50 89 52 90 53 91 54 92 55 93
REMARK H PARENT 88 20 88 21 77 46 45 57
REMARK Flexibility Score: inf
ROOT
ATOM      1  C   UNL A   1      36.659  31.541  27.813  1.00  0.00     0.188 C 
ENDROOT
BRANCH   1   2
ATOM      2  O   UNL A   1      36.183  30.217  27.646  1.00  0.00    -0.376 OA
BRANCH   2   3
ATOM      3  C   UNL A   1      34.838  29.935  28.016  1.00  0.00     0.202 C 
BRANCH   3   4
ATOM      4  C   UNL A   1      34.059  28.942  27.144  1.00  0.00     0.261 C 
BRANCH   4   5
ATOM      5  O   UNL A   1      33.430  29.558  25.989  1.00  0.00    -0.462 OA
BRANCH   5   6
ATOM      6  C   UNL A   1      32.679  28.717  25.230  1.00  0.00     0.325 C 
ATOM      7  O   UNL A   1      31.641  29.068  24.672  1.00  0.00    -0.250 OA
BRANCH   6   8
ATOM      8  C   UNL A   1      33.232  27.283  25.042  1.00  0.00     0.242 C 
BRANCH   8   9
ATOM      9  N   UNL A   1      32.469  26.158  24.449  1.00  0.00    -0.326 N 
BRANCH   9  10
ATOM     10  C   UNL A   1      32.759  25.725  23.026  1.00  0.00     0.035 C 
ATOM     11  C   UNL A   1      33.668  24.475  22.935  1.00  0.00     0.034 C 
ATOM     12  C   UNL A   1      33.455  26.840  22.220  1.00  0.00     0.034 C 
ATOM     13  C   UNL A   1      31.438  25.315  22.310  1.00  0.00     0.034 C 
ENDBRANCH   9  10
BRANCH   9  14
ATOM     14  C   UNL A   1      31.519  25.402  25.178  1.00  0.00     0.238 C 
ATOM     15  O   UNL A   1      30.427  25.922  25.480  1.00  0.00    -0.274 OA
BRANCH  14  16
ATOM     16  C   UNL A   1      31.693  23.944  25.573  1.00  0.00     0.188 C 
ATOM     17  C   UNL A   1      32.646  23.547  26.699  1.00  0.00     0.280 C 
ATOM     18  C   UNL A   1      30.665  23.028  26.227  1.00  0.00     0.280 C 
ATOM     19  N   UNL A   1      31.694  22.519  27.139  1.00  0.00    -0.345 N 
ATOM     20  H   UNL A   1      31.441  22.589  28.125  1.00  0.00     0.346 HD
ATOM     21  H   UNL A   1      31.961  21.536  27.101  1.00  0.00     0.346 HD
ENDBRANCH  14  16
ENDBRANCH   9  14
ENDBRANCH   8   9
ENDBRANCH   6   8
ENDBRANCH   5   6
ENDBRANCH   4   5
ENDBRANCH   3   4
ENDBRANCH   2   3
ENDBRANCH   1   2
BRANCH   1  22
ATOM     22  C   UNL A   1      35.697  32.619  28.341  1.00  0.00     0.188 C 
BRANCH  22  23
ATOM     23  O   UNL A   1      34.964  33.442  27.454  1.00  0.00    -0.376 OA
BRANCH  23  24
ATOM     24  C   UNL A   1      34.396  34.633  27.958  1.00  0.00     0.202 C 
BRANCH  24  25
ATOM     25  C   UNL A   1      33.306  34.540  29.032  1.00  0.00     0.261 C 
BRANCH  25  26
ATOM     26  O   UNL A   1      33.391  35.502  30.094  1.00  0.00    -0.460 OA
BRANCH  26  27
ATOM     27  C   UNL A   1      33.417  34.963  31.346  1.00  0.00     0.338 C 
ATOM     28  O   UNL A   1      32.496  34.916  32.137  1.00  0.00    -0.246 OA
BRANCH  27  29
ATOM     29  C   UNL A   1      34.717  34.295  31.595  1.00  0.00     0.060 A 
ATOM     30  C   UNL A   1      34.686  33.048  32.225  1.00  0.00     0.016 A 
ATOM     31  C   UNL A   1      35.943  34.882  31.278  1.00  0.00     0.016 A 
ATOM     32  C   UNL A   1      35.872  32.358  32.491  1.00  0.00     0.010 A 
ATOM     33  C   UNL A   1      37.138  34.215  31.599  1.00  0.00     0.010 A 
ATOM     34  C   UNL A   1      37.110  32.946  32.204  1.00  0.00    -0.014 A 
BRANCH  34  35
ATOM     35  C   UNL A   1      38.351  32.291  32.701  1.00  0.00     0.031 A 
ATOM     36  C   UNL A   1      38.962  31.188  31.879  1.00  0.00     0.074 A 
ATOM     37  C   UNL A   1      38.963  32.693  33.831  1.00  0.00     0.049 A 
ATOM     38  N   UNL A   1      40.034  30.477  32.113  1.00  0.00    -0.248 NA
ATOM     39  C   UNL A   1      38.283  30.859  30.615  1.00  0.00     0.031 C 
ATOM     40  C   UNL A   1      38.524  33.791  34.689  1.00  0.00     0.029 A 
ATOM     41  N   UNL A   1      40.092  32.213  34.454  1.00  0.00    -0.354 N 
ATOM     42  C   UNL A   1      40.146  29.601  31.041  1.00  0.00     0.074 A 
ATOM     43  C   UNL A   1      39.051  29.889  30.141  1.00  0.00     0.031 C 
ATOM     44  C   UNL A   1      39.363  33.889  35.736  1.00  0.00     0.029 A 
ATOM     45  C   UNL A   1      40.370  32.831  35.652  1.00  0.00     0.049 A 
ATOM     46  H   UNL A   1      40.650  31.495  34.076  1.00  0.00     0.167 HD
ATOM     47  C   UNL A   1      41.067  28.632  30.828  1.00  0.00     0.034 A 
ATOM     48  C   UNL A   1      41.297  32.546  36.592  1.00  0.00     0.034 A 
ATOM     49  C   UNL A   1      42.140  28.313  31.729  1.00  0.00     0.049 A 
ATOM     50  C   UNL A   1      42.256  31.399  36.367  1.00  0.00     0.074 A 
ATOM     51  C   UNL A   1      43.104  27.329  31.599  1.00  0.00     0.029 A 
ATOM     52  N   UNL A   1      42.372  28.945  32.938  1.00  0.00    -0.354 N 
ATOM     53  N   UNL A   1      42.392  30.625  35.318  1.00  0.00    -0.248 NA
ATOM     54  C   UNL A   1      43.202  31.095  37.456  1.00  0.00     0.031 C 
ATOM     55  C   UNL A   1      43.894  27.338  32.753  1.00  0.00     0.029 A 
ATOM     56  C   UNL A   1      43.454  28.361  33.575  1.00  0.00     0.049 A 
ATOM     57  H   UNL A   1      41.848  29.699  33.293  1.00  0.00     0.167 HD
ATOM     58  C   UNL A   1      43.456  29.773  35.606  1.00  0.00     0.074 A 
ATOM     59  C   UNL A   1      43.944  30.138  36.917  1.00  0.00     0.031 C 
ATOM     60  C   UNL A   1      43.972  28.767  34.856  1.00  0.00     0.034 A 
BRANCH  47  61
ATOM     61  C   UNL A   1      40.925  27.807  29.579  1.00  0.00     0.023 A 
ATOM     62  C   UNL A   1      39.959  26.784  29.511  1.00  0.00     0.012 A 
ATOM     63  C   UNL A   1      41.726  28.083  28.454  1.00  0.00     0.148 A 
ATOM     64  C   UNL A   1      39.813  26.028  28.349  1.00  0.00     0.002 A 
ATOM     65  C   UNL A   1      41.543  27.357  27.285  1.00  0.00     0.091 A 
ATOM     66  F   UNL A   1      42.653  29.047  28.552  1.00  0.00    -0.205 F 
ATOM     67  C   UNL A   1      40.596  26.321  27.235  1.00  0.00     0.022 A 
BRANCH  65  68
ATOM     68  S   UNL A   1      42.451  27.706  25.777  1.00  0.00     0.127 S 
ATOM     69  O   UNL A   1      41.950  29.036  25.433  1.00  0.00    -0.237 OA
ATOM     70  O   UNL A   1      43.837  27.677  26.244  1.00  0.00    -0.237 OA
ATOM     71  O   UNL A   1      42.101  26.649  24.839  1.00  0.00    -0.744 OA
ENDBRANCH  65  68
ENDBRANCH  47  61
BRANCH  48  72
ATOM     72  C   UNL A   1      41.359  33.328  37.863  1.00  0.00     0.023 A 
ATOM     73  C   UNL A   1      42.409  34.242  38.083  1.00  0.00     0.012 A 
ATOM     74  C   UNL A   1      40.406  33.127  38.882  1.00  0.00     0.148 A 
ATOM     75  C   UNL A   1      42.533  34.905  39.307  1.00  0.00     0.002 A 
ATOM     76  C   UNL A   1      40.498  33.838  40.072  1.00  0.00     0.091 A 
ATOM     77  F   UNL A   1      39.430  32.233  38.671  1.00  0.00    -0.205 F 
ATOM     78  C   UNL A   1      41.573  34.711  40.297  1.00  0.00     0.022 A 
BRANCH  76  79
ATOM     79  S   UNL A   1      39.242  33.736  41.352  1.00  0.00     0.127 S 
ATOM     80  O   UNL A   1      39.332  32.333  41.748  1.00  0.00    -0.237 OA
ATOM     81  O   UNL A   1      39.744  34.689  42.341  1.00  0.00    -0.237 OA
ATOM     82  O   UNL A   1      37.997  34.134  40.711  1.00  0.00    -0.744 OA
ENDBRANCH  76  79
ENDBRANCH  48  72
BRANCH  60  83
ATOM     83  C   UNL A   1      45.165  28.015  35.392  1.00  0.00     0.023 A 
ATOM     84  C   UNL A   1      46.468  28.510  35.189  1.00  0.00     0.012 A 
ATOM     85  C   UNL A   1      44.982  26.860  36.181  1.00  0.00     0.148 A 
ATOM     86  C   UNL A   1      47.571  27.852  35.735  1.00  0.00     0.002 A 
ATOM     87  C   UNL A   1      46.079  26.241  36.767  1.00  0.00     0.091 A 
ATOM     88  F   UNL A   1      43.736  26.395  36.351  1.00  0.00    -0.205 F 
ATOM     89  C   UNL A   1      47.376  26.727  36.534  1.00  0.00     0.022 A 
BRANCH  87  90
ATOM     90  S   UNL A   1      45.916  24.850  37.893  1.00  0.00     0.127 S 
ATOM     91  O   UNL A   1      45.368  23.818  37.013  1.00  0.00    -0.237 OA
ATOM     92  O   UNL A   1      47.300  24.625  38.311  1.00  0.00    -0.237 OA
ATOM     93  O   UNL A   1      45.027  25.296  38.958  1.00  0.00    -0.744 OA
ENDBRANCH  87  90
ENDBRANCH  60  83
ENDBRANCH  34  35
ENDBRANCH  27  29
ENDBRANCH  26  27
ENDBRANCH  25  26
ENDBRANCH  24  25
ENDBRANCH  23  24
ENDBRANCH  22  23
ENDBRANCH   1  22
TORSDOF 24
ENDMDL
MODEL 3
REMARK VINA RESULT:      -7.9      6.706      8.481
REMARK SMILES CC(C)(C)N(CC(=O)OCCOCCOCCOC(=O)c1ccc(-c2c3nc(c(-c4cccc(S(=O)(=O)[O-])c4F)c4ccc([nH]4)c(-c4cccc(S(=O)(=O)[O-])c4F)c4nc(c(-c5cccc(S(=O)(=O)[O-])c5F)c5ccc2[nH]5)C=C4)C=C3)cc1)C(=O)C1C[NH2+]C1
REMARK SMILES IDX 13 1 12 2 11 3 10 4 9 5 7 6 8 7 6 8 5 9 2 10 1 11 3 12 4 13
REMARK SMILES IDX 84 14 85 15 86 16 87 17 89 18 88 19 14 22 15 23 16 24 17 25
REMARK SMILES IDX 18 26 19 27 20 28 21 29 22 30 83 31 23 32 82 33 24 34 25 35
REMARK SMILES IDX 26 36 76 37 27 38 81 39 75 40 77 41 28 42 80 43 74 44 73 45
REMARK SMILES IDX 29 47 61 48 41 49 60 50 42 51 45 52 59 53 78 54 43 55 44 56
REMARK SMILES IDX 58 58 79 59 46 60 30 61 31 62 39 63 32 64 34 65 40 66 33 67
REMARK SMILES IDX 35 68 36 69 37 70 38 71 62 72 63 73 71 74 64 75 66 76 72 77
REMARK SMILES IDX 65 78 67 79 68 80 69 81 70 82 47 83 48 84 56 85 49 86 51 87
REMARK SMILES IDX 57 88 50 89 52 90 53 91 54 92 55 93
REMARK H PARENT 88 20 88 21 77 46 45 57
REMARK Flexibility Score: inf
ROOT
ATOM      1  C   UNL A   1      35.443  30.162  28.607  1.00  0.00     0.188 C 
ENDROOT
BRANCH   1   2
ATOM      2  O   UNL A   1      35.357  29.704  27.268  1.00  0.00    -0.376 OA
BRANCH   2   3
ATOM      3  C   UNL A   1      34.189  30.025  26.523  1.00  0.00     0.202 C 
BRANCH   3   4
ATOM      4  C   UNL A   1      32.888  30.243  27.307  1.00  0.00     0.261 C 
BRANCH   4   5
ATOM      5  O   UNL A   1      31.774  29.457  26.807  1.00  0.00    -0.462 OA
BRANCH   5   6
ATOM      6  C   UNL A   1      31.811  28.138  27.137  1.00  0.00     0.325 C 
ATOM      7  O   UNL A   1      31.324  27.695  28.176  1.00  0.00    -0.250 OA
BRANCH   6   8
ATOM      8  C   UNL A   1      32.450  27.188  26.096  1.00  0.00     0.242 C 
BRANCH   8   9
ATOM      9  N   UNL A   1      31.717  26.553  24.974  1.00  0.00    -0.326 N 
BRANCH   9  10
ATOM     10  C   UNL A   1      32.193  25.223  24.425  1.00  0.00     0.035 C 
ATOM     11  C   UNL A   1      32.251  25.179  22.879  1.00  0.00     0.034 C 
ATOM     12  C   UNL A   1      31.279  24.064  24.868  1.00  0.00     0.034 C 
ATOM     13  C   UNL A   1      33.652  24.941  24.891  1.00  0.00     0.034 C 
ENDBRANCH   9  10
BRANCH   9  14
ATOM     14  C   UNL A   1      30.529  27.095  24.425  1.00  0.00     0.238 C 
ATOM     15  O   UNL A   1      29.446  26.507  24.615  1.00  0.00    -0.274 OA
BRANCH  14  16
ATOM     16  C   UNL A   1      30.448  28.409  23.664  1.00  0.00     0.188 C 
ATOM     17  C   UNL A   1      31.709  29.213  23.357  1.00  0.00     0.280 C 
ATOM     18  C   UNL A   1      30.054  28.618  22.206  1.00  0.00     0.280 C 
ATOM     19  N   UNL A   1      31.161  29.564  22.040  1.00  0.00    -0.345 N 
ATOM     20  H   UNL A   1      31.782  29.337  21.262  1.00  0.00     0.346 HD
ATOM     21  H   UNL A   1      30.962  30.540  21.821  1.00  0.00     0.346 HD
ENDBRANCH  14  16
ENDBRANCH   9  14
ENDBRANCH   8   9
ENDBRANCH   6   8
ENDBRANCH   5   6
ENDBRANCH   4   5
ENDBRANCH   3   4
ENDBRANCH   2   3
ENDBRANCH   1   2
BRANCH   1  22
ATOM     22  C   UNL A   1      35.658  31.662  28.869  1.00  0.00     0.188 C 
BRANCH  22  23
ATOM     23  O   UNL A   1      34.786  32.389  29.714  1.00  0.00    -0.376 OA
BRANCH  23  24
ATOM     24  C   UNL A   1      34.982  32.309  31.110  1.00  0.00     0.202 C 
BRANCH  24  25
ATOM     25  C   UNL A   1      36.409  32.170  31.653  1.00  0.00     0.261 C 
BRANCH  25  26
ATOM     26  O   UNL A   1      36.574  31.258  32.750  1.00  0.00    -0.460 OA
BRANCH  26  27
ATOM     27  C   UNL A   1      37.334  30.162  32.467  1.00  0.00     0.338 C 
ATOM     28  O   UNL A   1      37.035  29.001  32.661  1.00  0.00    -0.246 OA
BRANCH  27  29
ATOM     29  C   UNL A   1      38.566  30.559  31.745  1.00  0.00     0.060 A 
ATOM     30  C   UNL A   1      39.530  31.270  32.465  1.00  0.00     0.016 A 
ATOM     31  C   UNL A   1      38.766  30.298  30.388  1.00  0.00     0.016 A 
ATOM     32  C   UNL A   1      40.718  31.676  31.851  1.00  0.00     0.010 A 
ATOM     33  C   UNL A   1      39.934  30.757  29.755  1.00  0.00     0.010 A 
ATOM     34  C   UNL A   1      40.920  31.447  30.485  1.00  0.00    -0.014 A 
BRANCH  34  35
ATOM     35  C   UNL A   1      42.085  32.083  29.812  1.00  0.00     0.031 A 
ATOM     36  C   UNL A   1      43.284  31.232  29.489  1.00  0.00     0.074 A 
ATOM     37  C   UNL A   1      42.072  33.378  29.442  1.00  0.00     0.049 A 
ATOM     38  N   UNL A   1      44.407  31.569  28.910  1.00  0.00    -0.248 NA
ATOM     39  C   UNL A   1      43.193  29.808  29.848  1.00  0.00     0.031 C 
ATOM     40  C   UNL A   1      40.955  34.301  29.629  1.00  0.00     0.029 A 
ATOM     41  N   UNL A   1      43.040  34.142  28.833  1.00  0.00    -0.354 N 
ATOM     42  C   UNL A   1      45.167  30.408  28.857  1.00  0.00     0.074 A 
ATOM     43  C   UNL A   1      44.367  29.351  29.435  1.00  0.00     0.031 C 
ATOM     44  C   UNL A   1      41.308  35.512  29.161  1.00  0.00     0.029 A 
ATOM     45  C   UNL A   1      42.692  35.466  28.687  1.00  0.00     0.049 A 
ATOM     46  H   UNL A   1      43.902  33.776  28.529  1.00  0.00     0.167 HD
ATOM     47  C   UNL A   1      46.424  30.234  28.386  1.00  0.00     0.034 A 
ATOM     48  C   UNL A   1      43.418  36.524  28.265  1.00  0.00     0.034 A 
ATOM     49  C   UNL A   1      47.242  31.282  27.840  1.00  0.00     0.049 A 
ATOM     50  C   UNL A   1      44.851  36.315  27.829  1.00  0.00     0.074 A 
ATOM     51  C   UNL A   1      48.537  31.196  27.360  1.00  0.00     0.029 A 
ATOM     52  N   UNL A   1      46.862  32.608  27.730  1.00  0.00    -0.354 N 
ATOM     53  N   UNL A   1      45.531  35.199  27.721  1.00  0.00    -0.248 NA
ATOM     54  C   UNL A   1      45.613  37.515  27.441  1.00  0.00     0.031 C 
ATOM     55  C   UNL A   1      48.956  32.480  27.001  1.00  0.00     0.029 A 
ATOM     56  C   UNL A   1      47.904  33.356  27.209  1.00  0.00     0.049 A 
ATOM     57  H   UNL A   1      45.982  32.968  27.986  1.00  0.00     0.167 HD
ATOM     58  C   UNL A   1      46.781  35.559  27.222  1.00  0.00     0.074 A 
ATOM     59  C   UNL A   1      46.759  36.992  27.027  1.00  0.00     0.031 C 
ATOM     60  C   UNL A   1      47.856  34.774  26.962  1.00  0.00     0.034 A 
BRANCH  47  61
ATOM     61  C   UNL A   1      47.013  28.855  28.482  1.00  0.00     0.023 A 
ATOM     62  C   UNL A   1      47.781  28.489  29.605  1.00  0.00     0.012 A 
ATOM     63  C   UNL A   1      46.763  27.906  27.472  1.00  0.00     0.148 A 
ATOM     64  C   UNL A   1      48.316  27.205  29.706  1.00  0.00     0.002 A 
ATOM     65  C   UNL A   1      47.261  26.617  27.602  1.00  0.00     0.091 A 
ATOM     66  F   UNL A   1      46.049  28.286  26.403  1.00  0.00    -0.205 F 
ATOM     67  C   UNL A   1      48.047  26.268  28.711  1.00  0.00     0.022 A 
BRANCH  65  68
ATOM     68  S   UNL A   1      46.909  25.320  26.411  1.00  0.00     0.127 S 
ATOM     69  O   UNL A   1      47.696  24.209  26.944  1.00  0.00    -0.237 OA
ATOM     70  O   UNL A   1      45.461  25.165  26.548  1.00  0.00    -0.237 OA
ATOM     71  O   UNL A   1      47.349  25.828  25.118  1.00  0.00    -0.744 OA
ENDBRANCH  65  68
ENDBRANCH  47  61
BRANCH  48  72
ATOM     72  C   UNL A   1      42.833  37.898  28.263  1.00  0.00     0.023 A 
ATOM     73  C   UNL A   1      42.147  38.374  27.127  1.00  0.00     0.012 A 
ATOM     74  C   UNL A   1      43.004  38.759  29.366  1.00  0.00     0.148 A 
ATOM     75  C   UNL A   1      41.682  39.690  27.075  1.00  0.00     0.002 A 
ATOM     76  C   UNL A   1      42.483  40.046  29.332  1.00  0.00     0.091 A 
ATOM     77  F   UNL A   1      43.685  38.303  30.426  1.00  0.00    -0.205 F 
ATOM     78  C   UNL A   1      41.841  40.523  28.179  1.00  0.00     0.022 A 
BRANCH  76  79
ATOM     79  S   UNL A   1      42.540  41.143  30.753  1.00  0.00     0.127 S 
ATOM     80  O   UNL A   1      43.214  42.314  30.199  1.00  0.00    -0.237 OA
ATOM     81  O   UNL A   1      41.119  41.330  31.045  1.00  0.00    -0.237 OA
ATOM     82  O   UNL A   1      43.274  40.417  31.779  1.00  0.00    -0.744 OA
ENDBRANCH  76  79
ENDBRANCH  48  72
BRANCH  60  83
ATOM     83  C   UNL A   1      49.090  35.419  26.383  1.00  0.00     0.023 A 
ATOM     84  C   UNL A   1      49.268  35.487  24.986  1.00  0.00     0.012 A 
ATOM     85  C   UNL A   1      50.031  36.043  27.228  1.00  0.00     0.148 A 
ATOM     86  C   UNL A   1      50.376  36.137  24.443  1.00  0.00     0.002 A 
ATOM     87  C   UNL A   1      51.104  36.734  26.678  1.00  0.00     0.091 A 
ATOM     88  F   UNL A   1      49.854  35.954  28.554  1.00  0.00    -0.205 F 
ATOM     89  C   UNL A   1      51.286  36.771  25.287  1.00  0.00     0.022 A 
BRANCH  87  90
ATOM     90  S   UNL A   1      52.267  37.667  27.682  1.00  0.00     0.127 S 
ATOM     91  O   UNL A   1      53.273  36.653  27.991  1.00  0.00    -0.237 OA
ATOM     92  O   UNL A   1      52.712  38.707  26.754  1.00  0.00    -0.237 OA
ATOM     93  O   UNL A   1      51.508  38.160  28.824  1.00  0.00    -0.744 OA
ENDBRANCH  87  90
ENDBRANCH  60  83
ENDBRANCH  34  35
ENDBRANCH  27  29
ENDBRANCH  26  27
ENDBRANCH  25  26
ENDBRANCH  24  25
ENDBRANCH  23  24
ENDBRANCH  22  23
ENDBRANCH   1  22
TORSDOF 24
ENDMDL
