MODEL 1
REMARK VINA RESULT:     -10.9      0.000      0.000
REMARK SMILES Cc1ccsc1CNC(=O)N[C@@H]1CCCC[C@H]1C(=O)OCCOCCOCCOC(=O)c1ccc(-c2c3nc(c(-c4cccc(S(=O)(=O)[O-])c4F)c4ccc([nH]4)c(-c4cccc(S(=O)(=O)[O-])c4F)c4nc(c(-c5cccc(S(=O)(=O)[O-])c5F)c5ccc2[nH]5)C=C4)C=C3)cc1
REMARK SMILES IDX 24 1 23 2 22 3 21 4 20 5 18 6 19 7 17 8 12 9 13 10 14 11
REMARK SMILES IDX 16 12 15 13 11 14 8 15 9 16 10 18 7 20 6 21 1 22 2 23 3 24
REMARK SMILES IDX 4 25 5 26 25 27 26 28 27 29 28 30 29 31 30 32 31 33 32 34
REMARK SMILES IDX 33 35 94 36 34 37 93 38 35 39 36 40 37 41 87 42 38 43 92 44
REMARK SMILES IDX 86 45 88 46 39 47 91 48 85 49 84 50 40 52 72 53 52 54 71 55
REMARK SMILES IDX 53 56 56 57 70 58 89 59 54 60 55 61 69 63 90 64 57 65 41 66
REMARK SMILES IDX 42 67 50 68 43 69 45 70 51 71 44 72 46 73 47 74 48 75 49 76
REMARK SMILES IDX 73 77 74 78 82 79 75 80 77 81 83 82 76 83 78 84 79 85 80 86
REMARK SMILES IDX 81 87 58 88 59 89 67 90 60 91 62 92 68 93 61 94 63 95 64 96
REMARK SMILES IDX 65 97 66 98
REMARK H PARENT 8 17 11 19 88 51 56 62
REMARK Flexibility Score: inf
ROOT
ATOM      1  C   UNL A   1      34.099  22.795  25.120  1.00  0.00     0.188 C 
ENDROOT
BRANCH   1   2
ATOM      2  O   UNL A   1      33.033  22.119  24.468  1.00  0.00    -0.376 OA
BRANCH   2   3
ATOM      3  C   UNL A   1      31.924  21.716  25.269  1.00  0.00     0.202 C 
BRANCH   3   4
ATOM      4  C   UNL A   1      31.208  22.790  26.104  1.00  0.00     0.261 C 
BRANCH   4   5
ATOM      5  O   UNL A   1      30.347  23.719  25.382  1.00  0.00    -0.463 OA
BRANCH   5   6
ATOM      6  C   UNL A   1      30.625  25.030  25.605  1.00  0.00     0.311 C 
ATOM      7  O   UNL A   1      30.270  25.613  26.631  1.00  0.00    -0.252 OA
BRANCH   6   8
ATOM      8  C   UNL A   1      31.356  25.816  24.500  1.00  0.00     0.121 C 
ATOM      9  C   UNL A   1      32.780  26.384  24.691  1.00  0.00     0.098 C 
ATOM     10  C   UNL A   1      33.664  26.515  23.429  1.00  0.00     0.026 C 
ATOM     11  C   UNL A   1      33.462  25.451  22.376  1.00  0.00     0.002 C 
ATOM     12  C   UNL A   1      31.220  24.901  23.262  1.00  0.00     0.017 C 
ATOM     13  C   UNL A   1      31.994  25.341  22.036  1.00  0.00     0.001 C 
BRANCH   9  14
ATOM     14  N   UNL A   1      32.907  27.703  25.345  1.00  0.00    -0.335 N 
ATOM     15  N   UNL A   1      31.620  29.443  24.343  1.00  0.00    -0.333 N 
ATOM     16  C   UNL A   1      32.592  28.980  25.122  1.00  0.00     0.315 C 
ATOM     17  H   UNL A   1      31.206  30.264  24.695  1.00  0.00     0.165 HD
ATOM     18  O   UNL A   1      33.249  29.812  25.753  1.00  0.00    -0.249 OA
ATOM     19  H   UNL A   1      33.365  27.611  26.211  1.00  0.00     0.165 HD
BRANCH  15  20
ATOM     20  C   UNL A   1      31.039  29.011  23.101  1.00  0.00     0.164 C 
BRANCH  20  21
ATOM     21  C   UNL A   1      29.630  29.479  22.856  1.00  0.00     0.027 A 
ATOM     22  C   UNL A   1      28.422  27.299  23.479  1.00  0.00     0.045 C 
ATOM     23  C   UNL A   1      28.473  28.741  23.090  1.00  0.00    -0.035 A 
ATOM     24  C   UNL A   1      27.298  29.549  22.939  1.00  0.00     0.015 A 
ATOM     25  C   UNL A   1      27.586  30.832  22.536  1.00  0.00     0.065 A 
ATOM     26  S   UNL A   1      29.256  31.053  22.274  1.00  0.00    -0.147 S 
ENDBRANCH  20  21
ENDBRANCH  15  20
ENDBRANCH   9  14
ENDBRANCH   6   8
ENDBRANCH   5   6
ENDBRANCH   4   5
ENDBRANCH   3   4
ENDBRANCH   2   3
ENDBRANCH   1   2
BRANCH   1  27
ATOM     27  C   UNL A   1      35.364  23.069  24.297  1.00  0.00     0.188 C 
BRANCH  27  28
ATOM     28  O   UNL A   1      36.087  21.906  23.931  1.00  0.00    -0.376 OA
BRANCH  28  29
ATOM     29  C   UNL A   1      36.190  20.872  24.901  1.00  0.00     0.202 C 
BRANCH  29  30
ATOM     30  C   UNL A   1      37.629  20.413  25.193  1.00  0.00     0.261 C 
BRANCH  30  31
ATOM     31  O   UNL A   1      38.562  21.483  25.425  1.00  0.00    -0.460 OA
BRANCH  31  32
ATOM     32  C   UNL A   1      39.618  21.176  26.217  1.00  0.00     0.338 C 
ATOM     33  O   UNL A   1      40.211  20.114  26.260  1.00  0.00    -0.246 OA
BRANCH  32  34
ATOM     34  C   UNL A   1      40.088  22.423  26.854  1.00  0.00     0.060 A 
ATOM     35  C   UNL A   1      39.541  23.624  26.399  1.00  0.00     0.016 A 
ATOM     36  C   UNL A   1      41.055  22.432  27.851  1.00  0.00     0.016 A 
ATOM     37  C   UNL A   1      39.979  24.847  26.894  1.00  0.00     0.010 A 
ATOM     38  C   UNL A   1      41.509  23.661  28.348  1.00  0.00     0.010 A 
ATOM     39  C   UNL A   1      41.001  24.877  27.845  1.00  0.00    -0.014 A 
BRANCH  39  40
ATOM     40  C   UNL A   1      41.676  26.166  28.140  1.00  0.00     0.031 A 
ATOM     41  C   UNL A   1      40.887  27.232  28.849  1.00  0.00     0.074 A 
ATOM     42  C   UNL A   1      42.973  26.377  27.846  1.00  0.00     0.049 A 
ATOM     43  N   UNL A   1      41.203  28.476  29.094  1.00  0.00    -0.248 NA
ATOM     44  C   UNL A   1      39.559  26.837  29.348  1.00  0.00     0.031 C 
ATOM     45  C   UNL A   1      43.876  25.402  27.238  1.00  0.00     0.029 A 
ATOM     46  N   UNL A   1      43.749  27.499  28.011  1.00  0.00    -0.354 N 
ATOM     47  C   UNL A   1      40.090  29.028  29.719  1.00  0.00     0.074 A 
ATOM     48  C   UNL A   1      39.096  27.984  29.822  1.00  0.00     0.031 C 
ATOM     49  C   UNL A   1      45.077  25.977  27.055  1.00  0.00     0.029 A 
ATOM     50  C   UNL A   1      45.013  27.372  27.485  1.00  0.00     0.049 A 
ATOM     51  H   UNL A   1      43.430  28.314  28.461  1.00  0.00     0.167 HD
ATOM     52  C   UNL A   1      39.915  30.290  30.177  1.00  0.00     0.034 A 
ATOM     53  C   UNL A   1      45.991  28.290  27.333  1.00  0.00     0.034 A 
ATOM     54  C   UNL A   1      40.922  31.313  30.125  1.00  0.00     0.049 A 
ATOM     55  C   UNL A   1      45.763  29.699  27.821  1.00  0.00     0.074 A 
ATOM     56  C   UNL A   1      40.842  32.623  30.562  1.00  0.00     0.029 A 
ATOM     57  N   UNL A   1      42.198  31.139  29.612  1.00  0.00    -0.354 N 
ATOM     58  N   UNL A   1      44.718  30.205  28.431  1.00  0.00    -0.248 NA
ATOM     59  C   UNL A   1      46.859  30.660  27.618  1.00  0.00     0.031 C 
ATOM     60  C   UNL A   1      42.069  33.244  30.303  1.00  0.00     0.029 A 
ATOM     61  C   UNL A   1      42.918  32.314  29.723  1.00  0.00     0.049 A 
ATOM     62  H   UNL A   1      42.541  30.301  29.224  1.00  0.00     0.167 HD
ATOM     63  C   UNL A   1      45.039  31.531  28.706  1.00  0.00     0.074 A 
ATOM     64  C   UNL A   1      46.387  31.743  28.221  1.00  0.00     0.031 C 
ATOM     65  C   UNL A   1      44.280  32.492  29.290  1.00  0.00     0.034 A 
BRANCH  52  66
ATOM     66  C   UNL A   1      38.578  30.624  30.781  1.00  0.00     0.023 A 
ATOM     67  C   UNL A   1      38.314  30.302  32.127  1.00  0.00     0.012 A 
ATOM     68  C   UNL A   1      37.589  31.273  30.018  1.00  0.00     0.148 A 
ATOM     69  C   UNL A   1      37.073  30.588  32.694  1.00  0.00     0.002 A 
ATOM     70  C   UNL A   1      36.370  31.596  30.603  1.00  0.00     0.091 A 
ATOM     71  F   UNL A   1      37.849  31.545  28.731  1.00  0.00    -0.205 F 
ATOM     72  C   UNL A   1      36.107  31.244  31.936  1.00  0.00     0.022 A 
BRANCH  70  73
ATOM     73  S   UNL A   1      35.093  32.506  29.726  1.00  0.00     0.127 S 
ATOM     74  O   UNL A   1      34.133  32.772  30.796  1.00  0.00    -0.237 OA
ATOM     75  O   UNL A   1      35.821  33.684  29.255  1.00  0.00    -0.237 OA
ATOM     76  O   UNL A   1      34.626  31.621  28.669  1.00  0.00    -0.744 OA
ENDBRANCH  70  73
ENDBRANCH  52  66
BRANCH  53  77
ATOM     77  C   UNL A   1      47.278  27.907  26.683  1.00  0.00     0.023 A 
ATOM     78  C   UNL A   1      48.380  27.535  27.477  1.00  0.00     0.012 A 
ATOM     79  C   UNL A   1      47.409  27.894  25.280  1.00  0.00     0.148 A 
ATOM     80  C   UNL A   1      49.595  27.183  26.887  1.00  0.00     0.002 A 
ATOM     81  C   UNL A   1      48.604  27.485  24.698  1.00  0.00     0.091 A 
ATOM     82  F   UNL A   1      46.360  28.278  24.540  1.00  0.00    -0.205 F 
ATOM     83  C   UNL A   1      49.704  27.146  25.500  1.00  0.00     0.022 A 
BRANCH  81  84
ATOM     84  S   UNL A   1      48.788  27.281  22.923  1.00  0.00     0.127 S 
ATOM     85  O   UNL A   1      50.234  27.396  22.758  1.00  0.00    -0.237 OA
ATOM     86  O   UNL A   1      48.250  25.935  22.717  1.00  0.00    -0.237 OA
ATOM     87  O   UNL A   1      47.994  28.343  22.322  1.00  0.00    -0.744 OA
ENDBRANCH  81  84
ENDBRANCH  53  77
BRANCH  65  88
ATOM     88  C   UNL A   1      44.893  33.856  29.473  1.00  0.00     0.023 A 
ATOM     89  C   UNL A   1      45.684  34.120  30.609  1.00  0.00     0.012 A 
ATOM     90  C   UNL A   1      44.752  34.849  28.483  1.00  0.00     0.148 A 
ATOM     91  C   UNL A   1      46.302  35.360  30.770  1.00  0.00     0.002 A 
ATOM     92  C   UNL A   1      45.408  36.066  28.628  1.00  0.00     0.091 A 
ATOM     93  F   UNL A   1      43.980  34.587  27.418  1.00  0.00    -0.205 F 
ATOM     94  C   UNL A   1      46.173  36.328  29.776  1.00  0.00     0.022 A 
BRANCH  92  95
ATOM     95  S   UNL A   1      45.373  37.332  27.353  1.00  0.00     0.127 S 
ATOM     96  O   UNL A   1      45.963  38.474  28.051  1.00  0.00    -0.237 OA
ATOM     97  O   UNL A   1      46.220  36.751  26.311  1.00  0.00    -0.237 OA
ATOM     98  O   UNL A   1      43.973  37.481  26.978  1.00  0.00    -0.744 OA
ENDBRANCH  92  95
ENDBRANCH  65  88
ENDBRANCH  39  40
ENDBRANCH  32  34
ENDBRANCH  31  32
ENDBRANCH  30  31
ENDBRANCH  29  30
ENDBRANCH  28  29
ENDBRANCH  27  28
ENDBRANCH   1  27
TORSDOF 23
ENDMDL
MODEL 2
REMARK VINA RESULT:     -10.8      1.317      7.494
REMARK SMILES Cc1ccsc1CNC(=O)N[C@@H]1CCCC[C@H]1C(=O)OCCOCCOCCOC(=O)c1ccc(-c2c3nc(c(-c4cccc(S(=O)(=O)[O-])c4F)c4ccc([nH]4)c(-c4cccc(S(=O)(=O)[O-])c4F)c4nc(c(-c5cccc(S(=O)(=O)[O-])c5F)c5ccc2[nH]5)C=C4)C=C3)cc1
REMARK SMILES IDX 24 1 23 2 22 3 21 4 20 5 18 6 19 7 17 8 12 9 13 10 14 11
REMARK SMILES IDX 16 12 15 13 11 14 8 15 9 16 10 18 7 20 6 21 1 22 2 23 3 24
REMARK SMILES IDX 4 25 5 26 25 27 26 28 27 29 28 30 29 31 30 32 31 33 32 34
REMARK SMILES IDX 33 35 94 36 34 37 93 38 35 39 36 40 37 41 87 42 38 43 92 44
REMARK SMILES IDX 86 45 88 46 39 47 91 48 85 49 84 50 40 52 72 53 52 54 71 55
REMARK SMILES IDX 53 56 56 57 70 58 89 59 54 60 55 61 69 63 90 64 57 65 41 66
REMARK SMILES IDX 42 67 50 68 43 69 45 70 51 71 44 72 46 73 47 74 48 75 49 76
REMARK SMILES IDX 73 77 74 78 82 79 75 80 77 81 83 82 76 83 78 84 79 85 80 86
REMARK SMILES IDX 81 87 58 88 59 89 67 90 60 91 62 92 68 93 61 94 63 95 64 96
REMARK SMILES IDX 65 97 66 98
REMARK H PARENT 8 17 11 19 88 51 56 62
REMARK Flexibility Score: inf
ROOT
ATOM      1  C   UNL A   1      34.165  20.863  25.637  1.00  0.00     0.188 C 
ENDROOT
BRANCH   1   2
ATOM      2  O   UNL A   1      33.512  20.412  24.459  1.00  0.00    -0.376 OA
BRANCH   2   3
ATOM      3  C   UNL A   1      32.283  21.043  24.106  1.00  0.00     0.202 C 
BRANCH   3   4
ATOM      4  C   UNL A   1      32.317  22.143  23.032  1.00  0.00     0.261 C 
BRANCH   4   5
ATOM      5  O   UNL A   1      33.236  23.252  23.257  1.00  0.00    -0.463 OA
BRANCH   5   6
ATOM      6  C   UNL A   1      33.134  24.258  22.350  1.00  0.00     0.311 C 
ATOM      7  O   UNL A   1      33.356  24.089  21.150  1.00  0.00    -0.252 OA
BRANCH   6   8
ATOM      8  C   UNL A   1      32.786  25.668  22.865  1.00  0.00     0.121 C 
ATOM      9  C   UNL A   1      32.840  26.039  24.364  1.00  0.00     0.098 C 
ATOM     10  C   UNL A   1      33.162  27.509  24.717  1.00  0.00     0.026 C 
ATOM     11  C   UNL A   1      34.113  28.215  23.779  1.00  0.00     0.002 C 
ATOM     12  C   UNL A   1      33.641  26.595  21.972  1.00  0.00     0.017 C 
ATOM     13  C   UNL A   1      33.633  28.060  22.354  1.00  0.00     0.001 C 
BRANCH   9  14
ATOM     14  N   UNL A   1      31.651  25.734  25.186  1.00  0.00    -0.335 N 
ATOM     15  N   UNL A   1      29.594  26.574  24.319  1.00  0.00    -0.333 N 
ATOM     16  C   UNL A   1      30.368  26.084  25.282  1.00  0.00     0.315 C 
ATOM     17  H   UNL A   1      28.659  26.272  24.388  1.00  0.00     0.165 HD
ATOM     18  O   UNL A   1      29.837  25.880  26.378  1.00  0.00    -0.249 OA
ATOM     19  H   UNL A   1      31.875  25.066  25.875  1.00  0.00     0.165 HD
BRANCH  15  20
ATOM     20  C   UNL A   1      29.820  27.446  23.199  1.00  0.00     0.164 C 
BRANCH  20  21
ATOM     21  C   UNL A   1      29.151  28.791  23.289  1.00  0.00     0.027 A 
ATOM     22  C   UNL A   1      30.993  30.012  24.599  1.00  0.00     0.045 C 
ATOM     23  C   UNL A   1      29.702  29.941  23.848  1.00  0.00    -0.035 A 
ATOM     24  C   UNL A   1      28.883  31.090  23.594  1.00  0.00     0.015 A 
ATOM     25  C   UNL A   1      27.725  30.776  22.923  1.00  0.00     0.065 A 
ATOM     26  S   UNL A   1      27.583  29.099  22.654  1.00  0.00    -0.147 S 
ENDBRANCH  20  21
ENDBRANCH  15  20
ENDBRANCH   9  14
ENDBRANCH   6   8
ENDBRANCH   5   6
ENDBRANCH   4   5
ENDBRANCH   3   4
ENDBRANCH   2   3
ENDBRANCH   1   2
BRANCH   1  27
ATOM     27  C   UNL A   1      35.665  21.167  25.536  1.00  0.00     0.188 C 
BRANCH  27  28
ATOM     28  O   UNL A   1      36.443  20.102  25.017  1.00  0.00    -0.376 OA
BRANCH  28  29
ATOM     29  C   UNL A   1      37.829  20.348  24.815  1.00  0.00     0.202 C 
BRANCH  29  30
ATOM     30  C   UNL A   1      38.760  19.273  25.401  1.00  0.00     0.261 C 
BRANCH  30  31
ATOM     31  O   UNL A   1      39.466  19.677  26.588  1.00  0.00    -0.460 OA
BRANCH  31  32
ATOM     32  C   UNL A   1      40.761  20.030  26.405  1.00  0.00     0.338 C 
ATOM     33  O   UNL A   1      41.599  19.419  25.768  1.00  0.00    -0.246 OA
BRANCH  32  34
ATOM     34  C   UNL A   1      40.933  21.408  26.908  1.00  0.00     0.060 A 
ATOM     35  C   UNL A   1      40.286  22.433  26.215  1.00  0.00     0.016 A 
ATOM     36  C   UNL A   1      41.724  21.706  28.010  1.00  0.00     0.016 A 
ATOM     37  C   UNL A   1      40.452  23.764  26.578  1.00  0.00     0.010 A 
ATOM     38  C   UNL A   1      41.904  23.046  28.376  1.00  0.00     0.010 A 
ATOM     39  C   UNL A   1      41.300  24.086  27.639  1.00  0.00    -0.014 A 
BRANCH  39  40
ATOM     40  C   UNL A   1      41.718  25.498  27.827  1.00  0.00     0.031 A 
ATOM     41  C   UNL A   1      43.037  25.928  27.245  1.00  0.00     0.074 A 
ATOM     42  C   UNL A   1      40.932  26.401  28.441  1.00  0.00     0.049 A 
ATOM     43  N   UNL A   1      43.682  27.056  27.390  1.00  0.00    -0.248 NA
ATOM     44  C   UNL A   1      43.722  24.948  26.385  1.00  0.00     0.031 C 
ATOM     45  C   UNL A   1      39.595  26.141  28.974  1.00  0.00     0.029 A 
ATOM     46  N   UNL A   1      41.159  27.725  28.732  1.00  0.00    -0.354 N 
ATOM     47  C   UNL A   1      44.873  26.898  26.691  1.00  0.00     0.074 A 
ATOM     48  C   UNL A   1      44.860  25.571  26.118  1.00  0.00     0.031 C 
ATOM     49  C   UNL A   1      39.132  27.262  29.552  1.00  0.00     0.029 A 
ATOM     50  C   UNL A   1      40.156  28.302  29.475  1.00  0.00     0.049 A 
ATOM     51  H   UNL A   1      41.962  28.211  28.437  1.00  0.00     0.167 HD
ATOM     52  C   UNL A   1      45.885  27.783  26.531  1.00  0.00     0.034 A 
ATOM     53  C   UNL A   1      40.092  29.517  30.059  1.00  0.00     0.034 A 
ATOM     54  C   UNL A   1      45.875  29.121  27.053  1.00  0.00     0.049 A 
ATOM     55  C   UNL A   1      41.245  30.477  29.895  1.00  0.00     0.074 A 
ATOM     56  C   UNL A   1      46.852  30.095  26.945  1.00  0.00     0.029 A 
ATOM     57  N   UNL A   1      44.831  29.678  27.775  1.00  0.00    -0.354 N 
ATOM     58  N   UNL A   1      42.355  30.327  29.214  1.00  0.00    -0.248 NA
ATOM     59  C   UNL A   1      41.126  31.782  30.564  1.00  0.00     0.031 C 
ATOM     60  C   UNL A   1      46.401  31.239  27.611  1.00  0.00     0.029 A 
ATOM     61  C   UNL A   1      45.135  30.984  28.117  1.00  0.00     0.049 A 
ATOM     62  H   UNL A   1      43.995  29.213  28.010  1.00  0.00     0.167 HD
ATOM     63  C   UNL A   1      43.054  31.523  29.351  1.00  0.00     0.074 A 
ATOM     64  C   UNL A   1      42.227  32.398  30.157  1.00  0.00     0.031 C 
ATOM     65  C   UNL A   1      44.276  31.862  28.870  1.00  0.00     0.034 A 
BRANCH  52  66
ATOM     66  C   UNL A   1      47.085  27.323  25.749  1.00  0.00     0.023 A 
ATOM     67  C   UNL A   1      48.063  26.520  26.369  1.00  0.00     0.012 A 
ATOM     68  C   UNL A   1      47.235  27.673  24.393  1.00  0.00     0.148 A 
ATOM     69  C   UNL A   1      49.189  26.102  25.662  1.00  0.00     0.002 A 
ATOM     70  C   UNL A   1      48.338  27.215  23.682  1.00  0.00     0.091 A 
ATOM     71  F   UNL A   1      46.309  28.462  23.830  1.00  0.00    -0.205 F 
ATOM     72  C   UNL A   1      49.321  26.440  24.318  1.00  0.00     0.022 A 
BRANCH  70  73
ATOM     73  S   UNL A   1      48.555  27.539  21.929  1.00  0.00     0.127 S 
ATOM     74  O   UNL A   1      48.896  26.211  21.423  1.00  0.00    -0.237 OA
ATOM     75  O   UNL A   1      47.228  28.018  21.537  1.00  0.00    -0.237 OA
ATOM     76  O   UNL A   1      49.609  28.538  21.834  1.00  0.00    -0.744 OA
ENDBRANCH  70  73
ENDBRANCH  52  66
BRANCH  53  77
ATOM     77  C   UNL A   1      38.893  29.896  30.861  1.00  0.00     0.023 A 
ATOM     78  C   UNL A   1      38.736  29.393  32.167  1.00  0.00     0.012 A 
ATOM     79  C   UNL A   1      37.914  30.765  30.339  1.00  0.00     0.148 A 
ATOM     80  C   UNL A   1      37.615  29.728  32.929  1.00  0.00     0.002 A 
ATOM     81  C   UNL A   1      36.831  31.142  31.125  1.00  0.00     0.091 A 
ATOM     82  F   UNL A   1      38.064  31.211  29.084  1.00  0.00    -0.205 F 
ATOM     83  C   UNL A   1      36.670  30.611  32.414  1.00  0.00     0.022 A 
BRANCH  81  84
ATOM     84  S   UNL A   1      35.639  32.375  30.591  1.00  0.00     0.127 S 
ATOM     85  O   UNL A   1      34.527  32.132  31.506  1.00  0.00    -0.237 OA
ATOM     86  O   UNL A   1      36.369  33.622  30.826  1.00  0.00    -0.237 OA
ATOM     87  O   UNL A   1      35.380  32.088  29.187  1.00  0.00    -0.744 OA
ENDBRANCH  81  84
ENDBRANCH  53  77
BRANCH  65  88
ATOM     88  C   UNL A   1      44.790  33.247  29.166  1.00  0.00     0.023 A 
ATOM     89  C   UNL A   1      45.539  33.478  30.336  1.00  0.00     0.012 A 
ATOM     90  C   UNL A   1      44.599  34.298  28.248  1.00  0.00     0.148 A 
ATOM     91  C   UNL A   1      46.066  34.742  30.602  1.00  0.00     0.002 A 
ATOM     92  C   UNL A   1      45.166  35.543  28.497  1.00  0.00     0.091 A 
ATOM     93  F   UNL A   1      43.866  34.064  27.149  1.00  0.00    -0.205 F 
ATOM     94  C   UNL A   1      45.890  35.770  29.678  1.00  0.00     0.022 A 
BRANCH  92  95
ATOM     95  S   UNL A   1      45.067  36.895  27.317  1.00  0.00     0.127 S 
ATOM     96  O   UNL A   1      45.473  38.036  28.137  1.00  0.00    -0.237 OA
ATOM     97  O   UNL A   1      46.043  36.497  26.302  1.00  0.00    -0.237 OA
ATOM     98  O   UNL A   1      43.688  36.916  26.850  1.00  0.00    -0.744 OA
ENDBRANCH  92  95
ENDBRANCH  65  88
ENDBRANCH  39  40
ENDBRANCH  32  34
ENDBRANCH  31  32
ENDBRANCH  30  31
ENDBRANCH  29  30
ENDBRANCH  28  29
ENDBRANCH  27  28
ENDBRANCH   1  27
TORSDOF 23
ENDMDL
MODEL 3
REMARK VINA RESULT:     -10.3      2.090      7.768
REMARK SMILES Cc1ccsc1CNC(=O)N[C@@H]1CCCC[C@H]1C(=O)OCCOCCOCCOC(=O)c1ccc(-c2c3nc(c(-c4cccc(S(=O)(=O)[O-])c4F)c4ccc([nH]4)c(-c4cccc(S(=O)(=O)[O-])c4F)c4nc(c(-c5cccc(S(=O)(=O)[O-])c5F)c5ccc2[nH]5)C=C4)C=C3)cc1
REMARK SMILES IDX 24 1 23 2 22 3 21 4 20 5 18 6 19 7 17 8 12 9 13 10 14 11
REMARK SMILES IDX 16 12 15 13 11 14 8 15 9 16 10 18 7 20 6 21 1 22 2 23 3 24
REMARK SMILES IDX 4 25 5 26 25 27 26 28 27 29 28 30 29 31 30 32 31 33 32 34
REMARK SMILES IDX 33 35 94 36 34 37 93 38 35 39 36 40 37 41 87 42 38 43 92 44
REMARK SMILES IDX 86 45 88 46 39 47 91 48 85 49 84 50 40 52 72 53 52 54 71 55
REMARK SMILES IDX 53 56 56 57 70 58 89 59 54 60 55 61 69 63 90 64 57 65 41 66
REMARK SMILES IDX 42 67 50 68 43 69 45 70 51 71 44 72 46 73 47 74 48 75 49 76
REMARK SMILES IDX 73 77 74 78 82 79 75 80 77 81 83 82 76 83 78 84 79 85 80 86
REMARK SMILES IDX 81 87 58 88 59 89 67 90 60 91 62 92 68 93 61 94 63 95 64 96
REMARK SMILES IDX 65 97 66 98
REMARK H PARENT 8 17 11 19 88 51 56 62
REMARK Flexibility Score: inf
ROOT
ATOM      1  C   UNL A   1      34.199  20.883  25.613  1.00  0.00     0.188 C 
ENDROOT
BRANCH   1   2
ATOM      2  O   UNL A   1      33.582  20.292  24.479  1.00  0.00    -0.376 OA
BRANCH   2   3
ATOM      3  C   UNL A   1      32.292  20.773  24.106  1.00  0.00     0.202 C 
BRANCH   3   4
ATOM      4  C   UNL A   1      32.217  21.950  23.120  1.00  0.00     0.261 C 
BRANCH   4   5
ATOM      5  O   UNL A   1      33.184  23.025  23.304  1.00  0.00    -0.463 OA
BRANCH   5   6
ATOM      6  C   UNL A   1      33.085  24.030  22.396  1.00  0.00     0.311 C 
ATOM      7  O   UNL A   1      33.313  23.859  21.197  1.00  0.00    -0.252 OA
BRANCH   6   8
ATOM      8  C   UNL A   1      32.735  25.440  22.908  1.00  0.00     0.121 C 
ATOM      9  C   UNL A   1      32.695  25.789  24.412  1.00  0.00     0.098 C 
ATOM     10  C   UNL A   1      33.024  27.246  24.809  1.00  0.00     0.026 C 
ATOM     11  C   UNL A   1      34.053  27.942  23.950  1.00  0.00     0.002 C 
ATOM     12  C   UNL A   1      33.670  26.359  22.089  1.00  0.00     0.017 C 
ATOM     13  C   UNL A   1      33.669  27.819  22.494  1.00  0.00     0.001 C 
BRANCH   9  14
ATOM     14  N   UNL A   1      31.445  25.500  25.147  1.00  0.00    -0.335 N 
ATOM     15  N   UNL A   1      29.491  26.518  24.233  1.00  0.00    -0.333 N 
ATOM     16  C   UNL A   1      30.180  25.920  25.199  1.00  0.00     0.315 C 
ATOM     17  H   UNL A   1      28.539  26.269  24.231  1.00  0.00     0.165 HD
ATOM     18  O   UNL A   1      29.577  25.675  26.247  1.00  0.00    -0.249 OA
ATOM     19  H   UNL A   1      31.591  24.776  25.797  1.00  0.00     0.165 HD
BRANCH  15  20
ATOM     20  C   UNL A   1      29.829  27.449  23.190  1.00  0.00     0.164 C 
BRANCH  20  21
ATOM     21  C   UNL A   1      29.177  28.801  23.303  1.00  0.00     0.027 A 
ATOM     22  C   UNL A   1      31.064  29.998  24.570  1.00  0.00     0.045 C 
ATOM     23  C   UNL A   1      29.754  29.943  23.852  1.00  0.00    -0.035 A 
ATOM     24  C   UNL A   1      28.942  31.101  23.622  1.00  0.00     0.015 A 
ATOM     25  C   UNL A   1      27.764  30.802  22.979  1.00  0.00     0.065 A 
ATOM     26  S   UNL A   1      27.597  29.127  22.708  1.00  0.00    -0.147 S 
ENDBRANCH  20  21
ENDBRANCH  15  20
ENDBRANCH   9  14
ENDBRANCH   6   8
ENDBRANCH   5   6
ENDBRANCH   4   5
ENDBRANCH   3   4
ENDBRANCH   2   3
ENDBRANCH   1   2
BRANCH   1  27
ATOM     27  C   UNL A   1      35.682  21.253  25.494  1.00  0.00     0.188 C 
BRANCH  27  28
ATOM     28  O   UNL A   1      36.506  20.213  24.997  1.00  0.00    -0.376 OA
BRANCH  28  29
ATOM     29  C   UNL A   1      37.889  20.499  24.838  1.00  0.00     0.202 C 
BRANCH  29  30
ATOM     30  C   UNL A   1      38.832  19.399  25.354  1.00  0.00     0.261 C 
BRANCH  30  31
ATOM     31  O   UNL A   1      39.537  19.734  26.563  1.00  0.00    -0.460 OA
BRANCH  31  32
ATOM     32  C   UNL A   1      40.832  20.098  26.402  1.00  0.00     0.338 C 
ATOM     33  O   UNL A   1      41.687  19.490  25.786  1.00  0.00    -0.246 OA
BRANCH  32  34
ATOM     34  C   UNL A   1      40.981  21.481  26.897  1.00  0.00     0.060 A 
ATOM     35  C   UNL A   1      40.402  22.502  26.141  1.00  0.00     0.016 A 
ATOM     36  C   UNL A   1      41.689  21.787  28.052  1.00  0.00     0.016 A 
ATOM     37  C   UNL A   1      40.555  23.837  26.497  1.00  0.00     0.010 A 
ATOM     38  C   UNL A   1      41.856  23.131  28.412  1.00  0.00     0.010 A 
ATOM     39  C   UNL A   1      41.323  24.165  27.616  1.00  0.00    -0.014 A 
BRANCH  39  40
ATOM     40  C   UNL A   1      41.742  25.576  27.815  1.00  0.00     0.031 A 
ATOM     41  C   UNL A   1      43.096  25.990  27.305  1.00  0.00     0.074 A 
ATOM     42  C   UNL A   1      40.931  26.491  28.376  1.00  0.00     0.049 A 
ATOM     43  N   UNL A   1      43.741  27.113  27.477  1.00  0.00    -0.248 NA
ATOM     44  C   UNL A   1      43.819  24.997  26.493  1.00  0.00     0.031 C 
ATOM     45  C   UNL A   1      39.565  26.247  28.835  1.00  0.00     0.029 A 
ATOM     46  N   UNL A   1      41.153  27.815  28.668  1.00  0.00    -0.354 N 
ATOM     47  C   UNL A   1      44.969  26.939  26.847  1.00  0.00     0.074 A 
ATOM     48  C   UNL A   1      44.976  25.607  26.286  1.00  0.00     0.031 C 
ATOM     49  C   UNL A   1      39.079  27.377  29.377  1.00  0.00     0.029 A 
ATOM     50  C   UNL A   1      40.116  28.408  29.349  1.00  0.00     0.049 A 
ATOM     51  H   UNL A   1      41.976  28.292  28.416  1.00  0.00     0.167 HD
ATOM     52  C   UNL A   1      45.996  27.814  26.737  1.00  0.00     0.034 A 
ATOM     53  C   UNL A   1      40.030  29.628  29.919  1.00  0.00     0.034 A 
ATOM     54  C   UNL A   1      45.969  29.157  27.247  1.00  0.00     0.049 A 
ATOM     55  C   UNL A   1      41.198  30.576  29.812  1.00  0.00     0.074 A 
ATOM     56  C   UNL A   1      46.959  30.121  27.186  1.00  0.00     0.029 A 
ATOM     57  N   UNL A   1      44.891  29.729  27.904  1.00  0.00    -0.354 N 
ATOM     58  N   UNL A   1      42.344  30.412  29.195  1.00  0.00    -0.248 NA
ATOM     59  C   UNL A   1      41.054  31.889  30.462  1.00  0.00     0.031 C 
ATOM     60  C   UNL A   1      46.481  31.275  27.816  1.00  0.00     0.029 A 
ATOM     61  C   UNL A   1      45.187  31.035  28.252  1.00  0.00     0.049 A 
ATOM     62  H   UNL A   1      44.039  29.273  28.096  1.00  0.00     0.167 HD
ATOM     63  C   UNL A   1      43.045  31.603  29.361  1.00  0.00     0.074 A 
ATOM     64  C   UNL A   1      42.182  32.491  30.113  1.00  0.00     0.031 C 
ATOM     65  C   UNL A   1      44.295  31.927  28.947  1.00  0.00     0.034 A 
BRANCH  52  66
ATOM     66  C   UNL A   1      47.234  27.337  26.028  1.00  0.00     0.023 A 
ATOM     67  C   UNL A   1      47.377  27.549  24.642  1.00  0.00     0.012 A 
ATOM     68  C   UNL A   1      48.264  26.692  26.740  1.00  0.00     0.148 A 
ATOM     69  C   UNL A   1      48.511  27.095  23.969  1.00  0.00     0.002 A 
ATOM     70  C   UNL A   1      49.411  26.283  26.069  1.00  0.00     0.091 A 
ATOM     71  F   UNL A   1      48.096  26.473  28.051  1.00  0.00    -0.205 F 
ATOM     72  C   UNL A   1      49.530  26.472  24.683  1.00  0.00     0.022 A 
BRANCH  70  73
ATOM     73  S   UNL A   1      50.808  25.538  26.919  1.00  0.00     0.127 S 
ATOM     74  O   UNL A   1      51.188  26.600  27.849  1.00  0.00    -0.237 OA
ATOM     75  O   UNL A   1      50.197  24.367  27.549  1.00  0.00    -0.237 OA
ATOM     76  O   UNL A   1      51.785  25.228  25.887  1.00  0.00    -0.744 OA
ENDBRANCH  70  73
ENDBRANCH  52  66
BRANCH  53  77
ATOM     77  C   UNL A   1      38.791  30.024  30.648  1.00  0.00     0.023 A 
ATOM     78  C   UNL A   1      38.534  29.499  31.929  1.00  0.00     0.012 A 
ATOM     79  C   UNL A   1      37.872  30.931  30.083  1.00  0.00     0.148 A 
ATOM     80  C   UNL A   1      37.375  29.850  32.623  1.00  0.00     0.002 A 
ATOM     81  C   UNL A   1      36.750  31.323  30.804  1.00  0.00     0.091 A 
ATOM     82  F   UNL A   1      38.117  31.399  28.851  1.00  0.00    -0.205 F 
ATOM     83  C   UNL A   1      36.489  30.770  32.067  1.00  0.00     0.022 A 
BRANCH  81  84
ATOM     84  S   UNL A   1      35.630  32.600  30.221  1.00  0.00     0.127 S 
ATOM     85  O   UNL A   1      35.472  32.240  28.815  1.00  0.00    -0.237 OA
ATOM     86  O   UNL A   1      34.448  32.368  31.053  1.00  0.00    -0.237 OA
ATOM     87  O   UNL A   1      36.307  33.863  30.481  1.00  0.00    -0.744 OA
ENDBRANCH  81  84
ENDBRANCH  53  77
BRANCH  65  88
ATOM     88  C   UNL A   1      44.803  33.310  29.261  1.00  0.00     0.023 A 
ATOM     89  C   UNL A   1      44.577  34.361  28.352  1.00  0.00     0.012 A 
ATOM     90  C   UNL A   1      45.434  33.584  30.492  1.00  0.00     0.148 A 
ATOM     91  C   UNL A   1      44.995  35.658  28.649  1.00  0.00     0.002 A 
ATOM     92  C   UNL A   1      45.807  34.887  30.800  1.00  0.00     0.091 A 
ATOM     93  F   UNL A   1      45.658  32.567  31.337  1.00  0.00    -0.205 F 
ATOM     94  C   UNL A   1      45.599  35.922  29.876  1.00  0.00     0.022 A 
BRANCH  92  95
ATOM     95  S   UNL A   1      46.504  35.332  32.396  1.00  0.00     0.127 S 
ATOM     96  O   UNL A   1      45.413  34.986  33.305  1.00  0.00    -0.237 OA
ATOM     97  O   UNL A   1      47.672  34.454  32.483  1.00  0.00    -0.237 OA
ATOM     98  O   UNL A   1      46.823  36.751  32.309  1.00  0.00    -0.744 OA
ENDBRANCH  92  95
ENDBRANCH  65  88
ENDBRANCH  39  40
ENDBRANCH  32  34
ENDBRANCH  31  32
ENDBRANCH  30  31
ENDBRANCH  29  30
ENDBRANCH  28  29
ENDBRANCH  27  28
ENDBRANCH   1  27
TORSDOF 23
ENDMDL
