MODEL 1
REMARK VINA RESULT:      -7.9      0.000      0.000
REMARK SMILES C/C(=N\Nc1ccncc1[N+](=O)[O-])C(=O)OCCOCCOCCOC(=O)c1ccc(-c2c3nc(c(-c4cccc(S(=O)(=O)[O-])c4F)c4ccc([nH]4)c(-c4cccc(S(=O)(=O)[O-])c4F)c4nc(c(-c5cccc(S(=O)(=O)[O-])c5F)c5ccc2[nH]5)C=C4)C=C3)cc1
REMARK SMILES IDX 20 1 19 2 18 3 17 4 16 5 14 6 15 7 2 8 1 9 3 10 4 11 5 13
REMARK SMILES IDX 6 14 10 15 7 16 9 17 8 18 11 19 12 20 13 21 21 22 22 23
REMARK SMILES IDX 23 24 24 25 25 26 26 27 27 28 28 29 29 30 90 31 30 32 89 33
REMARK SMILES IDX 31 34 32 35 33 36 83 37 34 38 88 39 82 40 84 41 35 42 87 43
REMARK SMILES IDX 81 44 80 45 36 47 68 48 48 49 67 50 49 51 52 52 66 53 85 54
REMARK SMILES IDX 50 55 51 56 65 58 86 59 53 60 37 61 38 62 46 63 39 64 41 65
REMARK SMILES IDX 47 66 40 67 42 68 43 69 44 70 45 71 69 72 70 73 78 74 71 75
REMARK SMILES IDX 73 76 79 77 72 78 74 79 75 80 76 81 77 82 54 83 55 84 63 85
REMARK SMILES IDX 56 86 58 87 64 88 57 89 59 90 60 91 61 92 62 93
REMARK H PARENT 4 12 84 46 52 57
REMARK Flexibility Score: inf
ROOT
ATOM      1  C   UNL A   1      34.941  34.522  34.030  1.00  0.00     0.188 C 
ENDROOT
BRANCH   1   2
ATOM      2  O   UNL A   1      35.169  35.846  33.599  1.00  0.00    -0.376 OA
BRANCH   2   3
ATOM      3  C   UNL A   1      34.113  36.792  33.552  1.00  0.00     0.202 C 
BRANCH   3   4
ATOM      4  C   UNL A   1      33.984  37.921  32.510  1.00  0.00     0.261 C 
BRANCH   4   5
ATOM      5  O   UNL A   1      33.067  37.675  31.448  1.00  0.00    -0.459 OA
BRANCH   5   6
ATOM      6  C   UNL A   1      32.456  36.474  31.436  1.00  0.00     0.354 C 
ATOM      7  O   UNL A   1      31.469  36.120  32.058  1.00  0.00    -0.245 OA
BRANCH   6   8
ATOM      8  C   UNL A   1      33.078  35.613  30.341  1.00  0.00     0.142 C 
ATOM      9  C   UNL A   1      33.284  36.339  29.045  1.00  0.00     0.077 C 
ATOM     10  N   UNL A   1      33.406  34.401  30.678  1.00  0.00    -0.173 NA
BRANCH  10  11
ATOM     11  N   UNL A   1      34.046  33.469  29.922  1.00  0.00    -0.271 N 
ATOM     12  H   UNL A   1      33.477  32.903  29.353  1.00  0.00     0.190 HD
BRANCH  11  13
ATOM     13  C   UNL A   1      35.429  33.223  29.862  1.00  0.00     0.137 A 
ATOM     14  C   UNL A   1      36.290  33.948  30.696  1.00  0.00     0.055 A 
ATOM     15  C   UNL A   1      36.002  32.264  29.019  1.00  0.00     0.312 A 
ATOM     16  C   UNL A   1      37.659  33.748  30.596  1.00  0.00     0.113 A 
ATOM     17  C   UNL A   1      37.384  32.134  28.974  1.00  0.00     0.198 A 
ATOM     18  N   UNL A   1      38.222  32.868  29.743  1.00  0.00    -0.257 NA
BRANCH  15  19
ATOM     19  N   UNL A   1      35.200  31.348  28.229  1.00  0.00     0.066 N 
ATOM     20  O   UNL A   1      35.422  30.135  28.352  1.00  0.00    -0.258 OA
ATOM     21  O   UNL A   1      34.298  31.826  27.524  1.00  0.00    -0.258 OA
ENDBRANCH  15  19
ENDBRANCH  11  13
ENDBRANCH  10  11
ENDBRANCH   6   8
ENDBRANCH   5   6
ENDBRANCH   4   5
ENDBRANCH   3   4
ENDBRANCH   2   3
ENDBRANCH   1   2
BRANCH   1  22
ATOM     22  C   UNL A   1      36.098  33.773  34.723  1.00  0.00     0.188 C 
BRANCH  22  23
ATOM     23  O   UNL A   1      35.979  33.413  36.081  1.00  0.00    -0.376 OA
BRANCH  23  24
ATOM     24  C   UNL A   1      37.067  33.587  36.970  1.00  0.00     0.202 C 
BRANCH  24  25
ATOM     25  C   UNL A   1      38.463  34.114  36.580  1.00  0.00     0.261 C 
BRANCH  25  26
ATOM     26  O   UNL A   1      38.538  35.342  35.855  1.00  0.00    -0.460 OA
BRANCH  26  27
ATOM     27  C   UNL A   1      39.788  35.737  35.508  1.00  0.00     0.338 C 
ATOM     28  O   UNL A   1      40.359  36.762  35.844  1.00  0.00    -0.246 OA
BRANCH  27  29
ATOM     29  C   UNL A   1      40.456  34.636  34.793  1.00  0.00     0.060 A 
ATOM     30  C   UNL A   1      41.812  34.390  35.054  1.00  0.00     0.016 A 
ATOM     31  C   UNL A   1      39.763  33.881  33.848  1.00  0.00     0.016 A 
ATOM     32  C   UNL A   1      42.485  33.390  34.355  1.00  0.00     0.010 A 
ATOM     33  C   UNL A   1      40.447  32.895  33.131  1.00  0.00     0.010 A 
ATOM     34  C   UNL A   1      41.815  32.663  33.362  1.00  0.00    -0.014 A 
BRANCH  34  35
ATOM     35  C   UNL A   1      42.579  31.772  32.457  1.00  0.00     0.031 A 
ATOM     36  C   UNL A   1      42.908  30.381  32.924  1.00  0.00     0.074 A 
ATOM     37  C   UNL A   1      42.984  32.195  31.247  1.00  0.00     0.049 A 
ATOM     38  N   UNL A   1      43.617  29.456  32.332  1.00  0.00    -0.248 NA
ATOM     39  C   UNL A   1      42.368  29.982  34.234  1.00  0.00     0.031 C 
ATOM     40  C   UNL A   1      42.717  33.515  30.679  1.00  0.00     0.029 A 
ATOM     41  N   UNL A   1      43.740  31.562  30.291  1.00  0.00    -0.354 N 
ATOM     42  C   UNL A   1      43.640  28.379  33.210  1.00  0.00     0.074 A 
ATOM     43  C   UNL A   1      42.878  28.767  34.377  1.00  0.00     0.031 C 
ATOM     44  C   UNL A   1      43.331  33.607  29.486  1.00  0.00     0.029 A 
ATOM     45  C   UNL A   1      44.059  32.368  29.224  1.00  0.00     0.049 A 
ATOM     46  H   UNL A   1      44.026  30.624  30.364  1.00  0.00     0.167 HD
ATOM     47  C   UNL A   1      44.236  27.173  33.057  1.00  0.00     0.034 A 
ATOM     48  C   UNL A   1      44.874  32.140  28.172  1.00  0.00     0.034 A 
ATOM     49  C   UNL A   1      44.987  26.788  31.894  1.00  0.00     0.049 A 
ATOM     50  C   UNL A   1      45.558  30.802  28.044  1.00  0.00     0.074 A 
ATOM     51  C   UNL A   1      45.590  25.572  31.625  1.00  0.00     0.029 A 
ATOM     52  N   UNL A   1      45.258  27.615  30.815  1.00  0.00    -0.354 N 
ATOM     53  N   UNL A   1      45.480  29.754  28.828  1.00  0.00    -0.248 NA
ATOM     54  C   UNL A   1      46.420  30.605  26.868  1.00  0.00     0.031 C 
ATOM     55  C   UNL A   1      46.259  25.676  30.402  1.00  0.00     0.029 A 
ATOM     56  C   UNL A   1      46.033  26.943  29.886  1.00  0.00     0.049 A 
ATOM     57  H   UNL A   1      44.945  28.543  30.723  1.00  0.00     0.167 HD
ATOM     58  C   UNL A   1      46.246  28.764  28.221  1.00  0.00     0.074 A 
ATOM     59  C   UNL A   1      46.766  29.332  26.995  1.00  0.00     0.031 C 
ATOM     60  C   UNL A   1      46.502  27.501  28.644  1.00  0.00     0.034 A 
BRANCH  47  61
ATOM     61  C   UNL A   1      44.095  26.177  34.177  1.00  0.00     0.023 A 
ATOM     62  C   UNL A   1      43.064  25.215  34.136  1.00  0.00     0.012 A 
ATOM     63  C   UNL A   1      45.019  26.156  35.240  1.00  0.00     0.148 A 
ATOM     64  C   UNL A   1      42.934  24.272  35.155  1.00  0.00     0.002 A 
ATOM     65  C   UNL A   1      44.912  25.183  36.226  1.00  0.00     0.091 A 
ATOM     66  F   UNL A   1      45.978  27.092  35.271  1.00  0.00    -0.205 F 
ATOM     67  C   UNL A   1      43.863  24.249  36.192  1.00  0.00     0.022 A 
BRANCH  65  68
ATOM     68  S   UNL A   1      46.104  25.018  37.558  1.00  0.00     0.127 S 
ATOM     69  O   UNL A   1      45.266  24.504  38.642  1.00  0.00    -0.237 OA
ATOM     70  O   UNL A   1      47.048  24.048  37.005  1.00  0.00    -0.237 OA
ATOM     71  O   UNL A   1      46.654  26.349  37.774  1.00  0.00    -0.744 OA
ENDBRANCH  65  68
ENDBRANCH  47  61
BRANCH  48  72
ATOM     72  C   UNL A   1      45.083  33.199  27.145  1.00  0.00     0.023 A 
ATOM     73  C   UNL A   1      44.285  33.213  25.985  1.00  0.00     0.012 A 
ATOM     74  C   UNL A   1      46.069  34.191  27.311  1.00  0.00     0.148 A 
ATOM     75  C   UNL A   1      44.489  34.172  24.993  1.00  0.00     0.002 A 
ATOM     76  C   UNL A   1      46.229  35.178  26.346  1.00  0.00     0.091 A 
ATOM     77  F   UNL A   1      46.829  34.152  28.415  1.00  0.00    -0.205 F 
ATOM     78  C   UNL A   1      45.453  35.160  25.177  1.00  0.00     0.022 A 
BRANCH  76  79
ATOM     79  S   UNL A   1      47.357  36.559  26.557  1.00  0.00     0.127 S 
ATOM     80  O   UNL A   1      46.908  37.121  27.829  1.00  0.00    -0.237 OA
ATOM     81  O   UNL A   1      48.653  35.882  26.604  1.00  0.00    -0.237 OA
ATOM     82  O   UNL A   1      47.164  37.408  25.389  1.00  0.00    -0.744 OA
ENDBRANCH  76  79
ENDBRANCH  48  72
BRANCH  60  83
ATOM     83  C   UNL A   1      47.341  26.616  27.757  1.00  0.00     0.023 A 
ATOM     84  C   UNL A   1      46.726  25.788  26.795  1.00  0.00     0.012 A 
ATOM     85  C   UNL A   1      48.748  26.666  27.824  1.00  0.00     0.148 A 
ATOM     86  C   UNL A   1      47.498  25.000  25.941  1.00  0.00     0.002 A 
ATOM     87  C   UNL A   1      49.510  25.920  26.934  1.00  0.00     0.091 A 
ATOM     88  F   UNL A   1      49.315  27.449  28.754  1.00  0.00    -0.205 F 
ATOM     89  C   UNL A   1      48.887  25.075  26.001  1.00  0.00     0.022 A 
BRANCH  87  90
ATOM     90  S   UNL A   1      51.303  26.030  26.870  1.00  0.00     0.127 S 
ATOM     91  O   UNL A   1      51.655  25.961  28.287  1.00  0.00    -0.237 OA
ATOM     92  O   UNL A   1      51.657  24.841  26.094  1.00  0.00    -0.237 OA
ATOM     93  O   UNL A   1      51.607  27.294  26.214  1.00  0.00    -0.744 OA
ENDBRANCH  87  90
ENDBRANCH  60  83
ENDBRANCH  34  35
ENDBRANCH  27  29
ENDBRANCH  26  27
ENDBRANCH  25  26
ENDBRANCH  24  25
ENDBRANCH  23  24
ENDBRANCH  22  23
ENDBRANCH   1  22
TORSDOF 23
ENDMDL
MODEL 2
REMARK VINA RESULT:      -7.9      2.193      3.585
REMARK SMILES C/C(=N\Nc1ccncc1[N+](=O)[O-])C(=O)OCCOCCOCCOC(=O)c1ccc(-c2c3nc(c(-c4cccc(S(=O)(=O)[O-])c4F)c4ccc([nH]4)c(-c4cccc(S(=O)(=O)[O-])c4F)c4nc(c(-c5cccc(S(=O)(=O)[O-])c5F)c5ccc2[nH]5)C=C4)C=C3)cc1
REMARK SMILES IDX 20 1 19 2 18 3 17 4 16 5 14 6 15 7 2 8 1 9 3 10 4 11 5 13
REMARK SMILES IDX 6 14 10 15 7 16 9 17 8 18 11 19 12 20 13 21 21 22 22 23
REMARK SMILES IDX 23 24 24 25 25 26 26 27 27 28 28 29 29 30 90 31 30 32 89 33
REMARK SMILES IDX 31 34 32 35 33 36 83 37 34 38 88 39 82 40 84 41 35 42 87 43
REMARK SMILES IDX 81 44 80 45 36 47 68 48 48 49 67 50 49 51 52 52 66 53 85 54
REMARK SMILES IDX 50 55 51 56 65 58 86 59 53 60 37 61 38 62 46 63 39 64 41 65
REMARK SMILES IDX 47 66 40 67 42 68 43 69 44 70 45 71 69 72 70 73 78 74 71 75
REMARK SMILES IDX 73 76 79 77 72 78 74 79 75 80 76 81 77 82 54 83 55 84 63 85
REMARK SMILES IDX 56 86 58 87 64 88 57 89 59 90 60 91 61 92 62 93
REMARK H PARENT 4 12 84 46 52 57
REMARK Flexibility Score: inf
ROOT
ATOM      1  C   UNL A   1      39.169  34.227  33.634  1.00  0.00     0.188 C 
ENDROOT
BRANCH   1   2
ATOM      2  O   UNL A   1      39.733  33.802  32.412  1.00  0.00    -0.376 OA
BRANCH   2   3
ATOM      3  C   UNL A   1      39.238  32.658  31.737  1.00  0.00     0.202 C 
BRANCH   3   4
ATOM      4  C   UNL A   1      38.582  31.442  32.423  1.00  0.00     0.261 C 
BRANCH   4   5
ATOM      5  O   UNL A   1      37.169  31.520  32.592  1.00  0.00    -0.459 OA
BRANCH   5   6
ATOM      6  C   UNL A   1      36.408  31.048  31.585  1.00  0.00     0.354 C 
ATOM      7  O   UNL A   1      36.163  29.889  31.300  1.00  0.00    -0.245 OA
BRANCH   6   8
ATOM      8  C   UNL A   1      35.694  32.218  30.915  1.00  0.00     0.142 C 
ATOM      9  C   UNL A   1      36.227  32.555  29.554  1.00  0.00     0.077 C 
ATOM     10  N   UNL A   1      34.690  32.728  31.565  1.00  0.00    -0.173 NA
BRANCH  10  11
ATOM     11  N   UNL A   1      33.843  33.710  31.156  1.00  0.00    -0.271 N 
ATOM     12  H   UNL A   1      33.201  33.469  30.451  1.00  0.00     0.190 HD
BRANCH  11  13
ATOM     13  C   UNL A   1      33.782  35.033  31.628  1.00  0.00     0.137 A 
ATOM     14  C   UNL A   1      34.112  35.301  32.963  1.00  0.00     0.055 A 
ATOM     15  C   UNL A   1      33.427  36.121  30.820  1.00  0.00     0.312 A 
ATOM     16  C   UNL A   1      33.995  36.597  33.444  1.00  0.00     0.113 A 
ATOM     17  C   UNL A   1      33.326  37.385  31.385  1.00  0.00     0.198 A 
ATOM     18  N   UNL A   1      33.596  37.638  32.686  1.00  0.00    -0.257 NA
BRANCH  15  19
ATOM     19  N   UNL A   1      33.219  35.988  29.390  1.00  0.00     0.066 N 
ATOM     20  O   UNL A   1      32.085  36.226  28.949  1.00  0.00    -0.258 OA
ATOM     21  O   UNL A   1      34.200  35.706  28.684  1.00  0.00    -0.258 OA
ENDBRANCH  15  19
ENDBRANCH  11  13
ENDBRANCH  10  11
ENDBRANCH   6   8
ENDBRANCH   5   6
ENDBRANCH   4   5
ENDBRANCH   3   4
ENDBRANCH   2   3
ENDBRANCH   1   2
BRANCH   1  22
ATOM     22  C   UNL A   1      39.998  35.171  34.529  1.00  0.00     0.188 C 
BRANCH  22  23
ATOM     23  O   UNL A   1      39.369  35.850  35.593  1.00  0.00    -0.376 OA
BRANCH  23  24
ATOM     24  C   UNL A   1      40.106  36.225  36.743  1.00  0.00     0.202 C 
BRANCH  24  25
ATOM     25  C   UNL A   1      39.805  35.767  38.184  1.00  0.00     0.261 C 
BRANCH  25  26
ATOM     26  O   UNL A   1      40.622  34.738  38.746  1.00  0.00    -0.460 OA
BRANCH  26  27
ATOM     27  C   UNL A   1      40.092  33.491  38.713  1.00  0.00     0.338 C 
ATOM     28  O   UNL A   1      39.110  33.088  39.315  1.00  0.00    -0.246 OA
BRANCH  27  29
ATOM     29  C   UNL A   1      40.780  32.707  37.671  1.00  0.00     0.060 A 
ATOM     30  C   UNL A   1      42.179  32.624  37.707  1.00  0.00     0.016 A 
ATOM     31  C   UNL A   1      40.055  32.095  36.650  1.00  0.00     0.016 A 
ATOM     32  C   UNL A   1      42.862  31.935  36.706  1.00  0.00     0.010 A 
ATOM     33  C   UNL A   1      40.743  31.425  35.635  1.00  0.00     0.010 A 
ATOM     34  C   UNL A   1      42.149  31.365  35.644  1.00  0.00    -0.014 A 
BRANCH  34  35
ATOM     35  C   UNL A   1      42.875  30.842  34.463  1.00  0.00     0.031 A 
ATOM     36  C   UNL A   1      43.311  29.403  34.463  1.00  0.00     0.074 A 
ATOM     37  C   UNL A   1      43.155  31.635  33.414  1.00  0.00     0.049 A 
ATOM     38  N   UNL A   1      44.012  28.750  33.573  1.00  0.00    -0.248 NA
ATOM     39  C   UNL A   1      42.904  28.593  35.623  1.00  0.00     0.031 C 
ATOM     40  C   UNL A   1      42.777  33.041  33.292  1.00  0.00     0.029 A 
ATOM     41  N   UNL A   1      43.858  31.373  32.264  1.00  0.00    -0.354 N 
ATOM     42  C   UNL A   1      44.162  27.465  34.080  1.00  0.00     0.074 A 
ATOM     43  C   UNL A   1      43.483  27.431  35.357  1.00  0.00     0.031 C 
ATOM     44  C   UNL A   1      43.282  33.530  32.146  1.00  0.00     0.029 A 
ATOM     45  C   UNL A   1      44.045  32.481  31.472  1.00  0.00     0.049 A 
ATOM     46  H   UNL A   1      44.194  30.479  32.029  1.00  0.00     0.167 HD
ATOM     47  C   UNL A   1      44.801  26.406  33.529  1.00  0.00     0.034 A 
ATOM     48  C   UNL A   1      44.778  32.637  30.349  1.00  0.00     0.034 A 
ATOM     49  C   UNL A   1      45.469  26.441  32.257  1.00  0.00     0.049 A 
ATOM     50  C   UNL A   1      45.513  31.452  29.777  1.00  0.00     0.074 A 
ATOM     51  C   UNL A   1      46.106  25.408  31.593  1.00  0.00     0.029 A 
ATOM     52  N   UNL A   1      45.606  27.570  31.465  1.00  0.00    -0.354 N 
ATOM     53  N   UNL A   1      45.554  30.215  30.209  1.00  0.00    -0.248 NA
ATOM     54  C   UNL A   1      46.281  31.678  28.543  1.00  0.00     0.031 C 
ATOM     55  C   UNL A   1      46.663  25.921  30.418  1.00  0.00     0.029 A 
ATOM     56  C   UNL A   1      46.332  27.264  30.326  1.00  0.00     0.049 A 
ATOM     57  H   UNL A   1      45.241  28.458  31.679  1.00  0.00     0.167 HD
ATOM     58  C   UNL A   1      46.313  29.509  29.281  1.00  0.00     0.074 A 
ATOM     59  C   UNL A   1      46.699  30.454  28.254  1.00  0.00     0.031 C 
ATOM     60  C   UNL A   1      46.666  28.200  29.283  1.00  0.00     0.034 A 
BRANCH  47  61
ATOM     61  C   UNL A   1      44.805  25.114  34.301  1.00  0.00     0.023 A 
ATOM     62  C   UNL A   1      43.774  24.172  34.100  1.00  0.00     0.012 A 
ATOM     63  C   UNL A   1      45.861  24.806  35.182  1.00  0.00     0.148 A 
ATOM     64  C   UNL A   1      43.776  22.961  34.791  1.00  0.00     0.002 A 
ATOM     65  C   UNL A   1      45.880  23.577  35.830  1.00  0.00     0.091 A 
ATOM     66  F   UNL A   1      46.819  25.724  35.375  1.00  0.00    -0.205 F 
ATOM     67  C   UNL A   1      44.833  22.659  35.646  1.00  0.00     0.022 A 
BRANCH  65  68
ATOM     68  S   UNL A   1      47.236  23.061  36.887  1.00  0.00     0.127 S 
ATOM     69  O   UNL A   1      46.916  21.651  37.109  1.00  0.00    -0.237 OA
ATOM     70  O   UNL A   1      48.398  23.295  36.029  1.00  0.00    -0.237 OA
ATOM     71  O   UNL A   1      47.172  23.908  38.069  1.00  0.00    -0.744 OA
ENDBRANCH  65  68
ENDBRANCH  47  61
BRANCH  48  72
ATOM     72  C   UNL A   1      44.847  33.967  29.681  1.00  0.00     0.023 A 
ATOM     73  C   UNL A   1      45.930  34.827  29.947  1.00  0.00     0.012 A 
ATOM     74  C   UNL A   1      43.844  34.384  28.783  1.00  0.00     0.148 A 
ATOM     75  C   UNL A   1      45.994  36.092  29.362  1.00  0.00     0.002 A 
ATOM     76  C   UNL A   1      43.944  35.622  28.160  1.00  0.00     0.091 A 
ATOM     77  F   UNL A   1      42.814  33.558  28.554  1.00  0.00    -0.205 F 
ATOM     78  C   UNL A   1      45.008  36.486  28.462  1.00  0.00     0.022 A 
BRANCH  76  79
ATOM     79  S   UNL A   1      42.789  36.160  26.894  1.00  0.00     0.127 S 
ATOM     80  O   UNL A   1      41.514  36.092  27.604  1.00  0.00    -0.237 OA
ATOM     81  O   UNL A   1      43.267  37.514  26.610  1.00  0.00    -0.237 OA
ATOM     82  O   UNL A   1      42.948  35.222  25.791  1.00  0.00    -0.744 OA
ENDBRANCH  76  79
ENDBRANCH  48  72
BRANCH  60  83
ATOM     83  C   UNL A   1      47.468  27.683  28.116  1.00  0.00     0.023 A 
ATOM     84  C   UNL A   1      46.819  27.272  26.935  1.00  0.00     0.012 A 
ATOM     85  C   UNL A   1      48.878  27.681  28.165  1.00  0.00     0.148 A 
ATOM     86  C   UNL A   1      47.558  26.835  25.835  1.00  0.00     0.002 A 
ATOM     87  C   UNL A   1      49.607  27.296  27.047  1.00  0.00     0.091 A 
ATOM     88  F   UNL A   1      49.478  28.062  29.302  1.00  0.00    -0.205 F 
ATOM     89  C   UNL A   1      48.950  26.859  25.886  1.00  0.00     0.022 A 
BRANCH  87  90
ATOM     90  S   UNL A   1      51.401  27.390  26.985  1.00  0.00     0.127 S 
ATOM     91  O   UNL A   1      51.649  28.702  27.581  1.00  0.00    -0.237 OA
ATOM     92  O   UNL A   1      51.798  26.256  27.820  1.00  0.00    -0.237 OA
ATOM     93  O   UNL A   1      51.765  27.265  25.581  1.00  0.00    -0.744 OA
ENDBRANCH  87  90
ENDBRANCH  60  83
ENDBRANCH  34  35
ENDBRANCH  27  29
ENDBRANCH  26  27
ENDBRANCH  25  26
ENDBRANCH  24  25
ENDBRANCH  23  24
ENDBRANCH  22  23
ENDBRANCH   1  22
TORSDOF 23
ENDMDL
MODEL 3
REMARK VINA RESULT:      -7.7      6.464     10.018
REMARK SMILES C/C(=N\Nc1ccncc1[N+](=O)[O-])C(=O)OCCOCCOCCOC(=O)c1ccc(-c2c3nc(c(-c4cccc(S(=O)(=O)[O-])c4F)c4ccc([nH]4)c(-c4cccc(S(=O)(=O)[O-])c4F)c4nc(c(-c5cccc(S(=O)(=O)[O-])c5F)c5ccc2[nH]5)C=C4)C=C3)cc1
REMARK SMILES IDX 20 1 19 2 18 3 17 4 16 5 14 6 15 7 2 8 1 9 3 10 4 11 5 13
REMARK SMILES IDX 6 14 10 15 7 16 9 17 8 18 11 19 12 20 13 21 21 22 22 23
REMARK SMILES IDX 23 24 24 25 25 26 26 27 27 28 28 29 29 30 90 31 30 32 89 33
REMARK SMILES IDX 31 34 32 35 33 36 83 37 34 38 88 39 82 40 84 41 35 42 87 43
REMARK SMILES IDX 81 44 80 45 36 47 68 48 48 49 67 50 49 51 52 52 66 53 85 54
REMARK SMILES IDX 50 55 51 56 65 58 86 59 53 60 37 61 38 62 46 63 39 64 41 65
REMARK SMILES IDX 47 66 40 67 42 68 43 69 44 70 45 71 69 72 70 73 78 74 71 75
REMARK SMILES IDX 73 76 79 77 72 78 74 79 75 80 76 81 77 82 54 83 55 84 63 85
REMARK SMILES IDX 56 86 58 87 64 88 57 89 59 90 60 91 61 92 62 93
REMARK H PARENT 4 12 84 46 52 57
REMARK Flexibility Score: inf
ROOT
ATOM      1  C   UNL A   1      47.463  43.892  26.659  1.00  0.00     0.188 C 
ENDROOT
BRANCH   1   2
ATOM      2  O   UNL A   1      46.619  45.020  26.586  1.00  0.00    -0.376 OA
BRANCH   2   3
ATOM      3  C   UNL A   1      45.408  44.980  25.848  1.00  0.00     0.202 C 
BRANCH   3   4
ATOM      4  C   UNL A   1      45.104  43.996  24.702  1.00  0.00     0.261 C 
BRANCH   4   5
ATOM      5  O   UNL A   1      43.722  43.751  24.453  1.00  0.00    -0.459 OA
BRANCH   5   6
ATOM      6  C   UNL A   1      43.368  42.479  24.180  1.00  0.00     0.354 C 
ATOM      7  O   UNL A   1      43.477  41.494  24.889  1.00  0.00    -0.245 OA
BRANCH   6   8
ATOM      8  C   UNL A   1      42.593  42.454  22.866  1.00  0.00     0.142 C 
ATOM      9  C   UNL A   1      41.142  42.802  23.010  1.00  0.00     0.077 C 
ATOM     10  N   UNL A   1      43.287  42.203  21.794  1.00  0.00    -0.173 NA
BRANCH  10  11
ATOM     11  N   UNL A   1      42.858  42.205  20.504  1.00  0.00    -0.271 N 
ATOM     12  H   UNL A   1      42.799  41.328  20.061  1.00  0.00     0.190 HD
BRANCH  11  13
ATOM     13  C   UNL A   1      42.490  43.319  19.730  1.00  0.00     0.137 A 
ATOM     14  C   UNL A   1      41.151  43.473  19.345  1.00  0.00     0.055 A 
ATOM     15  C   UNL A   1      43.393  44.313  19.335  1.00  0.00     0.312 A 
ATOM     16  C   UNL A   1      40.798  44.540  18.532  1.00  0.00     0.113 A 
ATOM     17  C   UNL A   1      42.958  45.344  18.514  1.00  0.00     0.198 A 
ATOM     18  N   UNL A   1      41.676  45.468  18.099  1.00  0.00    -0.257 NA
BRANCH  15  19
ATOM     19  N   UNL A   1      44.766  44.342  19.804  1.00  0.00     0.066 N 
ATOM     20  O   UNL A   1      44.969  44.710  20.970  1.00  0.00    -0.258 OA
ATOM     21  O   UNL A   1      45.652  43.938  19.034  1.00  0.00    -0.258 OA
ENDBRANCH  15  19
ENDBRANCH  11  13
ENDBRANCH  10  11
ENDBRANCH   6   8
ENDBRANCH   5   6
ENDBRANCH   4   5
ENDBRANCH   3   4
ENDBRANCH   2   3
ENDBRANCH   1   2
BRANCH   1  22
ATOM     22  C   UNL A   1      47.235  42.884  27.804  1.00  0.00     0.188 C 
BRANCH  22  23
ATOM     23  O   UNL A   1      47.100  43.353  29.126  1.00  0.00    -0.376 OA
BRANCH  23  24
ATOM     24  C   UNL A   1      45.818  43.500  29.711  1.00  0.00     0.202 C 
BRANCH  24  25
ATOM     25  C   UNL A   1      44.476  43.251  28.993  1.00  0.00     0.261 C 
BRANCH  25  26
ATOM     26  O   UNL A   1      44.099  41.899  28.726  1.00  0.00    -0.460 OA
BRANCH  26  27
ATOM     27  C   UNL A   1      43.458  41.263  29.737  1.00  0.00     0.338 C 
ATOM     28  O   UNL A   1      42.749  41.764  30.594  1.00  0.00    -0.246 OA
BRANCH  27  29
ATOM     29  C   UNL A   1      43.592  39.808  29.546  1.00  0.00     0.060 A 
ATOM     30  C   UNL A   1      44.090  39.034  30.604  1.00  0.00     0.016 A 
ATOM     31  C   UNL A   1      43.266  39.220  28.325  1.00  0.00     0.016 A 
ATOM     32  C   UNL A   1      44.278  37.663  30.436  1.00  0.00     0.010 A 
ATOM     33  C   UNL A   1      43.479  37.850  28.151  1.00  0.00     0.010 A 
ATOM     34  C   UNL A   1      44.009  37.071  29.196  1.00  0.00    -0.014 A 
BRANCH  34  35
ATOM     35  C   UNL A   1      44.428  35.673  28.939  1.00  0.00     0.031 A 
ATOM     36  C   UNL A   1      43.516  34.557  29.365  1.00  0.00     0.074 A 
ATOM     37  C   UNL A   1      45.605  35.400  28.349  1.00  0.00     0.049 A 
ATOM     38  N   UNL A   1      43.704  33.264  29.302  1.00  0.00    -0.248 NA
ATOM     39  C   UNL A   1      42.221  34.951  29.943  1.00  0.00     0.031 C 
ATOM     40  C   UNL A   1      46.569  36.394  27.881  1.00  0.00     0.029 A 
ATOM     41  N   UNL A   1      46.203  34.194  28.075  1.00  0.00    -0.354 N 
ATOM     42  C   UNL A   1      42.570  32.690  29.863  1.00  0.00     0.074 A 
ATOM     43  C   UNL A   1      41.701  33.775  30.265  1.00  0.00     0.031 C 
ATOM     44  C   UNL A   1      47.655  35.758  27.409  1.00  0.00     0.029 A 
ATOM     45  C   UNL A   1      47.477  34.317  27.572  1.00  0.00     0.049 A 
ATOM     46  H   UNL A   1      45.763  33.327  28.224  1.00  0.00     0.167 HD
ATOM     47  C   UNL A   1      42.274  31.379  30.023  1.00  0.00     0.034 A 
ATOM     48  C   UNL A   1      48.404  33.373  27.306  1.00  0.00     0.034 A 
ATOM     49  C   UNL A   1      43.136  30.304  29.616  1.00  0.00     0.049 A 
ATOM     50  C   UNL A   1      48.064  31.920  27.529  1.00  0.00     0.074 A 
ATOM     51  C   UNL A   1      42.905  28.941  29.694  1.00  0.00     0.029 A 
ATOM     52  N   UNL A   1      44.402  30.464  29.075  1.00  0.00    -0.354 N 
ATOM     53  N   UNL A   1      46.945  31.388  27.957  1.00  0.00    -0.248 NA
ATOM     54  C   UNL A   1      49.109  30.936  27.205  1.00  0.00     0.031 C 
ATOM     55  C   UNL A   1      44.047  28.278  29.237  1.00  0.00     0.029 A 
ATOM     56  C   UNL A   1      44.972  29.227  28.829  1.00  0.00     0.049 A 
ATOM     57  H   UNL A   1      44.832  31.330  28.892  1.00  0.00     0.167 HD
ATOM     58  C   UNL A   1      47.135  30.011  27.913  1.00  0.00     0.074 A 
ATOM     59  C   UNL A   1      48.472  29.790  27.402  1.00  0.00     0.031 C 
ATOM     60  C   UNL A   1      46.283  29.018  28.271  1.00  0.00     0.034 A 
BRANCH  47  61
ATOM     61  C   UNL A   1      40.956  31.033  30.664  1.00  0.00     0.023 A 
ATOM     62  C   UNL A   1      40.773  31.237  32.047  1.00  0.00     0.012 A 
ATOM     63  C   UNL A   1      39.882  30.559  29.886  1.00  0.00     0.148 A 
ATOM     64  C   UNL A   1      39.551  30.942  32.651  1.00  0.00     0.002 A 
ATOM     65  C   UNL A   1      38.653  30.313  30.487  1.00  0.00     0.091 A 
ATOM     66  F   UNL A   1      40.084  30.351  28.577  1.00  0.00    -0.205 F 
ATOM     67  C   UNL A   1      38.490  30.491  31.870  1.00  0.00     0.022 A 
BRANCH  65  68
ATOM     68  S   UNL A   1      37.203  29.809  29.556  1.00  0.00     0.127 S 
ATOM     69  O   UNL A   1      36.273  29.454  30.629  1.00  0.00    -0.237 OA
ATOM     70  O   UNL A   1      36.862  31.034  28.834  1.00  0.00    -0.237 OA
ATOM     71  O   UNL A   1      37.631  28.703  28.712  1.00  0.00    -0.744 OA
ENDBRANCH  65  68
ENDBRANCH  47  61
BRANCH  48  72
ATOM     72  C   UNL A   1      49.744  33.766  26.785  1.00  0.00     0.023 A 
ATOM     73  C   UNL A   1      49.933  33.931  25.399  1.00  0.00     0.012 A 
ATOM     74  C   UNL A   1      50.831  33.977  27.656  1.00  0.00     0.148 A 
ATOM     75  C   UNL A   1      51.188  34.261  24.887  1.00  0.00     0.002 A 
ATOM     76  C   UNL A   1      52.064  34.362  27.144  1.00  0.00     0.091 A 
ATOM     77  F   UNL A   1      50.635  33.801  28.971  1.00  0.00    -0.205 F 
ATOM     78  C   UNL A   1      52.250  34.487  25.759  1.00  0.00     0.022 A 
BRANCH  76  79
ATOM     79  S   UNL A   1      53.453  34.795  28.197  1.00  0.00     0.127 S 
ATOM     80  O   UNL A   1      53.900  33.482  28.657  1.00  0.00    -0.237 OA
ATOM     81  O   UNL A   1      54.351  35.457  27.250  1.00  0.00    -0.237 OA
ATOM     82  O   UNL A   1      52.910  35.672  29.226  1.00  0.00    -0.744 OA
ENDBRANCH  76  79
ENDBRANCH  48  72
BRANCH  60  83
ATOM     83  C   UNL A   1      46.738  27.593  28.077  1.00  0.00     0.023 A 
ATOM     84  C   UNL A   1      47.418  26.919  29.111  1.00  0.00     0.012 A 
ATOM     85  C   UNL A   1      46.416  26.897  26.894  1.00  0.00     0.148 A 
ATOM     86  C   UNL A   1      47.802  25.586  28.955  1.00  0.00     0.002 A 
ATOM     87  C   UNL A   1      46.754  25.555  26.768  1.00  0.00     0.091 A 
ATOM     88  F   UNL A   1      45.781  27.560  25.916  1.00  0.00    -0.205 F 
ATOM     89  C   UNL A   1      47.459  24.902  27.791  1.00  0.00     0.022 A 
BRANCH  87  90
ATOM     90  S   UNL A   1      46.265  24.566  25.349  1.00  0.00     0.127 S 
ATOM     91  O   UNL A   1      46.990  25.225  24.264  1.00  0.00    -0.237 OA
ATOM     92  O   UNL A   1      46.774  23.242  25.707  1.00  0.00    -0.237 OA
ATOM     93  O   UNL A   1      44.814  24.657  25.274  1.00  0.00    -0.744 OA
ENDBRANCH  87  90
ENDBRANCH  60  83
ENDBRANCH  34  35
ENDBRANCH  27  29
ENDBRANCH  26  27
ENDBRANCH  25  26
ENDBRANCH  24  25
ENDBRANCH  23  24
ENDBRANCH  22  23
ENDBRANCH   1  22
TORSDOF 23
ENDMDL
