MODEL 1
REMARK VINA RESULT:     -11.5      0.000      0.000
REMARK SMILES O=C(OCCOCCOCCOC(=O)c1ccc(-c2c3nc(c(-c4cccc(S(=O)(=O)[O-])c4F)c4ccc([nH]4)c(-c4cccc(S(=O)(=O)[O-])c4F)c4nc(c(-c5cccc(S(=O)(=O)[O-])c5F)c5ccc2[nH]5)C=C4)C=C3)cc1)C1=Cc2cc(Cl)cc(-c3ccc(Cl)cc3)c2O[C@@H]1C(F)(F)F
REMARK SMILES IDX 8 1 7 2 6 3 5 4 4 5 3 6 2 7 1 8 78 9 79 10 95 11 80 12 94 13
REMARK SMILES IDX 81 14 93 15 82 16 85 17 83 18 84 19 96 20 97 21 98 22 99 23
REMARK SMILES IDX 86 24 87 25 92 26 88 27 91 28 89 29 90 30 9 31 10 32 11 33
REMARK SMILES IDX 12 34 13 35 14 36 15 37 16 38 77 39 17 40 76 41 18 42 19 43
REMARK SMILES IDX 20 44 70 45 21 46 75 47 69 48 71 49 22 50 74 51 68 52 67 53
REMARK SMILES IDX 23 55 55 56 35 57 54 58 36 59 39 60 53 61 72 62 37 63 38 64
REMARK SMILES IDX 52 66 73 67 40 68 24 69 25 70 33 71 26 72 28 73 34 74 27 75
REMARK SMILES IDX 29 76 30 77 31 78 32 79 56 80 57 81 65 82 58 83 60 84 66 85
REMARK SMILES IDX 59 86 61 87 62 88 63 89 64 90 41 91 42 92 50 93 43 94 45 95
REMARK SMILES IDX 51 96 44 97 46 98 47 99 48 100 49 101
REMARK H PARENT 71 54 39 65
REMARK Flexibility Score: inf
ROOT
ATOM      1  C   UNL A   1      31.041  27.455  27.166  1.00  0.00     0.188 C 
ENDROOT
BRANCH   1   2
ATOM      2  C   UNL A   1      30.627  27.195  25.707  1.00  0.00     0.188 C 
BRANCH   2   3
ATOM      3  O   UNL A   1      30.710  28.234  24.606  1.00  0.00    -0.376 OA
BRANCH   3   4
ATOM      4  C   UNL A   1      32.042  28.439  23.448  1.00  0.00     0.202 C 
BRANCH   4   5
ATOM      5  C   UNL A   1      34.006  27.572  23.802  1.00  0.00     0.261 C 
BRANCH   5   6
ATOM      6  O   UNL A   1      34.430  26.773  25.032  1.00  0.00    -0.460 OA
BRANCH   6   7
ATOM      7  C   UNL A   1      33.725  25.636  25.160  1.00  0.00     0.338 C 
ATOM      8  O   UNL A   1      33.171  25.225  26.151  1.00  0.00    -0.246 OA
BRANCH   7   9
ATOM      9  C   UNL A   1      34.317  24.944  24.025  1.00  0.00     0.087 C 
ATOM     10  C   UNL A   1      35.656  24.431  24.199  1.00  0.00     0.027 C 
ATOM     11  C   UNL A   1      32.765  23.869  23.741  1.00  0.00     0.316 C 
ATOM     12  C   UNL A   1      36.041  22.714  24.500  1.00  0.00     0.019 A 
ATOM     13  O   UNL A   1      33.114  21.997  24.246  1.00  0.00    -0.475 OA
ATOM     14  C   UNL A   1      37.346  22.422  24.803  1.00  0.00     0.032 A 
ATOM     15  C   UNL A   1      34.837  21.468  24.597  1.00  0.00     0.135 A 
ATOM     16  C   UNL A   1      37.598  21.086  25.113  1.00  0.00     0.042 A 
ATOM     17  C   UNL A   1      35.196  20.155  24.870  1.00  0.00     0.026 A 
ATOM     18  Cl  UNL A   1      39.228  20.653  25.516  1.00  0.00    -0.084 Cl
ATOM     19  C   UNL A   1      36.605  20.039  25.126  1.00  0.00     0.033 A 
BRANCH  11  20
ATOM     20  C   UNL A   1      32.492  24.625  22.204  1.00  0.00     0.430 C 
ATOM     21  F   UNL A   1      32.997  25.843  21.944  1.00  0.00    -0.167 F 
ATOM     22  F   UNL A   1      32.904  23.792  21.217  1.00  0.00    -0.167 F 
ATOM     23  F   UNL A   1      31.154  24.805  21.982  1.00  0.00    -0.167 F 
ENDBRANCH  11  20
BRANCH  17  24
ATOM     24  C   UNL A   1      34.462  18.892  24.878  1.00  0.00    -0.015 A 
ATOM     25  C   UNL A   1      33.190  18.782  25.451  1.00  0.00     0.010 A 
ATOM     26  C   UNL A   1      35.127  17.695  24.529  1.00  0.00     0.010 A 
ATOM     27  C   UNL A   1      32.557  17.535  25.559  1.00  0.00     0.021 A 
ATOM     28  C   UNL A   1      34.489  16.450  24.609  1.00  0.00     0.021 A 
ATOM     29  C   UNL A   1      33.190  16.382  25.098  1.00  0.00     0.041 A 
ATOM     30  Cl  UNL A   1      32.362  14.874  25.119  1.00  0.00    -0.084 Cl
ENDBRANCH  17  24
ENDBRANCH   7   9
ENDBRANCH   6   7
ENDBRANCH   5   6
ENDBRANCH   4   5
ENDBRANCH   3   4
ENDBRANCH   2   3
ENDBRANCH   1   2
BRANCH   1  31
ATOM     31  O   UNL A   1      31.412  28.748  27.555  1.00  0.00    -0.376 OA
BRANCH  31  32
ATOM     32  C   UNL A   1      32.752  29.078  27.272  1.00  0.00     0.202 C 
BRANCH  32  33
ATOM     33  C   UNL A   1      33.116  30.473  26.757  1.00  0.00     0.261 C 
BRANCH  33  34
ATOM     34  O   UNL A   1      34.491  30.829  26.917  1.00  0.00    -0.460 OA
BRANCH  34  35
ATOM     35  C   UNL A   1      34.817  31.443  28.078  1.00  0.00     0.338 C 
ATOM     36  O   UNL A   1      34.128  32.191  28.748  1.00  0.00    -0.246 OA
BRANCH  35  37
ATOM     37  C   UNL A   1      36.110  30.891  28.511  1.00  0.00     0.060 A 
ATOM     38  C   UNL A   1      36.160  29.684  29.229  1.00  0.00     0.016 A 
ATOM     39  C   UNL A   1      37.268  31.602  28.212  1.00  0.00     0.016 A 
ATOM     40  C   UNL A   1      37.384  29.173  29.641  1.00  0.00     0.010 A 
ATOM     41  C   UNL A   1      38.486  31.118  28.671  1.00  0.00     0.010 A 
ATOM     42  C   UNL A   1      38.540  29.922  29.408  1.00  0.00    -0.014 A 
BRANCH  42  43
ATOM     43  C   UNL A   1      39.759  29.645  30.186  1.00  0.00     0.031 A 
ATOM     44  C   UNL A   1      40.617  28.511  29.717  1.00  0.00     0.074 A 
ATOM     45  C   UNL A   1      40.023  30.303  31.323  1.00  0.00     0.049 A 
ATOM     46  N   UNL A   1      41.625  27.934  30.308  1.00  0.00    -0.248 NA
ATOM     47  C   UNL A   1      40.267  27.931  28.407  1.00  0.00     0.031 C 
ATOM     48  C   UNL A   1      39.248  31.423  31.850  1.00  0.00     0.029 A 
ATOM     49  N   UNL A   1      40.989  30.075  32.268  1.00  0.00    -0.354 N 
ATOM     50  C   UNL A   1      41.994  26.889  29.473  1.00  0.00     0.074 A 
ATOM     51  C   UNL A   1      41.106  26.913  28.333  1.00  0.00     0.031 C 
ATOM     52  C   UNL A   1      39.734  31.750  33.060  1.00  0.00     0.029 A 
ATOM     53  C   UNL A   1      40.820  30.831  33.402  1.00  0.00     0.049 A 
ATOM     54  H   UNL A   1      41.727  29.434  32.147  1.00  0.00     0.167 HD
ATOM     55  C   UNL A   1      42.977  25.979  29.651  1.00  0.00     0.034 A 
ATOM     56  C   UNL A   1      41.437  30.745  34.597  1.00  0.00     0.034 A 
ATOM     57  C   UNL A   1      43.821  25.950  30.810  1.00  0.00     0.049 A 
ATOM     58  C   UNL A   1      42.510  29.708  34.793  1.00  0.00     0.074 A 
ATOM     59  C   UNL A   1      44.883  25.109  31.080  1.00  0.00     0.029 A 
ATOM     60  N   UNL A   1      43.665  26.773  31.917  1.00  0.00    -0.354 N 
ATOM     61  N   UNL A   1      42.928  28.786  33.959  1.00  0.00    -0.248 NA
ATOM     62  C   UNL A   1      43.214  29.712  36.082  1.00  0.00     0.031 C 
ATOM     63  C   UNL A   1      45.324  25.377  32.379  1.00  0.00     0.029 A 
ATOM     64  C   UNL A   1      44.593  26.442  32.885  1.00  0.00     0.049 A 
ATOM     65  H   UNL A   1      42.992  27.487  32.000  1.00  0.00     0.167 HD
ATOM     66  C   UNL A   1      43.972  28.129  34.601  1.00  0.00     0.074 A 
ATOM     67  C   UNL A   1      44.120  28.760  35.898  1.00  0.00     0.031 C 
ATOM     68  C   UNL A   1      44.744  27.105  34.156  1.00  0.00     0.034 A 
BRANCH  55  69
ATOM     69  C   UNL A   1      43.137  24.923  28.591  1.00  0.00     0.023 A 
ATOM     70  C   UNL A   1      42.270  23.811  28.552  1.00  0.00     0.012 A 
ATOM     71  C   UNL A   1      44.171  25.023  27.641  1.00  0.00     0.148 A 
ATOM     72  C   UNL A   1      42.471  22.785  27.627  1.00  0.00     0.002 A 
ATOM     73  C   UNL A   1      44.327  24.029  26.685  1.00  0.00     0.091 A 
ATOM     74  F   UNL A   1      45.003  26.073  27.709  1.00  0.00    -0.205 F 
ATOM     75  C   UNL A   1      43.493  22.899  26.690  1.00  0.00     0.022 A 
BRANCH  73  76
ATOM     76  S   UNL A   1      45.558  24.131  25.383  1.00  0.00     0.127 S 
ATOM     77  O   UNL A   1      45.187  22.996  24.538  1.00  0.00    -0.237 OA
ATOM     78  O   UNL A   1      45.276  25.443  24.800  1.00  0.00    -0.237 OA
ATOM     79  O   UNL A   1      46.853  24.024  26.040  1.00  0.00    -0.744 OA
ENDBRANCH  73  76
ENDBRANCH  55  69
BRANCH  56  80
ATOM     80  C   UNL A   1      41.036  31.671  35.690  1.00  0.00     0.023 A 
ATOM     81  C   UNL A   1      41.876  32.745  36.041  1.00  0.00     0.012 A 
ATOM     82  C   UNL A   1      39.793  31.527  36.337  1.00  0.00     0.148 A 
ATOM     83  C   UNL A   1      41.489  33.652  37.029  1.00  0.00     0.002 A 
ATOM     84  C   UNL A   1      39.389  32.465  37.278  1.00  0.00     0.091 A 
ATOM     85  F   UNL A   1      39.017  30.491  35.990  1.00  0.00    -0.205 F 
ATOM     86  C   UNL A   1      40.243  33.520  37.638  1.00  0.00     0.022 A 
BRANCH  84  87
ATOM     87  S   UNL A   1      37.754  32.448  38.019  1.00  0.00     0.127 S 
ATOM     88  O   UNL A   1      36.902  32.756  36.872  1.00  0.00    -0.237 OA
ATOM     89  O   UNL A   1      37.660  31.072  38.505  1.00  0.00    -0.237 OA
ATOM     90  O   UNL A   1      37.777  33.460  39.067  1.00  0.00    -0.744 OA
ENDBRANCH  84  87
ENDBRANCH  56  80
BRANCH  68  91
ATOM     91  C   UNL A   1      45.874  26.636  35.034  1.00  0.00     0.023 A 
ATOM     92  C   UNL A   1      47.125  27.278  35.003  1.00  0.00     0.012 A 
ATOM     93  C   UNL A   1      45.639  25.618  35.982  1.00  0.00     0.148 A 
ATOM     94  C   UNL A   1      48.135  26.898  35.889  1.00  0.00     0.002 A 
ATOM     95  C   UNL A   1      46.626  25.287  36.899  1.00  0.00     0.091 A 
ATOM     96  F   UNL A   1      44.442  25.012  35.983  1.00  0.00    -0.205 F 
ATOM     97  C   UNL A   1      47.880  25.915  36.846  1.00  0.00     0.022 A 
BRANCH  95  98
ATOM     98  S   UNL A   1      46.349  24.114  38.230  1.00  0.00     0.127 S 
ATOM     99  O   UNL A   1      45.263  24.756  38.970  1.00  0.00    -0.237 OA
ATOM    100  O   UNL A   1      45.961  22.907  37.500  1.00  0.00    -0.237 OA
ATOM    101  O   UNL A   1      47.611  24.010  38.950  1.00  0.00    -0.744 OA
ENDBRANCH  95  98
ENDBRANCH  68  91
ENDBRANCH  42  43
ENDBRANCH  35  37
ENDBRANCH  34  35
ENDBRANCH  33  34
ENDBRANCH  32  33
ENDBRANCH  31  32
ENDBRANCH   1  31
TORSDOF 22
ENDMDL
MODEL 2
REMARK VINA RESULT:     -11.1      5.023      8.652
REMARK SMILES O=C(OCCOCCOCCOC(=O)c1ccc(-c2c3nc(c(-c4cccc(S(=O)(=O)[O-])c4F)c4ccc([nH]4)c(-c4cccc(S(=O)(=O)[O-])c4F)c4nc(c(-c5cccc(S(=O)(=O)[O-])c5F)c5ccc2[nH]5)C=C4)C=C3)cc1)C1=Cc2cc(Cl)cc(-c3ccc(Cl)cc3)c2O[C@@H]1C(F)(F)F
REMARK SMILES IDX 8 1 7 2 6 3 5 4 4 5 3 6 2 7 1 8 78 9 79 10 95 11 80 12 94 13
REMARK SMILES IDX 81 14 93 15 82 16 85 17 83 18 84 19 96 20 97 21 98 22 99 23
REMARK SMILES IDX 86 24 87 25 92 26 88 27 91 28 89 29 90 30 9 31 10 32 11 33
REMARK SMILES IDX 12 34 13 35 14 36 15 37 16 38 77 39 17 40 76 41 18 42 19 43
REMARK SMILES IDX 20 44 70 45 21 46 75 47 69 48 71 49 22 50 74 51 68 52 67 53
REMARK SMILES IDX 23 55 55 56 35 57 54 58 36 59 39 60 53 61 72 62 37 63 38 64
REMARK SMILES IDX 52 66 73 67 40 68 24 69 25 70 33 71 26 72 28 73 34 74 27 75
REMARK SMILES IDX 29 76 30 77 31 78 32 79 56 80 57 81 65 82 58 83 60 84 66 85
REMARK SMILES IDX 59 86 61 87 62 88 63 89 64 90 41 91 42 92 50 93 43 94 45 95
REMARK SMILES IDX 51 96 44 97 46 98 47 99 48 100 49 101
REMARK H PARENT 71 54 39 65
REMARK Flexibility Score: inf
ROOT
ATOM      1  C   UNL A   1      38.793  20.764  25.815  1.00  0.00     0.188 C 
ENDROOT
BRANCH   1   2
ATOM      2  C   UNL A   1      38.149  19.904  24.714  1.00  0.00     0.188 C 
BRANCH   2   3
ATOM      3  O   UNL A   1      36.704  19.444  24.735  1.00  0.00    -0.376 OA
BRANCH   3   4
ATOM      4  C   UNL A   1      35.352  20.250  25.558  1.00  0.00     0.202 C 
BRANCH   4   5
ATOM      5  C   UNL A   1      33.330  20.192  24.758  1.00  0.00     0.261 C 
BRANCH   5   6
ATOM      6  O   UNL A   1      32.636  21.308  23.982  1.00  0.00    -0.460 OA
BRANCH   6   7
ATOM      7  C   UNL A   1      32.387  22.379  24.755  1.00  0.00     0.338 C 
ATOM      8  O   UNL A   1      31.642  22.441  25.703  1.00  0.00    -0.246 OA
BRANCH   7   9
ATOM      9  C   UNL A   1      32.810  23.383  23.790  1.00  0.00     0.087 C 
ATOM     10  C   UNL A   1      31.772  24.184  23.183  1.00  0.00     0.027 C 
ATOM     11  C   UNL A   1      34.176  24.058  24.939  1.00  0.00     0.316 C 
ATOM     12  C   UNL A   1      31.396  25.864  23.655  1.00  0.00     0.019 A 
ATOM     13  O   UNL A   1      33.693  25.843  25.621  1.00  0.00    -0.475 OA
ATOM     14  C   UNL A   1      30.278  26.424  23.093  1.00  0.00     0.032 A 
ATOM     15  C   UNL A   1      32.259  26.726  24.889  1.00  0.00     0.135 A 
ATOM     16  C   UNL A   1      29.966  27.706  23.542  1.00  0.00     0.042 A 
ATOM     17  C   UNL A   1      31.896  28.020  25.236  1.00  0.00     0.026 A 
ATOM     18  Cl  UNL A   1      28.556  28.465  22.878  1.00  0.00    -0.084 Cl
ATOM     19  C   UNL A   1      30.726  28.447  24.520  1.00  0.00     0.033 A 
BRANCH  11  20
ATOM     20  C   UNL A   1      35.403  23.533  23.831  1.00  0.00     0.430 C 
ATOM     21  F   UNL A   1      35.583  22.224  23.585  1.00  0.00    -0.167 F 
ATOM     22  F   UNL A   1      35.222  24.152  22.639  1.00  0.00    -0.167 F 
ATOM     23  F   UNL A   1      36.642  23.929  24.254  1.00  0.00    -0.167 F 
ENDBRANCH  11  20
BRANCH  17  24
ATOM     24  C   UNL A   1      32.491  29.032  26.105  1.00  0.00    -0.015 A 
ATOM     25  C   UNL A   1      31.815  30.211  26.436  1.00  0.00     0.010 A 
ATOM     26  C   UNL A   1      33.865  28.956  26.426  1.00  0.00     0.010 A 
ATOM     27  C   UNL A   1      32.452  31.224  27.167  1.00  0.00     0.021 A 
ATOM     28  C   UNL A   1      34.499  29.952  27.181  1.00  0.00     0.021 A 
ATOM     29  C   UNL A   1      33.776  31.071  27.574  1.00  0.00     0.041 A 
ATOM     30  Cl  UNL A   1      34.515  32.260  28.575  1.00  0.00    -0.084 Cl
ENDBRANCH  17  24
ENDBRANCH   7   9
ENDBRANCH   6   7
ENDBRANCH   5   6
ENDBRANCH   4   5
ENDBRANCH   3   4
ENDBRANCH   2   3
ENDBRANCH   1   2
BRANCH   1  31
ATOM     31  O   UNL A   1      40.100  20.483  26.229  1.00  0.00    -0.376 OA
BRANCH  31  32
ATOM     32  C   UNL A   1      40.634  21.416  27.140  1.00  0.00     0.202 C 
BRANCH  32  33
ATOM     33  C   UNL A   1      41.334  22.681  26.636  1.00  0.00     0.261 C 
BRANCH  33  34
ATOM     34  O   UNL A   1      40.956  23.882  27.313  1.00  0.00    -0.460 OA
BRANCH  34  35
ATOM     35  C   UNL A   1      39.772  24.426  26.948  1.00  0.00     0.338 C 
ATOM     36  O   UNL A   1      38.824  23.870  26.423  1.00  0.00    -0.246 OA
BRANCH  35  37
ATOM     37  C   UNL A   1      39.743  25.797  27.479  1.00  0.00     0.060 A 
ATOM     38  C   UNL A   1      40.159  26.875  26.678  1.00  0.00     0.016 A 
ATOM     39  C   UNL A   1      39.316  25.994  28.788  1.00  0.00     0.016 A 
ATOM     40  C   UNL A   1      40.135  28.167  27.188  1.00  0.00     0.010 A 
ATOM     41  C   UNL A   1      39.344  27.278  29.315  1.00  0.00     0.010 A 
ATOM     42  C   UNL A   1      39.780  28.357  28.526  1.00  0.00    -0.014 A 
BRANCH  42  43
ATOM     43  C   UNL A   1      40.152  29.606  29.210  1.00  0.00     0.031 A 
ATOM     44  C   UNL A   1      41.613  29.848  29.430  1.00  0.00     0.074 A 
ATOM     45  C   UNL A   1      39.220  30.429  29.712  1.00  0.00     0.049 A 
ATOM     46  N   UNL A   1      42.203  30.752  30.159  1.00  0.00    -0.248 NA
ATOM     47  C   UNL A   1      42.534  28.918  28.751  1.00  0.00     0.031 C 
ATOM     48  C   UNL A   1      37.778  30.275  29.539  1.00  0.00     0.029 A 
ATOM     49  N   UNL A   1      39.358  31.524  30.523  1.00  0.00    -0.354 N 
ATOM     50  C   UNL A   1      43.559  30.467  30.075  1.00  0.00     0.074 A 
ATOM     51  C   UNL A   1      43.705  29.310  29.221  1.00  0.00     0.031 C 
ATOM     52  C   UNL A   1      37.156  31.212  30.276  1.00  0.00     0.029 A 
ATOM     53  C   UNL A   1      38.158  31.992  31.001  1.00  0.00     0.049 A 
ATOM     54  H   UNL A   1      40.227  31.933  30.741  1.00  0.00     0.167 HD
ATOM     55  C   UNL A   1      44.590  31.105  30.671  1.00  0.00     0.034 A 
ATOM     56  C   UNL A   1      37.908  32.907  31.960  1.00  0.00     0.034 A 
ATOM     57  C   UNL A   1      44.419  32.227  31.548  1.00  0.00     0.049 A 
ATOM     58  C   UNL A   1      39.065  33.590  32.638  1.00  0.00     0.074 A 
ATOM     59  C   UNL A   1      45.389  32.988  32.170  1.00  0.00     0.029 A 
ATOM     60  N   UNL A   1      43.189  32.720  31.964  1.00  0.00    -0.354 N 
ATOM     61  N   UNL A   1      40.352  33.388  32.477  1.00  0.00    -0.248 NA
ATOM     62  C   UNL A   1      38.742  34.642  33.610  1.00  0.00     0.031 C 
ATOM     63  C   UNL A   1      44.745  33.895  33.018  1.00  0.00     0.029 A 
ATOM     64  C   UNL A   1      43.374  33.757  32.857  1.00  0.00     0.049 A 
ATOM     65  H   UNL A   1      42.314  32.380  31.666  1.00  0.00     0.167 HD
ATOM     66  C   UNL A   1      40.992  34.316  33.292  1.00  0.00     0.074 A 
ATOM     67  C   UNL A   1      39.949  35.078  33.948  1.00  0.00     0.031 C 
ATOM     68  C   UNL A   1      42.320  34.524  33.473  1.00  0.00     0.034 A 
BRANCH  55  69
ATOM     69  C   UNL A   1      45.971  30.557  30.430  1.00  0.00     0.023 A 
ATOM     70  C   UNL A   1      46.541  29.632  31.331  1.00  0.00     0.012 A 
ATOM     71  C   UNL A   1      46.717  30.982  29.315  1.00  0.00     0.148 A 
ATOM     72  C   UNL A   1      47.854  29.191  31.159  1.00  0.00     0.002 A 
ATOM     73  C   UNL A   1      48.000  30.491  29.117  1.00  0.00     0.091 A 
ATOM     74  F   UNL A   1      46.170  31.882  28.484  1.00  0.00    -0.205 F 
ATOM     75  C   UNL A   1      48.578  29.614  30.049  1.00  0.00     0.022 A 
BRANCH  73  76
ATOM     76  S   UNL A   1      48.978  30.908  27.671  1.00  0.00     0.127 S 
ATOM     77  O   UNL A   1      47.990  30.781  26.601  1.00  0.00    -0.237 OA
ATOM     78  O   UNL A   1      49.384  32.283  27.965  1.00  0.00    -0.237 OA
ATOM     79  O   UNL A   1      50.071  29.947  27.631  1.00  0.00    -0.744 OA
ENDBRANCH  73  76
ENDBRANCH  55  69
BRANCH  56  80
ATOM     80  C   UNL A   1      36.498  33.211  32.324  1.00  0.00     0.023 A 
ATOM     81  C   UNL A   1      35.977  32.752  33.549  1.00  0.00     0.012 A 
ATOM     82  C   UNL A   1      35.695  34.010  31.488  1.00  0.00     0.148 A 
ATOM     83  C   UNL A   1      34.673  33.073  33.927  1.00  0.00     0.002 A 
ATOM     84  C   UNL A   1      34.418  34.373  31.896  1.00  0.00     0.091 A 
ATOM     85  F   UNL A   1      36.212  34.427  30.325  1.00  0.00    -0.205 F 
ATOM     86  C   UNL A   1      33.899  33.893  33.109  1.00  0.00     0.022 A 
BRANCH  84  87
ATOM     87  S   UNL A   1      33.399  35.526  30.971  1.00  0.00     0.127 S 
ATOM     88  O   UNL A   1      32.140  35.477  31.714  1.00  0.00    -0.237 OA
ATOM     89  O   UNL A   1      34.151  36.772  31.115  1.00  0.00    -0.237 OA
ATOM     90  O   UNL A   1      33.340  35.009  29.611  1.00  0.00    -0.744 OA
ENDBRANCH  84  87
ENDBRANCH  56  80
BRANCH  68  91
ATOM     91  C   UNL A   1      42.744  35.665  34.359  1.00  0.00     0.023 A 
ATOM     92  C   UNL A   1      42.822  35.505  35.755  1.00  0.00     0.012 A 
ATOM     93  C   UNL A   1      43.182  36.872  33.774  1.00  0.00     0.148 A 
ATOM     94  C   UNL A   1      43.308  36.539  36.558  1.00  0.00     0.002 A 
ATOM     95  C   UNL A   1      43.719  37.872  34.571  1.00  0.00     0.091 A 
ATOM     96  F   UNL A   1      43.086  37.006  32.443  1.00  0.00    -0.205 F 
ATOM     97  C   UNL A   1      43.770  37.713  35.966  1.00  0.00     0.022 A 
BRANCH  95  98
ATOM     98  S   UNL A   1      44.437  39.369  33.886  1.00  0.00     0.127 S 
ATOM     99  O   UNL A   1      45.864  39.050  33.908  1.00  0.00    -0.237 OA
ATOM    100  O   UNL A   1      43.841  39.412  32.552  1.00  0.00    -0.237 OA
ATOM    101  O   UNL A   1      44.033  40.455  34.769  1.00  0.00    -0.744 OA
ENDBRANCH  95  98
ENDBRANCH  68  91
ENDBRANCH  42  43
ENDBRANCH  35  37
ENDBRANCH  34  35
ENDBRANCH  33  34
ENDBRANCH  32  33
ENDBRANCH  31  32
ENDBRANCH   1  31
TORSDOF 22
ENDMDL
MODEL 3
REMARK VINA RESULT:     -10.9      5.248      9.050
REMARK SMILES O=C(OCCOCCOCCOC(=O)c1ccc(-c2c3nc(c(-c4cccc(S(=O)(=O)[O-])c4F)c4ccc([nH]4)c(-c4cccc(S(=O)(=O)[O-])c4F)c4nc(c(-c5cccc(S(=O)(=O)[O-])c5F)c5ccc2[nH]5)C=C4)C=C3)cc1)C1=Cc2cc(Cl)cc(-c3ccc(Cl)cc3)c2O[C@@H]1C(F)(F)F
REMARK SMILES IDX 8 1 7 2 6 3 5 4 4 5 3 6 2 7 1 8 78 9 79 10 95 11 80 12 94 13
REMARK SMILES IDX 81 14 93 15 82 16 85 17 83 18 84 19 96 20 97 21 98 22 99 23
REMARK SMILES IDX 86 24 87 25 92 26 88 27 91 28 89 29 90 30 9 31 10 32 11 33
REMARK SMILES IDX 12 34 13 35 14 36 15 37 16 38 77 39 17 40 76 41 18 42 19 43
REMARK SMILES IDX 20 44 70 45 21 46 75 47 69 48 71 49 22 50 74 51 68 52 67 53
REMARK SMILES IDX 23 55 55 56 35 57 54 58 36 59 39 60 53 61 72 62 37 63 38 64
REMARK SMILES IDX 52 66 73 67 40 68 24 69 25 70 33 71 26 72 28 73 34 74 27 75
REMARK SMILES IDX 29 76 30 77 31 78 32 79 56 80 57 81 65 82 58 83 60 84 66 85
REMARK SMILES IDX 59 86 61 87 62 88 63 89 64 90 41 91 42 92 50 93 43 94 45 95
REMARK SMILES IDX 51 96 44 97 46 98 47 99 48 100 49 101
REMARK H PARENT 71 54 39 65
REMARK Flexibility Score: inf
ROOT
ATOM      1  C   UNL A   1      38.867  20.384  25.298  1.00  0.00     0.188 C 
ENDROOT
BRANCH   1   2
ATOM      2  C   UNL A   1      37.489  20.428  24.616  1.00  0.00     0.188 C 
BRANCH   2   3
ATOM      3  O   UNL A   1      36.273  19.671  25.114  1.00  0.00    -0.376 OA
BRANCH   3   4
ATOM      4  C   UNL A   1      34.732  20.381  25.639  1.00  0.00     0.202 C 
BRANCH   4   5
ATOM      5  C   UNL A   1      32.949  20.289  24.395  1.00  0.00     0.261 C 
BRANCH   5   6
ATOM      6  O   UNL A   1      32.278  21.467  23.694  1.00  0.00    -0.460 OA
BRANCH   6   7
ATOM      7  C   UNL A   1      32.104  22.512  24.521  1.00  0.00     0.338 C 
ATOM      8  O   UNL A   1      31.371  22.574  25.478  1.00  0.00    -0.246 OA
BRANCH   7   9
ATOM      9  C   UNL A   1      32.586  23.533  23.603  1.00  0.00     0.087 C 
ATOM     10  C   UNL A   1      31.599  24.430  23.047  1.00  0.00     0.027 C 
ATOM     11  C   UNL A   1      34.002  24.058  24.770  1.00  0.00     0.316 C 
ATOM     12  C   UNL A   1      31.338  26.106  23.605  1.00  0.00     0.019 A 
ATOM     13  O   UNL A   1      33.642  25.834  25.545  1.00  0.00    -0.475 OA
ATOM     14  C   UNL A   1      30.256  26.764  23.083  1.00  0.00     0.032 A 
ATOM     15  C   UNL A   1      32.265  26.845  24.872  1.00  0.00     0.135 A 
ATOM     16  C   UNL A   1      30.032  28.041  23.598  1.00  0.00     0.042 A 
ATOM     17  C   UNL A   1      31.991  28.142  25.287  1.00  0.00     0.026 A 
ATOM     18  Cl  UNL A   1      28.672  28.923  22.987  1.00  0.00    -0.084 Cl
ATOM     19  C   UNL A   1      30.847  28.679  24.604  1.00  0.00     0.033 A 
BRANCH  11  20
ATOM     20  C   UNL A   1      35.183  23.510  23.626  1.00  0.00     0.430 C 
ATOM     21  F   UNL A   1      35.126  23.907  22.343  1.00  0.00    -0.167 F 
ATOM     22  F   UNL A   1      36.423  23.802  24.090  1.00  0.00    -0.167 F 
ATOM     23  F   UNL A   1      35.157  22.146  23.516  1.00  0.00    -0.167 F 
ENDBRANCH  11  20
BRANCH  17  24
ATOM     24  C   UNL A   1      32.657  29.068  26.199  1.00  0.00    -0.015 A 
ATOM     25  C   UNL A   1      32.129  30.332  26.483  1.00  0.00     0.010 A 
ATOM     26  C   UNL A   1      33.980  28.804  26.618  1.00  0.00     0.010 A 
ATOM     27  C   UNL A   1      32.848  31.252  27.260  1.00  0.00     0.021 A 
ATOM     28  C   UNL A   1      34.691  29.707  27.419  1.00  0.00     0.021 A 
ATOM     29  C   UNL A   1      34.105  30.919  27.762  1.00  0.00     0.041 A 
ATOM     30  Cl  UNL A   1      34.929  32.001  28.816  1.00  0.00    -0.084 Cl
ENDBRANCH  17  24
ENDBRANCH   7   9
ENDBRANCH   6   7
ENDBRANCH   5   6
ENDBRANCH   4   5
ENDBRANCH   3   4
ENDBRANCH   2   3
ENDBRANCH   1   2
BRANCH   1  31
ATOM     31  O   UNL A   1      39.452  19.145  25.585  1.00  0.00    -0.376 OA
BRANCH  31  32
ATOM     32  C   UNL A   1      40.637  19.223  26.344  1.00  0.00     0.202 C 
BRANCH  32  33
ATOM     33  C   UNL A   1      41.939  18.615  25.816  1.00  0.00     0.261 C 
BRANCH  33  34
ATOM     34  O   UNL A   1      43.127  19.298  26.227  1.00  0.00    -0.460 OA
BRANCH  34  35
ATOM     35  C   UNL A   1      43.812  19.940  25.253  1.00  0.00     0.338 C 
ATOM     36  O   UNL A   1      44.317  19.462  24.253  1.00  0.00    -0.246 OA
BRANCH  35  37
ATOM     37  C   UNL A   1      43.680  21.382  25.510  1.00  0.00     0.060 A 
ATOM     38  C   UNL A   1      43.597  22.287  24.438  1.00  0.00     0.016 A 
ATOM     39  C   UNL A   1      43.659  21.823  26.829  1.00  0.00     0.016 A 
ATOM     40  C   UNL A   1      43.479  23.649  24.688  1.00  0.00     0.010 A 
ATOM     41  C   UNL A   1      43.596  23.187  27.078  1.00  0.00     0.010 A 
ATOM     42  C   UNL A   1      43.535  24.099  26.009  1.00  0.00    -0.014 A 
BRANCH  42  43
ATOM     43  C   UNL A   1      43.848  25.510  26.287  1.00  0.00     0.031 A 
ATOM     44  C   UNL A   1      45.274  25.934  26.115  1.00  0.00     0.074 A 
ATOM     45  C   UNL A   1      42.921  26.343  26.781  1.00  0.00     0.049 A 
ATOM     46  N   UNL A   1      45.857  27.044  26.467  1.00  0.00    -0.248 NA
ATOM     47  C   UNL A   1      46.171  24.950  25.480  1.00  0.00     0.031 C 
ATOM     48  C   UNL A   1      41.511  26.019  26.974  1.00  0.00     0.029 A 
ATOM     49  N   UNL A   1      43.054  27.618  27.267  1.00  0.00    -0.354 N 
ATOM     50  C   UNL A   1      47.197  26.874  26.151  1.00  0.00     0.074 A 
ATOM     51  C   UNL A   1      47.341  25.556  25.575  1.00  0.00     0.031 C 
ATOM     52  C   UNL A   1      40.914  27.050  27.595  1.00  0.00     0.029 A 
ATOM     53  C   UNL A   1      41.914  28.080  27.879  1.00  0.00     0.049 A 
ATOM     54  H   UNL A   1      43.880  28.147  27.187  1.00  0.00     0.167 HD
ATOM     55  C   UNL A   1      48.221  27.735  26.340  1.00  0.00     0.034 A 
ATOM     56  C   UNL A   1      41.725  29.181  28.633  1.00  0.00     0.034 A 
ATOM     57  C   UNL A   1      48.062  29.024  26.950  1.00  0.00     0.049 A 
ATOM     58  C   UNL A   1      42.880  30.118  28.861  1.00  0.00     0.074 A 
ATOM     59  C   UNL A   1      49.014  30.004  27.149  1.00  0.00     0.029 A 
ATOM     60  N   UNL A   1      46.878  29.490  27.505  1.00  0.00    -0.354 N 
ATOM     61  N   UNL A   1      44.126  30.002  28.468  1.00  0.00    -0.248 NA
ATOM     62  C   UNL A   1      42.601  31.350  29.612  1.00  0.00     0.031 C 
ATOM     63  C   UNL A   1      48.421  31.034  27.887  1.00  0.00     0.029 A 
ATOM     64  C   UNL A   1      47.080  30.733  28.072  1.00  0.00     0.049 A 
ATOM     65  H   UNL A   1      46.020  29.006  27.495  1.00  0.00     0.167 HD
ATOM     66  C   UNL A   1      44.771  31.162  28.885  1.00  0.00     0.074 A 
ATOM     67  C   UNL A   1      43.775  31.967  29.564  1.00  0.00     0.031 C 
ATOM     68  C   UNL A   1      46.065  31.531  28.714  1.00  0.00     0.034 A 
BRANCH  55  69
ATOM     69  C   UNL A   1      49.594  27.274  25.930  1.00  0.00     0.023 A 
ATOM     70  C   UNL A   1      50.440  26.634  26.860  1.00  0.00     0.012 A 
ATOM     71  C   UNL A   1      50.055  27.500  24.620  1.00  0.00     0.148 A 
ATOM     72  C   UNL A   1      51.745  26.286  26.509  1.00  0.00     0.002 A 
ATOM     73  C   UNL A   1      51.333  27.095  24.261  1.00  0.00     0.091 A 
ATOM     74  F   UNL A   1      49.248  28.134  23.757  1.00  0.00    -0.205 F 
ATOM     75  C   UNL A   1      52.187  26.509  25.209  1.00  0.00     0.022 A 
BRANCH  73  76
ATOM     76  S   UNL A   1      51.960  27.259  22.587  1.00  0.00     0.127 S 
ATOM     77  O   UNL A   1      53.160  26.424  22.638  1.00  0.00    -0.237 OA
ATOM     78  O   UNL A   1      50.863  26.702  21.796  1.00  0.00    -0.237 OA
ATOM     79  O   UNL A   1      52.197  28.681  22.381  1.00  0.00    -0.744 OA
ENDBRANCH  73  76
ENDBRANCH  55  69
BRANCH  56  80
ATOM     80  C   UNL A   1      40.382  29.436  29.222  1.00  0.00     0.023 A 
ATOM     81  C   UNL A   1      39.305  29.782  28.385  1.00  0.00     0.012 A 
ATOM     82  C   UNL A   1      40.160  29.271  30.603  1.00  0.00     0.148 A 
ATOM     83  C   UNL A   1      38.029  29.975  28.918  1.00  0.00     0.002 A 
ATOM     84  C   UNL A   1      38.877  29.407  31.118  1.00  0.00     0.091 A 
ATOM     85  F   UNL A   1      41.204  28.949  31.378  1.00  0.00    -0.205 F 
ATOM     86  C   UNL A   1      37.812  29.775  30.280  1.00  0.00     0.022 A 
BRANCH  84  87
ATOM     87  S   UNL A   1      38.480  29.046  32.832  1.00  0.00     0.127 S 
ATOM     88  O   UNL A   1      39.810  28.918  33.427  1.00  0.00    -0.237 OA
ATOM     89  O   UNL A   1      37.741  30.244  33.227  1.00  0.00    -0.237 OA
ATOM     90  O   UNL A   1      37.687  27.824  32.811  1.00  0.00    -0.744 OA
ENDBRANCH  84  87
ENDBRANCH  56  80
BRANCH  68  91
ATOM     91  C   UNL A   1      46.483  32.895  29.196  1.00  0.00     0.023 A 
ATOM     92  C   UNL A   1      46.349  34.026  28.369  1.00  0.00     0.012 A 
ATOM     93  C   UNL A   1      46.902  33.060  30.533  1.00  0.00     0.148 A 
ATOM     94  C   UNL A   1      46.648  35.298  28.859  1.00  0.00     0.002 A 
ATOM     95  C   UNL A   1      47.140  34.332  31.031  1.00  0.00     0.091 A 
ATOM     96  F   UNL A   1      47.036  31.966  31.298  1.00  0.00    -0.205 F 
ATOM     97  C   UNL A   1      47.027  35.453  30.192  1.00  0.00     0.022 A 
BRANCH  95  98
ATOM     98  S   UNL A   1      47.527  34.634  32.758  1.00  0.00     0.127 S 
ATOM     99  O   UNL A   1      46.363  34.053  33.428  1.00  0.00    -0.237 OA
ATOM    100  O   UNL A   1      48.769  33.883  32.931  1.00  0.00    -0.237 OA
ATOM    101  O   UNL A   1      47.664  36.077  32.899  1.00  0.00    -0.744 OA
ENDBRANCH  95  98
ENDBRANCH  68  91
ENDBRANCH  42  43
ENDBRANCH  35  37
ENDBRANCH  34  35
ENDBRANCH  33  34
ENDBRANCH  32  33
ENDBRANCH  31  32
ENDBRANCH   1  31
TORSDOF 22
ENDMDL
