MODEL 1
REMARK VINA RESULT:      -8.9      0.000      0.000
REMARK SMILES Cc1cc(C)cc(Oc2nc3ccccn3c(=O)c2/C=C2\SC(=S)N(CCC(=O)OCCOCCOCCOC(=O)c3ccc(-c4c5nc(c(-c6cccc(S(=O)(=O)[O-])c6F)c6ccc([nH]6)c(-c6cccc(S(=O)(=O)[O-])c6F)c6nc(c(-c7cccc(S(=O)(=O)[O-])c7F)c7ccc4[nH]7)C=C6)C=C5)cc3)C2=O)c1
REMARK SMILES IDX 34 1 33 2 32 3 31 4 30 5 28 6 29 7 27 8 26 9 25 10 20 11
REMARK SMILES IDX 21 12 22 13 105 14 23 15 106 16 24 17 19 18 9 19 10 20 11 21
REMARK SMILES IDX 17 22 12 23 16 24 18 25 13 26 15 27 14 28 8 29 7 30 1 31
REMARK SMILES IDX 2 32 3 33 107 34 4 35 5 36 6 37 35 38 36 39 37 40 38 41
REMARK SMILES IDX 39 42 40 43 41 44 42 45 43 46 104 47 44 48 103 49 45 50
REMARK SMILES IDX 46 51 47 52 97 53 48 54 102 55 96 56 98 57 49 58 101 59
REMARK SMILES IDX 95 60 94 61 50 63 82 64 62 65 81 66 63 67 66 68 80 69 99 70
REMARK SMILES IDX 64 71 65 72 79 74 100 75 67 76 51 77 52 78 60 79 53 80 55 81
REMARK SMILES IDX 61 82 54 83 56 84 57 85 58 86 59 87 83 88 84 89 92 90 85 91
REMARK SMILES IDX 87 92 93 93 86 94 88 95 89 96 90 97 91 98 68 99 69 100
REMARK SMILES IDX 77 101 70 102 72 103 78 104 71 105 73 106 74 107 75 108
REMARK SMILES IDX 76 109
REMARK H PARENT 98 62 66 73
REMARK Flexibility Score: inf
ROOT
ATOM      1  C   UNL A   1      33.281  28.637  25.994  1.00  0.00     0.188 C 
ENDROOT
BRANCH   1   2
ATOM      2  O   UNL A   1      31.870  28.584  25.895  1.00  0.00    -0.376 OA
BRANCH   2   3
ATOM      3  C   UNL A   1      31.322  27.268  25.922  1.00  0.00     0.202 C 
BRANCH   3   4
ATOM      4  C   UNL A   1      32.340  26.117  26.109  1.00  0.00     0.261 C 
BRANCH   4   5
ATOM      5  O   UNL A   1      31.945  25.083  27.047  1.00  0.00    -0.463 OA
BRANCH   5   6
ATOM      6  C   UNL A   1      31.142  24.088  26.603  1.00  0.00     0.307 C 
ATOM      7  O   UNL A   1      30.185  23.644  27.225  1.00  0.00    -0.252 OA
BRANCH   6   8
ATOM      8  C   UNL A   1      31.548  23.551  25.237  1.00  0.00     0.144 C 
BRANCH   8   9
ATOM      9  C   UNL A   1      32.557  22.388  25.125  1.00  0.00     0.139 C 
BRANCH   9  10
ATOM     10  N   UNL A   1      33.985  22.732  24.983  1.00  0.00    -0.292 N 
ATOM     11  C   UNL A   1      37.108  22.907  26.722  1.00  0.00     0.041 C 
ATOM     12  C   UNL A   1      36.175  23.118  25.782  1.00  0.00     0.081 C 
ATOM     13  S   UNL A   1      36.310  23.518  24.128  1.00  0.00    -0.054 SA
ATOM     14  C   UNL A   1      34.781  22.784  26.105  1.00  0.00     0.266 C 
ATOM     15  C   UNL A   1      34.599  23.165  23.824  1.00  0.00     0.148 C 
ATOM     16  O   UNL A   1      34.458  22.554  27.248  1.00  0.00    -0.268 OA
ATOM     17  S   UNL A   1      33.940  23.342  22.302  1.00  0.00    -0.052 S 
BRANCH  11  18
ATOM     18  C   UNL A   1      38.534  22.889  26.494  1.00  0.00     0.104 A 
ATOM     19  C   UNL A   1      39.325  23.980  26.610  1.00  0.00     0.234 A 
ATOM     20  N   UNL A   1      40.688  23.933  26.458  1.00  0.00    -0.194 NA
ATOM     21  C   UNL A   1      41.247  22.779  26.283  1.00  0.00     0.143 A 
ATOM     22  C   UNL A   1      39.177  21.597  26.129  1.00  0.00     0.269 A 
ATOM     23  C   UNL A   1      42.733  22.706  26.223  1.00  0.00     0.048 A 
ATOM     24  N   UNL A   1      40.559  21.586  26.150  1.00  0.00    -0.267 N 
ATOM     25  O   UNL A   1      38.485  20.630  25.809  1.00  0.00    -0.268 OA
ATOM     26  C   UNL A   1      43.338  21.521  26.089  1.00  0.00     0.005 A 
ATOM     27  C   UNL A   1      41.226  20.380  25.987  1.00  0.00     0.096 A 
ATOM     28  C   UNL A   1      42.562  20.314  25.970  1.00  0.00     0.019 A 
BRANCH  19  29
ATOM     29  O   UNL A   1      38.820  25.271  26.802  1.00  0.00    -0.438 OA
BRANCH  29  30
ATOM     30  C   UNL A   1      39.427  26.189  27.633  1.00  0.00     0.130 A 
ATOM     31  C   UNL A   1      39.390  27.589  31.166  1.00  0.00     0.044 C 
ATOM     32  C   UNL A   1      39.757  27.363  29.731  1.00  0.00    -0.047 A 
ATOM     33  C   UNL A   1      40.658  28.228  29.097  1.00  0.00     0.007 A 
ATOM     34  C   UNL A   1      39.191  26.310  29.002  1.00  0.00     0.050 A 
ATOM     35  C   UNL A   1      40.991  28.052  27.750  1.00  0.00    -0.047 A 
ATOM     36  C   UNL A   1      42.014  28.951  27.118  1.00  0.00     0.044 C 
ATOM     37  C   UNL A   1      40.350  27.043  27.018  1.00  0.00     0.050 A 
ENDBRANCH  29  30
ENDBRANCH  19  29
ENDBRANCH  11  18
ENDBRANCH   9  10
ENDBRANCH   8   9
ENDBRANCH   6   8
ENDBRANCH   5   6
ENDBRANCH   4   5
ENDBRANCH   3   4
ENDBRANCH   2   3
ENDBRANCH   1   2
BRANCH   1  38
ATOM     38  C   UNL A   1      33.814  29.501  27.115  1.00  0.00     0.188 C 
BRANCH  38  39
ATOM     39  O   UNL A   1      33.447  30.880  27.132  1.00  0.00    -0.376 OA
BRANCH  39  40
ATOM     40  C   UNL A   1      33.999  31.630  28.207  1.00  0.00     0.202 C 
BRANCH  40  41
ATOM     41  C   UNL A   1      35.034  32.710  27.820  1.00  0.00     0.261 C 
BRANCH  41  42
ATOM     42  O   UNL A   1      34.834  33.985  28.454  1.00  0.00    -0.460 OA
BRANCH  42  43
ATOM     43  C   UNL A   1      34.600  33.941  29.796  1.00  0.00     0.338 C 
ATOM     44  O   UNL A   1      33.512  33.995  30.345  1.00  0.00    -0.246 OA
BRANCH  43  45
ATOM     45  C   UNL A   1      35.859  33.568  30.499  1.00  0.00     0.060 A 
ATOM     46  C   UNL A   1      35.849  32.430  31.326  1.00  0.00     0.016 A 
ATOM     47  C   UNL A   1      37.053  34.262  30.296  1.00  0.00     0.016 A 
ATOM     48  C   UNL A   1      37.019  31.986  31.946  1.00  0.00     0.010 A 
ATOM     49  C   UNL A   1      38.215  33.847  30.957  1.00  0.00     0.010 A 
ATOM     50  C   UNL A   1      38.197  32.724  31.807  1.00  0.00    -0.014 A 
BRANCH  50  51
ATOM     51  C   UNL A   1      39.322  32.502  32.751  1.00  0.00     0.031 A 
ATOM     52  C   UNL A   1      40.491  31.696  32.249  1.00  0.00     0.074 A 
ATOM     53  C   UNL A   1      39.323  32.984  34.008  1.00  0.00     0.049 A 
ATOM     54  N   UNL A   1      41.543  31.264  32.892  1.00  0.00    -0.248 NA
ATOM     55  C   UNL A   1      40.462  31.324  30.823  1.00  0.00     0.031 C 
ATOM     56  C   UNL A   1      38.280  33.815  34.603  1.00  0.00     0.029 A 
ATOM     57  N   UNL A   1      40.235  32.811  35.022  1.00  0.00    -0.354 N 
ATOM     58  C   UNL A   1      42.283  30.545  31.959  1.00  0.00     0.074 A 
ATOM     59  C   UNL A   1      41.555  30.587  30.712  1.00  0.00     0.031 C 
ATOM     60  C   UNL A   1      38.593  34.051  35.892  1.00  0.00     0.029 A 
ATOM     61  C   UNL A   1      39.838  33.357  36.221  1.00  0.00     0.049 A 
ATOM     62  H   UNL A   1      41.091  32.341  34.901  1.00  0.00     0.167 HD
ATOM     63  C   UNL A   1      43.470  29.916  32.120  1.00  0.00     0.034 A 
ATOM     64  C   UNL A   1      40.400  33.274  37.444  1.00  0.00     0.034 A 
ATOM     65  C   UNL A   1      44.196  29.876  33.359  1.00  0.00     0.049 A 
ATOM     66  C   UNL A   1      41.689  32.501  37.615  1.00  0.00     0.074 A 
ATOM     67  C   UNL A   1      45.412  29.272  33.623  1.00  0.00     0.029 A 
ATOM     68  N   UNL A   1      43.771  30.458  34.542  1.00  0.00    -0.354 N 
ATOM     69  N   UNL A   1      42.415  31.888  36.711  1.00  0.00    -0.248 NA
ATOM     70  C   UNL A   1      42.249  32.429  38.975  1.00  0.00     0.031 C 
ATOM     71  C   UNL A   1      45.706  29.460  34.976  1.00  0.00     0.029 A 
ATOM     72  C   UNL A   1      44.697  30.222  35.542  1.00  0.00     0.049 A 
ATOM     73  H   UNL A   1      42.934  30.964  34.654  1.00  0.00     0.167 HD
ATOM     74  C   UNL A   1      43.537  31.407  37.381  1.00  0.00     0.074 A 
ATOM     75  C   UNL A   1      43.402  31.810  38.764  1.00  0.00     0.031 C 
ATOM     76  C   UNL A   1      44.581  30.688  36.899  1.00  0.00     0.034 A 
BRANCH  63  77
ATOM     77  C   UNL A   1      44.063  29.228  30.920  1.00  0.00     0.023 A 
ATOM     78  C   UNL A   1      44.918  29.945  30.057  1.00  0.00     0.012 A 
ATOM     79  C   UNL A   1      43.815  27.865  30.673  1.00  0.00     0.148 A 
ATOM     80  C   UNL A   1      45.492  29.322  28.949  1.00  0.00     0.002 A 
ATOM     81  C   UNL A   1      44.430  27.239  29.595  1.00  0.00     0.091 A 
ATOM     82  F   UNL A   1      42.982  27.208  31.492  1.00  0.00    -0.205 F 
ATOM     83  C   UNL A   1      45.257  27.968  28.726  1.00  0.00     0.022 A 
BRANCH  81  84
ATOM     84  S   UNL A   1      44.256  25.481  29.265  1.00  0.00     0.127 S 
ATOM     85  O   UNL A   1      44.818  24.896  30.482  1.00  0.00    -0.237 OA
ATOM     86  O   UNL A   1      42.806  25.339  29.134  1.00  0.00    -0.237 OA
ATOM     87  O   UNL A   1      45.009  25.222  28.047  1.00  0.00    -0.744 OA
ENDBRANCH  81  84
ENDBRANCH  63  77
BRANCH  64  88
ATOM     88  C   UNL A   1      39.770  33.941  38.624  1.00  0.00     0.023 A 
ATOM     89  C   UNL A   1      38.983  33.183  39.513  1.00  0.00     0.012 A 
ATOM     90  C   UNL A   1      39.908  35.327  38.843  1.00  0.00     0.148 A 
ATOM     91  C   UNL A   1      38.307  33.798  40.569  1.00  0.00     0.002 A 
ATOM     92  C   UNL A   1      39.278  35.922  39.930  1.00  0.00     0.091 A 
ATOM     93  F   UNL A   1      40.642  36.037  37.976  1.00  0.00    -0.205 F 
ATOM     94  C   UNL A   1      38.461  35.164  40.783  1.00  0.00     0.022 A 
BRANCH  92  95
ATOM     95  S   UNL A   1      39.503  37.655  40.348  1.00  0.00     0.127 S 
ATOM     96  O   UNL A   1      40.890  37.880  39.951  1.00  0.00    -0.237 OA
ATOM     97  O   UNL A   1      38.507  38.302  39.494  1.00  0.00    -0.237 OA
ATOM     98  O   UNL A   1      39.230  37.755  41.775  1.00  0.00    -0.744 OA
ENDBRANCH  92  95
ENDBRANCH  64  88
BRANCH  76  99
ATOM     99  C   UNL A   1      45.706  30.349  37.845  1.00  0.00     0.023 A 
ATOM    100  C   UNL A   1      46.744  31.272  38.076  1.00  0.00     0.012 A 
ATOM    101  C   UNL A   1      45.682  29.140  38.572  1.00  0.00     0.148 A 
ATOM    102  C   UNL A   1      47.761  30.982  38.987  1.00  0.00     0.002 A 
ATOM    103  C   UNL A   1      46.666  28.883  39.518  1.00  0.00     0.091 A 
ATOM    104  F   UNL A   1      44.691  28.269  38.330  1.00  0.00    -0.205 F 
ATOM    105  C   UNL A   1      47.714  29.795  39.717  1.00  0.00     0.022 A 
BRANCH 103 106
ATOM    106  S   UNL A   1      46.634  27.430  40.576  1.00  0.00     0.127 S 
ATOM    107  O   UNL A   1      47.981  27.446  41.143  1.00  0.00    -0.237 OA
ATOM    108  O   UNL A   1      45.569  27.763  41.523  1.00  0.00    -0.237 OA
ATOM    109  O   UNL A   1      46.339  26.302  39.705  1.00  0.00    -0.744 OA
ENDBRANCH 103 106
ENDBRANCH  76  99
ENDBRANCH  50  51
ENDBRANCH  43  45
ENDBRANCH  42  43
ENDBRANCH  41  42
ENDBRANCH  40  41
ENDBRANCH  39  40
ENDBRANCH  38  39
ENDBRANCH   1  38
TORSDOF 25
ENDMDL
MODEL 2
REMARK VINA RESULT:      -8.5      4.870      6.809
REMARK SMILES Cc1cc(C)cc(Oc2nc3ccccn3c(=O)c2/C=C2\SC(=S)N(CCC(=O)OCCOCCOCCOC(=O)c3ccc(-c4c5nc(c(-c6cccc(S(=O)(=O)[O-])c6F)c6ccc([nH]6)c(-c6cccc(S(=O)(=O)[O-])c6F)c6nc(c(-c7cccc(S(=O)(=O)[O-])c7F)c7ccc4[nH]7)C=C6)C=C5)cc3)C2=O)c1
REMARK SMILES IDX 34 1 33 2 32 3 31 4 30 5 28 6 29 7 27 8 26 9 25 10 20 11
REMARK SMILES IDX 21 12 22 13 105 14 23 15 106 16 24 17 19 18 9 19 10 20 11 21
REMARK SMILES IDX 17 22 12 23 16 24 18 25 13 26 15 27 14 28 8 29 7 30 1 31
REMARK SMILES IDX 2 32 3 33 107 34 4 35 5 36 6 37 35 38 36 39 37 40 38 41
REMARK SMILES IDX 39 42 40 43 41 44 42 45 43 46 104 47 44 48 103 49 45 50
REMARK SMILES IDX 46 51 47 52 97 53 48 54 102 55 96 56 98 57 49 58 101 59
REMARK SMILES IDX 95 60 94 61 50 63 82 64 62 65 81 66 63 67 66 68 80 69 99 70
REMARK SMILES IDX 64 71 65 72 79 74 100 75 67 76 51 77 52 78 60 79 53 80 55 81
REMARK SMILES IDX 61 82 54 83 56 84 57 85 58 86 59 87 83 88 84 89 92 90 85 91
REMARK SMILES IDX 87 92 93 93 86 94 88 95 89 96 90 97 91 98 68 99 69 100
REMARK SMILES IDX 77 101 70 102 72 103 78 104 71 105 73 106 74 107 75 108
REMARK SMILES IDX 76 109
REMARK H PARENT 98 62 66 73
REMARK Flexibility Score: inf
ROOT
ATOM      1  C   UNL A   1      30.731  31.280  25.372  1.00  0.00     0.188 C 
ENDROOT
BRANCH   1   2
ATOM      2  O   UNL A   1      29.906  32.038  24.506  1.00  0.00    -0.376 OA
BRANCH   2   3
ATOM      3  C   UNL A   1      28.802  31.320  23.960  1.00  0.00     0.202 C 
BRANCH   3   4
ATOM      4  C   UNL A   1      29.124  30.398  22.759  1.00  0.00     0.261 C 
BRANCH   4   5
ATOM      5  O   UNL A   1      29.595  29.069  23.102  1.00  0.00    -0.463 OA
BRANCH   5   6
ATOM      6  C   UNL A   1      30.654  28.569  22.423  1.00  0.00     0.307 C 
ATOM      7  O   UNL A   1      30.590  27.633  21.637  1.00  0.00    -0.252 OA
BRANCH   6   8
ATOM      8  C   UNL A   1      31.961  29.285  22.736  1.00  0.00     0.144 C 
BRANCH   8   9
ATOM      9  C   UNL A   1      32.900  28.744  23.837  1.00  0.00     0.139 C 
BRANCH   9  10
ATOM     10  N   UNL A   1      32.839  27.301  24.141  1.00  0.00    -0.292 N 
ATOM     11  C   UNL A   1      33.876  24.062  23.030  1.00  0.00     0.041 C 
ATOM     12  C   UNL A   1      33.192  25.010  23.687  1.00  0.00     0.081 C 
ATOM     13  S   UNL A   1      32.337  24.966  25.164  1.00  0.00    -0.054 SA
ATOM     14  C   UNL A   1      33.307  26.397  23.216  1.00  0.00     0.266 C 
ATOM     15  C   UNL A   1      32.210  26.733  25.231  1.00  0.00     0.148 C 
ATOM     16  O   UNL A   1      33.805  26.635  22.139  1.00  0.00    -0.268 OA
ATOM     17  S   UNL A   1      31.435  27.494  26.498  1.00  0.00    -0.052 S 
BRANCH  11  18
ATOM     18  C   UNL A   1      34.124  22.724  23.514  1.00  0.00     0.104 A 
ATOM     19  C   UNL A   1      35.244  22.364  24.182  1.00  0.00     0.234 A 
ATOM     20  N   UNL A   1      35.435  21.107  24.695  1.00  0.00    -0.194 NA
ATOM     21  C   UNL A   1      34.464  20.255  24.611  1.00  0.00     0.143 A 
ATOM     22  C   UNL A   1      33.086  21.682  23.281  1.00  0.00     0.269 A 
ATOM     23  C   UNL A   1      34.624  18.923  25.258  1.00  0.00     0.048 A 
ATOM     24  N   UNL A   1      33.267  20.492  23.959  1.00  0.00    -0.267 N 
ATOM     25  O   UNL A   1      32.154  21.899  22.507  1.00  0.00    -0.268 OA
ATOM     26  C   UNL A   1      33.619  18.041  25.226  1.00  0.00     0.005 A 
ATOM     27  C   UNL A   1      32.259  19.538  23.928  1.00  0.00     0.096 A 
ATOM     28  C   UNL A   1      32.392  18.356  24.542  1.00  0.00     0.019 A 
BRANCH  19  29
ATOM     29  O   UNL A   1      36.348  23.212  24.331  1.00  0.00    -0.438 OA
BRANCH  29  30
ATOM     30  C   UNL A   1      37.445  22.874  25.094  1.00  0.00     0.130 A 
ATOM     31  C   UNL A   1      39.797  20.012  25.945  1.00  0.00     0.044 C 
ATOM     32  C   UNL A   1      39.153  21.365  25.928  1.00  0.00    -0.047 A 
ATOM     33  C   UNL A   1      39.552  22.339  26.853  1.00  0.00     0.007 A 
ATOM     34  C   UNL A   1      38.135  21.665  25.014  1.00  0.00     0.050 A 
ATOM     35  C   UNL A   1      38.943  23.598  26.873  1.00  0.00    -0.047 A 
ATOM     36  C   UNL A   1      39.441  24.645  27.827  1.00  0.00     0.044 C 
ATOM     37  C   UNL A   1      37.871  23.848  26.005  1.00  0.00     0.050 A 
ENDBRANCH  29  30
ENDBRANCH  19  29
ENDBRANCH  11  18
ENDBRANCH   9  10
ENDBRANCH   8   9
ENDBRANCH   6   8
ENDBRANCH   5   6
ENDBRANCH   4   5
ENDBRANCH   3   4
ENDBRANCH   2   3
ENDBRANCH   1   2
BRANCH   1  38
ATOM     38  C   UNL A   1      31.016  31.923  26.712  1.00  0.00     0.188 C 
BRANCH  38  39
ATOM     39  O   UNL A   1      32.360  32.314  26.996  1.00  0.00    -0.376 OA
BRANCH  39  40
ATOM     40  C   UNL A   1      33.216  31.252  27.401  1.00  0.00     0.202 C 
BRANCH  40  41
ATOM     41  C   UNL A   1      34.386  31.642  28.331  1.00  0.00     0.261 C 
BRANCH  41  42
ATOM     42  O   UNL A   1      35.664  31.737  27.677  1.00  0.00    -0.460 OA
BRANCH  42  43
ATOM     43  C   UNL A   1      36.645  30.944  28.191  1.00  0.00     0.338 C 
ATOM     44  O   UNL A   1      36.971  29.839  27.788  1.00  0.00    -0.246 OA
BRANCH  43  45
ATOM     45  C   UNL A   1      37.441  31.728  29.176  1.00  0.00     0.060 A 
ATOM     46  C   UNL A   1      37.278  33.125  29.206  1.00  0.00     0.016 A 
ATOM     47  C   UNL A   1      38.271  31.110  30.114  1.00  0.00     0.016 A 
ATOM     48  C   UNL A   1      37.937  33.901  30.161  1.00  0.00     0.010 A 
ATOM     49  C   UNL A   1      38.971  31.894  31.039  1.00  0.00     0.010 A 
ATOM     50  C   UNL A   1      38.829  33.295  31.049  1.00  0.00    -0.014 A 
BRANCH  50  51
ATOM     51  C   UNL A   1      39.814  34.126  31.787  1.00  0.00     0.031 A 
ATOM     52  C   UNL A   1      41.018  34.607  31.021  1.00  0.00     0.074 A 
ATOM     53  C   UNL A   1      39.667  34.447  33.085  1.00  0.00     0.049 A 
ATOM     54  N   UNL A   1      42.074  35.248  31.444  1.00  0.00    -0.248 NA
ATOM     55  C   UNL A   1      41.028  34.319  29.575  1.00  0.00     0.031 C 
ATOM     56  C   UNL A   1      38.531  34.087  33.930  1.00  0.00     0.029 A 
ATOM     57  N   UNL A   1      40.508  35.135  33.929  1.00  0.00    -0.354 N 
ATOM     58  C   UNL A   1      42.887  35.411  30.327  1.00  0.00     0.074 A 
ATOM     59  C   UNL A   1      42.209  34.791  29.211  1.00  0.00     0.031 C 
ATOM     60  C   UNL A   1      38.762  34.526  35.183  1.00  0.00     0.029 A 
ATOM     61  C   UNL A   1      40.077  35.165  35.235  1.00  0.00     0.049 A 
ATOM     62  H   UNL A   1      41.340  35.565  33.626  1.00  0.00     0.167 HD
ATOM     63  C   UNL A   1      44.085  36.032  30.232  1.00  0.00     0.034 A 
ATOM     64  C   UNL A   1      40.691  35.624  36.345  1.00  0.00     0.034 A 
ATOM     65  C   UNL A   1      44.758  36.652  31.340  1.00  0.00     0.049 A 
ATOM     66  C   UNL A   1      42.064  36.247  36.225  1.00  0.00     0.074 A 
ATOM     67  C   UNL A   1      45.972  37.314  31.345  1.00  0.00     0.029 A 
ATOM     68  N   UNL A   1      44.280  36.678  32.639  1.00  0.00    -0.354 N 
ATOM     69  N   UNL A   1      42.789  36.460  35.153  1.00  0.00    -0.248 NA
ATOM     70  C   UNL A   1      42.694  36.715  37.471  1.00  0.00     0.031 C 
ATOM     71  C   UNL A   1      46.243  37.713  32.657  1.00  0.00     0.029 A 
ATOM     72  C   UNL A   1      45.176  37.340  33.458  1.00  0.00     0.049 A 
ATOM     73  H   UNL A   1      43.428  36.284  32.936  1.00  0.00     0.167 HD
ATOM     74  C   UNL A   1      43.929  37.131  35.587  1.00  0.00     0.074 A 
ATOM     75  C   UNL A   1      43.794  37.301  37.018  1.00  0.00     0.031 C 
ATOM     76  C   UNL A   1      44.997  37.561  34.869  1.00  0.00     0.034 A 
BRANCH  63  77
ATOM     77  C   UNL A   1      44.739  36.083  28.877  1.00  0.00     0.023 A 
ATOM     78  C   UNL A   1      44.657  37.261  28.106  1.00  0.00     0.012 A 
ATOM     79  C   UNL A   1      45.473  34.986  28.389  1.00  0.00     0.148 A 
ATOM     80  C   UNL A   1      45.271  37.335  26.857  1.00  0.00     0.002 A 
ATOM     81  C   UNL A   1      46.124  35.085  27.164  1.00  0.00     0.091 A 
ATOM     82  F   UNL A   1      45.520  33.868  29.127  1.00  0.00    -0.205 F 
ATOM     83  C   UNL A   1      46.012  36.252  26.392  1.00  0.00     0.022 A 
BRANCH  81  84
ATOM     84  S   UNL A   1      47.169  33.778  26.512  1.00  0.00     0.127 S 
ATOM     85  O   UNL A   1      46.180  32.764  26.146  1.00  0.00    -0.237 OA
ATOM     86  O   UNL A   1      47.811  34.440  25.377  1.00  0.00    -0.237 OA
ATOM     87  O   UNL A   1      48.070  33.404  27.591  1.00  0.00    -0.744 OA
ENDBRANCH  81  84
ENDBRANCH  63  77
BRANCH  64  88
ATOM     88  C   UNL A   1      40.029  35.531  37.681  1.00  0.00     0.023 A 
ATOM     89  C   UNL A   1      39.547  36.701  38.301  1.00  0.00     0.012 A 
ATOM     90  C   UNL A   1      39.916  34.301  38.360  1.00  0.00     0.148 A 
ATOM     91  C   UNL A   1      39.009  36.656  39.589  1.00  0.00     0.002 A 
ATOM     92  C   UNL A   1      39.327  34.256  39.619  1.00  0.00     0.091 A 
ATOM     93  F   UNL A   1      40.399  33.201  37.766  1.00  0.00    -0.205 F 
ATOM     94  C   UNL A   1      38.891  35.434  40.244  1.00  0.00     0.022 A 
BRANCH  92  95
ATOM     95  S   UNL A   1      39.035  32.715  40.494  1.00  0.00     0.127 S 
ATOM     96  O   UNL A   1      40.395  32.221  40.693  1.00  0.00    -0.237 OA
ATOM     97  O   UNL A   1      38.366  33.180  41.709  1.00  0.00    -0.237 OA
ATOM     98  O   UNL A   1      38.195  31.914  39.614  1.00  0.00    -0.744 OA
ENDBRANCH  92  95
ENDBRANCH  64  88
BRANCH  76  99
ATOM     99  C   UNL A   1      46.077  38.325  35.593  1.00  0.00     0.023 A 
ATOM    100  C   UNL A   1      47.218  37.657  36.077  1.00  0.00     0.012 A 
ATOM    101  C   UNL A   1      45.994  39.728  35.716  1.00  0.00     0.148 A 
ATOM    102  C   UNL A   1      48.243  38.367  36.704  1.00  0.00     0.002 A 
ATOM    103  C   UNL A   1      47.042  40.434  36.291  1.00  0.00     0.091 A 
ATOM    104  F   UNL A   1      44.894  40.345  35.259  1.00  0.00    -0.205 F 
ATOM    105  C   UNL A   1      48.161  39.755  36.799  1.00  0.00     0.022 A 
BRANCH 103 106
ATOM    106  S   UNL A   1      47.072  42.230  36.366  1.00  0.00     0.127 S 
ATOM    107  O   UNL A   1      45.988  42.505  37.308  1.00  0.00    -0.237 OA
ATOM    108  O   UNL A   1      48.414  42.493  36.887  1.00  0.00    -0.237 OA
ATOM    109  O   UNL A   1      46.847  42.695  35.005  1.00  0.00    -0.744 OA
ENDBRANCH 103 106
ENDBRANCH  76  99
ENDBRANCH  50  51
ENDBRANCH  43  45
ENDBRANCH  42  43
ENDBRANCH  41  42
ENDBRANCH  40  41
ENDBRANCH  39  40
ENDBRANCH  38  39
ENDBRANCH   1  38
TORSDOF 25
ENDMDL
MODEL 3
REMARK VINA RESULT:      -8.5      3.534      5.877
REMARK SMILES Cc1cc(C)cc(Oc2nc3ccccn3c(=O)c2/C=C2\SC(=S)N(CCC(=O)OCCOCCOCCOC(=O)c3ccc(-c4c5nc(c(-c6cccc(S(=O)(=O)[O-])c6F)c6ccc([nH]6)c(-c6cccc(S(=O)(=O)[O-])c6F)c6nc(c(-c7cccc(S(=O)(=O)[O-])c7F)c7ccc4[nH]7)C=C6)C=C5)cc3)C2=O)c1
REMARK SMILES IDX 34 1 33 2 32 3 31 4 30 5 28 6 29 7 27 8 26 9 25 10 20 11
REMARK SMILES IDX 21 12 22 13 105 14 23 15 106 16 24 17 19 18 9 19 10 20 11 21
REMARK SMILES IDX 17 22 12 23 16 24 18 25 13 26 15 27 14 28 8 29 7 30 1 31
REMARK SMILES IDX 2 32 3 33 107 34 4 35 5 36 6 37 35 38 36 39 37 40 38 41
REMARK SMILES IDX 39 42 40 43 41 44 42 45 43 46 104 47 44 48 103 49 45 50
REMARK SMILES IDX 46 51 47 52 97 53 48 54 102 55 96 56 98 57 49 58 101 59
REMARK SMILES IDX 95 60 94 61 50 63 82 64 62 65 81 66 63 67 66 68 80 69 99 70
REMARK SMILES IDX 64 71 65 72 79 74 100 75 67 76 51 77 52 78 60 79 53 80 55 81
REMARK SMILES IDX 61 82 54 83 56 84 57 85 58 86 59 87 83 88 84 89 92 90 85 91
REMARK SMILES IDX 87 92 93 93 86 94 88 95 89 96 90 97 91 98 68 99 69 100
REMARK SMILES IDX 77 101 70 102 72 103 78 104 71 105 73 106 74 107 75 108
REMARK SMILES IDX 76 109
REMARK H PARENT 98 62 66 73
REMARK Flexibility Score: inf
ROOT
ATOM      1  C   UNL A   1      30.835  30.948  25.036  1.00  0.00     0.188 C 
ENDROOT
BRANCH   1   2
ATOM      2  O   UNL A   1      29.923  31.785  24.349  1.00  0.00    -0.376 OA
BRANCH   2   3
ATOM      3  C   UNL A   1      28.884  31.092  23.663  1.00  0.00     0.202 C 
BRANCH   3   4
ATOM      4  C   UNL A   1      29.139  30.805  22.163  1.00  0.00     0.261 C 
BRANCH   4   5
ATOM      5  O   UNL A   1      28.910  29.436  21.742  1.00  0.00    -0.463 OA
BRANCH   5   6
ATOM      6  C   UNL A   1      29.312  28.437  22.562  1.00  0.00     0.307 C 
ATOM      7  O   UNL A   1      28.611  27.931  23.429  1.00  0.00    -0.252 OA
BRANCH   6   8
ATOM      8  C   UNL A   1      30.748  27.995  22.312  1.00  0.00     0.144 C 
BRANCH   8   9
ATOM      9  C   UNL A   1      31.659  27.601  23.494  1.00  0.00     0.139 C 
BRANCH   9  10
ATOM     10  N   UNL A   1      31.716  26.174  23.868  1.00  0.00    -0.292 N 
ATOM     11  C   UNL A   1      33.041  22.986  22.929  1.00  0.00     0.041 C 
ATOM     12  C   UNL A   1      32.269  23.902  23.531  1.00  0.00     0.081 C 
ATOM     13  S   UNL A   1      31.398  23.856  24.998  1.00  0.00    -0.054 SA
ATOM     14  C   UNL A   1      32.273  25.270  22.993  1.00  0.00     0.266 C 
ATOM     15  C   UNL A   1      31.119  25.606  24.977  1.00  0.00     0.148 C 
ATOM     16  O   UNL A   1      32.767  25.498  21.912  1.00  0.00    -0.268 OA
ATOM     17  S   UNL A   1      30.263  26.358  26.196  1.00  0.00    -0.052 S 
BRANCH  11  18
ATOM     18  C   UNL A   1      33.394  21.698  23.481  1.00  0.00     0.104 A 
ATOM     19  C   UNL A   1      34.346  21.523  24.425  1.00  0.00     0.234 A 
ATOM     20  N   UNL A   1      34.623  20.304  24.989  1.00  0.00    -0.194 NA
ATOM     21  C   UNL A   1      33.881  19.295  24.665  1.00  0.00     0.143 A 
ATOM     22  C   UNL A   1      32.661  20.496  22.998  1.00  0.00     0.269 A 
ATOM     23  C   UNL A   1      34.106  17.992  25.350  1.00  0.00     0.048 A 
ATOM     24  N   UNL A   1      32.873  19.334  23.717  1.00  0.00    -0.267 N 
ATOM     25  O   UNL A   1      31.940  20.567  22.003  1.00  0.00    -0.268 OA
ATOM     26  C   UNL A   1      33.323  16.945  25.067  1.00  0.00     0.005 A 
ATOM     27  C   UNL A   1      32.100  18.216  23.436  1.00  0.00     0.096 A 
ATOM     28  C   UNL A   1      32.281  17.058  24.080  1.00  0.00     0.019 A 
BRANCH  19  29
ATOM     29  O   UNL A   1      35.200  22.550  24.847  1.00  0.00    -0.438 OA
BRANCH  29  30
ATOM     30  C   UNL A   1      36.514  22.325  25.198  1.00  0.00     0.130 A 
ATOM     31  C   UNL A   1      39.184  19.631  25.435  1.00  0.00     0.044 C 
ATOM     32  C   UNL A   1      38.495  20.959  25.514  1.00  0.00    -0.047 A 
ATOM     33  C   UNL A   1      39.134  22.042  26.132  1.00  0.00     0.007 A 
ATOM     34  C   UNL A   1      37.203  21.130  24.998  1.00  0.00     0.050 A 
ATOM     35  C   UNL A   1      38.496  23.282  26.241  1.00  0.00    -0.047 A 
ATOM     36  C   UNL A   1      39.234  24.442  26.845  1.00  0.00     0.044 C 
ATOM     37  C   UNL A   1      37.174  23.407  25.793  1.00  0.00     0.050 A 
ENDBRANCH  29  30
ENDBRANCH  19  29
ENDBRANCH  11  18
ENDBRANCH   9  10
ENDBRANCH   8   9
ENDBRANCH   6   8
ENDBRANCH   5   6
ENDBRANCH   4   5
ENDBRANCH   3   4
ENDBRANCH   2   3
ENDBRANCH   1   2
BRANCH   1  38
ATOM     38  C   UNL A   1      30.997  31.250  26.510  1.00  0.00     0.188 C 
BRANCH  38  39
ATOM     39  O   UNL A   1      32.071  30.620  27.210  1.00  0.00    -0.376 OA
BRANCH  39  40
ATOM     40  C   UNL A   1      32.348  29.286  26.801  1.00  0.00     0.202 C 
BRANCH  40  41
ATOM     41  C   UNL A   1      33.826  28.967  26.484  1.00  0.00     0.261 C 
BRANCH  41  42
ATOM     42  O   UNL A   1      34.718  29.089  27.605  1.00  0.00    -0.460 OA
BRANCH  42  43
ATOM     43  C   UNL A   1      35.317  30.304  27.747  1.00  0.00     0.338 C 
ATOM     44  O   UNL A   1      34.848  31.386  27.433  1.00  0.00    -0.246 OA
BRANCH  43  45
ATOM     45  C   UNL A   1      36.545  30.150  28.576  1.00  0.00     0.060 A 
ATOM     46  C   UNL A   1      37.685  30.895  28.226  1.00  0.00     0.016 A 
ATOM     47  C   UNL A   1      36.565  29.357  29.725  1.00  0.00     0.016 A 
ATOM     48  C   UNL A   1      38.838  30.851  29.014  1.00  0.00     0.010 A 
ATOM     49  C   UNL A   1      37.737  29.273  30.487  1.00  0.00     0.010 A 
ATOM     50  C   UNL A   1      38.887  29.998  30.120  1.00  0.00    -0.014 A 
BRANCH  50  51
ATOM     51  C   UNL A   1      40.199  29.644  30.720  1.00  0.00     0.031 A 
ATOM     52  C   UNL A   1      40.891  28.417  30.185  1.00  0.00     0.074 A 
ATOM     53  C   UNL A   1      40.767  30.366  31.703  1.00  0.00     0.049 A 
ATOM     54  N   UNL A   1      41.979  27.827  30.599  1.00  0.00    -0.248 NA
ATOM     55  C   UNL A   1      40.259  27.768  29.022  1.00  0.00     0.031 C 
ATOM     56  C   UNL A   1      40.229  31.596  32.278  1.00  0.00     0.029 A 
ATOM     57  N   UNL A   1      41.924  30.141  32.411  1.00  0.00    -0.354 N 
ATOM     58  C   UNL A   1      42.145  26.723  29.771  1.00  0.00     0.074 A 
ATOM     59  C   UNL A   1      41.040  26.716  28.840  1.00  0.00     0.031 C 
ATOM     60  C   UNL A   1      41.037  31.999  33.278  1.00  0.00     0.029 A 
ATOM     61  C   UNL A   1      42.126  31.036  33.436  1.00  0.00     0.049 A 
ATOM     62  H   UNL A   1      42.548  29.408  32.205  1.00  0.00     0.167 HD
ATOM     63  C   UNL A   1      43.135  25.800  29.774  1.00  0.00     0.034 A 
ATOM     64  C   UNL A   1      43.063  31.052  34.407  1.00  0.00     0.034 A 
ATOM     65  C   UNL A   1      44.236  25.807  30.697  1.00  0.00     0.049 A 
ATOM     66  C   UNL A   1      44.116  29.967  34.435  1.00  0.00     0.074 A 
ATOM     67  C   UNL A   1      45.295  24.922  30.777  1.00  0.00     0.029 A 
ATOM     68  N   UNL A   1      44.415  26.740  31.705  1.00  0.00    -0.354 N 
ATOM     69  N   UNL A   1      44.304  28.971  33.603  1.00  0.00    -0.248 NA
ATOM     70  C   UNL A   1      45.104  30.024  35.526  1.00  0.00     0.031 C 
ATOM     71  C   UNL A   1      46.099  25.301  31.856  1.00  0.00     0.029 A 
ATOM     72  C   UNL A   1      45.564  26.450  32.417  1.00  0.00     0.049 A 
ATOM     73  H   UNL A   1      43.814  27.498  31.887  1.00  0.00     0.167 HD
ATOM     74  C   UNL A   1      45.456  28.319  34.038  1.00  0.00     0.074 A 
ATOM     75  C   UNL A   1      45.930  29.040  35.200  1.00  0.00     0.031 C 
ATOM     76  C   UNL A   1      46.061  27.217  33.529  1.00  0.00     0.034 A 
BRANCH  63  77
ATOM     77  C   UNL A   1      43.078  24.712  28.736  1.00  0.00     0.023 A 
ATOM     78  C   UNL A   1      42.276  23.574  28.961  1.00  0.00     0.012 A 
ATOM     79  C   UNL A   1      43.775  24.838  27.519  1.00  0.00     0.148 A 
ATOM     80  C   UNL A   1      42.195  22.563  28.004  1.00  0.00     0.002 A 
ATOM     81  C   UNL A   1      43.650  23.849  26.550  1.00  0.00     0.091 A 
ATOM     82  F   UNL A   1      44.548  25.917  27.334  1.00  0.00    -0.205 F 
ATOM     83  C   UNL A   1      42.872  22.707  26.796  1.00  0.00     0.022 A 
BRANCH  81  84
ATOM     84  S   UNL A   1      44.416  23.975  24.931  1.00  0.00     0.127 S 
ATOM     85  O   UNL A   1      44.154  25.373  24.588  1.00  0.00    -0.237 OA
ATOM     86  O   UNL A   1      45.816  23.674  25.232  1.00  0.00    -0.237 OA
ATOM     87  O   UNL A   1      43.747  22.994  24.089  1.00  0.00    -0.744 OA
ENDBRANCH  81  84
ENDBRANCH  63  77
BRANCH  64  88
ATOM     88  C   UNL A   1      43.075  32.129  35.443  1.00  0.00     0.023 A 
ATOM     89  C   UNL A   1      43.815  33.306  35.214  1.00  0.00     0.012 A 
ATOM     90  C   UNL A   1      42.398  31.975  36.670  1.00  0.00     0.148 A 
ATOM     91  C   UNL A   1      43.920  34.287  36.201  1.00  0.00     0.002 A 
ATOM     92  C   UNL A   1      42.461  32.982  37.626  1.00  0.00     0.091 A 
ATOM     93  F   UNL A   1      41.717  30.840  36.881  1.00  0.00    -0.205 F 
ATOM     94  C   UNL A   1      43.237  34.129  37.403  1.00  0.00     0.022 A 
BRANCH  92  95
ATOM     95  S   UNL A   1      41.528  32.916  39.161  1.00  0.00     0.127 S 
ATOM     96  O   UNL A   1      41.751  34.252  39.704  1.00  0.00    -0.237 OA
ATOM     97  O   UNL A   1      40.170  32.666  38.677  1.00  0.00    -0.237 OA
ATOM     98  O   UNL A   1      42.106  31.819  39.926  1.00  0.00    -0.744 OA
ENDBRANCH  92  95
ENDBRANCH  64  88
BRANCH  76  99
ATOM     99  C   UNL A   1      47.347  26.756  34.169  1.00  0.00     0.023 A 
ATOM    100  C   UNL A   1      47.323  25.825  35.225  1.00  0.00     0.012 A 
ATOM    101  C   UNL A   1      48.589  27.187  33.657  1.00  0.00     0.148 A 
ATOM    102  C   UNL A   1      48.512  25.359  35.787  1.00  0.00     0.002 A 
ATOM    103  C   UNL A   1      49.769  26.677  34.184  1.00  0.00     0.091 A 
ATOM    104  F   UNL A   1      48.592  28.082  32.659  1.00  0.00    -0.205 F 
ATOM    105  C   UNL A   1      49.732  25.773  35.259  1.00  0.00     0.022 A 
BRANCH 103 106
ATOM    106  S   UNL A   1      51.383  27.074  33.503  1.00  0.00     0.127 S 
ATOM    107  O   UNL A   1      52.233  27.001  34.691  1.00  0.00    -0.237 OA
ATOM    108  O   UNL A   1      51.586  25.991  32.540  1.00  0.00    -0.237 OA
ATOM    109  O   UNL A   1      51.257  28.398  32.910  1.00  0.00    -0.744 OA
ENDBRANCH 103 106
ENDBRANCH  76  99
ENDBRANCH  50  51
ENDBRANCH  43  45
ENDBRANCH  42  43
ENDBRANCH  41  42
ENDBRANCH  40  41
ENDBRANCH  39  40
ENDBRANCH  38  39
ENDBRANCH   1  38
TORSDOF 25
ENDMDL
