MODEL 1
REMARK VINA RESULT:     -10.6      0.000      0.000
REMARK SMILES Nc1cc(C(=O)OCCOCCOCCOC(=O)c2ccc(-c3c4nc(c(-c5cccc(S(=O)(=O)[O-])c5F)c5ccc([nH]5)c(-c5cccc(S(=O)(=O)[O-])c5F)c5nc(c(-c6cccc(S(=O)(=O)[O-])c6F)c6ccc3[nH]6)C=C5)C=C4)cc2)nc2ccc(F)cc12
REMARK SMILES IDX 12 1 11 2 10 3 9 4 8 5 7 6 5 7 6 8 4 9 2 10 3 11 89 12 83 13
REMARK SMILES IDX 88 14 82 15 84 16 86 17 85 18 87 19 1 20 13 23 14 24 15 25
REMARK SMILES IDX 16 26 17 27 18 28 19 29 20 30 81 31 21 32 80 33 22 34 23 35
REMARK SMILES IDX 24 36 74 37 25 38 79 39 73 40 75 41 26 42 78 43 72 44 71 45
REMARK SMILES IDX 27 47 59 48 39 49 58 50 40 51 43 52 57 53 76 54 41 55 42 56
REMARK SMILES IDX 56 58 77 59 44 60 28 61 29 62 37 63 30 64 32 65 38 66 31 67
REMARK SMILES IDX 33 68 34 69 35 70 36 71 60 72 61 73 69 74 62 75 64 76 70 77
REMARK SMILES IDX 63 78 65 79 66 80 67 81 68 82 45 83 46 84 54 85 47 86 49 87
REMARK SMILES IDX 55 88 48 89 50 90 51 91 52 92 53 93
REMARK H PARENT 1 21 1 22 75 46 43 57
REMARK Flexibility Score: inf
ROOT
ATOM      1  C   UNL A   1      33.456  27.750  25.159  1.00  0.00     0.188 C 
ENDROOT
BRANCH   1   2
ATOM      2  C   UNL A   1      33.572  27.473  23.644  1.00  0.00     0.188 C 
BRANCH   2   3
ATOM      3  O   UNL A   1      34.103  26.236  23.224  1.00  0.00    -0.376 OA
BRANCH   3   4
ATOM      4  C   UNL A   1      33.668  25.012  23.789  1.00  0.00     0.202 C 
BRANCH   4   5
ATOM      5  C   UNL A   1      32.400  24.241  23.387  1.00  0.00     0.261 C 
BRANCH   5   6
ATOM      6  O   UNL A   1      31.260  25.022  23.026  1.00  0.00    -0.459 OA
BRANCH   6   7
ATOM      7  C   UNL A   1      30.420  25.317  24.058  1.00  0.00     0.357 C 
ATOM      8  O   UNL A   1      30.409  24.786  25.155  1.00  0.00    -0.244 OA
BRANCH   7   9
ATOM      9  C   UNL A   1      29.579  26.482  23.682  1.00  0.00     0.151 A 
ATOM     10  C   UNL A   1      27.485  27.616  23.610  1.00  0.00     0.043 A 
ATOM     11  C   UNL A   1      28.231  26.505  23.993  1.00  0.00     0.062 A 
ATOM     12  C   UNL A   1      28.145  28.709  22.989  1.00  0.00     0.026 A 
ATOM     13  C   UNL A   1      29.519  28.559  22.681  1.00  0.00     0.073 A 
ATOM     14  C   UNL A   1      27.514  29.932  22.663  1.00  0.00     0.051 A 
ATOM     15  N   UNL A   1      30.218  27.467  23.007  1.00  0.00    -0.241 NA
ATOM     16  C   UNL A   1      30.185  29.585  22.020  1.00  0.00     0.032 A 
ATOM     17  C   UNL A   1      28.217  30.947  22.027  1.00  0.00     0.124 A 
ATOM     18  C   UNL A   1      29.546  30.780  21.686  1.00  0.00     0.041 A 
ATOM     19  F   UNL A   1      27.595  32.099  21.744  1.00  0.00    -0.207 F 
BRANCH  10  20
ATOM     20  N   UNL A   1      26.135  27.664  23.973  1.00  0.00    -0.398 N 
ATOM     21  H   UNL A   1      25.460  27.209  23.419  1.00  0.00     0.156 HD
ATOM     22  H   UNL A   1      25.861  28.152  24.782  1.00  0.00     0.156 HD
ENDBRANCH  10  20
ENDBRANCH   7   9
ENDBRANCH   6   7
ENDBRANCH   5   6
ENDBRANCH   4   5
ENDBRANCH   3   4
ENDBRANCH   2   3
ENDBRANCH   1   2
BRANCH   1  23
ATOM     23  O   UNL A   1      32.206  27.651  25.823  1.00  0.00    -0.376 OA
BRANCH  23  24
ATOM     24  C   UNL A   1      31.827  28.665  26.744  1.00  0.00     0.202 C 
BRANCH  24  25
ATOM     25  C   UNL A   1      31.723  30.132  26.308  1.00  0.00     0.261 C 
BRANCH  25  26
ATOM     26  O   UNL A   1      32.983  30.787  26.118  1.00  0.00    -0.460 OA
BRANCH  26  27
ATOM     27  C   UNL A   1      33.308  31.705  27.063  1.00  0.00     0.338 C 
ATOM     28  O   UNL A   1      32.611  32.616  27.478  1.00  0.00    -0.246 OA
BRANCH  27  29
ATOM     29  C   UNL A   1      34.595  31.322  27.670  1.00  0.00     0.060 A 
ATOM     30  C   UNL A   1      35.566  32.284  27.951  1.00  0.00     0.016 A 
ATOM     31  C   UNL A   1      34.823  29.970  27.962  1.00  0.00     0.016 A 
ATOM     32  C   UNL A   1      36.766  31.889  28.547  1.00  0.00     0.010 A 
ATOM     33  C   UNL A   1      36.031  29.576  28.538  1.00  0.00     0.010 A 
ATOM     34  C   UNL A   1      37.002  30.536  28.852  1.00  0.00    -0.014 A 
BRANCH  34  35
ATOM     35  C   UNL A   1      38.187  30.158  29.656  1.00  0.00     0.031 A 
ATOM     36  C   UNL A   1      38.410  30.681  31.041  1.00  0.00     0.074 A 
ATOM     37  C   UNL A   1      39.090  29.333  29.091  1.00  0.00     0.049 A 
ATOM     38  N   UNL A   1      39.350  30.356  31.891  1.00  0.00    -0.248 NA
ATOM     39  C   UNL A   1      37.472  31.697  31.537  1.00  0.00     0.031 C 
ATOM     40  C   UNL A   1      39.010  28.815  27.724  1.00  0.00     0.029 A 
ATOM     41  N   UNL A   1      40.248  28.792  29.589  1.00  0.00    -0.354 N 
ATOM     42  C   UNL A   1      39.119  31.120  33.026  1.00  0.00     0.074 A 
ATOM     43  C   UNL A   1      37.961  31.946  32.747  1.00  0.00     0.031 C 
ATOM     44  C   UNL A   1      40.065  28.019  27.496  1.00  0.00     0.029 A 
ATOM     45  C   UNL A   1      40.898  27.976  28.694  1.00  0.00     0.049 A 
ATOM     46  H   UNL A   1      40.580  28.971  30.497  1.00  0.00     0.167 HD
ATOM     47  C   UNL A   1      39.799  31.112  34.198  1.00  0.00     0.034 A 
ATOM     48  C   UNL A   1      42.029  27.259  28.826  1.00  0.00     0.034 A 
ATOM     49  C   UNL A   1      40.944  30.281  34.471  1.00  0.00     0.049 A 
ATOM     50  C   UNL A   1      42.754  27.256  30.139  1.00  0.00     0.074 A 
ATOM     51  C   UNL A   1      41.651  30.160  35.655  1.00  0.00     0.029 A 
ATOM     52  N   UNL A   1      41.558  29.445  33.552  1.00  0.00    -0.354 N 
ATOM     53  N   UNL A   1      42.435  27.870  31.252  1.00  0.00    -0.248 NA
ATOM     54  C   UNL A   1      43.972  26.439  30.229  1.00  0.00     0.031 C 
ATOM     55  C   UNL A   1      42.702  29.261  35.448  1.00  0.00     0.029 A 
ATOM     56  C   UNL A   1      42.642  28.813  34.139  1.00  0.00     0.049 A 
ATOM     57  H   UNL A   1      41.267  29.319  32.620  1.00  0.00     0.167 HD
ATOM     58  C   UNL A   1      43.399  27.500  32.180  1.00  0.00     0.074 A 
ATOM     59  C   UNL A   1      44.308  26.596  31.504  1.00  0.00     0.031 C 
ATOM     60  C   UNL A   1      43.521  27.886  33.473  1.00  0.00     0.034 A 
BRANCH  47  61
ATOM     61  C   UNL A   1      39.290  31.974  35.320  1.00  0.00     0.023 A 
ATOM     62  C   UNL A   1      38.418  31.408  36.270  1.00  0.00     0.012 A 
ATOM     63  C   UNL A   1      39.769  33.286  35.511  1.00  0.00     0.148 A 
ATOM     64  C   UNL A   1      38.022  32.135  37.392  1.00  0.00     0.002 A 
ATOM     65  C   UNL A   1      39.394  33.995  36.647  1.00  0.00     0.091 A 
ATOM     66  F   UNL A   1      40.594  33.804  34.590  1.00  0.00    -0.205 F 
ATOM     67  C   UNL A   1      38.518  33.422  37.586  1.00  0.00     0.022 A 
BRANCH  65  68
ATOM     68  S   UNL A   1      40.021  35.634  37.026  1.00  0.00     0.127 S 
ATOM     69  O   UNL A   1      39.317  35.940  38.270  1.00  0.00    -0.237 OA
ATOM     70  O   UNL A   1      41.455  35.386  37.181  1.00  0.00    -0.237 OA
ATOM     71  O   UNL A   1      39.666  36.475  35.891  1.00  0.00    -0.744 OA
ENDBRANCH  65  68
ENDBRANCH  47  61
BRANCH  48  72
ATOM     72  C   UNL A   1      42.477  26.413  27.689  1.00  0.00     0.023 A 
ATOM     73  C   UNL A   1      43.460  26.910  26.812  1.00  0.00     0.012 A 
ATOM     74  C   UNL A   1      42.013  25.093  27.537  1.00  0.00     0.148 A 
ATOM     75  C   UNL A   1      43.972  26.104  25.796  1.00  0.00     0.002 A 
ATOM     76  C   UNL A   1      42.555  24.284  26.548  1.00  0.00     0.091 A 
ATOM     77  F   UNL A   1      41.081  24.649  28.391  1.00  0.00    -0.205 F 
ATOM     78  C   UNL A   1      43.529  24.789  25.671  1.00  0.00     0.022 A 
BRANCH  76  79
ATOM     79  S   UNL A   1      42.125  22.549  26.369  1.00  0.00     0.127 S 
ATOM     80  O   UNL A   1      42.751  22.217  25.091  1.00  0.00    -0.237 OA
ATOM     81  O   UNL A   1      42.771  21.961  27.543  1.00  0.00    -0.237 OA
ATOM     82  O   UNL A   1      40.670  22.496  26.384  1.00  0.00    -0.744 OA
ENDBRANCH  76  79
ENDBRANCH  48  72
BRANCH  60  83
ATOM     83  C   UNL A   1      44.678  27.343  34.266  1.00  0.00     0.023 A 
ATOM     84  C   UNL A   1      45.924  27.996  34.203  1.00  0.00     0.012 A 
ATOM     85  C   UNL A   1      44.501  26.267  35.157  1.00  0.00     0.148 A 
ATOM     86  C   UNL A   1      46.981  27.581  35.012  1.00  0.00     0.002 A 
ATOM     87  C   UNL A   1      45.548  25.879  35.983  1.00  0.00     0.091 A 
ATOM     88  F   UNL A   1      43.307  25.656  35.190  1.00  0.00    -0.205 F 
ATOM     89  C   UNL A   1      46.790  26.532  35.909  1.00  0.00     0.022 A 
BRANCH  87  90
ATOM     90  S   UNL A   1      45.384  24.587  37.221  1.00  0.00     0.127 S 
ATOM     91  O   UNL A   1      44.282  25.096  38.037  1.00  0.00    -0.237 OA
ATOM     92  O   UNL A   1      45.052  23.419  36.407  1.00  0.00    -0.237 OA
ATOM     93  O   UNL A   1      46.671  24.512  37.900  1.00  0.00    -0.744 OA
ENDBRANCH  87  90
ENDBRANCH  60  83
ENDBRANCH  34  35
ENDBRANCH  27  29
ENDBRANCH  26  27
ENDBRANCH  25  26
ENDBRANCH  24  25
ENDBRANCH  23  24
ENDBRANCH   1  23
TORSDOF 21
ENDMDL
MODEL 2
REMARK VINA RESULT:     -10.6      5.028      9.854
REMARK SMILES Nc1cc(C(=O)OCCOCCOCCOC(=O)c2ccc(-c3c4nc(c(-c5cccc(S(=O)(=O)[O-])c5F)c5ccc([nH]5)c(-c5cccc(S(=O)(=O)[O-])c5F)c5nc(c(-c6cccc(S(=O)(=O)[O-])c6F)c6ccc3[nH]6)C=C5)C=C4)cc2)nc2ccc(F)cc12
REMARK SMILES IDX 12 1 11 2 10 3 9 4 8 5 7 6 5 7 6 8 4 9 2 10 3 11 89 12 83 13
REMARK SMILES IDX 88 14 82 15 84 16 86 17 85 18 87 19 1 20 13 23 14 24 15 25
REMARK SMILES IDX 16 26 17 27 18 28 19 29 20 30 81 31 21 32 80 33 22 34 23 35
REMARK SMILES IDX 24 36 74 37 25 38 79 39 73 40 75 41 26 42 78 43 72 44 71 45
REMARK SMILES IDX 27 47 59 48 39 49 58 50 40 51 43 52 57 53 76 54 41 55 42 56
REMARK SMILES IDX 56 58 77 59 44 60 28 61 29 62 37 63 30 64 32 65 38 66 31 67
REMARK SMILES IDX 33 68 34 69 35 70 36 71 60 72 61 73 69 74 62 75 64 76 70 77
REMARK SMILES IDX 63 78 65 79 66 80 67 81 68 82 45 83 46 84 54 85 47 86 49 87
REMARK SMILES IDX 55 88 48 89 50 90 51 91 52 92 53 93
REMARK H PARENT 1 21 1 22 75 46 43 57
REMARK Flexibility Score: inf
ROOT
ATOM      1  C   UNL A   1      34.247  21.027  25.016  1.00  0.00     0.188 C 
ENDROOT
BRANCH   1   2
ATOM      2  C   UNL A   1      33.407  20.902  26.307  1.00  0.00     0.188 C 
BRANCH   2   3
ATOM      3  O   UNL A   1      33.509  21.920  27.277  1.00  0.00    -0.376 OA
BRANCH   3   4
ATOM      4  C   UNL A   1      32.485  22.884  27.452  1.00  0.00     0.202 C 
BRANCH   4   5
ATOM      5  C   UNL A   1      31.724  23.595  26.320  1.00  0.00     0.261 C 
BRANCH   5   6
ATOM      6  O   UNL A   1      31.329  24.946  26.561  1.00  0.00    -0.459 OA
BRANCH   6   7
ATOM      7  C   UNL A   1      31.917  25.866  25.746  1.00  0.00     0.357 C 
ATOM      8  O   UNL A   1      33.114  26.071  25.633  1.00  0.00    -0.244 OA
BRANCH   7   9
ATOM      9  C   UNL A   1      30.873  26.515  24.913  1.00  0.00     0.151 A 
ATOM     10  C   UNL A   1      28.639  26.668  24.099  1.00  0.00     0.043 A 
ATOM     11  C   UNL A   1      29.578  26.030  24.906  1.00  0.00     0.062 A 
ATOM     12  C   UNL A   1      29.024  27.831  23.382  1.00  0.00     0.026 A 
ATOM     13  C   UNL A   1      30.386  28.213  23.429  1.00  0.00     0.073 A 
ATOM     14  C   UNL A   1      28.130  28.626  22.627  1.00  0.00     0.051 A 
ATOM     15  N   UNL A   1      31.293  27.564  24.167  1.00  0.00    -0.241 NA
ATOM     16  C   UNL A   1      30.812  29.313  22.692  1.00  0.00     0.032 A 
ATOM     17  C   UNL A   1      28.584  29.733  21.923  1.00  0.00     0.124 A 
ATOM     18  C   UNL A   1      29.924  30.077  21.934  1.00  0.00     0.041 A 
ATOM     19  F   UNL A   1      27.712  30.474  21.228  1.00  0.00    -0.207 F 
BRANCH  10  20
ATOM     20  N   UNL A   1      27.318  26.211  24.134  1.00  0.00    -0.398 N 
ATOM     21  H   UNL A   1      26.987  25.722  24.922  1.00  0.00     0.156 HD
ATOM     22  H   UNL A   1      26.719  26.380  23.371  1.00  0.00     0.156 HD
ENDBRANCH  10  20
ENDBRANCH   7   9
ENDBRANCH   6   7
ENDBRANCH   5   6
ENDBRANCH   4   5
ENDBRANCH   3   4
ENDBRANCH   2   3
ENDBRANCH   1   2
BRANCH   1  23
ATOM     23  O   UNL A   1      35.642  21.276  25.078  1.00  0.00    -0.376 OA
BRANCH  23  24
ATOM     24  C   UNL A   1      36.547  20.186  24.960  1.00  0.00     0.202 C 
BRANCH  24  25
ATOM     25  C   UNL A   1      38.064  20.405  25.018  1.00  0.00     0.261 C 
BRANCH  25  26
ATOM     26  O   UNL A   1      38.478  21.481  25.868  1.00  0.00    -0.460 OA
BRANCH  26  27
ATOM     27  C   UNL A   1      39.705  21.338  26.429  1.00  0.00     0.338 C 
ATOM     28  O   UNL A   1      40.423  20.353  26.392  1.00  0.00    -0.246 OA
BRANCH  27  29
ATOM     29  C   UNL A   1      40.140  22.645  26.952  1.00  0.00     0.060 A 
ATOM     30  C   UNL A   1      41.163  22.731  27.897  1.00  0.00     0.016 A 
ATOM     31  C   UNL A   1      39.507  23.802  26.476  1.00  0.00     0.016 A 
ATOM     32  C   UNL A   1      41.565  23.988  28.354  1.00  0.00     0.010 A 
ATOM     33  C   UNL A   1      39.898  25.055  26.949  1.00  0.00     0.010 A 
ATOM     34  C   UNL A   1      40.943  25.157  27.877  1.00  0.00    -0.014 A 
BRANCH  34  35
ATOM     35  C   UNL A   1      41.506  26.483  28.218  1.00  0.00     0.031 A 
ATOM     36  C   UNL A   1      42.926  26.849  27.914  1.00  0.00     0.074 A 
ATOM     37  C   UNL A   1      40.700  27.365  28.842  1.00  0.00     0.049 A 
ATOM     38  N   UNL A   1      43.518  28.005  28.067  1.00  0.00    -0.248 NA
ATOM     39  C   UNL A   1      43.794  25.792  27.376  1.00  0.00     0.031 C 
ATOM     40  C   UNL A   1      39.320  27.093  29.248  1.00  0.00     0.029 A 
ATOM     41  N   UNL A   1      40.923  28.655  29.249  1.00  0.00    -0.354 N 
ATOM     42  C   UNL A   1      44.828  27.822  27.644  1.00  0.00     0.074 A 
ATOM     43  C   UNL A   1      44.950  26.434  27.247  1.00  0.00     0.031 C 
ATOM     44  C   UNL A   1      38.813  28.189  29.832  1.00  0.00     0.029 A 
ATOM     45  C   UNL A   1      39.832  29.235  29.849  1.00  0.00     0.049 A 
ATOM     46  H   UNL A   1      41.781  29.120  29.121  1.00  0.00     0.167 HD
ATOM     47  C   UNL A   1      45.823  28.738  27.571  1.00  0.00     0.034 A 
ATOM     48  C   UNL A   1      39.660  30.474  30.343  1.00  0.00     0.034 A 
ATOM     49  C   UNL A   1      45.691  30.119  27.959  1.00  0.00     0.049 A 
ATOM     50  C   UNL A   1      40.774  31.473  30.237  1.00  0.00     0.074 A 
ATOM     51  C   UNL A   1      46.630  31.132  27.854  1.00  0.00     0.029 A 
ATOM     52  N   UNL A   1      44.563  30.679  28.536  1.00  0.00    -0.354 N 
ATOM     53  N   UNL A   1      41.958  31.325  29.695  1.00  0.00    -0.248 NA
ATOM     54  C   UNL A   1      40.523  32.816  30.777  1.00  0.00     0.031 C 
ATOM     55  C   UNL A   1      46.074  32.301  28.382  1.00  0.00     0.029 A 
ATOM     56  C   UNL A   1      44.784  32.021  28.803  1.00  0.00     0.049 A 
ATOM     57  H   UNL A   1      43.727  30.196  28.728  1.00  0.00     0.167 HD
ATOM     58  C   UNL A   1      42.587  32.557  29.809  1.00  0.00     0.074 A 
ATOM     59  C   UNL A   1      41.647  33.448  30.461  1.00  0.00     0.031 C 
ATOM     60  C   UNL A   1      43.834  32.911  29.417  1.00  0.00     0.034 A 
BRANCH  47  61
ATOM     61  C   UNL A   1      47.140  28.310  26.984  1.00  0.00     0.023 A 
ATOM     62  C   UNL A   1      48.205  28.005  27.854  1.00  0.00     0.012 A 
ATOM     63  C   UNL A   1      47.286  28.082  25.601  1.00  0.00     0.148 A 
ATOM     64  C   UNL A   1      49.400  27.486  27.359  1.00  0.00     0.002 A 
ATOM     65  C   UNL A   1      48.470  27.537  25.116  1.00  0.00     0.091 A 
ATOM     66  F   UNL A   1      46.259  28.385  24.793  1.00  0.00    -0.205 F 
ATOM     67  C   UNL A   1      49.528  27.243  25.993  1.00  0.00     0.022 A 
BRANCH  65  68
ATOM     68  S   UNL A   1      48.719  27.126  23.386  1.00  0.00     0.127 S 
ATOM     69  O   UNL A   1      50.170  26.954  23.329  1.00  0.00    -0.237 OA
ATOM     70  O   UNL A   1      47.951  25.887  23.251  1.00  0.00    -0.237 OA
ATOM     71  O   UNL A   1      48.199  28.253  22.624  1.00  0.00    -0.744 OA
ENDBRANCH  65  68
ENDBRANCH  47  61
BRANCH  48  72
ATOM     72  C   UNL A   1      38.334  30.847  30.899  1.00  0.00     0.023 A 
ATOM     73  C   UNL A   1      38.077  30.625  32.266  1.00  0.00     0.012 A 
ATOM     74  C   UNL A   1      37.374  31.509  30.111  1.00  0.00     0.148 A 
ATOM     75  C   UNL A   1      36.880  31.054  32.838  1.00  0.00     0.002 A 
ATOM     76  C   UNL A   1      36.201  31.967  30.695  1.00  0.00     0.091 A 
ATOM     77  F   UNL A   1      37.651  31.710  28.815  1.00  0.00    -0.205 F 
ATOM     78  C   UNL A   1      35.948  31.733  32.057  1.00  0.00     0.022 A 
BRANCH  76  79
ATOM     79  S   UNL A   1      34.986  32.941  29.800  1.00  0.00     0.127 S 
ATOM     80  O   UNL A   1      35.825  33.953  29.163  1.00  0.00    -0.237 OA
ATOM     81  O   UNL A   1      34.422  31.945  28.888  1.00  0.00    -0.237 OA
ATOM     82  O   UNL A   1      34.058  33.441  30.804  1.00  0.00    -0.744 OA
ENDBRANCH  76  79
ENDBRANCH  48  72
BRANCH  60  83
ATOM     83  C   UNL A   1      44.281  34.324  29.674  1.00  0.00     0.023 A 
ATOM     84  C   UNL A   1      44.988  34.621  30.855  1.00  0.00     0.012 A 
ATOM     85  C   UNL A   1      44.106  35.326  28.698  1.00  0.00     0.148 A 
ATOM     86  C   UNL A   1      45.509  35.896  31.066  1.00  0.00     0.002 A 
ATOM     87  C   UNL A   1      44.656  36.585  28.900  1.00  0.00     0.091 A 
ATOM     88  F   UNL A   1      43.421  35.020  27.587  1.00  0.00    -0.205 F 
ATOM     89  C   UNL A   1      45.354  36.874  30.085  1.00  0.00     0.022 A 
BRANCH  87  90
ATOM     90  S   UNL A   1      44.574  37.892  27.669  1.00  0.00     0.127 S 
ATOM     91  O   UNL A   1      45.725  37.577  26.824  1.00  0.00    -0.237 OA
ATOM     92  O   UNL A   1      43.273  37.647  27.046  1.00  0.00    -0.237 OA
ATOM     93  O   UNL A   1      44.672  39.146  28.404  1.00  0.00    -0.744 OA
ENDBRANCH  87  90
ENDBRANCH  60  83
ENDBRANCH  34  35
ENDBRANCH  27  29
ENDBRANCH  26  27
ENDBRANCH  25  26
ENDBRANCH  24  25
ENDBRANCH  23  24
ENDBRANCH   1  23
TORSDOF 21
ENDMDL
MODEL 3
REMARK VINA RESULT:     -10.4      5.248      8.194
REMARK SMILES Nc1cc(C(=O)OCCOCCOCCOC(=O)c2ccc(-c3c4nc(c(-c5cccc(S(=O)(=O)[O-])c5F)c5ccc([nH]5)c(-c5cccc(S(=O)(=O)[O-])c5F)c5nc(c(-c6cccc(S(=O)(=O)[O-])c6F)c6ccc3[nH]6)C=C5)C=C4)cc2)nc2ccc(F)cc12
REMARK SMILES IDX 12 1 11 2 10 3 9 4 8 5 7 6 5 7 6 8 4 9 2 10 3 11 89 12 83 13
REMARK SMILES IDX 88 14 82 15 84 16 86 17 85 18 87 19 1 20 13 23 14 24 15 25
REMARK SMILES IDX 16 26 17 27 18 28 19 29 20 30 81 31 21 32 80 33 22 34 23 35
REMARK SMILES IDX 24 36 74 37 25 38 79 39 73 40 75 41 26 42 78 43 72 44 71 45
REMARK SMILES IDX 27 47 59 48 39 49 58 50 40 51 43 52 57 53 76 54 41 55 42 56
REMARK SMILES IDX 56 58 77 59 44 60 28 61 29 62 37 63 30 64 32 65 38 66 31 67
REMARK SMILES IDX 33 68 34 69 35 70 36 71 60 72 61 73 69 74 62 75 64 76 70 77
REMARK SMILES IDX 63 78 65 79 66 80 67 81 68 82 45 83 46 84 54 85 47 86 49 87
REMARK SMILES IDX 55 88 48 89 50 90 51 91 52 92 53 93
REMARK H PARENT 1 21 1 22 75 46 43 57
REMARK Flexibility Score: inf
ROOT
ATOM      1  C   UNL A   1      37.168  21.574  25.226  1.00  0.00     0.188 C 
ENDROOT
BRANCH   1   2
ATOM      2  C   UNL A   1      35.808  21.667  25.954  1.00  0.00     0.188 C 
BRANCH   2   3
ATOM      3  O   UNL A   1      34.930  22.715  25.610  1.00  0.00    -0.376 OA
BRANCH   3   4
ATOM      4  C   UNL A   1      34.073  23.309  26.568  1.00  0.00     0.202 C 
BRANCH   4   5
ATOM      5  C   UNL A   1      32.711  22.752  27.017  1.00  0.00     0.261 C 
BRANCH   5   6
ATOM      6  O   UNL A   1      31.629  22.876  26.094  1.00  0.00    -0.459 OA
BRANCH   6   7
ATOM      7  C   UNL A   1      30.606  23.670  26.518  1.00  0.00     0.357 C 
ATOM      8  O   UNL A   1      29.702  23.345  27.268  1.00  0.00    -0.244 OA
BRANCH   7   9
ATOM      9  C   UNL A   1      30.822  25.051  26.015  1.00  0.00     0.151 A 
ATOM     10  C   UNL A   1      30.876  26.653  24.252  1.00  0.00     0.043 A 
ATOM     11  C   UNL A   1      30.652  25.345  24.674  1.00  0.00     0.062 A 
ATOM     12  C   UNL A   1      31.192  27.644  25.218  1.00  0.00     0.026 A 
ATOM     13  C   UNL A   1      31.383  27.222  26.556  1.00  0.00     0.073 A 
ATOM     14  C   UNL A   1      31.327  29.021  24.923  1.00  0.00     0.051 A 
ATOM     15  N   UNL A   1      31.214  25.954  26.944  1.00  0.00    -0.241 NA
ATOM     16  C   UNL A   1      31.751  28.155  27.519  1.00  0.00     0.032 A 
ATOM     17  C   UNL A   1      31.670  29.930  25.915  1.00  0.00     0.124 A 
ATOM     18  C   UNL A   1      31.900  29.508  27.211  1.00  0.00     0.041 A 
ATOM     19  F   UNL A   1      31.776  31.229  25.607  1.00  0.00    -0.207 F 
BRANCH  10  20
ATOM     20  N   UNL A   1      30.651  26.962  22.906  1.00  0.00    -0.398 N 
ATOM     21  H   UNL A   1      30.352  26.260  22.284  1.00  0.00     0.156 HD
ATOM     22  H   UNL A   1      30.792  27.881  22.583  1.00  0.00     0.156 HD
ENDBRANCH  10  20
ENDBRANCH   7   9
ENDBRANCH   6   7
ENDBRANCH   5   6
ENDBRANCH   4   5
ENDBRANCH   3   4
ENDBRANCH   2   3
ENDBRANCH   1   2
BRANCH   1  23
ATOM     23  O   UNL A   1      37.424  20.536  24.293  1.00  0.00    -0.376 OA
BRANCH  23  24
ATOM     24  C   UNL A   1      38.107  19.368  24.727  1.00  0.00     0.202 C 
BRANCH  24  25
ATOM     25  C   UNL A   1      39.041  19.401  25.943  1.00  0.00     0.261 C 
BRANCH  25  26
ATOM     26  O   UNL A   1      40.389  19.789  25.648  1.00  0.00    -0.460 OA
BRANCH  26  27
ATOM     27  C   UNL A   1      41.208  19.903  26.724  1.00  0.00     0.338 C 
ATOM     28  O   UNL A   1      41.821  19.010  27.283  1.00  0.00    -0.246 OA
BRANCH  27  29
ATOM     29  C   UNL A   1      41.402  21.334  27.020  1.00  0.00     0.060 A 
ATOM     30  C   UNL A   1      41.923  21.745  28.247  1.00  0.00     0.016 A 
ATOM     31  C   UNL A   1      41.054  22.274  26.040  1.00  0.00     0.016 A 
ATOM     32  C   UNL A   1      42.115  23.108  28.485  1.00  0.00     0.010 A 
ATOM     33  C   UNL A   1      41.228  23.636  26.289  1.00  0.00     0.010 A 
ATOM     34  C   UNL A   1      41.777  24.060  27.505  1.00  0.00    -0.014 A 
BRANCH  34  35
ATOM     35  C   UNL A   1      42.164  25.477  27.691  1.00  0.00     0.031 A 
ATOM     36  C   UNL A   1      41.246  26.478  28.326  1.00  0.00     0.074 A 
ATOM     37  C   UNL A   1      43.377  25.860  27.247  1.00  0.00     0.049 A 
ATOM     38  N   UNL A   1      41.494  27.723  28.639  1.00  0.00    -0.248 NA
ATOM     39  C   UNL A   1      39.883  26.034  28.644  1.00  0.00     0.031 C 
ATOM     40  C   UNL A   1      44.326  24.987  26.554  1.00  0.00     0.029 A 
ATOM     41  N   UNL A   1      44.014  27.073  27.305  1.00  0.00    -0.354 N 
ATOM     42  C   UNL A   1      40.323  28.217  29.196  1.00  0.00     0.074 A 
ATOM     43  C   UNL A   1      39.354  27.140  29.157  1.00  0.00     0.031 C 
ATOM     44  C   UNL A   1      45.432  25.689  26.263  1.00  0.00     0.029 A 
ATOM     45  C   UNL A   1      45.267  27.058  26.741  1.00  0.00     0.049 A 
ATOM     46  H   UNL A   1      43.613  27.874  27.710  1.00  0.00     0.167 HD
ATOM     47  C   UNL A   1      40.091  29.447  29.714  1.00  0.00     0.034 A 
ATOM     48  C   UNL A   1      46.191  28.031  26.635  1.00  0.00     0.034 A 
ATOM     49  C   UNL A   1      41.064  30.510  29.758  1.00  0.00     0.049 A 
ATOM     50  C   UNL A   1      45.914  29.380  27.230  1.00  0.00     0.074 A 
ATOM     51  C   UNL A   1      40.934  31.766  30.326  1.00  0.00     0.029 A 
ATOM     52  N   UNL A   1      42.332  30.451  29.204  1.00  0.00    -0.354 N 
ATOM     53  N   UNL A   1      44.855  29.784  27.888  1.00  0.00    -0.248 NA
ATOM     54  C   UNL A   1      46.966  30.398  27.099  1.00  0.00     0.031 C 
ATOM     55  C   UNL A   1      42.120  32.472  30.103  1.00  0.00     0.029 A 
ATOM     56  C   UNL A   1      42.993  31.652  29.408  1.00  0.00     0.049 A 
ATOM     57  H   UNL A   1      42.709  29.672  28.736  1.00  0.00     0.167 HD
ATOM     58  C   UNL A   1      45.118  31.093  28.268  1.00  0.00     0.074 A 
ATOM     59  C   UNL A   1      46.445  31.413  27.778  1.00  0.00     0.031 C 
ATOM     60  C   UNL A   1      44.326  31.952  28.951  1.00  0.00     0.034 A 
BRANCH  47  61
ATOM     61  C   UNL A   1      38.754  29.709  30.350  1.00  0.00     0.023 A 
ATOM     62  C   UNL A   1      38.503  29.198  31.638  1.00  0.00     0.012 A 
ATOM     63  C   UNL A   1      37.808  30.559  29.742  1.00  0.00     0.148 A 
ATOM     64  C   UNL A   1      37.326  29.522  32.312  1.00  0.00     0.002 A 
ATOM     65  C   UNL A   1      36.651  30.902  30.432  1.00  0.00     0.091 A 
ATOM     66  F   UNL A   1      38.069  31.028  28.513  1.00  0.00    -0.205 F 
ATOM     67  C   UNL A   1      36.407  30.381  31.715  1.00  0.00     0.022 A 
BRANCH  65  68
ATOM     68  S   UNL A   1      35.430  32.048  29.782  1.00  0.00     0.127 S 
ATOM     69  O   UNL A   1      34.542  32.217  30.931  1.00  0.00    -0.237 OA
ATOM     70  O   UNL A   1      36.247  33.219  29.464  1.00  0.00    -0.237 OA
ATOM     71  O   UNL A   1      34.831  31.389  28.630  1.00  0.00    -0.744 OA
ENDBRANCH  65  68
ENDBRANCH  47  61
BRANCH  48  72
ATOM     72  C   UNL A   1      47.500  27.712  26.010  1.00  0.00     0.023 A 
ATOM     73  C   UNL A   1      48.534  27.193  26.813  1.00  0.00     0.012 A 
ATOM     74  C   UNL A   1      47.689  27.822  24.619  1.00  0.00     0.148 A 
ATOM     75  C   UNL A   1      49.739  26.792  26.239  1.00  0.00     0.002 A 
ATOM     76  C   UNL A   1      48.878  27.385  24.050  1.00  0.00     0.091 A 
ATOM     77  F   UNL A   1      46.684  28.315  23.882  1.00  0.00    -0.205 F 
ATOM     78  C   UNL A   1      49.907  26.877  24.859  1.00  0.00     0.022 A 
BRANCH  76  79
ATOM     79  S   UNL A   1      49.152  27.358  22.276  1.00  0.00     0.127 S 
ATOM     80  O   UNL A   1      50.607  27.466  22.197  1.00  0.00    -0.237 OA
ATOM     81  O   UNL A   1      48.610  26.048  21.912  1.00  0.00    -0.237 OA
ATOM     82  O   UNL A   1      48.412  28.493  21.741  1.00  0.00    -0.744 OA
ENDBRANCH  76  79
ENDBRANCH  48  72
BRANCH  60  83
ATOM     83  C   UNL A   1      44.852  33.334  29.224  1.00  0.00     0.023 A 
ATOM     84  C   UNL A   1      45.496  33.598  30.449  1.00  0.00     0.012 A 
ATOM     85  C   UNL A   1      44.815  34.331  28.230  1.00  0.00     0.148 A 
ATOM     86  C   UNL A   1      46.090  34.837  30.682  1.00  0.00     0.002 A 
ATOM     87  C   UNL A   1      45.437  35.552  28.457  1.00  0.00     0.091 A 
ATOM     88  F   UNL A   1      44.187  34.058  27.076  1.00  0.00    -0.205 F 
ATOM     89  C   UNL A   1      46.071  35.808  29.684  1.00  0.00     0.022 A 
BRANCH  87  90
ATOM     90  S   UNL A   1      45.530  36.843  27.210  1.00  0.00     0.127 S 
ATOM     91  O   UNL A   1      46.008  36.099  26.046  1.00  0.00    -0.237 OA
ATOM     92  O   UNL A   1      44.140  37.289  27.122  1.00  0.00    -0.237 OA
ATOM     93  O   UNL A   1      46.458  37.840  27.729  1.00  0.00    -0.744 OA
ENDBRANCH  87  90
ENDBRANCH  60  83
ENDBRANCH  34  35
ENDBRANCH  27  29
ENDBRANCH  26  27
ENDBRANCH  25  26
ENDBRANCH  24  25
ENDBRANCH  23  24
ENDBRANCH   1  23
TORSDOF 21
ENDMDL
