MODEL 1
REMARK VINA RESULT:     -11.3      0.000      0.000
REMARK SMILES CC(C)Cc1cc2c(cc1Cl)C=C(C(=O)OCCOCCOCCOC(=O)c1ccc(-c3c4nc(c(-c5cccc(S(=O)(=O)[O-])c5F)c5ccc([nH]5)c(-c5cccc(S(=O)(=O)[O-])c5F)c5nc(c(-c6cccc(S(=O)(=O)[O-])c6F)c6ccc3[nH]6)C=C5)C=C4)cc1)[C@@H](C(F)(F)F)O2
REMARK SMILES IDX 21 1 20 2 19 3 18 4 17 5 16 6 14 7 15 8 13 9 5 10 6 11 10 12
REMARK SMILES IDX 7 13 9 14 11 15 8 16 96 17 12 18 91 19 4 20 2 21 1 22 3 23
REMARK SMILES IDX 92 24 93 25 94 26 95 27 22 28 23 29 24 30 25 31 26 32 27 33
REMARK SMILES IDX 28 34 29 35 90 36 30 37 89 38 31 39 32 40 33 41 83 42 34 43
REMARK SMILES IDX 88 44 82 45 84 46 35 47 87 48 81 49 80 50 36 52 68 53 48 54
REMARK SMILES IDX 67 55 49 56 52 57 66 58 85 59 50 60 51 61 65 63 86 64 53 65
REMARK SMILES IDX 37 66 38 67 46 68 39 69 41 70 47 71 40 72 42 73 43 74 44 75
REMARK SMILES IDX 45 76 69 77 70 78 78 79 71 80 73 81 79 82 72 83 74 84 75 85
REMARK SMILES IDX 76 86 77 87 54 88 55 89 63 90 56 91 58 92 64 93 57 94 59 95
REMARK SMILES IDX 60 96 61 97 62 98
REMARK H PARENT 84 51 52 62
REMARK Flexibility Score: inf
ROOT
ATOM      1  C   UNL A   1      35.175  17.484  24.263  1.00  0.00     0.188 C 
ENDROOT
BRANCH   1   2
ATOM      2  C   UNL A   1      34.289  16.413  24.935  1.00  0.00     0.188 C 
BRANCH   2   3
ATOM      3  O   UNL A   1      32.912  16.629  24.726  1.00  0.00    -0.376 OA
BRANCH   3   4
ATOM      4  C   UNL A   1      32.246  17.691  25.379  1.00  0.00     0.202 C 
BRANCH   4   5
ATOM      5  C   UNL A   1      32.805  19.124  25.458  1.00  0.00     0.261 C 
BRANCH   5   6
ATOM      6  O   UNL A   1      31.884  20.196  25.256  1.00  0.00    -0.460 OA
BRANCH   6   7
ATOM      7  C   UNL A   1      32.162  21.054  24.249  1.00  0.00     0.338 C 
ATOM      8  O   UNL A   1      32.381  20.762  23.085  1.00  0.00    -0.246 OA
BRANCH   7   9
ATOM      9  C   UNL A   1      32.042  22.434  24.762  1.00  0.00     0.087 C 
ATOM     10  C   UNL A   1      31.260  27.356  25.336  1.00  0.00    -0.025 A 
ATOM     11  C   UNL A   1      31.873  26.359  26.111  1.00  0.00     0.052 A 
ATOM     12  C   UNL A   1      30.460  26.939  24.254  1.00  0.00     0.045 A 
ATOM     13  C   UNL A   1      31.842  25.019  25.718  1.00  0.00     0.128 A 
ATOM     14  C   UNL A   1      30.403  25.593  23.877  1.00  0.00     0.032 A 
ATOM     15  Cl  UNL A   1      29.528  28.062  23.327  1.00  0.00    -0.084 Cl
ATOM     16  C   UNL A   1      31.140  24.636  24.576  1.00  0.00     0.019 A 
ATOM     17  O   UNL A   1      32.543  24.153  26.506  1.00  0.00    -0.475 OA
ATOM     18  C   UNL A   1      31.224  23.265  24.102  1.00  0.00     0.027 C 
ATOM     19  C   UNL A   1      32.809  22.819  26.001  1.00  0.00     0.316 C 
BRANCH  10  20
ATOM     20  C   UNL A   1      31.451  28.832  25.638  1.00  0.00     0.040 C 
BRANCH  20  21
ATOM     21  C   UNL A   1      32.836  29.463  25.351  1.00  0.00    -0.013 C 
ATOM     22  C   UNL A   1      33.829  29.271  26.504  1.00  0.00     0.008 C 
ATOM     23  C   UNL A   1      33.430  28.839  24.083  1.00  0.00     0.008 C 
ENDBRANCH  20  21
ENDBRANCH  10  20
BRANCH  19  24
ATOM     24  C   UNL A   1      34.323  22.648  25.824  1.00  0.00     0.430 C 
ATOM     25  F   UNL A   1      34.817  21.717  26.678  1.00  0.00    -0.167 F 
ATOM     26  F   UNL A   1      34.636  22.225  24.575  1.00  0.00    -0.167 F 
ATOM     27  F   UNL A   1      35.001  23.796  26.044  1.00  0.00    -0.167 F 
ENDBRANCH  19  24
ENDBRANCH   7   9
ENDBRANCH   6   7
ENDBRANCH   5   6
ENDBRANCH   4   5
ENDBRANCH   3   4
ENDBRANCH   2   3
ENDBRANCH   1   2
BRANCH   1  28
ATOM     28  O   UNL A   1      36.239  18.079  24.999  1.00  0.00    -0.376 OA
BRANCH  28  29
ATOM     29  C   UNL A   1      36.367  19.498  24.999  1.00  0.00     0.202 C 
BRANCH  29  30
ATOM     30  C   UNL A   1      37.725  20.134  24.664  1.00  0.00     0.261 C 
BRANCH  30  31
ATOM     31  O   UNL A   1      38.151  21.151  25.584  1.00  0.00    -0.460 OA
BRANCH  31  32
ATOM     32  C   UNL A   1      39.384  20.968  26.127  1.00  0.00     0.338 C 
ATOM     33  O   UNL A   1      40.081  19.973  26.047  1.00  0.00    -0.246 OA
BRANCH  32  34
ATOM     34  C   UNL A   1      39.865  22.257  26.667  1.00  0.00     0.060 A 
ATOM     35  C   UNL A   1      40.812  22.304  27.691  1.00  0.00     0.016 A 
ATOM     36  C   UNL A   1      39.349  23.443  26.122  1.00  0.00     0.016 A 
ATOM     37  C   UNL A   1      41.263  23.545  28.151  1.00  0.00     0.010 A 
ATOM     38  C   UNL A   1      39.785  24.680  26.597  1.00  0.00     0.010 A 
ATOM     39  C   UNL A   1      40.764  24.739  27.598  1.00  0.00    -0.014 A 
BRANCH  39  40
ATOM     40  C   UNL A   1      41.413  26.031  27.927  1.00  0.00     0.031 A 
ATOM     41  C   UNL A   1      42.817  26.351  27.518  1.00  0.00     0.074 A 
ATOM     42  C   UNL A   1      40.701  26.922  28.643  1.00  0.00     0.049 A 
ATOM     43  N   UNL A   1      43.461  27.483  27.639  1.00  0.00    -0.248 NA
ATOM     44  C   UNL A   1      43.604  25.272  26.905  1.00  0.00     0.031 C 
ATOM     45  C   UNL A   1      39.350  26.691  29.159  1.00  0.00     0.029 A 
ATOM     46  N   UNL A   1      41.009  28.190  29.063  1.00  0.00    -0.354 N 
ATOM     47  C   UNL A   1      44.728  27.262  27.119  1.00  0.00     0.074 A 
ATOM     48  C   UNL A   1      44.770  25.876  26.698  1.00  0.00     0.031 C 
ATOM     49  C   UNL A   1      38.939  27.786  29.814  1.00  0.00     0.029 A 
ATOM     50  C   UNL A   1      39.994  28.794  29.766  1.00  0.00     0.049 A 
ATOM     51  H   UNL A   1      41.872  28.625  28.878  1.00  0.00     0.167 HD
ATOM     52  C   UNL A   1      45.749  28.142  26.987  1.00  0.00     0.034 A 
ATOM     53  C   UNL A   1      39.910  30.028  30.298  1.00  0.00     0.034 A 
ATOM     54  C   UNL A   1      45.694  29.522  27.396  1.00  0.00     0.049 A 
ATOM     55  C   UNL A   1      41.043  30.992  30.114  1.00  0.00     0.074 A 
ATOM     56  C   UNL A   1      46.651  30.507  27.219  1.00  0.00     0.029 A 
ATOM     57  N   UNL A   1      44.640  30.109  28.079  1.00  0.00    -0.354 N 
ATOM     58  N   UNL A   1      42.169  30.816  29.467  1.00  0.00    -0.248 NA
ATOM     59  C   UNL A   1      40.886  32.329  30.701  1.00  0.00     0.031 C 
ATOM     60  C   UNL A   1      46.182  31.686  27.809  1.00  0.00     0.029 A 
ATOM     61  C   UNL A   1      44.928  31.438  28.342  1.00  0.00     0.049 A 
ATOM     62  H   UNL A   1      43.810  29.649  28.338  1.00  0.00     0.167 HD
ATOM     63  C   UNL A   1      42.848  32.025  29.551  1.00  0.00     0.074 A 
ATOM     64  C   UNL A   1      42.001  32.931  30.301  1.00  0.00     0.031 C 
ATOM     65  C   UNL A   1      44.068  32.346  29.058  1.00  0.00     0.034 A 
BRANCH  52  66
ATOM     66  C   UNL A   1      47.006  27.675  26.306  1.00  0.00     0.023 A 
ATOM     67  C   UNL A   1      47.928  26.900  27.038  1.00  0.00     0.012 A 
ATOM     68  C   UNL A   1      47.215  27.887  24.930  1.00  0.00     0.148 A 
ATOM     69  C   UNL A   1      49.045  26.348  26.412  1.00  0.00     0.002 A 
ATOM     70  C   UNL A   1      48.318  27.311  24.307  1.00  0.00     0.091 A 
ATOM     71  F   UNL A   1      46.330  28.636  24.258  1.00  0.00    -0.205 F 
ATOM     72  C   UNL A   1      49.233  26.544  25.047  1.00  0.00     0.022 A 
BRANCH  70  73
ATOM     73  S   UNL A   1      48.623  27.453  22.542  1.00  0.00     0.127 S 
ATOM     74  O   UNL A   1      49.896  28.172  22.522  1.00  0.00    -0.237 OA
ATOM     75  O   UNL A   1      48.707  26.052  22.130  1.00  0.00    -0.237 OA
ATOM     76  O   UNL A   1      47.489  28.183  21.994  1.00  0.00    -0.744 OA
ENDBRANCH  70  73
ENDBRANCH  52  66
BRANCH  53  77
ATOM     77  C   UNL A   1      38.644  30.430  30.964  1.00  0.00     0.023 A 
ATOM     78  C   UNL A   1      38.516  30.248  32.354  1.00  0.00     0.012 A 
ATOM     79  C   UNL A   1      37.625  31.090  30.252  1.00  0.00     0.148 A 
ATOM     80  C   UNL A   1      37.390  30.720  33.027  1.00  0.00     0.002 A 
ATOM     81  C   UNL A   1      36.524  31.590  30.934  1.00  0.00     0.091 A 
ATOM     82  F   UNL A   1      37.781  31.253  28.931  1.00  0.00    -0.205 F 
ATOM     83  C   UNL A   1      36.400  31.399  32.320  1.00  0.00     0.022 A 
BRANCH  81  84
ATOM     84  S   UNL A   1      35.250  32.572  30.135  1.00  0.00     0.127 S 
ATOM     85  O   UNL A   1      34.313  32.795  31.234  1.00  0.00    -0.237 OA
ATOM     86  O   UNL A   1      36.004  33.753  29.718  1.00  0.00    -0.237 OA
ATOM     87  O   UNL A   1      34.744  31.753  29.042  1.00  0.00    -0.744 OA
ENDBRANCH  81  84
ENDBRANCH  53  77
BRANCH  65  88
ATOM     88  C   UNL A   1      44.588  33.735  29.305  1.00  0.00     0.023 A 
ATOM     89  C   UNL A   1      45.203  34.030  30.537  1.00  0.00     0.012 A 
ATOM     90  C   UNL A   1      44.575  34.704  28.284  1.00  0.00     0.148 A 
ATOM     91  C   UNL A   1      45.794  35.275  30.751  1.00  0.00     0.002 A 
ATOM     92  C   UNL A   1      45.194  35.931  28.493  1.00  0.00     0.091 A 
ATOM     93  F   UNL A   1      43.973  34.401  27.125  1.00  0.00    -0.205 F 
ATOM     94  C   UNL A   1      45.800  36.219  29.727  1.00  0.00     0.022 A 
BRANCH  92  95
ATOM     95  S   UNL A   1      45.319  37.187  27.213  1.00  0.00     0.127 S 
ATOM     96  O   UNL A   1      43.911  37.495  26.960  1.00  0.00    -0.237 OA
ATOM     97  O   UNL A   1      46.063  38.247  27.893  1.00  0.00    -0.237 OA
ATOM     98  O   UNL A   1      46.023  36.563  26.101  1.00  0.00    -0.744 OA
ENDBRANCH  92  95
ENDBRANCH  65  88
ENDBRANCH  39  40
ENDBRANCH  32  34
ENDBRANCH  31  32
ENDBRANCH  30  31
ENDBRANCH  29  30
ENDBRANCH  28  29
ENDBRANCH   1  28
TORSDOF 23
ENDMDL
MODEL 2
REMARK VINA RESULT:     -11.0      2.064      2.659
REMARK SMILES CC(C)Cc1cc2c(cc1Cl)C=C(C(=O)OCCOCCOCCOC(=O)c1ccc(-c3c4nc(c(-c5cccc(S(=O)(=O)[O-])c5F)c5ccc([nH]5)c(-c5cccc(S(=O)(=O)[O-])c5F)c5nc(c(-c6cccc(S(=O)(=O)[O-])c6F)c6ccc3[nH]6)C=C5)C=C4)cc1)[C@@H](C(F)(F)F)O2
REMARK SMILES IDX 21 1 20 2 19 3 18 4 17 5 16 6 14 7 15 8 13 9 5 10 6 11 10 12
REMARK SMILES IDX 7 13 9 14 11 15 8 16 96 17 12 18 91 19 4 20 2 21 1 22 3 23
REMARK SMILES IDX 92 24 93 25 94 26 95 27 22 28 23 29 24 30 25 31 26 32 27 33
REMARK SMILES IDX 28 34 29 35 90 36 30 37 89 38 31 39 32 40 33 41 83 42 34 43
REMARK SMILES IDX 88 44 82 45 84 46 35 47 87 48 81 49 80 50 36 52 68 53 48 54
REMARK SMILES IDX 67 55 49 56 52 57 66 58 85 59 50 60 51 61 65 63 86 64 53 65
REMARK SMILES IDX 37 66 38 67 46 68 39 69 41 70 47 71 40 72 42 73 43 74 44 75
REMARK SMILES IDX 45 76 69 77 70 78 78 79 71 80 73 81 79 82 72 83 74 84 75 85
REMARK SMILES IDX 76 86 77 87 54 88 55 89 63 90 56 91 58 92 64 93 57 94 59 95
REMARK SMILES IDX 60 96 61 97 62 98
REMARK H PARENT 84 51 52 62
REMARK Flexibility Score: inf
ROOT
ATOM      1  C   UNL A   1      34.028  18.251  24.424  1.00  0.00     0.188 C 
ENDROOT
BRANCH   1   2
ATOM      2  C   UNL A   1      32.968  19.316  24.781  1.00  0.00     0.188 C 
BRANCH   2   3
ATOM      3  O   UNL A   1      32.330  19.859  23.647  1.00  0.00    -0.376 OA
BRANCH   3   4
ATOM      4  C   UNL A   1      32.729  21.114  23.134  1.00  0.00     0.202 C 
BRANCH   4   5
ATOM      5  C   UNL A   1      31.867  22.386  23.235  1.00  0.00     0.261 C 
BRANCH   5   6
ATOM      6  O   UNL A   1      31.574  22.873  24.545  1.00  0.00    -0.460 OA
BRANCH   6   7
ATOM      7  C   UNL A   1      32.328  23.902  24.992  1.00  0.00     0.338 C 
ATOM      8  O   UNL A   1      33.371  23.821  25.619  1.00  0.00    -0.246 OA
BRANCH   7   9
ATOM      9  C   UNL A   1      31.744  25.164  24.493  1.00  0.00     0.087 C 
ATOM     10  C   UNL A   1      28.710  28.772  22.777  1.00  0.00    -0.025 A 
ATOM     11  C   UNL A   1      30.101  28.634  22.909  1.00  0.00     0.052 A 
ATOM     12  C   UNL A   1      27.897  27.846  23.459  1.00  0.00     0.045 A 
ATOM     13  C   UNL A   1      30.658  27.518  23.537  1.00  0.00     0.128 A 
ATOM     14  C   UNL A   1      28.456  26.743  24.116  1.00  0.00     0.032 A 
ATOM     15  Cl  UNL A   1      26.176  28.006  23.505  1.00  0.00    -0.084 Cl
ATOM     16  C   UNL A   1      29.838  26.548  24.108  1.00  0.00     0.019 A 
ATOM     17  O   UNL A   1      32.022  27.454  23.530  1.00  0.00    -0.475 OA
ATOM     18  C   UNL A   1      30.422  25.329  24.639  1.00  0.00     0.027 C 
ATOM     19  C   UNL A   1      32.656  26.198  23.885  1.00  0.00     0.316 C 
BRANCH  10  20
ATOM     20  C   UNL A   1      28.093  29.870  21.929  1.00  0.00     0.040 C 
BRANCH  20  21
ATOM     21  C   UNL A   1      28.441  31.340  22.271  1.00  0.00    -0.013 C 
ATOM     22  C   UNL A   1      28.123  32.310  21.125  1.00  0.00     0.008 C 
ATOM     23  C   UNL A   1      27.658  31.776  23.514  1.00  0.00     0.008 C 
ENDBRANCH  20  21
ENDBRANCH  10  20
BRANCH  19  24
ATOM     24  C   UNL A   1      33.410  25.660  22.661  1.00  0.00     0.430 C 
ATOM     25  F   UNL A   1      32.563  25.067  21.783  1.00  0.00    -0.167 F 
ATOM     26  F   UNL A   1      34.032  26.653  21.980  1.00  0.00    -0.167 F 
ATOM     27  F   UNL A   1      34.349  24.748  22.994  1.00  0.00    -0.167 F 
ENDBRANCH  19  24
ENDBRANCH   7   9
ENDBRANCH   6   7
ENDBRANCH   5   6
ENDBRANCH   4   5
ENDBRANCH   3   4
ENDBRANCH   2   3
ENDBRANCH   1   2
BRANCH   1  28
ATOM     28  O   UNL A   1      35.410  18.545  24.605  1.00  0.00    -0.376 OA
BRANCH  28  29
ATOM     29  C   UNL A   1      35.787  19.861  25.001  1.00  0.00     0.202 C 
BRANCH  29  30
ATOM     30  C   UNL A   1      37.198  20.371  24.674  1.00  0.00     0.261 C 
BRANCH  30  31
ATOM     31  O   UNL A   1      37.729  21.308  25.624  1.00  0.00    -0.460 OA
BRANCH  31  32
ATOM     32  C   UNL A   1      39.027  21.113  25.976  1.00  0.00     0.338 C 
ATOM     33  O   UNL A   1      39.720  20.145  25.717  1.00  0.00    -0.246 OA
BRANCH  32  34
ATOM     34  C   UNL A   1      39.560  22.364  26.555  1.00  0.00     0.060 A 
ATOM     35  C   UNL A   1      40.582  22.343  27.506  1.00  0.00     0.016 A 
ATOM     36  C   UNL A   1      39.017  23.583  26.123  1.00  0.00     0.016 A 
ATOM     37  C   UNL A   1      41.079  23.551  28.004  1.00  0.00     0.010 A 
ATOM     38  C   UNL A   1      39.500  24.787  26.637  1.00  0.00     0.010 A 
ATOM     39  C   UNL A   1      40.552  24.780  27.564  1.00  0.00    -0.014 A 
BRANCH  39  40
ATOM     40  C   UNL A   1      41.237  26.046  27.919  1.00  0.00     0.031 A 
ATOM     41  C   UNL A   1      42.639  26.347  27.492  1.00  0.00     0.074 A 
ATOM     42  C   UNL A   1      40.559  26.929  28.677  1.00  0.00     0.049 A 
ATOM     43  N   UNL A   1      43.312  27.460  27.636  1.00  0.00    -0.248 NA
ATOM     44  C   UNL A   1      43.389  25.270  26.830  1.00  0.00     0.031 C 
ATOM     45  C   UNL A   1      39.213  26.712  29.213  1.00  0.00     0.029 A 
ATOM     46  N   UNL A   1      40.904  28.176  29.130  1.00  0.00    -0.354 N 
ATOM     47  C   UNL A   1      44.563  27.226  27.084  1.00  0.00     0.074 A 
ATOM     48  C   UNL A   1      44.565  25.854  26.619  1.00  0.00     0.031 C 
ATOM     49  C   UNL A   1      38.841  27.795  29.910  1.00  0.00     0.029 A 
ATOM     50  C   UNL A   1      39.918  28.779  29.873  1.00  0.00     0.049 A 
ATOM     51  H   UNL A   1      41.773  28.597  28.942  1.00  0.00     0.167 HD
ATOM     52  C   UNL A   1      45.601  28.087  26.959  1.00  0.00     0.034 A 
ATOM     53  C   UNL A   1      39.872  29.998  30.444  1.00  0.00     0.034 A 
ATOM     54  C   UNL A   1      45.586  29.454  27.412  1.00  0.00     0.049 A 
ATOM     55  C   UNL A   1      41.024  30.941  30.268  1.00  0.00     0.074 A 
ATOM     56  C   UNL A   1      46.562  30.423  27.246  1.00  0.00     0.029 A 
ATOM     57  N   UNL A   1      44.559  30.043  28.134  1.00  0.00    -0.354 N 
ATOM     58  N   UNL A   1      42.133  30.761  29.593  1.00  0.00    -0.248 NA
ATOM     59  C   UNL A   1      40.909  32.263  30.899  1.00  0.00     0.031 C 
ATOM     60  C   UNL A   1      46.132  31.593  27.882  1.00  0.00     0.029 A 
ATOM     61  C   UNL A   1      44.883  31.356  28.433  1.00  0.00     0.049 A 
ATOM     62  H   UNL A   1      43.724  29.594  28.395  1.00  0.00     0.167 HD
ATOM     63  C   UNL A   1      42.840  31.951  29.701  1.00  0.00     0.074 A 
ATOM     64  C   UNL A   1      42.029  32.851  30.495  1.00  0.00     0.031 C 
ATOM     65  C   UNL A   1      44.058  32.260  29.194  1.00  0.00     0.034 A 
BRANCH  52  66
ATOM     66  C   UNL A   1      46.834  27.614  26.238  1.00  0.00     0.023 A 
ATOM     67  C   UNL A   1      46.888  27.732  24.835  1.00  0.00     0.012 A 
ATOM     68  C   UNL A   1      47.972  27.179  26.944  1.00  0.00     0.148 A 
ATOM     69  C   UNL A   1      48.056  27.416  24.142  1.00  0.00     0.002 A 
ATOM     70  C   UNL A   1      49.142  26.892  26.248  1.00  0.00     0.091 A 
ATOM     71  F   UNL A   1      47.892  27.066  28.277  1.00  0.00    -0.205 F 
ATOM     72  C   UNL A   1      49.183  27.008  24.848  1.00  0.00     0.022 A 
BRANCH  70  73
ATOM     73  S   UNL A   1      50.669  26.414  27.065  1.00  0.00     0.127 S 
ATOM     74  O   UNL A   1      51.266  25.524  26.070  1.00  0.00    -0.237 OA
ATOM     75  O   UNL A   1      51.350  27.698  27.221  1.00  0.00    -0.237 OA
ATOM     76  O   UNL A   1      50.275  25.775  28.313  1.00  0.00    -0.744 OA
ENDBRANCH  70  73
ENDBRANCH  52  66
BRANCH  53  77
ATOM     77  C   UNL A   1      38.629  30.407  31.148  1.00  0.00     0.023 A 
ATOM     78  C   UNL A   1      38.514  30.161  32.529  1.00  0.00     0.012 A 
ATOM     79  C   UNL A   1      37.623  31.134  30.484  1.00  0.00     0.148 A 
ATOM     80  C   UNL A   1      37.413  30.635  33.241  1.00  0.00     0.002 A 
ATOM     81  C   UNL A   1      36.548  31.634  31.206  1.00  0.00     0.091 A 
ATOM     82  F   UNL A   1      37.767  31.357  29.170  1.00  0.00    -0.205 F 
ATOM     83  C   UNL A   1      36.436  31.380  32.583  1.00  0.00     0.022 A 
BRANCH  81  84
ATOM     84  S   UNL A   1      35.296  32.694  30.475  1.00  0.00     0.127 S 
ATOM     85  O   UNL A   1      34.369  32.874  31.590  1.00  0.00    -0.237 OA
ATOM     86  O   UNL A   1      36.078  33.880  30.126  1.00  0.00    -0.237 OA
ATOM     87  O   UNL A   1      34.765  31.957  29.336  1.00  0.00    -0.744 OA
ENDBRANCH  81  84
ENDBRANCH  53  77
BRANCH  65  88
ATOM     88  C   UNL A   1      44.614  33.628  29.474  1.00  0.00     0.023 A 
ATOM     89  C   UNL A   1      45.626  33.775  30.443  1.00  0.00     0.012 A 
ATOM     90  C   UNL A   1      44.225  34.739  28.701  1.00  0.00     0.148 A 
ATOM     91  C   UNL A   1      46.239  35.011  30.643  1.00  0.00     0.002 A 
ATOM     92  C   UNL A   1      44.863  35.961  28.884  1.00  0.00     0.091 A 
ATOM     93  F   UNL A   1      43.253  34.575  27.793  1.00  0.00    -0.205 F 
ATOM     94  C   UNL A   1      45.867  36.099  29.857  1.00  0.00     0.022 A 
BRANCH  92  95
ATOM     95  S   UNL A   1      44.506  37.403  27.873  1.00  0.00     0.127 S 
ATOM     96  O   UNL A   1      43.106  37.664  28.209  1.00  0.00    -0.237 OA
ATOM     97  O   UNL A   1      45.452  38.389  28.397  1.00  0.00    -0.237 OA
ATOM     98  O   UNL A   1      44.745  37.001  26.494  1.00  0.00    -0.744 OA
ENDBRANCH  92  95
ENDBRANCH  65  88
ENDBRANCH  39  40
ENDBRANCH  32  34
ENDBRANCH  31  32
ENDBRANCH  30  31
ENDBRANCH  29  30
ENDBRANCH  28  29
ENDBRANCH   1  28
TORSDOF 23
ENDMDL
MODEL 3
REMARK VINA RESULT:     -10.7      1.575      2.422
REMARK SMILES CC(C)Cc1cc2c(cc1Cl)C=C(C(=O)OCCOCCOCCOC(=O)c1ccc(-c3c4nc(c(-c5cccc(S(=O)(=O)[O-])c5F)c5ccc([nH]5)c(-c5cccc(S(=O)(=O)[O-])c5F)c5nc(c(-c6cccc(S(=O)(=O)[O-])c6F)c6ccc3[nH]6)C=C5)C=C4)cc1)[C@@H](C(F)(F)F)O2
REMARK SMILES IDX 21 1 20 2 19 3 18 4 17 5 16 6 14 7 15 8 13 9 5 10 6 11 10 12
REMARK SMILES IDX 7 13 9 14 11 15 8 16 96 17 12 18 91 19 4 20 2 21 1 22 3 23
REMARK SMILES IDX 92 24 93 25 94 26 95 27 22 28 23 29 24 30 25 31 26 32 27 33
REMARK SMILES IDX 28 34 29 35 90 36 30 37 89 38 31 39 32 40 33 41 83 42 34 43
REMARK SMILES IDX 88 44 82 45 84 46 35 47 87 48 81 49 80 50 36 52 68 53 48 54
REMARK SMILES IDX 67 55 49 56 52 57 66 58 85 59 50 60 51 61 65 63 86 64 53 65
REMARK SMILES IDX 37 66 38 67 46 68 39 69 41 70 47 71 40 72 42 73 43 74 44 75
REMARK SMILES IDX 45 76 69 77 70 78 78 79 71 80 73 81 79 82 72 83 74 84 75 85
REMARK SMILES IDX 76 86 77 87 54 88 55 89 63 90 56 91 58 92 64 93 57 94 59 95
REMARK SMILES IDX 60 96 61 97 62 98
REMARK H PARENT 84 51 52 62
REMARK Flexibility Score: inf
ROOT
ATOM      1  C   UNL A   1      33.969  19.904  24.544  1.00  0.00     0.188 C 
ENDROOT
BRANCH   1   2
ATOM      2  C   UNL A   1      33.085  19.740  25.800  1.00  0.00     0.188 C 
BRANCH   2   3
ATOM      3  O   UNL A   1      32.713  20.972  26.375  1.00  0.00    -0.376 OA
BRANCH   3   4
ATOM      4  C   UNL A   1      33.687  21.963  26.638  1.00  0.00     0.202 C 
BRANCH   4   5
ATOM      5  C   UNL A   1      33.350  23.452  26.838  1.00  0.00     0.261 C 
BRANCH   5   6
ATOM      6  O   UNL A   1      34.361  24.401  26.495  1.00  0.00    -0.460 OA
BRANCH   6   7
ATOM      7  C   UNL A   1      34.603  24.579  25.177  1.00  0.00     0.338 C 
ATOM      8  O   UNL A   1      35.347  23.912  24.478  1.00  0.00    -0.246 OA
BRANCH   7   9
ATOM      9  C   UNL A   1      33.721  25.655  24.679  1.00  0.00     0.087 C 
ATOM     10  C   UNL A   1      30.786  29.692  24.175  1.00  0.00    -0.025 A 
ATOM     11  C   UNL A   1      31.090  28.587  23.364  1.00  0.00     0.052 A 
ATOM     12  C   UNL A   1      31.610  29.924  25.294  1.00  0.00     0.045 A 
ATOM     13  C   UNL A   1      32.053  27.652  23.751  1.00  0.00     0.128 A 
ATOM     14  C   UNL A   1      32.597  29.003  25.665  1.00  0.00     0.032 A 
ATOM     15  Cl  UNL A   1      31.437  31.337  26.274  1.00  0.00    -0.084 Cl
ATOM     16  C   UNL A   1      32.782  27.835  24.924  1.00  0.00     0.019 A 
ATOM     17  O   UNL A   1      32.201  26.577  22.923  1.00  0.00    -0.475 OA
ATOM     18  C   UNL A   1      33.683  26.793  25.385  1.00  0.00     0.027 C 
ATOM     19  C   UNL A   1      32.948  25.430  23.405  1.00  0.00     0.316 C 
BRANCH  10  20
ATOM     20  C   UNL A   1      29.612  30.605  23.873  1.00  0.00     0.040 C 
BRANCH  20  21
ATOM     21  C   UNL A   1      28.798  30.345  22.582  1.00  0.00    -0.013 C 
ATOM     22  C   UNL A   1      27.445  29.673  22.854  1.00  0.00     0.008 C 
ATOM     23  C   UNL A   1      28.548  31.673  21.857  1.00  0.00     0.008 C 
ENDBRANCH  20  21
ENDBRANCH  10  20
BRANCH  19  24
ATOM     24  C   UNL A   1      32.001  24.227  23.505  1.00  0.00     0.430 C 
ATOM     25  F   UNL A   1      31.458  24.129  24.744  1.00  0.00    -0.167 F 
ATOM     26  F   UNL A   1      30.963  24.334  22.640  1.00  0.00    -0.167 F 
ATOM     27  F   UNL A   1      32.625  23.057  23.244  1.00  0.00    -0.167 F 
ENDBRANCH  19  24
ENDBRANCH   7   9
ENDBRANCH   6   7
ENDBRANCH   5   6
ENDBRANCH   4   5
ENDBRANCH   3   4
ENDBRANCH   2   3
ENDBRANCH   1   2
BRANCH   1  28
ATOM     28  O   UNL A   1      35.211  20.594  24.644  1.00  0.00    -0.376 OA
BRANCH  28  29
ATOM     29  C   UNL A   1      36.377  19.863  25.012  1.00  0.00     0.202 C 
BRANCH  29  30
ATOM     30  C   UNL A   1      37.763  20.463  24.732  1.00  0.00     0.261 C 
BRANCH  30  31
ATOM     31  O   UNL A   1      38.190  21.450  25.684  1.00  0.00    -0.460 OA
BRANCH  31  32
ATOM     32  C   UNL A   1      39.413  21.237  26.240  1.00  0.00     0.338 C 
ATOM     33  O   UNL A   1      40.089  20.227  26.159  1.00  0.00    -0.246 OA
BRANCH  32  34
ATOM     34  C   UNL A   1      39.914  22.511  26.797  1.00  0.00     0.060 A 
ATOM     35  C   UNL A   1      40.942  22.532  27.741  1.00  0.00     0.016 A 
ATOM     36  C   UNL A   1      39.334  23.708  26.352  1.00  0.00     0.016 A 
ATOM     37  C   UNL A   1      41.408  23.761  28.218  1.00  0.00     0.010 A 
ATOM     38  C   UNL A   1      39.786  24.932  26.845  1.00  0.00     0.010 A 
ATOM     39  C   UNL A   1      40.844  24.968  27.764  1.00  0.00    -0.014 A 
BRANCH  39  40
ATOM     40  C   UNL A   1      41.495  26.258  28.096  1.00  0.00     0.031 A 
ATOM     41  C   UNL A   1      42.898  26.578  27.683  1.00  0.00     0.074 A 
ATOM     42  C   UNL A   1      40.786  27.145  28.820  1.00  0.00     0.049 A 
ATOM     43  N   UNL A   1      43.544  27.709  27.808  1.00  0.00    -0.248 NA
ATOM     44  C   UNL A   1      43.681  25.502  27.062  1.00  0.00     0.031 C 
ATOM     45  C   UNL A   1      39.437  26.912  29.341  1.00  0.00     0.029 A 
ATOM     46  N   UNL A   1      41.097  28.411  29.245  1.00  0.00    -0.354 N 
ATOM     47  C   UNL A   1      44.808  27.489  27.282  1.00  0.00     0.074 A 
ATOM     48  C   UNL A   1      44.847  26.106  26.854  1.00  0.00     0.031 C 
ATOM     49  C   UNL A   1      39.030  28.004  30.002  1.00  0.00     0.029 A 
ATOM     50  C   UNL A   1      40.086  29.011  29.956  1.00  0.00     0.049 A 
ATOM     51  H   UNL A   1      41.960  28.846  29.059  1.00  0.00     0.167 HD
ATOM     52  C   UNL A   1      45.829  28.370  27.150  1.00  0.00     0.034 A 
ATOM     53  C   UNL A   1      40.005  30.243  30.494  1.00  0.00     0.034 A 
ATOM     54  C   UNL A   1      45.777  29.747  27.567  1.00  0.00     0.049 A 
ATOM     55  C   UNL A   1      41.138  31.207  30.311  1.00  0.00     0.074 A 
ATOM     56  C   UNL A   1      46.734  30.733  27.391  1.00  0.00     0.029 A 
ATOM     57  N   UNL A   1      44.726  30.332  28.257  1.00  0.00    -0.354 N 
ATOM     58  N   UNL A   1      42.261  31.034  29.658  1.00  0.00    -0.248 NA
ATOM     59  C   UNL A   1      40.984  32.542  30.905  1.00  0.00     0.031 C 
ATOM     60  C   UNL A   1      46.269  31.909  27.989  1.00  0.00     0.029 A 
ATOM     61  C   UNL A   1      45.017  31.659  28.526  1.00  0.00     0.049 A 
ATOM     62  H   UNL A   1      43.897  29.872  28.517  1.00  0.00     0.167 HD
ATOM     63  C   UNL A   1      42.941  32.241  29.746  1.00  0.00     0.074 A 
ATOM     64  C   UNL A   1      42.098  33.144  30.503  1.00  0.00     0.031 C 
ATOM     65  C   UNL A   1      44.160  32.564  29.250  1.00  0.00     0.034 A 
BRANCH  52  66
ATOM     66  C   UNL A   1      47.083  27.905  26.462  1.00  0.00     0.023 A 
ATOM     67  C   UNL A   1      48.067  27.238  27.219  1.00  0.00     0.012 A 
ATOM     68  C   UNL A   1      47.233  28.010  25.066  1.00  0.00     0.148 A 
ATOM     69  C   UNL A   1      49.188  26.688  26.598  1.00  0.00     0.002 A 
ATOM     70  C   UNL A   1      48.340  27.434  24.450  1.00  0.00     0.091 A 
ATOM     71  F   UNL A   1      46.289  28.657  24.369  1.00  0.00    -0.205 F 
ATOM     72  C   UNL A   1      49.318  26.776  25.215  1.00  0.00     0.022 A 
BRANCH  70  73
ATOM     73  S   UNL A   1      48.576  27.440  22.669  1.00  0.00     0.127 S 
ATOM     74  O   UNL A   1      47.450  28.262  22.228  1.00  0.00    -0.237 OA
ATOM     75  O   UNL A   1      49.886  28.077  22.534  1.00  0.00    -0.237 OA
ATOM     76  O   UNL A   1      48.528  26.046  22.252  1.00  0.00    -0.744 OA
ENDBRANCH  70  73
ENDBRANCH  52  66
BRANCH  53  77
ATOM     77  C   UNL A   1      38.741  30.643  31.168  1.00  0.00     0.023 A 
ATOM     78  C   UNL A   1      38.549  30.296  32.518  1.00  0.00     0.012 A 
ATOM     79  C   UNL A   1      37.795  31.455  30.514  1.00  0.00     0.148 A 
ATOM     80  C   UNL A   1      37.429  30.755  33.211  1.00  0.00     0.002 A 
ATOM     81  C   UNL A   1      36.702  31.938  31.221  1.00  0.00     0.091 A 
ATOM     82  F   UNL A   1      38.012  31.772  29.231  1.00  0.00    -0.205 F 
ATOM     83  C   UNL A   1      36.512  31.583  32.567  1.00  0.00     0.022 A 
BRANCH  81  84
ATOM     84  S   UNL A   1      35.524  33.096  30.517  1.00  0.00     0.127 S 
ATOM     85  O   UNL A   1      34.253  32.553  30.988  1.00  0.00    -0.237 OA
ATOM     86  O   UNL A   1      35.930  34.352  31.147  1.00  0.00    -0.237 OA
ATOM     87  O   UNL A   1      35.728  33.043  29.075  1.00  0.00    -0.744 OA
ENDBRANCH  81  84
ENDBRANCH  53  77
BRANCH  65  88
ATOM     88  C   UNL A   1      44.681  33.951  29.502  1.00  0.00     0.023 A 
ATOM     89  C   UNL A   1      45.474  34.192  30.641  1.00  0.00     0.012 A 
ATOM     90  C   UNL A   1      44.490  34.979  28.559  1.00  0.00     0.148 A 
ATOM     91  C   UNL A   1      46.064  35.439  30.841  1.00  0.00     0.002 A 
ATOM     92  C   UNL A   1      45.108  36.210  28.748  1.00  0.00     0.091 A 
ATOM     93  F   UNL A   1      43.723  34.726  27.488  1.00  0.00    -0.205 F 
ATOM     94  C   UNL A   1      45.891  36.443  29.890  1.00  0.00     0.022 A 
BRANCH  92  95
ATOM     95  S   UNL A   1      45.006  37.542  27.546  1.00  0.00     0.127 S 
ATOM     96  O   UNL A   1      45.422  38.696  28.344  1.00  0.00    -0.237 OA
ATOM     97  O   UNL A   1      45.973  37.119  26.534  1.00  0.00    -0.237 OA
ATOM     98  O   UNL A   1      43.622  37.573  27.092  1.00  0.00    -0.744 OA
ENDBRANCH  92  95
ENDBRANCH  65  88
ENDBRANCH  39  40
ENDBRANCH  32  34
ENDBRANCH  31  32
ENDBRANCH  30  31
ENDBRANCH  29  30
ENDBRANCH  28  29
ENDBRANCH   1  28
TORSDOF 23
ENDMDL
