MODEL 1
REMARK VINA RESULT:      -8.3      0.000      0.000
REMARK SMILES C[C@@H]1CC[C@@H](C(=O)OCCOCCOCCOC(=O)c2ccc(-c3c4nc(c(-c5cccc(S(=O)(=O)[O-])c5F)c5ccc([nH]5)c(-c5cccc(S(=O)(=O)[O-])c5F)c5nc(c(-c6cccc(S(=O)(=O)[O-])c6F)c6ccc3[nH]6)C=C5)C=C4)cc2)[C@H](SCC[NH+](C)C)C1
REMARK SMILES IDX 12 1 11 2 10 3 9 4 8 5 6 6 7 7 5 8 1 9 2 10 3 11 90 12 4 13
REMARK SMILES IDX 83 14 84 15 85 16 86 17 87 18 88 19 89 20 13 22 14 23 15 24
REMARK SMILES IDX 16 25 17 26 18 27 19 28 20 29 21 30 82 31 22 32 81 33 23 34
REMARK SMILES IDX 24 35 25 36 75 37 26 38 80 39 74 40 76 41 27 42 79 43 73 44
REMARK SMILES IDX 72 45 28 47 60 48 40 49 59 50 41 51 44 52 58 53 77 54 42 55
REMARK SMILES IDX 43 56 57 58 78 59 45 60 29 61 30 62 38 63 31 64 33 65 39 66
REMARK SMILES IDX 32 67 34 68 35 69 36 70 37 71 61 72 62 73 70 74 63 75 65 76
REMARK SMILES IDX 71 77 64 78 66 79 67 80 68 81 69 82 46 83 47 84 55 85 48 86
REMARK SMILES IDX 50 87 56 88 49 89 51 90 52 91 53 92 54 93
REMARK H PARENT 87 21 76 46 44 57
REMARK Flexibility Score: inf
ROOT
ATOM      1  C   UNL A   1      35.316  20.976  25.013  1.00  0.00     0.188 C 
ENDROOT
BRANCH   1   2
ATOM      2  O   UNL A   1      34.274  20.753  25.935  1.00  0.00    -0.376 OA
BRANCH   2   3
ATOM      3  C   UNL A   1      32.999  20.501  25.337  1.00  0.00     0.202 C 
BRANCH   3   4
ATOM      4  C   UNL A   1      32.111  21.702  24.886  1.00  0.00     0.261 C 
BRANCH   4   5
ATOM      5  O   UNL A   1      32.757  23.008  24.968  1.00  0.00    -0.463 OA
BRANCH   5   6
ATOM      6  C   UNL A   1      32.002  24.073  25.426  1.00  0.00     0.310 C 
ATOM      7  O   UNL A   1      31.639  24.175  26.590  1.00  0.00    -0.252 OA
BRANCH   6   8
ATOM      8  C   UNL A   1      31.687  25.120  24.291  1.00  0.00     0.112 C 
ATOM      9  C   UNL A   1      32.388  29.160  25.771  1.00  0.00     0.007 C 
ATOM     10  C   UNL A   1      32.388  27.625  25.863  1.00  0.00    -0.013 C 
ATOM     11  C   UNL A   1      33.432  26.916  24.985  1.00  0.00     0.004 C 
ATOM     12  C   UNL A   1      30.976  27.038  25.849  1.00  0.00     0.018 C 
ATOM     13  C   UNL A   1      32.998  25.813  24.002  1.00  0.00     0.017 C 
ATOM     14  C   UNL A   1      30.575  26.152  24.650  1.00  0.00     0.061 C 
BRANCH  14  15
ATOM     15  S   UNL A   1      29.372  27.186  23.512  1.00  0.00    -0.152 SA
BRANCH  15  16
ATOM     16  C   UNL A   1      30.028  28.748  22.689  1.00  0.00     0.131 C 
BRANCH  16  17
ATOM     17  C   UNL A   1      29.680  30.199  23.266  1.00  0.00     0.272 C 
BRANCH  17  18
ATOM     18  N   UNL A   1      29.428  31.275  22.284  1.00  0.00    -0.339 N 
ATOM     19  C   UNL A   1      28.541  30.923  21.175  1.00  0.00     0.332 C 
ATOM     20  C   UNL A   1      28.853  32.374  22.986  1.00  0.00     0.332 C 
ATOM     21  H   UNL A   1      30.328  31.486  21.855  1.00  0.00     0.347 HD
ENDBRANCH  17  18
ENDBRANCH  16  17
ENDBRANCH  15  16
ENDBRANCH  14  15
ENDBRANCH   6   8
ENDBRANCH   5   6
ENDBRANCH   4   5
ENDBRANCH   3   4
ENDBRANCH   2   3
ENDBRANCH   1   2
BRANCH   1  22
ATOM     22  C   UNL A   1      36.508  21.781  25.507  1.00  0.00     0.188 C 
BRANCH  22  23
ATOM     23  O   UNL A   1      37.773  21.614  24.901  1.00  0.00    -0.376 OA
BRANCH  23  24
ATOM     24  C   UNL A   1      38.871  21.294  25.754  1.00  0.00     0.202 C 
BRANCH  24  25
ATOM     25  C   UNL A   1      39.631  22.357  26.605  1.00  0.00     0.261 C 
BRANCH  25  26
ATOM     26  O   UNL A   1      40.986  22.095  27.015  1.00  0.00    -0.460 OA
BRANCH  26  27
ATOM     27  C   UNL A   1      41.966  22.640  26.257  1.00  0.00     0.338 C 
ATOM     28  O   UNL A   1      42.383  22.177  25.201  1.00  0.00    -0.246 OA
BRANCH  27  29
ATOM     29  C   UNL A   1      42.314  24.009  26.760  1.00  0.00     0.060 A 
ATOM     30  C   UNL A   1      42.539  24.155  28.138  1.00  0.00     0.016 A 
ATOM     31  C   UNL A   1      42.467  25.128  25.932  1.00  0.00     0.016 A 
ATOM     32  C   UNL A   1      42.860  25.404  28.691  1.00  0.00     0.010 A 
ATOM     33  C   UNL A   1      42.770  26.387  26.493  1.00  0.00     0.010 A 
ATOM     34  C   UNL A   1      42.940  26.544  27.882  1.00  0.00    -0.014 A 
BRANCH  34  35
ATOM     35  C   UNL A   1      42.987  27.904  28.505  1.00  0.00     0.031 A 
ATOM     36  C   UNL A   1      44.334  28.554  28.712  1.00  0.00     0.074 A 
ATOM     37  C   UNL A   1      41.884  28.586  28.878  1.00  0.00     0.049 A 
ATOM     38  N   UNL A   1      44.632  29.699  29.271  1.00  0.00    -0.248 NA
ATOM     39  C   UNL A   1      45.499  27.804  28.217  1.00  0.00     0.031 C 
ATOM     40  C   UNL A   1      40.509  28.127  28.717  1.00  0.00     0.029 A 
ATOM     41  N   UNL A   1      41.757  29.814  29.492  1.00  0.00    -0.354 N 
ATOM     42  C   UNL A   1      46.018  29.795  29.226  1.00  0.00     0.074 A 
ATOM     43  C   UNL A   1      46.500  28.593  28.577  1.00  0.00     0.031 C 
ATOM     44  C   UNL A   1      39.676  29.052  29.233  1.00  0.00     0.029 A 
ATOM     45  C   UNL A   1      40.458  30.155  29.797  1.00  0.00     0.049 A 
ATOM     46  H   UNL A   1      42.526  30.395  29.694  1.00  0.00     0.167 HD
ATOM     47  C   UNL A   1      46.826  30.784  29.680  1.00  0.00     0.034 A 
ATOM     48  C   UNL A   1      39.955  31.212  30.474  1.00  0.00     0.034 A 
ATOM     49  C   UNL A   1      46.375  31.981  30.336  1.00  0.00     0.049 A 
ATOM     50  C   UNL A   1      40.882  32.271  31.029  1.00  0.00     0.074 A 
ATOM     51  C   UNL A   1      47.136  33.032  30.821  1.00  0.00     0.029 A 
ATOM     52  N   UNL A   1      45.055  32.285  30.621  1.00  0.00    -0.354 N 
ATOM     53  N   UNL A   1      42.181  32.384  30.908  1.00  0.00    -0.248 NA
ATOM     54  C   UNL A   1      40.264  33.363  31.805  1.00  0.00     0.031 C 
ATOM     55  C   UNL A   1      46.280  33.951  31.435  1.00  0.00     0.029 A 
ATOM     56  C   UNL A   1      44.980  33.498  31.287  1.00  0.00     0.049 A 
ATOM     57  H   UNL A   1      44.282  31.722  30.384  1.00  0.00     0.167 HD
ATOM     58  C   UNL A   1      42.529  33.569  31.554  1.00  0.00     0.074 A 
ATOM     59  C   UNL A   1      41.302  34.152  32.048  1.00  0.00     0.031 C 
ATOM     60  C   UNL A   1      43.758  34.115  31.732  1.00  0.00     0.034 A 
BRANCH  47  61
ATOM     61  C   UNL A   1      48.311  30.603  29.491  1.00  0.00     0.023 A 
ATOM     62  C   UNL A   1      49.073  29.967  30.492  1.00  0.00     0.012 A 
ATOM     63  C   UNL A   1      48.938  31.023  28.301  1.00  0.00     0.148 A 
ATOM     64  C   UNL A   1      50.446  29.789  30.328  1.00  0.00     0.002 A 
ATOM     65  C   UNL A   1      50.298  30.798  28.126  1.00  0.00     0.091 A 
ATOM     66  F   UNL A   1      48.197  31.640  27.371  1.00  0.00    -0.205 F 
ATOM     67  C   UNL A   1      51.056  30.196  29.143  1.00  0.00     0.022 A 
BRANCH  65  68
ATOM     68  S   UNL A   1      51.159  31.214  26.606  1.00  0.00     0.127 S 
ATOM     69  O   UNL A   1      52.552  30.982  26.984  1.00  0.00    -0.237 OA
ATOM     70  O   UNL A   1      50.610  30.236  25.667  1.00  0.00    -0.237 OA
ATOM     71  O   UNL A   1      50.815  32.598  26.313  1.00  0.00    -0.744 OA
ENDBRANCH  65  68
ENDBRANCH  47  61
BRANCH  48  72
ATOM     72  C   UNL A   1      38.480  31.350  30.682  1.00  0.00     0.023 A 
ATOM     73  C   UNL A   1      37.867  30.714  31.781  1.00  0.00     0.012 A 
ATOM     74  C   UNL A   1      37.677  32.066  29.774  1.00  0.00     0.148 A 
ATOM     75  C   UNL A   1      36.482  30.758  31.951  1.00  0.00     0.002 A 
ATOM     76  C   UNL A   1      36.305  32.158  29.983  1.00  0.00     0.091 A 
ATOM     77  F   UNL A   1      38.270  32.641  28.718  1.00  0.00    -0.205 F 
ATOM     78  C   UNL A   1      35.702  31.487  31.058  1.00  0.00     0.022 A 
BRANCH  76  79
ATOM     79  S   UNL A   1      35.236  33.172  28.955  1.00  0.00     0.127 S 
ATOM     80  O   UNL A   1      33.957  33.062  29.652  1.00  0.00    -0.237 OA
ATOM     81  O   UNL A   1      35.884  34.480  29.055  1.00  0.00    -0.237 OA
ATOM     82  O   UNL A   1      35.284  32.575  27.628  1.00  0.00    -0.744 OA
ENDBRANCH  76  79
ENDBRANCH  48  72
BRANCH  60  83
ATOM     83  C   UNL A   1      43.860  35.444  32.446  1.00  0.00     0.023 A 
ATOM     84  C   UNL A   1      43.834  36.648  31.714  1.00  0.00     0.012 A 
ATOM     85  C   UNL A   1      43.896  35.499  33.855  1.00  0.00     0.148 A 
ATOM     86  C   UNL A   1      43.874  37.880  32.369  1.00  0.00     0.002 A 
ATOM     87  C   UNL A   1      43.885  36.730  34.502  1.00  0.00     0.091 A 
ATOM     88  F   UNL A   1      43.935  34.346  34.538  1.00  0.00    -0.205 F 
ATOM     89  C   UNL A   1      43.887  37.921  33.761  1.00  0.00     0.022 A 
BRANCH  87  90
ATOM     90  S   UNL A   1      43.804  36.882  36.291  1.00  0.00     0.127 S 
ATOM     91  O   UNL A   1      42.491  36.307  36.580  1.00  0.00    -0.237 OA
ATOM     92  O   UNL A   1      44.936  36.062  36.724  1.00  0.00    -0.237 OA
ATOM     93  O   UNL A   1      43.938  38.302  36.583  1.00  0.00    -0.744 OA
ENDBRANCH  87  90
ENDBRANCH  60  83
ENDBRANCH  34  35
ENDBRANCH  27  29
ENDBRANCH  26  27
ENDBRANCH  25  26
ENDBRANCH  24  25
ENDBRANCH  23  24
ENDBRANCH  22  23
ENDBRANCH   1  22
TORSDOF 24
ENDMDL
MODEL 2
REMARK VINA RESULT:      -8.3      3.667      8.848
REMARK SMILES C[C@@H]1CC[C@@H](C(=O)OCCOCCOCCOC(=O)c2ccc(-c3c4nc(c(-c5cccc(S(=O)(=O)[O-])c5F)c5ccc([nH]5)c(-c5cccc(S(=O)(=O)[O-])c5F)c5nc(c(-c6cccc(S(=O)(=O)[O-])c6F)c6ccc3[nH]6)C=C5)C=C4)cc2)[C@H](SCC[NH+](C)C)C1
REMARK SMILES IDX 12 1 11 2 10 3 9 4 8 5 6 6 7 7 5 8 1 9 2 10 3 11 90 12 4 13
REMARK SMILES IDX 83 14 84 15 85 16 86 17 87 18 88 19 89 20 13 22 14 23 15 24
REMARK SMILES IDX 16 25 17 26 18 27 19 28 20 29 21 30 82 31 22 32 81 33 23 34
REMARK SMILES IDX 24 35 25 36 75 37 26 38 80 39 74 40 76 41 27 42 79 43 73 44
REMARK SMILES IDX 72 45 28 47 60 48 40 49 59 50 41 51 44 52 58 53 77 54 42 55
REMARK SMILES IDX 43 56 57 58 78 59 45 60 29 61 30 62 38 63 31 64 33 65 39 66
REMARK SMILES IDX 32 67 34 68 35 69 36 70 37 71 61 72 62 73 70 74 63 75 65 76
REMARK SMILES IDX 71 77 64 78 66 79 67 80 68 81 69 82 46 83 47 84 55 85 48 86
REMARK SMILES IDX 50 87 56 88 49 89 51 90 52 91 53 92 54 93
REMARK H PARENT 87 21 76 46 44 57
REMARK Flexibility Score: inf
ROOT
ATOM      1  C   UNL A   1      42.145  23.890  27.082  1.00  0.00     0.188 C 
ENDROOT
BRANCH   1   2
ATOM      2  O   UNL A   1      42.125  22.601  27.653  1.00  0.00    -0.376 OA
BRANCH   2   3
ATOM      3  C   UNL A   1      40.859  21.940  27.576  1.00  0.00     0.202 C 
BRANCH   3   4
ATOM      4  C   UNL A   1      40.256  21.596  26.178  1.00  0.00     0.261 C 
BRANCH   4   5
ATOM      5  O   UNL A   1      38.845  21.225  26.193  1.00  0.00    -0.463 OA
BRANCH   5   6
ATOM      6  C   UNL A   1      37.922  22.186  25.818  1.00  0.00     0.310 C 
ATOM      7  O   UNL A   1      38.161  23.385  25.859  1.00  0.00    -0.252 OA
BRANCH   6   8
ATOM      8  C   UNL A   1      36.562  21.556  25.330  1.00  0.00     0.112 C 
ATOM      9  C   UNL A   1      33.817  24.721  24.127  1.00  0.00     0.007 C 
ATOM     10  C   UNL A   1      35.161  24.157  24.615  1.00  0.00    -0.013 C 
ATOM     11  C   UNL A   1      35.959  23.365  23.565  1.00  0.00     0.004 C 
ATOM     12  C   UNL A   1      35.063  23.533  26.007  1.00  0.00     0.018 C 
ATOM     13  C   UNL A   1      36.438  21.934  23.873  1.00  0.00     0.017 C 
ATOM     14  C   UNL A   1      35.309  22.013  26.137  1.00  0.00     0.061 C 
BRANCH  14  15
ATOM     15  S   UNL A   1      33.583  21.147  26.422  1.00  0.00    -0.152 SA
BRANCH  15  16
ATOM     16  C   UNL A   1      32.864  20.089  25.040  1.00  0.00     0.131 C 
BRANCH  16  17
ATOM     17  C   UNL A   1      33.714  18.912  24.369  1.00  0.00     0.272 C 
BRANCH  17  18
ATOM     18  N   UNL A   1      33.016  17.634  24.114  1.00  0.00    -0.339 N 
ATOM     19  C   UNL A   1      33.826  16.582  23.500  1.00  0.00     0.332 C 
ATOM     20  C   UNL A   1      32.530  17.152  25.365  1.00  0.00     0.332 C 
ATOM     21  H   UNL A   1      32.280  17.840  23.440  1.00  0.00     0.347 HD
ENDBRANCH  17  18
ENDBRANCH  16  17
ENDBRANCH  15  16
ENDBRANCH  14  15
ENDBRANCH   6   8
ENDBRANCH   5   6
ENDBRANCH   4   5
ENDBRANCH   3   4
ENDBRANCH   2   3
ENDBRANCH   1   2
BRANCH   1  22
ATOM     22  C   UNL A   1      42.881  24.043  25.760  1.00  0.00     0.188 C 
BRANCH  22  23
ATOM     23  O   UNL A   1      42.984  22.946  24.877  1.00  0.00    -0.376 OA
BRANCH  23  24
ATOM     24  C   UNL A   1      44.236  22.744  24.225  1.00  0.00     0.202 C 
BRANCH  24  25
ATOM     25  C   UNL A   1      45.489  22.154  24.942  1.00  0.00     0.261 C 
BRANCH  25  26
ATOM     26  O   UNL A   1      46.365  23.034  25.670  1.00  0.00    -0.460 OA
BRANCH  26  27
ATOM     27  C   UNL A   1      46.807  24.132  25.013  1.00  0.00     0.338 C 
ATOM     28  O   UNL A   1      47.272  24.136  23.878  1.00  0.00    -0.246 OA
BRANCH  27  29
ATOM     29  C   UNL A   1      46.439  25.375  25.766  1.00  0.00     0.060 A 
ATOM     30  C   UNL A   1      45.839  26.416  25.042  1.00  0.00     0.016 A 
ATOM     31  C   UNL A   1      46.620  25.532  27.145  1.00  0.00     0.016 A 
ATOM     32  C   UNL A   1      45.473  27.617  25.669  1.00  0.00     0.010 A 
ATOM     33  C   UNL A   1      46.269  26.748  27.771  1.00  0.00     0.010 A 
ATOM     34  C   UNL A   1      45.719  27.814  27.034  1.00  0.00    -0.014 A 
BRANCH  34  35
ATOM     35  C   UNL A   1      45.603  29.183  27.627  1.00  0.00     0.031 A 
ATOM     36  C   UNL A   1      44.294  29.580  28.268  1.00  0.00     0.074 A 
ATOM     37  C   UNL A   1      46.613  30.077  27.630  1.00  0.00     0.049 A 
ATOM     38  N   UNL A   1      43.938  30.720  28.803  1.00  0.00    -0.248 NA
ATOM     39  C   UNL A   1      43.251  28.544  28.308  1.00  0.00     0.031 C 
ATOM     40  C   UNL A   1      47.949  29.848  27.093  1.00  0.00     0.029 A 
ATOM     41  N   UNL A   1      46.658  31.375  28.095  1.00  0.00    -0.354 N 
ATOM     42  C   UNL A   1      42.621  30.552  29.215  1.00  0.00     0.074 A 
ATOM     43  C   UNL A   1      42.245  29.196  28.872  1.00  0.00     0.031 C 
ATOM     44  C   UNL A   1      48.679  30.971  27.240  1.00  0.00     0.029 A 
ATOM     45  C   UNL A   1      47.853  32.015  27.851  1.00  0.00     0.049 A 
ATOM     46  H   UNL A   1      45.904  31.805  28.559  1.00  0.00     0.167 HD
ATOM     47  C   UNL A   1      41.790  31.435  29.820  1.00  0.00     0.034 A 
ATOM     48  C   UNL A   1      48.232  33.295  28.066  1.00  0.00     0.034 A 
ATOM     49  C   UNL A   1      42.134  32.789  30.162  1.00  0.00     0.049 A 
ATOM     50  C   UNL A   1      47.265  34.282  28.682  1.00  0.00     0.074 A 
ATOM     51  C   UNL A   1      41.345  33.744  30.780  1.00  0.00     0.029 A 
ATOM     52  N   UNL A   1      43.352  33.392  29.899  1.00  0.00    -0.354 N 
ATOM     53  N   UNL A   1      46.052  34.083  29.136  1.00  0.00    -0.248 NA
ATOM     54  C   UNL A   1      47.731  35.673  28.832  1.00  0.00     0.031 C 
ATOM     55  C   UNL A   1      42.071  34.936  30.856  1.00  0.00     0.029 A 
ATOM     56  C   UNL A   1      43.331  34.709  30.330  1.00  0.00     0.049 A 
ATOM     57  H   UNL A   1      44.120  32.951  29.470  1.00  0.00     0.167 HD
ATOM     58  C   UNL A   1      45.628  35.306  29.655  1.00  0.00     0.074 A 
ATOM     59  C   UNL A   1      46.721  36.236  29.481  1.00  0.00     0.031 C 
ATOM     60  C   UNL A   1      44.435  35.628  30.213  1.00  0.00     0.034 A 
BRANCH  47  61
ATOM     61  C   UNL A   1      40.398  30.960  30.146  1.00  0.00     0.023 A 
ATOM     62  C   UNL A   1      39.360  31.131  29.208  1.00  0.00     0.012 A 
ATOM     63  C   UNL A   1      40.131  30.305  31.365  1.00  0.00     0.148 A 
ATOM     64  C   UNL A   1      38.068  30.693  29.494  1.00  0.00     0.002 A 
ATOM     65  C   UNL A   1      38.852  29.828  31.622  1.00  0.00     0.091 A 
ATOM     66  F   UNL A   1      41.129  30.169  32.249  1.00  0.00    -0.205 F 
ATOM     67  C   UNL A   1      37.817  30.034  30.696  1.00  0.00     0.022 A 
BRANCH  65  68
ATOM     68  S   UNL A   1      38.445  28.899  33.104  1.00  0.00     0.127 S 
ATOM     69  O   UNL A   1      39.356  27.761  32.997  1.00  0.00    -0.237 OA
ATOM     70  O   UNL A   1      38.780  29.851  34.163  1.00  0.00    -0.237 OA
ATOM     71  O   UNL A   1      37.030  28.576  33.002  1.00  0.00    -0.744 OA
ENDBRANCH  65  68
ENDBRANCH  47  61
BRANCH  48  72
ATOM     72  C   UNL A   1      49.608  33.752  27.698  1.00  0.00     0.023 A 
ATOM     73  C   UNL A   1      50.631  33.741  28.668  1.00  0.00     0.012 A 
ATOM     74  C   UNL A   1      49.897  34.240  26.409  1.00  0.00     0.148 A 
ATOM     75  C   UNL A   1      51.901  34.240  28.375  1.00  0.00     0.002 A 
ATOM     76  C   UNL A   1      51.181  34.678  26.104  1.00  0.00     0.091 A 
ATOM     77  F   UNL A   1      48.907  34.271  25.506  1.00  0.00    -0.205 F 
ATOM     78  C   UNL A   1      52.180  34.700  27.091  1.00  0.00     0.022 A 
BRANCH  76  79
ATOM     79  S   UNL A   1      51.664  35.175  24.447  1.00  0.00     0.127 S 
ATOM     80  O   UNL A   1      51.655  33.899  23.736  1.00  0.00    -0.237 OA
ATOM     81  O   UNL A   1      50.582  36.091  24.085  1.00  0.00    -0.237 OA
ATOM     82  O   UNL A   1      52.968  35.807  24.589  1.00  0.00    -0.744 OA
ENDBRANCH  76  79
ENDBRANCH  48  72
BRANCH  60  83
ATOM     83  C   UNL A   1      44.240  37.032  30.737  1.00  0.00     0.023 A 
ATOM     84  C   UNL A   1      43.793  38.056  29.878  1.00  0.00     0.012 A 
ATOM     85  C   UNL A   1      44.420  37.316  32.107  1.00  0.00     0.148 A 
ATOM     86  C   UNL A   1      43.559  39.344  30.366  1.00  0.00     0.002 A 
ATOM     87  C   UNL A   1      44.137  38.587  32.595  1.00  0.00     0.091 A 
ATOM     88  F   UNL A   1      44.860  36.337  32.910  1.00  0.00    -0.205 F 
ATOM     89  C   UNL A   1      43.719  39.606  31.725  1.00  0.00     0.022 A 
BRANCH  87  90
ATOM     90  S   UNL A   1      44.221  38.993  34.345  1.00  0.00     0.127 S 
ATOM     91  O   UNL A   1      43.827  40.401  34.343  1.00  0.00    -0.237 OA
ATOM     92  O   UNL A   1      43.230  38.084  34.921  1.00  0.00    -0.237 OA
ATOM     93  O   UNL A   1      45.593  38.732  34.755  1.00  0.00    -0.744 OA
ENDBRANCH  87  90
ENDBRANCH  60  83
ENDBRANCH  34  35
ENDBRANCH  27  29
ENDBRANCH  26  27
ENDBRANCH  25  26
ENDBRANCH  24  25
ENDBRANCH  23  24
ENDBRANCH  22  23
ENDBRANCH   1  22
TORSDOF 24
ENDMDL
MODEL 3
REMARK VINA RESULT:      -8.2      4.886      9.667
REMARK SMILES C[C@@H]1CC[C@@H](C(=O)OCCOCCOCCOC(=O)c2ccc(-c3c4nc(c(-c5cccc(S(=O)(=O)[O-])c5F)c5ccc([nH]5)c(-c5cccc(S(=O)(=O)[O-])c5F)c5nc(c(-c6cccc(S(=O)(=O)[O-])c6F)c6ccc3[nH]6)C=C5)C=C4)cc2)[C@H](SCC[NH+](C)C)C1
REMARK SMILES IDX 12 1 11 2 10 3 9 4 8 5 6 6 7 7 5 8 1 9 2 10 3 11 90 12 4 13
REMARK SMILES IDX 83 14 84 15 85 16 86 17 87 18 88 19 89 20 13 22 14 23 15 24
REMARK SMILES IDX 16 25 17 26 18 27 19 28 20 29 21 30 82 31 22 32 81 33 23 34
REMARK SMILES IDX 24 35 25 36 75 37 26 38 80 39 74 40 76 41 27 42 79 43 73 44
REMARK SMILES IDX 72 45 28 47 60 48 40 49 59 50 41 51 44 52 58 53 77 54 42 55
REMARK SMILES IDX 43 56 57 58 78 59 45 60 29 61 30 62 38 63 31 64 33 65 39 66
REMARK SMILES IDX 32 67 34 68 35 69 36 70 37 71 61 72 62 73 70 74 63 75 65 76
REMARK SMILES IDX 71 77 64 78 66 79 67 80 68 81 69 82 46 83 47 84 55 85 48 86
REMARK SMILES IDX 50 87 56 88 49 89 51 90 52 91 53 92 54 93
REMARK H PARENT 87 21 76 46 44 57
REMARK Flexibility Score: inf
ROOT
ATOM      1  C   UNL A   1      33.855  30.744  27.568  1.00  0.00     0.188 C 
ENDROOT
BRANCH   1   2
ATOM      2  O   UNL A   1      34.603  29.553  27.463  1.00  0.00    -0.376 OA
BRANCH   2   3
ATOM      3  C   UNL A   1      33.915  28.479  26.815  1.00  0.00     0.202 C 
BRANCH   3   4
ATOM      4  C   UNL A   1      33.766  28.489  25.261  1.00  0.00     0.261 C 
BRANCH   4   5
ATOM      5  O   UNL A   1      33.930  27.189  24.620  1.00  0.00    -0.463 OA
BRANCH   5   6
ATOM      6  C   UNL A   1      32.855  26.678  23.915  1.00  0.00     0.310 C 
ATOM      7  O   UNL A   1      31.908  27.367  23.561  1.00  0.00    -0.252 OA
BRANCH   6   8
ATOM      8  C   UNL A   1      33.006  25.137  23.620  1.00  0.00     0.112 C 
ATOM      9  C   UNL A   1      30.492  22.857  26.356  1.00  0.00     0.007 C 
ATOM     10  C   UNL A   1      31.055  24.143  25.727  1.00  0.00    -0.013 C 
ATOM     11  C   UNL A   1      30.598  24.422  24.286  1.00  0.00     0.004 C 
ATOM     12  C   UNL A   1      32.544  24.332  26.018  1.00  0.00     0.018 C 
ATOM     13  C   UNL A   1      31.638  24.672  23.178  1.00  0.00     0.017 C 
ATOM     14  C   UNL A   1      33.523  24.293  24.824  1.00  0.00     0.061 C 
BRANCH  14  15
ATOM     15  S   UNL A   1      34.472  22.589  24.880  1.00  0.00    -0.152 SA
BRANCH  15  16
ATOM     16  C   UNL A   1      33.590  21.042  24.266  1.00  0.00     0.131 C 
BRANCH  16  17
ATOM     17  C   UNL A   1      33.230  19.843  25.262  1.00  0.00     0.272 C 
BRANCH  17  18
ATOM     18  N   UNL A   1      33.227  18.475  24.700  1.00  0.00    -0.339 N 
ATOM     19  C   UNL A   1      34.538  17.939  24.335  1.00  0.00     0.332 C 
ATOM     20  C   UNL A   1      32.644  17.611  25.672  1.00  0.00     0.332 C 
ATOM     21  H   UNL A   1      32.701  18.527  23.828  1.00  0.00     0.347 HD
ENDBRANCH  17  18
ENDBRANCH  16  17
ENDBRANCH  15  16
ENDBRANCH  14  15
ENDBRANCH   6   8
ENDBRANCH   5   6
ENDBRANCH   4   5
ENDBRANCH   3   4
ENDBRANCH   2   3
ENDBRANCH   1   2
BRANCH   1  22
ATOM     22  C   UNL A   1      34.604  31.984  28.031  1.00  0.00     0.188 C 
BRANCH  22  23
ATOM     23  O   UNL A   1      35.552  31.890  29.073  1.00  0.00    -0.376 OA
BRANCH  23  24
ATOM     24  C   UNL A   1      35.095  32.138  30.401  1.00  0.00     0.202 C 
BRANCH  24  25
ATOM     25  C   UNL A   1      35.942  32.892  31.471  1.00  0.00     0.261 C 
BRANCH  25  26
ATOM     26  O   UNL A   1      36.519  34.169  31.142  1.00  0.00    -0.460 OA
BRANCH  26  27
ATOM     27  C   UNL A   1      37.563  34.577  31.901  1.00  0.00     0.338 C 
ATOM     28  O   UNL A   1      37.531  34.742  33.116  1.00  0.00    -0.246 OA
BRANCH  27  29
ATOM     29  C   UNL A   1      38.826  34.577  31.094  1.00  0.00     0.060 A 
ATOM     30  C   UNL A   1      40.036  34.417  31.786  1.00  0.00     0.016 A 
ATOM     31  C   UNL A   1      38.858  34.685  29.698  1.00  0.00     0.016 A 
ATOM     32  C   UNL A   1      41.264  34.415  31.106  1.00  0.00     0.010 A 
ATOM     33  C   UNL A   1      40.096  34.703  29.018  1.00  0.00     0.010 A 
ATOM     34  C   UNL A   1      41.313  34.599  29.718  1.00  0.00    -0.014 A 
BRANCH  34  35
ATOM     35  C   UNL A   1      42.617  34.891  29.046  1.00  0.00     0.031 A 
ATOM     36  C   UNL A   1      43.585  33.752  28.829  1.00  0.00     0.074 A 
ATOM     37  C   UNL A   1      42.967  36.119  28.610  1.00  0.00     0.049 A 
ATOM     38  N   UNL A   1      44.789  33.765  28.315  1.00  0.00    -0.248 NA
ATOM     39  C   UNL A   1      43.125  32.420  29.251  1.00  0.00     0.031 C 
ATOM     40  C   UNL A   1      42.142  37.318  28.702  1.00  0.00     0.029 A 
ATOM     41  N   UNL A   1      44.130  36.558  28.013  1.00  0.00    -0.354 N 
ATOM     42  C   UNL A   1      45.244  32.453  28.380  1.00  0.00     0.074 A 
ATOM     43  C   UNL A   1      44.183  31.670  28.978  1.00  0.00     0.031 C 
ATOM     44  C   UNL A   1      42.828  38.361  28.197  1.00  0.00     0.029 A 
ATOM     45  C   UNL A   1      44.159  37.915  27.777  1.00  0.00     0.049 A 
ATOM     46  H   UNL A   1      44.873  35.956  27.777  1.00  0.00     0.167 HD
ATOM     47  C   UNL A   1      46.433  31.935  27.985  1.00  0.00     0.034 A 
ATOM     48  C   UNL A   1      45.146  38.711  27.307  1.00  0.00     0.034 A 
ATOM     49  C   UNL A   1      47.507  32.691  27.400  1.00  0.00     0.049 A 
ATOM     50  C   UNL A   1      46.488  38.121  26.934  1.00  0.00     0.074 A 
ATOM     51  C   UNL A   1      48.742  32.234  26.971  1.00  0.00     0.029 A 
ATOM     52  N   UNL A   1      47.492  34.057  27.178  1.00  0.00    -0.354 N 
ATOM     53  N   UNL A   1      46.872  36.869  26.929  1.00  0.00    -0.248 NA
ATOM     54  C   UNL A   1      47.532  39.061  26.484  1.00  0.00     0.031 C 
ATOM     55  C   UNL A   1      49.489  33.330  26.526  1.00  0.00     0.029 A 
ATOM     56  C   UNL A   1      48.700  34.463  26.632  1.00  0.00     0.049 A 
ATOM     57  H   UNL A   1      46.735  34.654  27.378  1.00  0.00     0.167 HD
ATOM     58  C   UNL A   1      48.179  36.867  26.444  1.00  0.00     0.074 A 
ATOM     59  C   UNL A   1      48.516  38.240  26.143  1.00  0.00     0.031 C 
ATOM     60  C   UNL A   1      49.024  35.820  26.276  1.00  0.00     0.034 A 
BRANCH  47  61
ATOM     61  C   UNL A   1      46.644  30.457  28.191  1.00  0.00     0.023 A 
ATOM     62  C   UNL A   1      47.074  29.977  29.444  1.00  0.00     0.012 A 
ATOM     63  C   UNL A   1      46.372  29.544  27.153  1.00  0.00     0.148 A 
ATOM     64  C   UNL A   1      47.269  28.612  29.649  1.00  0.00     0.002 A 
ATOM     65  C   UNL A   1      46.523  28.182  27.380  1.00  0.00     0.091 A 
ATOM     66  F   UNL A   1      45.981  30.025  25.965  1.00  0.00    -0.205 F 
ATOM     67  C   UNL A   1      46.984  27.715  28.621  1.00  0.00     0.022 A 
BRANCH  65  68
ATOM     68  S   UNL A   1      46.108  26.944  26.148  1.00  0.00     0.127 S 
ATOM     69  O   UNL A   1      44.696  27.231  25.905  1.00  0.00    -0.237 OA
ATOM     70  O   UNL A   1      47.002  27.299  25.045  1.00  0.00    -0.237 OA
ATOM     71  O   UNL A   1      46.385  25.654  26.763  1.00  0.00    -0.744 OA
ENDBRANCH  65  68
ENDBRANCH  47  61
BRANCH  48  72
ATOM     72  C   UNL A   1      44.924  40.183  27.148  1.00  0.00     0.023 A 
ATOM     73  C   UNL A   1      44.430  40.687  25.928  1.00  0.00     0.012 A 
ATOM     74  C   UNL A   1      45.243  41.086  28.180  1.00  0.00     0.148 A 
ATOM     75  C   UNL A   1      44.293  42.062  25.726  1.00  0.00     0.002 A 
ATOM     76  C   UNL A   1      45.047  42.450  27.995  1.00  0.00     0.091 A 
ATOM     77  F   UNL A   1      45.739  40.593  29.324  1.00  0.00    -0.205 F 
ATOM     78  C   UNL A   1      44.592  42.943  26.762  1.00  0.00     0.022 A 
BRANCH  76  79
ATOM     79  S   UNL A   1      45.290  43.649  29.310  1.00  0.00     0.127 S 
ATOM     80  O   UNL A   1      44.313  43.208  30.303  1.00  0.00    -0.237 OA
ATOM     81  O   UNL A   1      46.688  43.412  29.672  1.00  0.00    -0.237 OA
ATOM     82  O   UNL A   1      45.035  44.950  28.709  1.00  0.00    -0.744 OA
ENDBRANCH  76  79
ENDBRANCH  48  72
BRANCH  60  83
ATOM     83  C   UNL A   1      50.393  36.085  25.690  1.00  0.00     0.023 A 
ATOM     84  C   UNL A   1      50.595  36.014  24.297  1.00  0.00     0.012 A 
ATOM     85  C   UNL A   1      51.460  36.490  26.518  1.00  0.00     0.148 A 
ATOM     86  C   UNL A   1      51.843  36.310  23.743  1.00  0.00     0.002 A 
ATOM     87  C   UNL A   1      52.685  36.831  25.955  1.00  0.00     0.091 A 
ATOM     88  F   UNL A   1      51.257  36.538  27.843  1.00  0.00    -0.205 F 
ATOM     89  C   UNL A   1      52.883  36.729  24.570  1.00  0.00     0.022 A 
BRANCH  87  90
ATOM     90  S   UNL A   1      54.052  37.474  26.929  1.00  0.00     0.127 S 
ATOM     91  O   UNL A   1      55.027  37.805  25.891  1.00  0.00    -0.237 OA
ATOM     92  O   UNL A   1      53.447  38.632  27.587  1.00  0.00    -0.237 OA
ATOM     93  O   UNL A   1      54.445  36.401  27.832  1.00  0.00    -0.744 OA
ENDBRANCH  87  90
ENDBRANCH  60  83
ENDBRANCH  34  35
ENDBRANCH  27  29
ENDBRANCH  26  27
ENDBRANCH  25  26
ENDBRANCH  24  25
ENDBRANCH  23  24
ENDBRANCH  22  23
ENDBRANCH   1  22
TORSDOF 24
ENDMDL
