MODEL 1
REMARK VINA RESULT:      -9.4      0.000      0.000
REMARK SMILES O=C(CSC(=S)N1CCCCC1)OCCOCCOCCOC(=O)c1ccc(-c2c3nc(c(-c4cccc(S(=O)(=O)[O-])c4F)c4ccc([nH]4)c(-c4cccc(S(=O)(=O)[O-])c4F)c4nc(c(-c5cccc(S(=O)(=O)[O-])c5F)c5ccc2[nH]5)C=C4)C=C3)cc1
REMARK SMILES IDX 17 1 16 2 15 3 14 4 13 5 2 6 1 7 3 8 4 9 5 10 6 11 7 12 8 13
REMARK SMILES IDX 12 14 9 15 11 16 10 17 18 18 19 19 20 20 21 21 22 22 23 23
REMARK SMILES IDX 24 24 25 25 26 26 87 27 27 28 86 29 28 30 29 31 30 32 80 33
REMARK SMILES IDX 31 34 85 35 79 36 81 37 32 38 84 39 78 40 77 41 33 43 65 44
REMARK SMILES IDX 45 45 64 46 46 47 49 48 63 49 82 50 47 51 48 52 62 54 83 55
REMARK SMILES IDX 50 56 34 57 35 58 43 59 36 60 38 61 44 62 37 63 39 64 40 65
REMARK SMILES IDX 41 66 42 67 66 68 67 69 75 70 68 71 70 72 76 73 69 74 71 75
REMARK SMILES IDX 72 76 73 77 74 78 51 79 52 80 60 81 53 82 55 83 61 84 54 85
REMARK SMILES IDX 56 86 57 87 58 88 59 89
REMARK H PARENT 81 42 49 53
REMARK Flexibility Score: inf
ROOT
ATOM      1  C   UNL A   1      39.750  21.177  26.436  1.00  0.00     0.188 C 
ENDROOT
BRANCH   1   2
ATOM      2  O   UNL A   1      38.638  21.759  25.770  1.00  0.00    -0.376 OA
BRANCH   2   3
ATOM      3  C   UNL A   1      37.801  20.835  25.086  1.00  0.00     0.202 C 
BRANCH   3   4
ATOM      4  C   UNL A   1      36.355  21.321  25.087  1.00  0.00     0.261 C 
BRANCH   4   5
ATOM      5  O   UNL A   1      36.058  22.447  24.229  1.00  0.00    -0.463 OA
BRANCH   5   6
ATOM      6  C   UNL A   1      34.889  22.814  23.669  1.00  0.00     0.316 C 
ATOM      7  O   UNL A   1      34.899  23.710  22.824  1.00  0.00    -0.251 OA
BRANCH   6   8
ATOM      8  C   UNL A   1      33.583  22.220  24.137  1.00  0.00     0.199 C 
BRANCH   8   9
ATOM      9  S   UNL A   1      32.140  22.710  23.179  1.00  0.00    -0.085 SA
BRANCH   9  10
ATOM     10  C   UNL A   1      31.606  24.188  23.986  1.00  0.00     0.136 C 
ATOM     11  S   UNL A   1      31.560  24.361  25.659  1.00  0.00    -0.053 S 
BRANCH  10  12
ATOM     12  N   UNL A   1      31.211  25.187  23.087  1.00  0.00    -0.358 N 
ATOM     13  C   UNL A   1      32.043  25.581  21.947  1.00  0.00     0.118 C 
ATOM     14  C   UNL A   1      30.260  26.235  23.482  1.00  0.00     0.118 C 
ATOM     15  C   UNL A   1      32.881  26.809  22.294  1.00  0.00     0.021 C 
ATOM     16  C   UNL A   1      31.053  27.460  23.943  1.00  0.00     0.021 C 
ATOM     17  C   UNL A   1      32.015  27.942  22.852  1.00  0.00     0.004 C 
ENDBRANCH  10  12
ENDBRANCH   9  10
ENDBRANCH   8   9
ENDBRANCH   6   8
ENDBRANCH   5   6
ENDBRANCH   4   5
ENDBRANCH   3   4
ENDBRANCH   2   3
ENDBRANCH   1   2
BRANCH   1  18
ATOM     18  C   UNL A   1      41.094  21.428  25.732  1.00  0.00     0.188 C 
BRANCH  18  19
ATOM     19  O   UNL A   1      42.238  21.728  26.521  1.00  0.00    -0.376 OA
BRANCH  19  20
ATOM     20  C   UNL A   1      43.505  21.238  26.094  1.00  0.00     0.202 C 
BRANCH  20  21
ATOM     21  C   UNL A   1      44.191  21.986  24.948  1.00  0.00     0.261 C 
BRANCH  21  22
ATOM     22  O   UNL A   1      43.517  23.204  24.569  1.00  0.00    -0.460 OA
BRANCH  22  23
ATOM     23  C   UNL A   1      44.192  24.336  24.885  1.00  0.00     0.338 C 
ATOM     24  O   UNL A   1      45.356  24.592  24.631  1.00  0.00    -0.246 OA
BRANCH  23  25
ATOM     25  C   UNL A   1      43.311  25.333  25.518  1.00  0.00     0.060 A 
ATOM     26  C   UNL A   1      43.860  26.583  25.832  1.00  0.00     0.016 A 
ATOM     27  C   UNL A   1      42.054  24.966  26.007  1.00  0.00     0.016 A 
ATOM     28  C   UNL A   1      43.189  27.438  26.707  1.00  0.00     0.010 A 
ATOM     29  C   UNL A   1      41.387  25.825  26.890  1.00  0.00     0.010 A 
ATOM     30  C   UNL A   1      41.981  27.034  27.293  1.00  0.00    -0.014 A 
BRANCH  30  31
ATOM     31  C   UNL A   1      41.469  27.770  28.478  1.00  0.00     0.031 A 
ATOM     32  C   UNL A   1      42.218  27.656  29.784  1.00  0.00     0.074 A 
ATOM     33  C   UNL A   1      40.373  28.546  28.405  1.00  0.00     0.049 A 
ATOM     34  N   UNL A   1      41.985  28.246  30.927  1.00  0.00    -0.248 NA
ATOM     35  C   UNL A   1      43.385  26.757  29.799  1.00  0.00     0.031 C 
ATOM     36  C   UNL A   1      39.554  28.742  27.214  1.00  0.00     0.029 A 
ATOM     37  N   UNL A   1      39.757  29.304  29.370  1.00  0.00    -0.354 N 
ATOM     38  C   UNL A   1      42.957  27.777  31.803  1.00  0.00     0.074 A 
ATOM     39  C   UNL A   1      43.776  26.841  31.064  1.00  0.00     0.031 C 
ATOM     40  C   UNL A   1      38.527  29.554  27.521  1.00  0.00     0.029 A 
ATOM     41  C   UNL A   1      38.615  29.932  28.932  1.00  0.00     0.049 A 
ATOM     42  H   UNL A   1      40.101  29.391  30.288  1.00  0.00     0.167 HD
ATOM     43  C   UNL A   1      43.172  28.109  33.098  1.00  0.00     0.034 A 
ATOM     44  C   UNL A   1      37.742  30.720  29.593  1.00  0.00     0.034 A 
ATOM     45  C   UNL A   1      42.387  29.063  33.833  1.00  0.00     0.049 A 
ATOM     46  C   UNL A   1      38.002  31.071  31.037  1.00  0.00     0.074 A 
ATOM     47  C   UNL A   1      42.566  29.506  35.132  1.00  0.00     0.029 A 
ATOM     48  N   UNL A   1      41.268  29.713  33.339  1.00  0.00    -0.354 N 
ATOM     49  N   UNL A   1      39.013  30.739  31.802  1.00  0.00    -0.248 NA
ATOM     50  C   UNL A   1      37.016  31.943  31.697  1.00  0.00     0.031 C 
ATOM     51  C   UNL A   1      41.547  30.418  35.427  1.00  0.00     0.029 A 
ATOM     52  C   UNL A   1      40.740  30.549  34.309  1.00  0.00     0.049 A 
ATOM     53  H   UNL A   1      40.903  29.599  32.433  1.00  0.00     0.167 HD
ATOM     54  C   UNL A   1      38.810  31.394  33.013  1.00  0.00     0.074 A 
ATOM     55  C   UNL A   1      37.585  32.154  32.877  1.00  0.00     0.031 C 
ATOM     56  C   UNL A   1      39.561  31.358  34.142  1.00  0.00     0.034 A 
BRANCH  43  57
ATOM     57  C   UNL A   1      44.337  27.464  33.797  1.00  0.00     0.023 A 
ATOM     58  C   UNL A   1      45.617  28.044  33.685  1.00  0.00     0.012 A 
ATOM     59  C   UNL A   1      44.163  26.321  34.600  1.00  0.00     0.148 A 
ATOM     60  C   UNL A   1      46.710  27.482  34.341  1.00  0.00     0.002 A 
ATOM     61  C   UNL A   1      45.251  25.787  35.280  1.00  0.00     0.091 A 
ATOM     62  F   UNL A   1      42.944  25.767  34.671  1.00  0.00    -0.205 F 
ATOM     63  C   UNL A   1      46.527  26.360  35.146  1.00  0.00     0.022 A 
BRANCH  61  64
ATOM     64  S   UNL A   1      45.091  24.383  36.391  1.00  0.00     0.127 S 
ATOM     65  O   UNL A   1      44.212  24.923  37.426  1.00  0.00    -0.237 OA
ATOM     66  O   UNL A   1      44.471  23.373  35.532  1.00  0.00    -0.237 OA
ATOM     67  O   UNL A   1      46.445  24.061  36.817  1.00  0.00    -0.744 OA
ENDBRANCH  61  64
ENDBRANCH  43  57
BRANCH  44  68
ATOM     68  C   UNL A   1      36.570  31.295  28.877  1.00  0.00     0.023 A 
ATOM     69  C   UNL A   1      36.523  32.683  28.635  1.00  0.00     0.012 A 
ATOM     70  C   UNL A   1      35.511  30.483  28.430  1.00  0.00     0.148 A 
ATOM     71  C   UNL A   1      35.428  33.254  27.986  1.00  0.00     0.002 A 
ATOM     72  C   UNL A   1      34.447  31.052  27.738  1.00  0.00     0.091 A 
ATOM     73  F   UNL A   1      35.563  29.169  28.690  1.00  0.00    -0.205 F 
ATOM     74  C   UNL A   1      34.396  32.439  27.529  1.00  0.00     0.022 A 
BRANCH  72  75
ATOM     75  S   UNL A   1      33.135  30.060  27.015  1.00  0.00     0.127 S 
ATOM     76  O   UNL A   1      31.954  30.870  27.299  1.00  0.00    -0.237 OA
ATOM     77  O   UNL A   1      33.527  30.014  25.605  1.00  0.00    -0.237 OA
ATOM     78  O   UNL A   1      33.203  28.772  27.693  1.00  0.00    -0.744 OA
ENDBRANCH  72  75
ENDBRANCH  44  68
BRANCH  56  79
ATOM     79  C   UNL A   1      39.111  32.186  35.317  1.00  0.00     0.023 A 
ATOM     80  C   UNL A   1      38.196  31.647  36.242  1.00  0.00     0.012 A 
ATOM     81  C   UNL A   1      39.655  33.466  35.551  1.00  0.00     0.148 A 
ATOM     82  C   UNL A   1      37.807  32.378  37.365  1.00  0.00     0.002 A 
ATOM     83  C   UNL A   1      39.296  34.170  36.695  1.00  0.00     0.091 A 
ATOM     84  F   UNL A   1      40.509  33.976  34.651  1.00  0.00    -0.205 F 
ATOM     85  C   UNL A   1      38.365  33.633  37.598  1.00  0.00     0.022 A 
BRANCH  83  86
ATOM     86  S   UNL A   1      40.044  35.752  37.109  1.00  0.00     0.127 S 
ATOM     87  O   UNL A   1      39.481  36.014  38.432  1.00  0.00    -0.237 OA
ATOM     88  O   UNL A   1      41.474  35.437  37.108  1.00  0.00    -0.237 OA
ATOM     89  O   UNL A   1      39.634  36.665  36.051  1.00  0.00    -0.744 OA
ENDBRANCH  83  86
ENDBRANCH  56  79
ENDBRANCH  30  31
ENDBRANCH  23  25
ENDBRANCH  22  23
ENDBRANCH  21  22
ENDBRANCH  20  21
ENDBRANCH  19  20
ENDBRANCH  18  19
ENDBRANCH   1  18
TORSDOF 23
ENDMDL
MODEL 2
REMARK VINA RESULT:      -9.4      2.318      8.955
REMARK SMILES O=C(CSC(=S)N1CCCCC1)OCCOCCOCCOC(=O)c1ccc(-c2c3nc(c(-c4cccc(S(=O)(=O)[O-])c4F)c4ccc([nH]4)c(-c4cccc(S(=O)(=O)[O-])c4F)c4nc(c(-c5cccc(S(=O)(=O)[O-])c5F)c5ccc2[nH]5)C=C4)C=C3)cc1
REMARK SMILES IDX 17 1 16 2 15 3 14 4 13 5 2 6 1 7 3 8 4 9 5 10 6 11 7 12 8 13
REMARK SMILES IDX 12 14 9 15 11 16 10 17 18 18 19 19 20 20 21 21 22 22 23 23
REMARK SMILES IDX 24 24 25 25 26 26 87 27 27 28 86 29 28 30 29 31 30 32 80 33
REMARK SMILES IDX 31 34 85 35 79 36 81 37 32 38 84 39 78 40 77 41 33 43 65 44
REMARK SMILES IDX 45 45 64 46 46 47 49 48 63 49 82 50 47 51 48 52 62 54 83 55
REMARK SMILES IDX 50 56 34 57 35 58 43 59 36 60 38 61 44 62 37 63 39 64 40 65
REMARK SMILES IDX 41 66 42 67 66 68 67 69 75 70 68 71 70 72 76 73 69 74 71 75
REMARK SMILES IDX 72 76 73 77 74 78 51 79 52 80 60 81 53 82 55 83 61 84 54 85
REMARK SMILES IDX 56 86 57 87 58 88 59 89
REMARK H PARENT 81 42 49 53
REMARK Flexibility Score: inf
ROOT
ATOM      1  C   UNL A   1      32.111  28.552  22.625  1.00  0.00     0.188 C 
ENDROOT
BRANCH   1   2
ATOM      2  O   UNL A   1      32.924  27.388  22.561  1.00  0.00    -0.376 OA
BRANCH   2   3
ATOM      3  C   UNL A   1      32.274  26.184  22.946  1.00  0.00     0.202 C 
BRANCH   3   4
ATOM      4  C   UNL A   1      32.903  24.987  22.239  1.00  0.00     0.261 C 
BRANCH   4   5
ATOM      5  O   UNL A   1      33.413  23.936  23.091  1.00  0.00    -0.463 OA
BRANCH   5   6
ATOM      6  C   UNL A   1      33.089  23.630  24.363  1.00  0.00     0.316 C 
ATOM      7  O   UNL A   1      33.548  24.328  25.269  1.00  0.00    -0.251 OA
BRANCH   6   8
ATOM      8  C   UNL A   1      32.273  22.402  24.683  1.00  0.00     0.199 C 
BRANCH   8   9
ATOM      9  S   UNL A   1      32.347  21.098  23.443  1.00  0.00    -0.085 SA
BRANCH   9  10
ATOM     10  C   UNL A   1      33.432  19.911  24.173  1.00  0.00     0.136 C 
ATOM     11  S   UNL A   1      34.855  20.329  24.969  1.00  0.00    -0.053 S 
BRANCH  10  12
ATOM     12  N   UNL A   1      32.991  18.593  24.002  1.00  0.00    -0.358 N 
ATOM     13  C   UNL A   1      32.098  17.940  24.962  1.00  0.00     0.118 C 
ATOM     14  C   UNL A   1      33.759  17.631  23.200  1.00  0.00     0.118 C 
ATOM     15  C   UNL A   1      32.900  17.101  25.955  1.00  0.00     0.021 C 
ATOM     16  C   UNL A   1      34.664  16.830  24.139  1.00  0.00     0.021 C 
ATOM     17  C   UNL A   1      33.851  16.139  25.238  1.00  0.00     0.004 C 
ENDBRANCH  10  12
ENDBRANCH   9  10
ENDBRANCH   8   9
ENDBRANCH   6   8
ENDBRANCH   5   6
ENDBRANCH   4   5
ENDBRANCH   3   4
ENDBRANCH   2   3
ENDBRANCH   1   2
BRANCH   1  18
ATOM     18  C   UNL A   1      30.864  28.389  23.509  1.00  0.00     0.188 C 
BRANCH  18  19
ATOM     19  O   UNL A   1      30.643  29.314  24.565  1.00  0.00    -0.376 OA
BRANCH  19  20
ATOM     20  C   UNL A   1      31.762  30.011  25.103  1.00  0.00     0.202 C 
BRANCH  20  21
ATOM     21  C   UNL A   1      31.487  30.999  26.239  1.00  0.00     0.261 C 
BRANCH  21  22
ATOM     22  O   UNL A   1      32.415  30.888  27.338  1.00  0.00    -0.460 OA
BRANCH  22  23
ATOM     23  C   UNL A   1      33.240  31.954  27.480  1.00  0.00     0.338 C 
ATOM     24  O   UNL A   1      32.921  33.129  27.518  1.00  0.00    -0.246 OA
BRANCH  23  25
ATOM     25  C   UNL A   1      34.636  31.533  27.695  1.00  0.00     0.060 A 
ATOM     26  C   UNL A   1      34.888  30.163  27.841  1.00  0.00     0.016 A 
ATOM     27  C   UNL A   1      35.628  32.473  27.987  1.00  0.00     0.016 A 
ATOM     28  C   UNL A   1      36.108  29.731  28.362  1.00  0.00     0.010 A 
ATOM     29  C   UNL A   1      36.849  32.036  28.514  1.00  0.00     0.010 A 
ATOM     30  C   UNL A   1      37.070  30.669  28.763  1.00  0.00    -0.014 A 
BRANCH  30  31
ATOM     31  C   UNL A   1      38.189  30.230  29.637  1.00  0.00     0.031 A 
ATOM     32  C   UNL A   1      39.196  29.248  29.089  1.00  0.00     0.074 A 
ATOM     33  C   UNL A   1      38.332  30.702  30.888  1.00  0.00     0.049 A 
ATOM     34  N   UNL A   1      40.275  28.767  29.650  1.00  0.00    -0.248 NA
ATOM     35  C   UNL A   1      38.953  28.743  27.726  1.00  0.00     0.031 C 
ATOM     36  C   UNL A   1      37.434  31.647  31.543  1.00  0.00     0.029 A 
ATOM     37  N   UNL A   1      39.291  30.433  31.833  1.00  0.00    -0.354 N 
ATOM     38  C   UNL A   1      40.827  27.890  28.724  1.00  0.00     0.074 A 
ATOM     39  C   UNL A   1      39.956  27.891  27.569  1.00  0.00     0.031 C 
ATOM     40  C   UNL A   1      37.872  31.867  32.795  1.00  0.00     0.029 A 
ATOM     41  C   UNL A   1      39.079  31.075  33.031  1.00  0.00     0.049 A 
ATOM     42  H   UNL A   1      40.056  29.837  31.670  1.00  0.00     0.167 HD
ATOM     43  C   UNL A   1      41.968  27.164  28.810  1.00  0.00     0.034 A 
ATOM     44  C   UNL A   1      39.779  31.028  34.182  1.00  0.00     0.034 A 
ATOM     45  C   UNL A   1      42.858  27.181  29.938  1.00  0.00     0.049 A 
ATOM     46  C   UNL A   1      41.044  30.209  34.254  1.00  0.00     0.074 A 
ATOM     47  C   UNL A   1      44.067  26.523  30.090  1.00  0.00     0.029 A 
ATOM     48  N   UNL A   1      42.634  27.881  31.112  1.00  0.00    -0.354 N 
ATOM     49  N   UNL A   1      41.631  29.508  33.314  1.00  0.00    -0.248 NA
ATOM     50  C   UNL A   1      41.766  30.209  35.537  1.00  0.00     0.031 C 
ATOM     51  C   UNL A   1      44.568  26.819  31.363  1.00  0.00     0.029 A 
ATOM     52  C   UNL A   1      43.676  27.667  31.998  1.00  0.00     0.049 A 
ATOM     53  H   UNL A   1      41.850  28.448  31.290  1.00  0.00     0.167 HD
ATOM     54  C   UNL A   1      42.809  29.023  33.876  1.00  0.00     0.074 A 
ATOM     55  C   UNL A   1      42.859  29.521  35.235  1.00  0.00     0.031 C 
ATOM     56  C   UNL A   1      43.755  28.224  33.323  1.00  0.00     0.034 A 
BRANCH  43  57
ATOM     57  C   UNL A   1      42.344  26.319  27.625  1.00  0.00     0.023 A 
ATOM     58  C   UNL A   1      43.054  26.904  26.556  1.00  0.00     0.012 A 
ATOM     59  C   UNL A   1      42.043  24.944  27.586  1.00  0.00     0.148 A 
ATOM     60  C   UNL A   1      43.436  26.139  25.456  1.00  0.00     0.002 A 
ATOM     61  C   UNL A   1      42.460  24.180  26.501  1.00  0.00     0.091 A 
ATOM     62  F   UNL A   1      41.343  24.412  28.597  1.00  0.00    -0.205 F 
ATOM     63  C   UNL A   1      43.149  24.776  25.432  1.00  0.00     0.022 A 
BRANCH  61  64
ATOM     64  S   UNL A   1      42.190  22.405  26.420  1.00  0.00     0.127 S 
ATOM     65  O   UNL A   1      42.861  21.948  27.636  1.00  0.00    -0.237 OA
ATOM     66  O   UNL A   1      40.730  22.309  26.458  1.00  0.00    -0.237 OA
ATOM     67  O   UNL A   1      42.790  21.972  25.167  1.00  0.00    -0.744 OA
ENDBRANCH  61  64
ENDBRANCH  43  57
BRANCH  44  68
ATOM     68  C   UNL A   1      39.342  31.840  35.352  1.00  0.00     0.023 A 
ATOM     69  C   UNL A   1      38.461  31.274  36.294  1.00  0.00     0.012 A 
ATOM     70  C   UNL A   1      39.794  33.160  35.540  1.00  0.00     0.148 A 
ATOM     71  C   UNL A   1      38.016  32.017  37.388  1.00  0.00     0.002 A 
ATOM     72  C   UNL A   1      39.386  33.878  36.660  1.00  0.00     0.091 A 
ATOM     73  F   UNL A   1      40.612  33.690  34.621  1.00  0.00    -0.205 F 
ATOM     74  C   UNL A   1      38.486  33.314  37.576  1.00  0.00     0.022 A 
BRANCH  72  75
ATOM     75  S   UNL A   1      40.035  35.510  37.039  1.00  0.00     0.127 S 
ATOM     76  O   UNL A   1      39.412  35.789  38.329  1.00  0.00    -0.237 OA
ATOM     77  O   UNL A   1      41.477  35.263  37.091  1.00  0.00    -0.237 OA
ATOM     78  O   UNL A   1      39.617  36.361  35.932  1.00  0.00    -0.744 OA
ENDBRANCH  72  75
ENDBRANCH  44  68
BRANCH  56  79
ATOM     79  C   UNL A   1      44.951  27.859  34.163  1.00  0.00     0.023 A 
ATOM     80  C   UNL A   1      46.088  28.690  34.155  1.00  0.00     0.012 A 
ATOM     81  C   UNL A   1      44.919  26.741  35.021  1.00  0.00     0.148 A 
ATOM     82  C   UNL A   1      47.186  28.399  34.965  1.00  0.00     0.002 A 
ATOM     83  C   UNL A   1      46.000  26.482  35.858  1.00  0.00     0.091 A 
ATOM     84  F   UNL A   1      43.838  25.947  35.003  1.00  0.00    -0.205 F 
ATOM     85  C   UNL A   1      47.138  27.303  35.825  1.00  0.00     0.022 A 
BRANCH  83  86
ATOM     86  S   UNL A   1      45.970  25.144  37.059  1.00  0.00     0.127 S 
ATOM     87  O   UNL A   1      47.189  25.398  37.823  1.00  0.00    -0.237 OA
ATOM     88  O   UNL A   1      44.728  25.400  37.790  1.00  0.00    -0.237 OA
ATOM     89  O   UNL A   1      45.956  23.917  36.273  1.00  0.00    -0.744 OA
ENDBRANCH  83  86
ENDBRANCH  56  79
ENDBRANCH  30  31
ENDBRANCH  23  25
ENDBRANCH  22  23
ENDBRANCH  21  22
ENDBRANCH  20  21
ENDBRANCH  19  20
ENDBRANCH  18  19
ENDBRANCH   1  18
TORSDOF 23
ENDMDL
MODEL 3
REMARK VINA RESULT:      -9.3      4.644      6.881
REMARK SMILES O=C(CSC(=S)N1CCCCC1)OCCOCCOCCOC(=O)c1ccc(-c2c3nc(c(-c4cccc(S(=O)(=O)[O-])c4F)c4ccc([nH]4)c(-c4cccc(S(=O)(=O)[O-])c4F)c4nc(c(-c5cccc(S(=O)(=O)[O-])c5F)c5ccc2[nH]5)C=C4)C=C3)cc1
REMARK SMILES IDX 17 1 16 2 15 3 14 4 13 5 2 6 1 7 3 8 4 9 5 10 6 11 7 12 8 13
REMARK SMILES IDX 12 14 9 15 11 16 10 17 18 18 19 19 20 20 21 21 22 22 23 23
REMARK SMILES IDX 24 24 25 25 26 26 87 27 27 28 86 29 28 30 29 31 30 32 80 33
REMARK SMILES IDX 31 34 85 35 79 36 81 37 32 38 84 39 78 40 77 41 33 43 65 44
REMARK SMILES IDX 45 45 64 46 46 47 49 48 63 49 82 50 47 51 48 52 62 54 83 55
REMARK SMILES IDX 50 56 34 57 35 58 43 59 36 60 38 61 44 62 37 63 39 64 40 65
REMARK SMILES IDX 41 66 42 67 66 68 67 69 75 70 68 71 70 72 76 73 69 74 71 75
REMARK SMILES IDX 72 76 73 77 74 78 51 79 52 80 60 81 53 82 55 83 61 84 54 85
REMARK SMILES IDX 56 86 57 87 58 88 59 89
REMARK H PARENT 81 42 49 53
REMARK Flexibility Score: inf
ROOT
ATOM      1  C   UNL A   1      35.450  21.003  25.073  1.00  0.00     0.188 C 
ENDROOT
BRANCH   1   2
ATOM      2  O   UNL A   1      35.032  21.471  26.347  1.00  0.00    -0.376 OA
BRANCH   2   3
ATOM      3  C   UNL A   1      33.625  21.463  26.556  1.00  0.00     0.202 C 
BRANCH   3   4
ATOM      4  C   UNL A   1      33.041  22.852  26.312  1.00  0.00     0.261 C 
BRANCH   4   5
ATOM      5  O   UNL A   1      31.802  23.152  26.994  1.00  0.00    -0.463 OA
BRANCH   5   6
ATOM      6  C   UNL A   1      30.699  23.775  26.534  1.00  0.00     0.316 C 
ATOM      7  O   UNL A   1      29.697  23.797  27.251  1.00  0.00    -0.251 OA
BRANCH   6   8
ATOM      8  C   UNL A   1      30.651  24.339  25.136  1.00  0.00     0.199 C 
BRANCH   8   9
ATOM      9  S   UNL A   1      29.727  25.875  24.969  1.00  0.00    -0.085 SA
BRANCH   9  10
ATOM     10  C   UNL A   1      30.968  27.041  24.502  1.00  0.00     0.136 C 
ATOM     11  S   UNL A   1      31.568  27.173  22.935  1.00  0.00    -0.053 S 
BRANCH  10  12
ATOM     12  N   UNL A   1      31.408  27.827  25.575  1.00  0.00    -0.358 N 
ATOM     13  C   UNL A   1      31.549  29.281  25.468  1.00  0.00     0.118 C 
ATOM     14  C   UNL A   1      32.232  27.257  26.650  1.00  0.00     0.118 C 
ATOM     15  C   UNL A   1      32.994  29.657  25.145  1.00  0.00     0.021 C 
ATOM     16  C   UNL A   1      33.704  27.513  26.320  1.00  0.00     0.021 C 
ATOM     17  C   UNL A   1      33.976  29.008  26.123  1.00  0.00     0.004 C 
ENDBRANCH  10  12
ENDBRANCH   9  10
ENDBRANCH   8   9
ENDBRANCH   6   8
ENDBRANCH   5   6
ENDBRANCH   4   5
ENDBRANCH   3   4
ENDBRANCH   2   3
ENDBRANCH   1   2
BRANCH   1  18
ATOM     18  C   UNL A   1      35.637  19.479  25.003  1.00  0.00     0.188 C 
BRANCH  18  19
ATOM     19  O   UNL A   1      36.953  18.950  24.915  1.00  0.00    -0.376 OA
BRANCH  19  20
ATOM     20  C   UNL A   1      38.054  19.846  25.027  1.00  0.00     0.202 C 
BRANCH  20  21
ATOM     21  C   UNL A   1      39.414  19.237  25.374  1.00  0.00     0.261 C 
BRANCH  21  22
ATOM     22  O   UNL A   1      39.978  19.747  26.600  1.00  0.00    -0.460 OA
BRANCH  22  23
ATOM     23  C   UNL A   1      41.108  20.478  26.432  1.00  0.00     0.338 C 
ATOM     24  O   UNL A   1      42.079  20.182  25.758  1.00  0.00    -0.246 OA
BRANCH  23  25
ATOM     25  C   UNL A   1      41.011  21.787  27.102  1.00  0.00     0.060 A 
ATOM     26  C   UNL A   1      40.328  22.811  26.434  1.00  0.00     0.016 A 
ATOM     27  C   UNL A   1      41.775  22.065  28.238  1.00  0.00     0.016 A 
ATOM     28  C   UNL A   1      40.475  24.134  26.852  1.00  0.00     0.010 A 
ATOM     29  C   UNL A   1      41.925  23.395  28.651  1.00  0.00     0.010 A 
ATOM     30  C   UNL A   1      41.328  24.440  27.922  1.00  0.00    -0.014 A 
BRANCH  30  31
ATOM     31  C   UNL A   1      41.761  25.847  28.124  1.00  0.00     0.031 A 
ATOM     32  C   UNL A   1      43.111  26.274  27.601  1.00  0.00     0.074 A 
ATOM     33  C   UNL A   1      40.971  26.744  28.739  1.00  0.00     0.049 A 
ATOM     34  N   UNL A   1      43.671  27.456  27.619  1.00  0.00    -0.248 NA
ATOM     35  C   UNL A   1      43.938  25.228  26.975  1.00  0.00     0.031 C 
ATOM     36  C   UNL A   1      39.650  26.468  29.295  1.00  0.00     0.029 A 
ATOM     37  N   UNL A   1      41.181  28.074  29.008  1.00  0.00    -0.354 N 
ATOM     38  C   UNL A   1      44.919  27.294  27.030  1.00  0.00     0.074 A 
ATOM     39  C   UNL A   1      45.043  25.897  26.678  1.00  0.00     0.031 C 
ATOM     40  C   UNL A   1      39.172  27.591  29.859  1.00  0.00     0.029 A 
ATOM     41  C   UNL A   1      40.155  28.664  29.707  1.00  0.00     0.049 A 
ATOM     42  H   UNL A   1      41.990  28.560  28.728  1.00  0.00     0.167 HD
ATOM     43  C   UNL A   1      45.871  28.225  26.779  1.00  0.00     0.034 A 
ATOM     44  C   UNL A   1      40.023  29.925  30.169  1.00  0.00     0.034 A 
ATOM     45  C   UNL A   1      45.745  29.622  27.093  1.00  0.00     0.049 A 
ATOM     46  C   UNL A   1      41.100  30.941  29.879  1.00  0.00     0.074 A 
ATOM     47  C   UNL A   1      46.634  30.648  26.822  1.00  0.00     0.029 A 
ATOM     48  N   UNL A   1      44.669  30.189  27.756  1.00  0.00    -0.354 N 
ATOM     49  N   UNL A   1      42.203  30.804  29.185  1.00  0.00    -0.248 NA
ATOM     50  C   UNL A   1      40.891  32.300  30.404  1.00  0.00     0.031 C 
ATOM     51  C   UNL A   1      46.098  31.836  27.333  1.00  0.00     0.029 A 
ATOM     52  C   UNL A   1      44.873  31.549  27.912  1.00  0.00     0.049 A 
ATOM     53  H   UNL A   1      43.877  29.697  28.069  1.00  0.00     0.167 HD
ATOM     54  C   UNL A   1      42.795  32.063  29.152  1.00  0.00     0.074 A 
ATOM     55  C   UNL A   1      41.921  32.955  29.885  1.00  0.00     0.031 C 
ATOM     56  C   UNL A   1      43.965  32.444  28.580  1.00  0.00     0.034 A 
BRANCH  43  57
ATOM     57  C   UNL A   1      47.125  27.766  26.086  1.00  0.00     0.023 A 
ATOM     58  C   UNL A   1      48.147  27.156  26.841  1.00  0.00     0.012 A 
ATOM     59  C   UNL A   1      47.273  27.888  24.692  1.00  0.00     0.148 A 
ATOM     60  C   UNL A   1      49.310  26.700  26.223  1.00  0.00     0.002 A 
ATOM     61  C   UNL A   1      48.420  27.398  24.077  1.00  0.00     0.091 A 
ATOM     62  F   UNL A   1      46.303  28.496  23.995  1.00  0.00    -0.205 F 
ATOM     63  C   UNL A   1      49.442  26.810  24.841  1.00  0.00     0.022 A 
BRANCH  61  64
ATOM     64  S   UNL A   1      48.644  27.440  22.295  1.00  0.00     0.127 S 
ATOM     65  O   UNL A   1      49.919  28.144  22.173  1.00  0.00    -0.237 OA
ATOM     66  O   UNL A   1      48.699  26.017  21.953  1.00  0.00    -0.237 OA
ATOM     67  O   UNL A   1      47.482  28.141  21.768  1.00  0.00    -0.744 OA
ENDBRANCH  61  64
ENDBRANCH  43  57
BRANCH  44  68
ATOM     68  C   UNL A   1      38.787  30.324  30.899  1.00  0.00     0.023 A 
ATOM     69  C   UNL A   1      38.667  30.020  32.269  1.00  0.00     0.012 A 
ATOM     70  C   UNL A   1      37.740  31.005  30.250  1.00  0.00     0.148 A 
ATOM     71  C   UNL A   1      37.512  30.362  32.973  1.00  0.00     0.002 A 
ATOM     72  C   UNL A   1      36.614  31.388  30.971  1.00  0.00     0.091 A 
ATOM     73  F   UNL A   1      37.863  31.264  28.941  1.00  0.00    -0.205 F 
ATOM     74  C   UNL A   1      36.491  31.054  32.328  1.00  0.00     0.022 A 
BRANCH  72  75
ATOM     75  S   UNL A   1      35.306  32.383  30.245  1.00  0.00     0.127 S 
ATOM     76  O   UNL A   1      34.403  32.566  31.378  1.00  0.00    -0.237 OA
ATOM     77  O   UNL A   1      36.029  33.587  29.832  1.00  0.00    -0.237 OA
ATOM     78  O   UNL A   1      34.785  31.592  29.137  1.00  0.00    -0.744 OA
ENDBRANCH  72  75
ENDBRANCH  44  68
BRANCH  56  79
ATOM     79  C   UNL A   1      44.363  33.894  28.684  1.00  0.00     0.023 A 
ATOM     80  C   UNL A   1      43.984  34.795  27.670  1.00  0.00     0.012 A 
ATOM     81  C   UNL A   1      45.040  34.378  29.821  1.00  0.00     0.148 A 
ATOM     82  C   UNL A   1      44.297  36.151  27.773  1.00  0.00     0.002 A 
ATOM     83  C   UNL A   1      45.310  35.738  29.936  1.00  0.00     0.091 A 
ATOM     84  F   UNL A   1      45.414  33.505  30.768  1.00  0.00    -0.205 F 
ATOM     85  C   UNL A   1      44.949  36.624  28.910  1.00  0.00     0.022 A 
BRANCH  83  86
ATOM     86  S   UNL A   1      46.063  36.433  31.414  1.00  0.00     0.127 S 
ATOM     87  O   UNL A   1      47.033  37.368  30.846  1.00  0.00    -0.237 OA
ATOM     88  O   UNL A   1      44.926  37.067  32.082  1.00  0.00    -0.237 OA
ATOM     89  O   UNL A   1      46.622  35.299  32.137  1.00  0.00    -0.744 OA
ENDBRANCH  83  86
ENDBRANCH  56  79
ENDBRANCH  30  31
ENDBRANCH  23  25
ENDBRANCH  22  23
ENDBRANCH  21  22
ENDBRANCH  20  21
ENDBRANCH  19  20
ENDBRANCH  18  19
ENDBRANCH   1  18
TORSDOF 23
ENDMDL
