MODEL 1
REMARK VINA RESULT:     -13.3      0.000      0.000
REMARK SMILES CC(=O)Nc1cnc(N2CC=C(c3ccccc3C)CC2)c(C(=O)OCCOCCOCCOC(=O)c2ccc(-c3c4nc(c(-c5cccc(S(=O)(=O)[O-])c5F)c5ccc([nH]5)c(-c5cccc(S(=O)(=O)[O-])c5F)c5nc(c(-c6cccc(S(=O)(=O)[O-])c6F)c6ccc3[nH]6)C=C5)C=C4)cc2)c1
REMARK SMILES IDX 30 1 29 2 28 3 27 4 26 5 25 6 23 7 24 8 22 9 5 10 6 11
REMARK SMILES IDX 100 12 7 13 8 14 4 15 1 16 2 17 3 18 9 20 10 21 21 22 11 23
REMARK SMILES IDX 20 24 12 25 13 26 14 27 18 28 15 29 17 30 19 31 16 32 31 33
REMARK SMILES IDX 32 34 33 35 34 36 35 37 36 38 37 39 38 40 99 41 39 42 98 43
REMARK SMILES IDX 40 44 41 45 42 46 92 47 43 48 97 49 91 50 93 51 44 52 96 53
REMARK SMILES IDX 90 54 89 55 45 57 77 58 57 59 76 60 58 61 61 62 75 63 94 64
REMARK SMILES IDX 59 65 60 66 74 68 95 69 62 70 46 71 47 72 55 73 48 74 50 75
REMARK SMILES IDX 56 76 49 77 51 78 52 79 53 80 54 81 78 82 79 83 87 84 80 85
REMARK SMILES IDX 82 86 88 87 81 88 83 89 84 90 85 91 86 92 63 93 64 94 72 95
REMARK SMILES IDX 65 96 67 97 73 98 66 99 68 100 69 101 70 102 71 103
REMARK H PARENT 4 19 93 56 61 67
REMARK Flexibility Score: inf
ROOT
ATOM      1  C   UNL A   1      40.963  21.208  26.118  1.00  0.00     0.188 C 
ENDROOT
BRANCH   1   2
ATOM      2  C   UNL A   1      39.730  22.082  26.357  1.00  0.00     0.188 C 
BRANCH   2   3
ATOM      3  O   UNL A   1      38.441  21.623  25.919  1.00  0.00    -0.376 OA
BRANCH   3   4
ATOM      4  C   UNL A   1      37.441  22.349  25.165  1.00  0.00     0.202 C 
BRANCH   4   5
ATOM      5  C   UNL A   1      36.721  22.196  23.558  1.00  0.00     0.261 C 
BRANCH   5   6
ATOM      6  O   UNL A   1      35.429  23.212  22.668  1.00  0.00    -0.460 OA
BRANCH   6   7
ATOM      7  C   UNL A   1      33.891  23.261  22.345  1.00  0.00     0.342 C 
ATOM      8  O   UNL A   1      33.366  23.748  21.342  1.00  0.00    -0.246 OA
BRANCH   7   9
ATOM      9  C   UNL A   1      32.817  22.939  23.317  1.00  0.00     0.104 A 
ATOM     10  C   UNL A   1      32.201  20.832  24.300  1.00  0.00     0.060 A 
ATOM     11  C   UNL A   1      31.776  21.528  25.414  1.00  0.00     0.139 A 
ATOM     12  C   UNL A   1      32.635  21.557  23.212  1.00  0.00     0.047 A 
ATOM     13  N   UNL A   1      31.875  22.867  25.558  1.00  0.00    -0.236 NA
ATOM     14  C   UNL A   1      32.483  23.605  24.583  1.00  0.00     0.143 A 
BRANCH  10  15
ATOM     15  N   UNL A   1      32.182  19.437  24.273  1.00  0.00    -0.325 N 
ATOM     16  C   UNL A   1      34.608  19.071  24.678  1.00  0.00     0.114 C 
ATOM     17  C   UNL A   1      33.254  18.580  24.217  1.00  0.00     0.221 C 
ATOM     18  O   UNL A   1      33.045  17.401  23.931  1.00  0.00    -0.275 OA
ATOM     19  H   UNL A   1      31.293  19.017  24.298  1.00  0.00     0.169 HD
ENDBRANCH  10  15
BRANCH  14  20
ATOM     20  N   UNL A   1      32.581  24.983  24.942  1.00  0.00    -0.352 N 
ATOM     21  C   UNL A   1      33.908  25.651  24.653  1.00  0.00     0.146 C 
ATOM     22  C   UNL A   1      32.175  25.242  26.329  1.00  0.00     0.123 C 
ATOM     23  C   UNL A   1      34.147  26.997  25.390  1.00  0.00    -0.002 C 
ATOM     24  C   UNL A   1      32.149  26.740  26.753  1.00  0.00     0.057 C 
ATOM     25  C   UNL A   1      33.345  27.556  26.323  1.00  0.00    -0.041 C 
BRANCH  25  26
ATOM     26  C   UNL A   1      33.452  28.986  26.822  1.00  0.00    -0.020 A 
ATOM     27  C   UNL A   1      34.528  29.374  27.647  1.00  0.00     0.008 A 
ATOM     28  C   UNL A   1      32.579  30.026  26.441  1.00  0.00    -0.044 A 
ATOM     29  C   UNL A   1      34.769  30.700  28.050  1.00  0.00     0.001 A 
ATOM     30  C   UNL A   1      32.820  31.366  26.852  1.00  0.00     0.004 A 
ATOM     31  C   UNL A   1      31.404  29.787  25.543  1.00  0.00     0.045 C 
ATOM     32  C   UNL A   1      33.910  31.704  27.647  1.00  0.00     0.000 A 
ENDBRANCH  25  26
ENDBRANCH  14  20
ENDBRANCH   7   9
ENDBRANCH   6   7
ENDBRANCH   5   6
ENDBRANCH   4   5
ENDBRANCH   3   4
ENDBRANCH   2   3
ENDBRANCH   1   2
BRANCH   1  33
ATOM     33  O   UNL A   1      41.901  21.949  25.379  1.00  0.00    -0.376 OA
BRANCH  33  34
ATOM     34  C   UNL A   1      43.121  22.297  25.974  1.00  0.00     0.202 C 
BRANCH  34  35
ATOM     35  C   UNL A   1      43.246  23.806  26.185  1.00  0.00     0.261 C 
BRANCH  35  36
ATOM     36  O   UNL A   1      42.017  24.512  25.884  1.00  0.00    -0.460 OA
BRANCH  36  37
ATOM     37  C   UNL A   1      42.158  25.806  25.425  1.00  0.00     0.338 C 
ATOM     38  O   UNL A   1      43.008  26.150  24.624  1.00  0.00    -0.246 OA
BRANCH  37  39
ATOM     39  C   UNL A   1      41.219  26.724  26.133  1.00  0.00     0.060 A 
ATOM     40  C   UNL A   1      41.301  28.134  26.182  1.00  0.00     0.016 A 
ATOM     41  C   UNL A   1      40.461  26.134  27.066  1.00  0.00     0.016 A 
ATOM     42  C   UNL A   1      40.833  28.950  27.320  1.00  0.00     0.010 A 
ATOM     43  C   UNL A   1      40.296  26.906  28.203  1.00  0.00     0.010 A 
ATOM     44  C   UNL A   1      40.410  28.387  28.514  1.00  0.00    -0.014 A 
BRANCH  44  45
ATOM     45  C   UNL A   1      39.922  29.256  30.073  1.00  0.00     0.031 A 
ATOM     46  C   UNL A   1      39.045  30.912  30.272  1.00  0.00     0.074 A 
ATOM     47  C   UNL A   1      40.058  28.711  31.321  1.00  0.00     0.049 A 
ATOM     48  N   UNL A   1      38.920  31.648  31.361  1.00  0.00    -0.248 NA
ATOM     49  C   UNL A   1      38.286  31.793  29.181  1.00  0.00     0.031 C 
ATOM     50  C   UNL A   1      39.103  29.032  32.390  1.00  0.00     0.029 A 
ATOM     51  N   UNL A   1      40.876  27.742  31.928  1.00  0.00    -0.354 N 
ATOM     52  C   UNL A   1      38.036  32.728  31.077  1.00  0.00     0.074 A 
ATOM     53  C   UNL A   1      38.048  32.972  29.704  1.00  0.00     0.031 C 
ATOM     54  C   UNL A   1      39.475  28.445  33.530  1.00  0.00     0.029 A 
ATOM     55  C   UNL A   1      40.789  27.880  33.334  1.00  0.00     0.049 A 
ATOM     56  H   UNL A   1      41.422  27.075  31.453  1.00  0.00     0.167 HD
ATOM     57  C   UNL A   1      37.073  33.188  31.926  1.00  0.00     0.034 A 
ATOM     58  C   UNL A   1      41.766  27.914  34.299  1.00  0.00     0.034 A 
ATOM     59  C   UNL A   1      37.378  32.691  33.239  1.00  0.00     0.049 A 
ATOM     60  C   UNL A   1      41.749  29.307  34.996  1.00  0.00     0.074 A 
ATOM     61  C   UNL A   1      36.909  31.691  34.058  1.00  0.00     0.029 A 
ATOM     62  N   UNL A   1      38.604  33.059  33.723  1.00  0.00    -0.354 N 
ATOM     63  N   UNL A   1      40.707  30.094  35.100  1.00  0.00    -0.248 NA
ATOM     64  C   UNL A   1      42.947  29.975  35.524  1.00  0.00     0.031 C 
ATOM     65  C   UNL A   1      37.946  31.418  35.006  1.00  0.00     0.029 A 
ATOM     66  C   UNL A   1      39.001  32.291  34.781  1.00  0.00     0.049 A 
ATOM     67  H   UNL A   1      39.140  33.797  33.351  1.00  0.00     0.167 HD
ATOM     68  C   UNL A   1      41.145  31.383  35.335  1.00  0.00     0.074 A 
ATOM     69  C   UNL A   1      42.557  31.252  35.600  1.00  0.00     0.031 C 
ATOM     70  C   UNL A   1      40.363  32.500  35.240  1.00  0.00     0.034 A 
BRANCH  57  71
ATOM     71  C   UNL A   1      35.801  34.013  31.598  1.00  0.00     0.023 A 
ATOM     72  C   UNL A   1      35.256  33.775  30.317  1.00  0.00     0.012 A 
ATOM     73  C   UNL A   1      35.153  35.057  32.337  1.00  0.00     0.148 A 
ATOM     74  C   UNL A   1      34.196  34.523  29.780  1.00  0.00     0.002 A 
ATOM     75  C   UNL A   1      34.057  35.773  31.819  1.00  0.00     0.091 A 
ATOM     76  F   UNL A   1      35.623  35.462  33.518  1.00  0.00    -0.205 F 
ATOM     77  C   UNL A   1      33.592  35.519  30.530  1.00  0.00     0.022 A 
BRANCH  75  78
ATOM     78  S   UNL A   1      33.206  37.097  32.723  1.00  0.00     0.127 S 
ATOM     79  O   UNL A   1      33.652  36.863  34.098  1.00  0.00    -0.237 OA
ATOM     80  O   UNL A   1      33.755  38.307  32.111  1.00  0.00    -0.237 OA
ATOM     81  O   UNL A   1      31.779  36.900  32.505  1.00  0.00    -0.744 OA
ENDBRANCH  75  78
ENDBRANCH  57  71
BRANCH  58  82
ATOM     82  C   UNL A   1      43.008  27.108  34.015  1.00  0.00     0.023 A 
ATOM     83  C   UNL A   1      44.074  27.767  33.356  1.00  0.00     0.012 A 
ATOM     84  C   UNL A   1      43.361  26.154  34.938  1.00  0.00     0.148 A 
ATOM     85  C   UNL A   1      45.347  27.800  33.944  1.00  0.00     0.002 A 
ATOM     86  C   UNL A   1      44.464  26.421  35.686  1.00  0.00     0.091 A 
ATOM     87  F   UNL A   1      42.555  25.168  35.327  1.00  0.00    -0.205 F 
ATOM     88  C   UNL A   1      45.496  27.236  35.205  1.00  0.00     0.022 A 
BRANCH  86  89
ATOM     89  S   UNL A   1      44.096  26.247  37.427  1.00  0.00     0.127 S 
ATOM     90  O   UNL A   1      44.418  24.852  37.680  1.00  0.00    -0.237 OA
ATOM     91  O   UNL A   1      45.031  27.255  37.918  1.00  0.00    -0.237 OA
ATOM     92  O   UNL A   1      42.699  26.607  37.526  1.00  0.00    -0.744 OA
ENDBRANCH  86  89
ENDBRANCH  58  82
BRANCH  70  93
ATOM     93  C   UNL A   1      40.837  33.911  35.610  1.00  0.00     0.023 A 
ATOM     94  C   UNL A   1      40.043  34.695  36.467  1.00  0.00     0.012 A 
ATOM     95  C   UNL A   1      41.907  34.586  34.959  1.00  0.00     0.148 A 
ATOM     96  C   UNL A   1      40.280  36.062  36.651  1.00  0.00     0.002 A 
ATOM     97  C   UNL A   1      42.039  35.970  35.020  1.00  0.00     0.091 A 
ATOM     98  F   UNL A   1      42.865  33.893  34.332  1.00  0.00    -0.205 F 
ATOM     99  C   UNL A   1      41.241  36.710  35.888  1.00  0.00     0.022 A 
BRANCH  97 100
ATOM    100  S   UNL A   1      43.077  36.886  33.866  1.00  0.00     0.127 S 
ATOM    101  O   UNL A   1      44.415  36.628  34.402  1.00  0.00    -0.237 OA
ATOM    102  O   UNL A   1      42.792  36.216  32.599  1.00  0.00    -0.237 OA
ATOM    103  O   UNL A   1      42.653  38.276  33.958  1.00  0.00    -0.744 OA
ENDBRANCH  97 100
ENDBRANCH  70  93
ENDBRANCH  44  45
ENDBRANCH  37  39
ENDBRANCH  36  37
ENDBRANCH  35  36
ENDBRANCH  34  35
ENDBRANCH  33  34
ENDBRANCH   1  33
TORSDOF 23
ENDMDL
MODEL 2
REMARK VINA RESULT:     -13.0      2.093      2.438
REMARK SMILES CC(=O)Nc1cnc(N2CC=C(c3ccccc3C)CC2)c(C(=O)OCCOCCOCCOC(=O)c2ccc(-c3c4nc(c(-c5cccc(S(=O)(=O)[O-])c5F)c5ccc([nH]5)c(-c5cccc(S(=O)(=O)[O-])c5F)c5nc(c(-c6cccc(S(=O)(=O)[O-])c6F)c6ccc3[nH]6)C=C5)C=C4)cc2)c1
REMARK SMILES IDX 30 1 29 2 28 3 27 4 26 5 25 6 23 7 24 8 22 9 5 10 6 11
REMARK SMILES IDX 100 12 7 13 8 14 4 15 1 16 2 17 3 18 9 20 10 21 21 22 11 23
REMARK SMILES IDX 20 24 12 25 13 26 14 27 18 28 15 29 17 30 19 31 16 32 31 33
REMARK SMILES IDX 32 34 33 35 34 36 35 37 36 38 37 39 38 40 99 41 39 42 98 43
REMARK SMILES IDX 40 44 41 45 42 46 92 47 43 48 97 49 91 50 93 51 44 52 96 53
REMARK SMILES IDX 90 54 89 55 45 57 77 58 57 59 76 60 58 61 61 62 75 63 94 64
REMARK SMILES IDX 59 65 60 66 74 68 95 69 62 70 46 71 47 72 55 73 48 74 50 75
REMARK SMILES IDX 56 76 49 77 51 78 52 79 53 80 54 81 78 82 79 83 87 84 80 85
REMARK SMILES IDX 82 86 88 87 81 88 83 89 84 90 85 91 86 92 63 93 64 94 72 95
REMARK SMILES IDX 65 96 67 97 73 98 66 99 68 100 69 101 70 102 71 103
REMARK H PARENT 4 19 93 56 61 67
REMARK Flexibility Score: inf
ROOT
ATOM      1  C   UNL A   1      41.039  21.302  26.349  1.00  0.00     0.188 C 
ENDROOT
BRANCH   1   2
ATOM      2  C   UNL A   1      39.668  21.970  26.461  1.00  0.00     0.188 C 
BRANCH   2   3
ATOM      3  O   UNL A   1      38.576  21.484  25.663  1.00  0.00    -0.376 OA
BRANCH   3   4
ATOM      4  C   UNL A   1      37.465  22.234  25.115  1.00  0.00     0.202 C 
BRANCH   4   5
ATOM      5  C   UNL A   1      36.920  22.667  23.490  1.00  0.00     0.261 C 
BRANCH   5   6
ATOM      6  O   UNL A   1      35.355  23.483  22.875  1.00  0.00    -0.460 OA
BRANCH   6   7
ATOM      7  C   UNL A   1      33.881  23.167  22.428  1.00  0.00     0.342 C 
ATOM      8  O   UNL A   1      33.373  23.425  21.336  1.00  0.00    -0.246 OA
BRANCH   7   9
ATOM      9  C   UNL A   1      32.802  22.723  23.344  1.00  0.00     0.104 A 
ATOM     10  C   UNL A   1      32.581  20.685  24.601  1.00  0.00     0.060 A 
ATOM     11  C   UNL A   1      31.872  21.397  25.546  1.00  0.00     0.139 A 
ATOM     12  C   UNL A   1      32.964  21.338  23.451  1.00  0.00     0.047 A 
ATOM     13  N   UNL A   1      31.635  22.725  25.478  1.00  0.00    -0.236 NA
ATOM     14  C   UNL A   1      32.168  23.451  24.451  1.00  0.00     0.143 A 
BRANCH  10  15
ATOM     15  N   UNL A   1      32.895  19.339  24.801  1.00  0.00    -0.325 N 
ATOM     16  C   UNL A   1      32.164  18.500  22.578  1.00  0.00     0.114 C 
ATOM     17  C   UNL A   1      32.536  18.265  24.025  1.00  0.00     0.221 C 
ATOM     18  O   UNL A   1      32.669  17.134  24.494  1.00  0.00    -0.275 OA
ATOM     19  H   UNL A   1      33.439  19.136  25.596  1.00  0.00     0.169 HD
ENDBRANCH  10  15
BRANCH  14  20
ATOM     20  N   UNL A   1      31.895  24.845  24.588  1.00  0.00    -0.352 N 
ATOM     21  C   UNL A   1      33.029  25.781  24.232  1.00  0.00     0.146 C 
ATOM     22  C   UNL A   1      31.344  25.193  25.904  1.00  0.00     0.123 C 
ATOM     23  C   UNL A   1      32.875  27.238  24.750  1.00  0.00    -0.002 C 
ATOM     24  C   UNL A   1      30.917  26.680  26.081  1.00  0.00     0.057 C 
ATOM     25  C   UNL A   1      31.898  27.703  25.560  1.00  0.00    -0.041 C 
BRANCH  25  26
ATOM     26  C   UNL A   1      31.611  29.170  25.825  1.00  0.00    -0.020 A 
ATOM     27  C   UNL A   1      32.188  29.818  26.937  1.00  0.00     0.008 A 
ATOM     28  C   UNL A   1      30.857  29.998  24.969  1.00  0.00    -0.044 A 
ATOM     29  C   UNL A   1      32.074  31.198  27.186  1.00  0.00     0.001 A 
ATOM     30  C   UNL A   1      30.737  31.392  25.223  1.00  0.00     0.004 A 
ATOM     31  C   UNL A   1      30.203  29.471  23.729  1.00  0.00     0.045 C 
ATOM     32  C   UNL A   1      31.345  31.992  26.321  1.00  0.00     0.000 A 
ENDBRANCH  25  26
ENDBRANCH  14  20
ENDBRANCH   7   9
ENDBRANCH   6   7
ENDBRANCH   5   6
ENDBRANCH   4   5
ENDBRANCH   3   4
ENDBRANCH   2   3
ENDBRANCH   1   2
BRANCH   1  33
ATOM     33  O   UNL A   1      41.796  21.991  25.385  1.00  0.00    -0.376 OA
BRANCH  33  34
ATOM     34  C   UNL A   1      43.155  22.230  25.625  1.00  0.00     0.202 C 
BRANCH  34  35
ATOM     35  C   UNL A   1      43.427  23.693  25.973  1.00  0.00     0.261 C 
BRANCH  35  36
ATOM     36  O   UNL A   1      42.211  24.476  26.069  1.00  0.00    -0.460 OA
BRANCH  36  37
ATOM     37  C   UNL A   1      42.257  25.736  25.509  1.00  0.00     0.338 C 
ATOM     38  O   UNL A   1      43.048  26.063  24.643  1.00  0.00    -0.246 OA
BRANCH  37  39
ATOM     39  C   UNL A   1      41.297  26.653  26.191  1.00  0.00     0.060 A 
ATOM     40  C   UNL A   1      41.319  28.066  26.156  1.00  0.00     0.016 A 
ATOM     41  C   UNL A   1      40.593  26.087  27.178  1.00  0.00     0.016 A 
ATOM     42  C   UNL A   1      40.848  28.927  27.259  1.00  0.00     0.010 A 
ATOM     43  C   UNL A   1      40.426  26.917  28.274  1.00  0.00     0.010 A 
ATOM     44  C   UNL A   1      40.483  28.417  28.496  1.00  0.00    -0.014 A 
BRANCH  44  45
ATOM     45  C   UNL A   1      40.001  29.354  30.017  1.00  0.00     0.031 A 
ATOM     46  C   UNL A   1      39.012  30.953  30.149  1.00  0.00     0.074 A 
ATOM     47  C   UNL A   1      40.232  28.909  31.290  1.00  0.00     0.049 A 
ATOM     48  N   UNL A   1      38.880  31.751  31.193  1.00  0.00    -0.248 NA
ATOM     49  C   UNL A   1      38.141  31.700  29.041  1.00  0.00     0.031 C 
ATOM     50  C   UNL A   1      39.304  29.233  32.381  1.00  0.00     0.029 A 
ATOM     51  N   UNL A   1      41.147  28.045  31.918  1.00  0.00    -0.354 N 
ATOM     52  C   UNL A   1      37.907  32.743  30.883  1.00  0.00     0.074 A 
ATOM     53  C   UNL A   1      37.839  32.892  29.497  1.00  0.00     0.031 C 
ATOM     54  C   UNL A   1      39.770  28.755  33.537  1.00  0.00     0.029 A 
ATOM     55  C   UNL A   1      41.112  28.273  33.315  1.00  0.00     0.049 A 
ATOM     56  H   UNL A   1      41.719  27.388  31.461  1.00  0.00     0.167 HD
ATOM     57  C   UNL A   1      36.950  33.190  31.745  1.00  0.00     0.034 A 
ATOM     58  C   UNL A   1      42.126  28.444  34.226  1.00  0.00     0.034 A 
ATOM     59  C   UNL A   1      37.349  32.808  33.072  1.00  0.00     0.049 A 
ATOM     60  C   UNL A   1      42.035  29.877  34.830  1.00  0.00     0.074 A 
ATOM     61  C   UNL A   1      36.993  31.837  33.977  1.00  0.00     0.029 A 
ATOM     62  N   UNL A   1      38.564  33.296  33.469  1.00  0.00    -0.354 N 
ATOM     63  N   UNL A   1      40.943  30.592  34.933  1.00  0.00    -0.248 NA
ATOM     64  C   UNL A   1      43.202  30.664  35.253  1.00  0.00     0.031 C 
ATOM     65  C   UNL A   1      38.089  31.705  34.888  1.00  0.00     0.029 A 
ATOM     66  C   UNL A   1      39.064  32.634  34.555  1.00  0.00     0.049 A 
ATOM     67  H   UNL A   1      39.026  34.043  33.024  1.00  0.00     0.167 HD
ATOM     68  C   UNL A   1      41.293  31.922  35.061  1.00  0.00     0.074 A 
ATOM     69  C   UNL A   1      42.721  31.912  35.264  1.00  0.00     0.031 C 
ATOM     70  C   UNL A   1      40.426  32.971  34.932  1.00  0.00     0.034 A 
BRANCH  57  71
ATOM     71  C   UNL A   1      35.607  33.898  31.427  1.00  0.00     0.023 A 
ATOM     72  C   UNL A   1      35.008  33.509  30.208  1.00  0.00     0.012 A 
ATOM     73  C   UNL A   1      34.929  34.959  32.112  1.00  0.00     0.148 A 
ATOM     74  C   UNL A   1      33.870  34.134  29.676  1.00  0.00     0.002 A 
ATOM     75  C   UNL A   1      33.757  35.552  31.603  1.00  0.00     0.091 A 
ATOM     76  F   UNL A   1      35.435  35.500  33.222  1.00  0.00    -0.205 F 
ATOM     77  C   UNL A   1      33.240  35.153  30.373  1.00  0.00     0.022 A 
BRANCH  75  78
ATOM     78  S   UNL A   1      32.867  36.895  32.440  1.00  0.00     0.127 S 
ATOM     79  O   UNL A   1      31.514  36.347  32.542  1.00  0.00    -0.237 OA
ATOM     80  O   UNL A   1      33.572  36.999  33.718  1.00  0.00    -0.237 OA
ATOM     81  O   UNL A   1      32.985  38.069  31.585  1.00  0.00    -0.744 OA
ENDBRANCH  75  78
ENDBRANCH  57  71
BRANCH  58  82
ATOM     82  C   UNL A   1      43.411  27.711  33.934  1.00  0.00     0.023 A 
ATOM     83  C   UNL A   1      43.352  26.298  33.873  1.00  0.00     0.012 A 
ATOM     84  C   UNL A   1      44.302  28.320  33.086  1.00  0.00     0.148 A 
ATOM     85  C   UNL A   1      43.788  25.629  32.720  1.00  0.00     0.002 A 
ATOM     86  C   UNL A   1      44.436  27.761  31.854  1.00  0.00     0.091 A 
ATOM     87  F   UNL A   1      44.798  29.540  33.285  1.00  0.00    -0.205 F 
ATOM     88  C   UNL A   1      44.201  26.397  31.638  1.00  0.00     0.022 A 
BRANCH  86  89
ATOM     89  S   UNL A   1      44.221  28.996  30.579  1.00  0.00     0.127 S 
ATOM     90  O   UNL A   1      43.523  28.258  29.539  1.00  0.00    -0.237 OA
ATOM     91  O   UNL A   1      43.446  29.948  31.368  1.00  0.00    -0.237 OA
ATOM     92  O   UNL A   1      45.571  29.413  30.267  1.00  0.00    -0.744 OA
ENDBRANCH  86  89
ENDBRANCH  58  82
BRANCH  70  93
ATOM     93  C   UNL A   1      40.808  34.435  35.184  1.00  0.00     0.023 A 
ATOM     94  C   UNL A   1      41.619  35.100  34.246  1.00  0.00     0.012 A 
ATOM     95  C   UNL A   1      40.604  35.108  36.421  1.00  0.00     0.148 A 
ATOM     96  C   UNL A   1      42.206  36.340  34.522  1.00  0.00     0.002 A 
ATOM     97  C   UNL A   1      41.316  36.257  36.750  1.00  0.00     0.091 A 
ATOM     98  F   UNL A   1      39.658  34.693  37.272  1.00  0.00    -0.205 F 
ATOM     99  C   UNL A   1      42.100  36.893  35.791  1.00  0.00     0.022 A 
BRANCH  97 100
ATOM    100  S   UNL A   1      41.428  36.864  38.443  1.00  0.00     0.127 S 
ATOM    101  O   UNL A   1      42.551  37.799  38.349  1.00  0.00    -0.237 OA
ATOM    102  O   UNL A   1      40.125  37.499  38.628  1.00  0.00    -0.237 OA
ATOM    103  O   UNL A   1      41.688  35.697  39.274  1.00  0.00    -0.744 OA
ENDBRANCH  97 100
ENDBRANCH  70  93
ENDBRANCH  44  45
ENDBRANCH  37  39
ENDBRANCH  36  37
ENDBRANCH  35  36
ENDBRANCH  34  35
ENDBRANCH  33  34
ENDBRANCH   1  33
TORSDOF 23
ENDMDL
MODEL 3
REMARK VINA RESULT:     -12.8      4.534      7.779
REMARK SMILES CC(=O)Nc1cnc(N2CC=C(c3ccccc3C)CC2)c(C(=O)OCCOCCOCCOC(=O)c2ccc(-c3c4nc(c(-c5cccc(S(=O)(=O)[O-])c5F)c5ccc([nH]5)c(-c5cccc(S(=O)(=O)[O-])c5F)c5nc(c(-c6cccc(S(=O)(=O)[O-])c6F)c6ccc3[nH]6)C=C5)C=C4)cc2)c1
REMARK SMILES IDX 30 1 29 2 28 3 27 4 26 5 25 6 23 7 24 8 22 9 5 10 6 11
REMARK SMILES IDX 100 12 7 13 8 14 4 15 1 16 2 17 3 18 9 20 10 21 21 22 11 23
REMARK SMILES IDX 20 24 12 25 13 26 14 27 18 28 15 29 17 30 19 31 16 32 31 33
REMARK SMILES IDX 32 34 33 35 34 36 35 37 36 38 37 39 38 40 99 41 39 42 98 43
REMARK SMILES IDX 40 44 41 45 42 46 92 47 43 48 97 49 91 50 93 51 44 52 96 53
REMARK SMILES IDX 90 54 89 55 45 57 77 58 57 59 76 60 58 61 61 62 75 63 94 64
REMARK SMILES IDX 59 65 60 66 74 68 95 69 62 70 46 71 47 72 55 73 48 74 50 75
REMARK SMILES IDX 56 76 49 77 51 78 52 79 53 80 54 81 78 82 79 83 87 84 80 85
REMARK SMILES IDX 82 86 88 87 81 88 83 89 84 90 85 91 86 92 63 93 64 94 72 95
REMARK SMILES IDX 65 96 67 97 73 98 66 99 68 100 69 101 70 102 71 103
REMARK H PARENT 4 19 93 56 61 67
REMARK Flexibility Score: inf
ROOT
ATOM      1  C   UNL A   1      36.927  22.028  24.003  1.00  0.00     0.188 C 
ENDROOT
BRANCH   1   2
ATOM      2  C   UNL A   1      36.060  23.286  23.957  1.00  0.00     0.188 C 
BRANCH   2   3
ATOM      3  O   UNL A   1      36.220  24.296  24.967  1.00  0.00    -0.376 OA
BRANCH   3   4
ATOM      4  C   UNL A   1      35.228  24.803  25.892  1.00  0.00     0.202 C 
BRANCH   4   5
ATOM      5  C   UNL A   1      33.584  25.437  25.750  1.00  0.00     0.261 C 
BRANCH   5   6
ATOM      6  O   UNL A   1      32.902  27.172  25.874  1.00  0.00    -0.460 OA
BRANCH   6   7
ATOM      7  C   UNL A   1      32.325  28.347  25.003  1.00  0.00     0.342 C 
ATOM      8  O   UNL A   1      32.777  29.490  24.918  1.00  0.00    -0.246 OA
BRANCH   7   9
ATOM      9  C   UNL A   1      31.002  28.325  24.333  1.00  0.00     0.104 A 
ATOM     10  C   UNL A   1      29.838  30.065  23.148  1.00  0.00     0.060 A 
ATOM     11  C   UNL A   1      29.253  29.084  22.373  1.00  0.00     0.139 A 
ATOM     12  C   UNL A   1      30.643  29.669  24.193  1.00  0.00     0.047 A 
ATOM     13  N   UNL A   1      29.516  27.765  22.490  1.00  0.00    -0.236 NA
ATOM     14  C   UNL A   1      30.460  27.343  23.384  1.00  0.00     0.143 A 
BRANCH  10  15
ATOM     15  N   UNL A   1      29.614  31.417  22.886  1.00  0.00    -0.325 N 
ATOM     16  C   UNL A   1      27.297  31.543  23.780  1.00  0.00     0.114 C 
ATOM     17  C   UNL A   1      28.424  32.101  22.940  1.00  0.00     0.221 C 
ATOM     18  O   UNL A   1      28.366  33.215  22.420  1.00  0.00    -0.275 OA
ATOM     19  H   UNL A   1      30.405  31.944  22.631  1.00  0.00     0.169 HD
ENDBRANCH  10  15
BRANCH  14  20
ATOM     20  N   UNL A   1      30.672  25.934  23.308  1.00  0.00    -0.352 N 
ATOM     21  C   UNL A   1      30.330  25.144  24.552  1.00  0.00     0.146 C 
ATOM     22  C   UNL A   1      32.019  25.584  22.839  1.00  0.00     0.123 C 
ATOM     23  C   UNL A   1      30.923  23.709  24.611  1.00  0.00    -0.002 C 
ATOM     24  C   UNL A   1      32.281  24.064  22.624  1.00  0.00     0.057 C 
ATOM     25  C   UNL A   1      31.782  23.158  23.725  1.00  0.00    -0.041 C 
BRANCH  25  26
ATOM     26  C   UNL A   1      32.127  21.681  23.649  1.00  0.00    -0.020 A 
ATOM     27  C   UNL A   1      31.817  20.937  22.492  1.00  0.00     0.008 A 
ATOM     28  C   UNL A   1      32.841  20.982  24.643  1.00  0.00    -0.044 A 
ATOM     29  C   UNL A   1      32.210  19.601  22.290  1.00  0.00     0.001 A 
ATOM     30  C   UNL A   1      33.234  19.630  24.442  1.00  0.00     0.004 A 
ATOM     31  C   UNL A   1      33.272  21.636  25.919  1.00  0.00     0.045 C 
ATOM     32  C   UNL A   1      32.926  18.943  23.272  1.00  0.00     0.000 A 
ENDBRANCH  25  26
ENDBRANCH  14  20
ENDBRANCH   7   9
ENDBRANCH   6   7
ENDBRANCH   5   6
ENDBRANCH   4   5
ENDBRANCH   3   4
ENDBRANCH   2   3
ENDBRANCH   1   2
BRANCH   1  33
ATOM     33  O   UNL A   1      37.757  22.097  25.136  1.00  0.00    -0.376 OA
BRANCH  33  34
ATOM     34  C   UNL A   1      38.557  20.996  25.467  1.00  0.00     0.202 C 
BRANCH  34  35
ATOM     35  C   UNL A   1      39.779  21.402  26.290  1.00  0.00     0.261 C 
BRANCH  35  36
ATOM     36  O   UNL A   1      40.638  20.276  26.600  1.00  0.00    -0.460 OA
BRANCH  36  37
ATOM     37  C   UNL A   1      41.927  20.344  26.109  1.00  0.00     0.338 C 
ATOM     38  O   UNL A   1      42.381  19.565  25.292  1.00  0.00    -0.246 OA
BRANCH  37  39
ATOM     39  C   UNL A   1      42.701  21.413  26.805  1.00  0.00     0.060 A 
ATOM     40  C   UNL A   1      42.675  21.703  28.188  1.00  0.00     0.016 A 
ATOM     41  C   UNL A   1      43.173  22.372  25.999  1.00  0.00     0.016 A 
ATOM     42  C   UNL A   1      42.880  23.051  28.753  1.00  0.00     0.010 A 
ATOM     43  C   UNL A   1      43.084  23.640  26.550  1.00  0.00     0.010 A 
ATOM     44  C   UNL A   1      42.965  24.185  27.960  1.00  0.00    -0.014 A 
BRANCH  44  45
ATOM     45  C   UNL A   1      43.086  25.949  28.505  1.00  0.00     0.031 A 
ATOM     46  C   UNL A   1      41.714  27.232  28.649  1.00  0.00     0.074 A 
ATOM     47  C   UNL A   1      44.232  26.517  28.992  1.00  0.00     0.049 A 
ATOM     48  N   UNL A   1      41.826  28.540  28.792  1.00  0.00    -0.248 NA
ATOM     49  C   UNL A   1      40.132  27.033  28.610  1.00  0.00     0.031 C 
ATOM     50  C   UNL A   1      44.174  27.573  30.012  1.00  0.00     0.029 A 
ATOM     51  N   UNL A   1      45.614  26.294  28.867  1.00  0.00    -0.354 N 
ATOM     52  C   UNL A   1      40.531  29.082  29.027  1.00  0.00     0.074 A 
ATOM     53  C   UNL A   1      39.575  28.214  28.497  1.00  0.00     0.031 C 
ATOM     54  C   UNL A   1      45.402  28.022  30.278  1.00  0.00     0.029 A 
ATOM     55  C   UNL A   1      46.310  27.442  29.317  1.00  0.00     0.049 A 
ATOM     56  H   UNL A   1      46.032  25.472  28.522  1.00  0.00     0.167 HD
ATOM     57  C   UNL A   1      40.251  30.065  29.929  1.00  0.00     0.034 A 
ATOM     58  C   UNL A   1      47.350  28.143  28.757  1.00  0.00     0.034 A 
ATOM     59  C   UNL A   1      41.491  30.706  30.271  1.00  0.00     0.049 A 
ATOM     60  C   UNL A   1      46.873  29.587  28.420  1.00  0.00     0.074 A 
ATOM     61  C   UNL A   1      42.365  30.680  31.332  1.00  0.00     0.029 A 
ATOM     62  N   UNL A   1      42.164  31.256  29.215  1.00  0.00    -0.354 N 
ATOM     63  N   UNL A   1      45.909  30.232  29.030  1.00  0.00    -0.248 NA
ATOM     64  C   UNL A   1      47.368  30.370  27.280  1.00  0.00     0.031 C 
ATOM     65  C   UNL A   1      43.619  31.162  30.840  1.00  0.00     0.029 A 
ATOM     66  C   UNL A   1      43.471  31.523  29.509  1.00  0.00     0.049 A 
ATOM     67  H   UNL A   1      41.751  31.441  28.340  1.00  0.00     0.167 HD
ATOM     68  C   UNL A   1      45.457  31.241  28.201  1.00  0.00     0.074 A 
ATOM     69  C   UNL A   1      46.409  31.289  27.120  1.00  0.00     0.031 C 
ATOM     70  C   UNL A   1      44.299  31.944  28.392  1.00  0.00     0.034 A 
BRANCH  57  71
ATOM     71  C   UNL A   1      38.893  30.423  30.589  1.00  0.00     0.023 A 
ATOM     72  C   UNL A   1      38.613  29.721  31.782  1.00  0.00     0.012 A 
ATOM     73  C   UNL A   1      37.829  31.266  30.129  1.00  0.00     0.148 A 
ATOM     74  C   UNL A   1      37.379  29.798  32.448  1.00  0.00     0.002 A 
ATOM     75  C   UNL A   1      36.611  31.383  30.825  1.00  0.00     0.091 A 
ATOM     76  F   UNL A   1      37.912  31.910  28.963  1.00  0.00    -0.205 F 
ATOM     77  C   UNL A   1      36.378  30.631  31.975  1.00  0.00     0.022 A 
BRANCH  75  78
ATOM     78  S   UNL A   1      35.241  32.442  30.279  1.00  0.00     0.127 S 
ATOM     79  O   UNL A   1      34.360  32.429  31.449  1.00  0.00    -0.237 OA
ATOM     80  O   UNL A   1      35.903  33.724  30.039  1.00  0.00    -0.237 OA
ATOM     81  O   UNL A   1      34.680  31.816  29.089  1.00  0.00    -0.744 OA
ENDBRANCH  75  78
ENDBRANCH  57  71
BRANCH  58  82
ATOM     82  C   UNL A   1      48.321  27.341  27.929  1.00  0.00     0.023 A 
ATOM     83  C   UNL A   1      48.845  26.159  28.506  1.00  0.00     0.012 A 
ATOM     84  C   UNL A   1      48.116  27.316  26.571  1.00  0.00     0.148 A 
ATOM     85  C   UNL A   1      48.694  24.931  27.844  1.00  0.00     0.002 A 
ATOM     86  C   UNL A   1      47.672  26.141  26.053  1.00  0.00     0.091 A 
ATOM     87  F   UNL A   1      48.048  28.408  25.813  1.00  0.00    -0.205 F 
ATOM     88  C   UNL A   1      47.962  24.914  26.663  1.00  0.00     0.022 A 
BRANCH  86  89
ATOM     89  S   UNL A   1      46.210  26.407  25.059  1.00  0.00     0.127 S 
ATOM     90  O   UNL A   1      45.391  27.245  25.919  1.00  0.00    -0.237 OA
ATOM     91  O   UNL A   1      46.868  27.045  23.923  1.00  0.00    -0.237 OA
ATOM     92  O   UNL A   1      45.711  25.073  24.808  1.00  0.00    -0.744 OA
ENDBRANCH  86  89
ENDBRANCH  58  82
BRANCH  70  93
ATOM     93  C   UNL A   1      43.866  33.132  27.524  1.00  0.00     0.023 A 
ATOM     94  C   UNL A   1      43.965  33.027  26.126  1.00  0.00     0.012 A 
ATOM     95  C   UNL A   1      43.594  34.432  28.036  1.00  0.00     0.148 A 
ATOM     96  C   UNL A   1      43.825  34.139  25.287  1.00  0.00     0.002 A 
ATOM     97  C   UNL A   1      43.616  35.555  27.215  1.00  0.00     0.091 A 
ATOM     98  F   UNL A   1      43.232  34.597  29.313  1.00  0.00    -0.205 F 
ATOM     99  C   UNL A   1      43.705  35.410  25.833  1.00  0.00     0.022 A 
BRANCH  97 100
ATOM    100  S   UNL A   1      43.733  37.226  27.880  1.00  0.00     0.127 S 
ATOM    101  O   UNL A   1      43.366  37.014  29.282  1.00  0.00    -0.237 OA
ATOM    102  O   UNL A   1      45.143  37.544  27.665  1.00  0.00    -0.237 OA
ATOM    103  O   UNL A   1      42.780  38.028  27.126  1.00  0.00    -0.744 OA
ENDBRANCH  97 100
ENDBRANCH  70  93
ENDBRANCH  44  45
ENDBRANCH  37  39
ENDBRANCH  36  37
ENDBRANCH  35  36
ENDBRANCH  34  35
ENDBRANCH  33  34
ENDBRANCH   1  33
TORSDOF 23
ENDMDL
