MODEL 1
REMARK VINA RESULT:     -10.1      0.000      0.000
REMARK SMILES CNc1nccc(-c2cc(C(=O)OCCOCCOCCOC(=O)c3ccc(-c4c5nc(c(-c6cccc(S(=O)(=O)[O-])c6F)c6ccc([nH]6)c(-c6cccc(S(=O)(=O)[O-])c6F)c6nc(c(-c7cccc(S(=O)(=O)[O-])c7F)c7ccc4[nH]7)C=C6)C=C5)cc3)ccn2)n1
REMARK SMILES IDX 18 1 17 2 16 3 15 4 14 5 13 6 11 7 12 8 10 9 8 10 9 11 90 12
REMARK SMILES IDX 89 13 88 14 7 15 3 16 4 17 91 18 5 19 6 20 2 21 1 22 19 24
REMARK SMILES IDX 20 25 21 26 22 27 23 28 24 29 25 30 26 31 87 32 27 33 86 34
REMARK SMILES IDX 28 35 29 36 30 37 80 38 31 39 85 40 79 41 81 42 32 43 84 44
REMARK SMILES IDX 78 45 77 46 33 48 65 49 45 50 64 51 46 52 49 53 63 54 82 55
REMARK SMILES IDX 47 56 48 57 62 59 83 60 50 61 34 62 35 63 43 64 36 65 38 66
REMARK SMILES IDX 44 67 37 68 39 69 40 70 41 71 42 72 66 73 67 74 75 75 68 76
REMARK SMILES IDX 70 77 76 78 69 79 71 80 72 81 73 82 74 83 51 84 52 85 60 86
REMARK SMILES IDX 53 87 55 88 61 89 54 90 56 91 57 92 58 93 59 94
REMARK H PARENT 2 23 81 47 49 58
REMARK Flexibility Score: inf
ROOT
ATOM      1  C   UNL A   1      36.633  22.850  23.600  1.00  0.00     0.188 C 
ENDROOT
BRANCH   1   2
ATOM      2  C   UNL A   1      35.092  22.937  23.546  1.00  0.00     0.188 C 
BRANCH   2   3
ATOM      3  O   UNL A   1      34.477  24.140  23.102  1.00  0.00    -0.376 OA
BRANCH   3   4
ATOM      4  C   UNL A   1      34.323  25.232  24.001  1.00  0.00     0.202 C 
BRANCH   4   5
ATOM      5  C   UNL A   1      32.927  25.825  24.235  1.00  0.00     0.261 C 
BRANCH   5   6
ATOM      6  O   UNL A   1      31.950  24.863  24.667  1.00  0.00    -0.460 OA
BRANCH   6   7
ATOM      7  C   UNL A   1      31.940  24.596  25.996  1.00  0.00     0.338 C 
ATOM      8  O   UNL A   1      31.437  25.264  26.883  1.00  0.00    -0.246 OA
BRANCH   7   9
ATOM      9  C   UNL A   1      32.521  23.261  26.236  1.00  0.00     0.063 A 
ATOM     10  C   UNL A   1      32.730  20.926  25.744  1.00  0.00     0.090 A 
ATOM     11  C   UNL A   1      32.096  22.147  25.515  1.00  0.00     0.046 A 
ATOM     12  N   UNL A   1      33.686  20.790  26.700  1.00  0.00    -0.255 NA
ATOM     13  C   UNL A   1      34.054  21.884  27.404  1.00  0.00     0.112 A 
ATOM     14  C   UNL A   1      33.524  23.139  27.194  1.00  0.00     0.036 A 
BRANCH  10  15
ATOM     15  C   UNL A   1      32.526  19.771  24.842  1.00  0.00     0.094 A 
ATOM     16  C   UNL A   1      32.326  17.494  24.552  1.00  0.00     0.222 A 
ATOM     17  N   UNL A   1      32.299  17.605  23.215  1.00  0.00    -0.222 NA
ATOM     18  N   UNL A   1      32.435  18.535  25.390  1.00  0.00    -0.211 NA
ATOM     19  C   UNL A   1      32.369  18.842  22.705  1.00  0.00     0.117 A 
ATOM     20  C   UNL A   1      32.478  19.967  23.474  1.00  0.00     0.051 A 
BRANCH  16  21
ATOM     21  N   UNL A   1      32.178  16.217  25.010  1.00  0.00    -0.357 N 
ATOM     22  C   UNL A   1      33.276  15.403  25.436  1.00  0.00     0.143 C 
ATOM     23  H   UNL A   1      31.271  15.837  25.050  1.00  0.00     0.163 HD
ENDBRANCH  16  21
ENDBRANCH  10  15
ENDBRANCH   7   9
ENDBRANCH   6   7
ENDBRANCH   5   6
ENDBRANCH   4   5
ENDBRANCH   3   4
ENDBRANCH   2   3
ENDBRANCH   1   2
BRANCH   1  24
ATOM     24  O   UNL A   1      37.155  22.583  24.880  1.00  0.00    -0.376 OA
BRANCH  24  25
ATOM     25  C   UNL A   1      37.931  21.419  25.096  1.00  0.00     0.202 C 
BRANCH  25  26
ATOM     26  C   UNL A   1      39.223  21.359  25.935  1.00  0.00     0.261 C 
BRANCH  26  27
ATOM     27  O   UNL A   1      39.723  20.080  26.327  1.00  0.00    -0.460 OA
BRANCH  27  28
ATOM     28  C   UNL A   1      41.059  19.890  26.230  1.00  0.00     0.338 C 
ATOM     29  O   UNL A   1      41.632  18.889  25.838  1.00  0.00    -0.246 OA
BRANCH  28  30
ATOM     30  C   UNL A   1      41.725  21.175  26.521  1.00  0.00     0.060 A 
ATOM     31  C   UNL A   1      41.892  21.561  27.856  1.00  0.00     0.016 A 
ATOM     32  C   UNL A   1      42.172  21.998  25.483  1.00  0.00     0.016 A 
ATOM     33  C   UNL A   1      42.486  22.788  28.156  1.00  0.00     0.010 A 
ATOM     34  C   UNL A   1      42.752  23.233  25.787  1.00  0.00     0.010 A 
ATOM     35  C   UNL A   1      42.887  23.646  27.123  1.00  0.00    -0.014 A 
BRANCH  35  36
ATOM     36  C   UNL A   1      43.309  25.035  27.436  1.00  0.00     0.031 A 
ATOM     37  C   UNL A   1      42.303  25.982  28.033  1.00  0.00     0.074 A 
ATOM     38  C   UNL A   1      44.561  25.454  27.182  1.00  0.00     0.049 A 
ATOM     39  N   UNL A   1      42.447  27.235  28.375  1.00  0.00    -0.248 NA
ATOM     40  C   UNL A   1      40.954  25.443  28.270  1.00  0.00     0.031 C 
ATOM     41  C   UNL A   1      45.622  24.640  26.594  1.00  0.00     0.029 A 
ATOM     42  N   UNL A   1      45.141  26.686  27.365  1.00  0.00    -0.354 N 
ATOM     43  C   UNL A   1      41.206  27.644  28.846  1.00  0.00     0.074 A 
ATOM     44  C   UNL A   1      40.316  26.508  28.732  1.00  0.00     0.031 C 
ATOM     45  C   UNL A   1      46.719  25.403  26.436  1.00  0.00     0.029 A 
ATOM     46  C   UNL A   1      46.431  26.761  26.895  1.00  0.00     0.049 A 
ATOM     47  H   UNL A   1      44.678  27.441  27.792  1.00  0.00     0.167 HD
ATOM     48  C   UNL A   1      40.841  28.848  29.344  1.00  0.00     0.034 A 
ATOM     49  C   UNL A   1      47.274  27.811  26.827  1.00  0.00     0.034 A 
ATOM     50  C   UNL A   1      41.726  29.975  29.469  1.00  0.00     0.049 A 
ATOM     51  C   UNL A   1      46.839  29.149  27.371  1.00  0.00     0.074 A 
ATOM     52  C   UNL A   1      41.464  31.219  30.014  1.00  0.00     0.029 A 
ATOM     53  N   UNL A   1      43.039  30.002  29.026  1.00  0.00    -0.354 N 
ATOM     54  N   UNL A   1      45.707  29.479  27.944  1.00  0.00    -0.248 NA
ATOM     55  C   UNL A   1      47.811  30.249  27.288  1.00  0.00     0.031 C 
ATOM     56  C   UNL A   1      42.611  32.008  29.875  1.00  0.00     0.029 A 
ATOM     57  C   UNL A   1      43.596  31.246  29.269  1.00  0.00     0.049 A 
ATOM     58  H   UNL A   1      43.507  29.247  28.601  1.00  0.00     0.167 HD
ATOM     59  C   UNL A   1      45.843  30.813  28.319  1.00  0.00     0.074 A 
ATOM     60  C   UNL A   1      47.176  31.222  27.928  1.00  0.00     0.031 C 
ATOM     61  C   UNL A   1      44.941  31.630  28.920  1.00  0.00     0.034 A 
BRANCH  48  62
ATOM     62  C   UNL A   1      39.419  29.001  29.816  1.00  0.00     0.023 A 
ATOM     63  C   UNL A   1      39.090  28.685  31.150  1.00  0.00     0.012 A 
ATOM     64  C   UNL A   1      38.421  29.497  28.956  1.00  0.00     0.148 A 
ATOM     65  C   UNL A   1      37.782  28.827  31.612  1.00  0.00     0.002 A 
ATOM     66  C   UNL A   1      37.128  29.678  29.436  1.00  0.00     0.091 A 
ATOM     67  F   UNL A   1      38.747  29.769  27.685  1.00  0.00    -0.205 F 
ATOM     68  C   UNL A   1      36.805  29.332  30.759  1.00  0.00     0.022 A 
BRANCH  66  69
ATOM     69  S   UNL A   1      35.818  30.391  28.436  1.00  0.00     0.127 S 
ATOM     70  O   UNL A   1      35.265  31.394  29.345  1.00  0.00    -0.237 OA
ATOM     71  O   UNL A   1      36.562  30.942  27.301  1.00  0.00    -0.237 OA
ATOM     72  O   UNL A   1      34.928  29.290  28.098  1.00  0.00    -0.744 OA
ENDBRANCH  66  69
ENDBRANCH  48  62
BRANCH  49  73
ATOM     73  C   UNL A   1      48.637  27.632  26.251  1.00  0.00     0.023 A 
ATOM     74  C   UNL A   1      48.803  27.612  24.852  1.00  0.00     0.012 A 
ATOM     75  C   UNL A   1      49.768  27.497  27.079  1.00  0.00     0.148 A 
ATOM     76  C   UNL A   1      50.068  27.435  24.289  1.00  0.00     0.002 A 
ATOM     77  C   UNL A   1      51.031  27.374  26.513  1.00  0.00     0.091 A 
ATOM     78  F   UNL A   1      49.585  27.499  28.407  1.00  0.00    -0.205 F 
ATOM     79  C   UNL A   1      51.182  27.326  25.118  1.00  0.00     0.022 A 
BRANCH  77  80
ATOM     80  S   UNL A   1      52.533  27.352  27.498  1.00  0.00     0.127 S 
ATOM     81  O   UNL A   1      52.357  26.132  28.282  1.00  0.00    -0.237 OA
ATOM     82  O   UNL A   1      53.567  27.278  26.465  1.00  0.00    -0.237 OA
ATOM     83  O   UNL A   1      52.526  28.596  28.254  1.00  0.00    -0.744 OA
ENDBRANCH  77  80
ENDBRANCH  49  73
BRANCH  61  84
ATOM     84  C   UNL A   1      45.366  33.044  29.223  1.00  0.00     0.023 A 
ATOM     85  C   UNL A   1      45.979  33.343  30.456  1.00  0.00     0.012 A 
ATOM     86  C   UNL A   1      45.224  34.062  28.259  1.00  0.00     0.148 A 
ATOM     87  C   UNL A   1      46.412  34.639  30.739  1.00  0.00     0.002 A 
ATOM     88  C   UNL A   1      45.703  35.340  28.528  1.00  0.00     0.091 A 
ATOM     89  F   UNL A   1      44.623  33.766  27.098  1.00  0.00    -0.205 F 
ATOM     90  C   UNL A   1      46.285  35.633  29.772  1.00  0.00     0.022 A 
BRANCH  88  91
ATOM     91  S   UNL A   1      45.668  36.658  27.306  1.00  0.00     0.127 S 
ATOM     92  O   UNL A   1      46.359  36.036  26.178  1.00  0.00    -0.237 OA
ATOM     93  O   UNL A   1      44.233  36.860  27.105  1.00  0.00    -0.237 OA
ATOM     94  O   UNL A   1      46.355  37.787  27.917  1.00  0.00    -0.744 OA
ENDBRANCH  88  91
ENDBRANCH  61  84
ENDBRANCH  35  36
ENDBRANCH  28  30
ENDBRANCH  27  28
ENDBRANCH  26  27
ENDBRANCH  25  26
ENDBRANCH  24  25
ENDBRANCH   1  24
TORSDOF 22
ENDMDL
MODEL 2
REMARK VINA RESULT:      -9.9      5.633      9.945
REMARK SMILES CNc1nccc(-c2cc(C(=O)OCCOCCOCCOC(=O)c3ccc(-c4c5nc(c(-c6cccc(S(=O)(=O)[O-])c6F)c6ccc([nH]6)c(-c6cccc(S(=O)(=O)[O-])c6F)c6nc(c(-c7cccc(S(=O)(=O)[O-])c7F)c7ccc4[nH]7)C=C6)C=C5)cc3)ccn2)n1
REMARK SMILES IDX 18 1 17 2 16 3 15 4 14 5 13 6 11 7 12 8 10 9 8 10 9 11 90 12
REMARK SMILES IDX 89 13 88 14 7 15 3 16 4 17 91 18 5 19 6 20 2 21 1 22 19 24
REMARK SMILES IDX 20 25 21 26 22 27 23 28 24 29 25 30 26 31 87 32 27 33 86 34
REMARK SMILES IDX 28 35 29 36 30 37 80 38 31 39 85 40 79 41 81 42 32 43 84 44
REMARK SMILES IDX 78 45 77 46 33 48 65 49 45 50 64 51 46 52 49 53 63 54 82 55
REMARK SMILES IDX 47 56 48 57 62 59 83 60 50 61 34 62 35 63 43 64 36 65 38 66
REMARK SMILES IDX 44 67 37 68 39 69 40 70 41 71 42 72 66 73 67 74 75 75 68 76
REMARK SMILES IDX 70 77 76 78 69 79 71 80 72 81 73 82 74 83 51 84 52 85 60 86
REMARK SMILES IDX 53 87 55 88 61 89 54 90 56 91 57 92 58 93 59 94
REMARK H PARENT 2 23 81 47 49 58
REMARK Flexibility Score: inf
ROOT
ATOM      1  C   UNL A   1      34.778  32.624  31.441  1.00  0.00     0.188 C 
ENDROOT
BRANCH   1   2
ATOM      2  C   UNL A   1      34.832  33.556  30.212  1.00  0.00     0.188 C 
BRANCH   2   3
ATOM      3  O   UNL A   1      36.087  33.832  29.601  1.00  0.00    -0.376 OA
BRANCH   3   4
ATOM      4  C   UNL A   1      37.294  33.509  30.283  1.00  0.00     0.202 C 
BRANCH   4   5
ATOM      5  C   UNL A   1      38.149  32.335  29.786  1.00  0.00     0.261 C 
BRANCH   5   6
ATOM      6  O   UNL A   1      37.579  31.630  28.670  1.00  0.00    -0.460 OA
BRANCH   6   7
ATOM      7  C   UNL A   1      36.911  30.492  28.977  1.00  0.00     0.338 C 
ATOM      8  O   UNL A   1      35.706  30.346  29.088  1.00  0.00    -0.246 OA
BRANCH   7   9
ATOM      9  C   UNL A   1      37.858  29.360  29.026  1.00  0.00     0.063 A 
ATOM     10  C   UNL A   1      39.497  27.930  28.023  1.00  0.00     0.090 A 
ATOM     11  C   UNL A   1      38.570  28.965  27.895  1.00  0.00     0.046 A 
ATOM     12  N   UNL A   1      39.658  27.261  29.195  1.00  0.00    -0.255 NA
ATOM     13  C   UNL A   1      38.928  27.649  30.265  1.00  0.00     0.112 A 
ATOM     14  C   UNL A   1      38.040  28.704  30.239  1.00  0.00     0.036 A 
BRANCH  10  15
ATOM     15  C   UNL A   1      40.473  27.634  26.952  1.00  0.00     0.094 A 
ATOM     16  C   UNL A   1      41.697  26.090  25.757  1.00  0.00     0.222 A 
ATOM     17  N   UNL A   1      42.368  27.044  25.095  1.00  0.00    -0.222 NA
ATOM     18  N   UNL A   1      40.754  26.337  26.677  1.00  0.00    -0.211 NA
ATOM     19  C   UNL A   1      42.053  28.316  25.372  1.00  0.00     0.117 A 
ATOM     20  C   UNL A   1      41.105  28.672  26.291  1.00  0.00     0.051 A 
BRANCH  16  21
ATOM     21  N   UNL A   1      42.012  24.818  25.377  1.00  0.00    -0.357 N 
ATOM     22  C   UNL A   1      41.890  23.686  26.244  1.00  0.00     0.143 C 
ATOM     23  H   UNL A   1      42.339  24.671  24.460  1.00  0.00     0.163 HD
ENDBRANCH  16  21
ENDBRANCH  10  15
ENDBRANCH   7   9
ENDBRANCH   6   7
ENDBRANCH   5   6
ENDBRANCH   4   5
ENDBRANCH   3   4
ENDBRANCH   2   3
ENDBRANCH   1   2
BRANCH   1  24
ATOM     24  O   UNL A   1      33.971  33.098  32.494  1.00  0.00    -0.376 OA
BRANCH  24  25
ATOM     25  C   UNL A   1      34.401  34.202  33.269  1.00  0.00     0.202 C 
BRANCH  25  26
ATOM     26  C   UNL A   1      35.626  34.203  34.205  1.00  0.00     0.261 C 
BRANCH  26  27
ATOM     27  O   UNL A   1      36.161  32.949  34.629  1.00  0.00    -0.460 OA
BRANCH  27  28
ATOM     28  C   UNL A   1      37.258  32.987  35.420  1.00  0.00     0.338 C 
ATOM     29  O   UNL A   1      37.312  33.342  36.584  1.00  0.00    -0.246 OA
BRANCH  28  30
ATOM     30  C   UNL A   1      38.372  32.357  34.683  1.00  0.00     0.060 A 
ATOM     31  C   UNL A   1      39.687  32.663  35.058  1.00  0.00     0.016 A 
ATOM     32  C   UNL A   1      38.122  31.479  33.625  1.00  0.00     0.016 A 
ATOM     33  C   UNL A   1      40.757  32.108  34.355  1.00  0.00     0.010 A 
ATOM     34  C   UNL A   1      39.196  30.937  32.913  1.00  0.00     0.010 A 
ATOM     35  C   UNL A   1      40.518  31.271  33.256  1.00  0.00    -0.014 A 
BRANCH  35  36
ATOM     36  C   UNL A   1      41.643  30.865  32.377  1.00  0.00     0.031 A 
ATOM     37  C   UNL A   1      42.103  31.812  31.302  1.00  0.00     0.074 A 
ATOM     38  C   UNL A   1      42.238  29.667  32.520  1.00  0.00     0.049 A 
ATOM     39  N   UNL A   1      43.054  31.663  30.419  1.00  0.00    -0.248 NA
ATOM     40  C   UNL A   1      41.390  33.096  31.210  1.00  0.00     0.031 C 
ATOM     41  C   UNL A   1      41.877  28.656  33.511  1.00  0.00     0.029 A 
ATOM     42  N   UNL A   1      43.260  29.091  31.806  1.00  0.00    -0.354 N 
ATOM     43  C   UNL A   1      43.042  32.820  29.651  1.00  0.00     0.074 A 
ATOM     44  C   UNL A   1      41.979  33.657  30.164  1.00  0.00     0.031 C 
ATOM     45  C   UNL A   1      42.647  27.570  33.324  1.00  0.00     0.029 A 
ATOM     46  C   UNL A   1      43.541  27.802  32.190  1.00  0.00     0.049 A 
ATOM     47  H   UNL A   1      43.746  29.558  31.088  1.00  0.00     0.167 HD
ATOM     48  C   UNL A   1      43.852  33.166  28.622  1.00  0.00     0.034 A 
ATOM     49  C   UNL A   1      44.407  26.906  31.673  1.00  0.00     0.034 A 
ATOM     50  C   UNL A   1      44.917  32.342  28.118  1.00  0.00     0.049 A 
ATOM     51  C   UNL A   1      45.285  27.307  30.515  1.00  0.00     0.074 A 
ATOM     52  C   UNL A   1      45.827  32.630  27.117  1.00  0.00     0.029 A 
ATOM     53  N   UNL A   1      45.203  31.060  28.561  1.00  0.00    -0.354 N 
ATOM     54  N   UNL A   1      45.358  28.459  29.893  1.00  0.00    -0.248 NA
ATOM     55  C   UNL A   1      46.225  26.295  30.011  1.00  0.00     0.031 C 
ATOM     56  C   UNL A   1      46.647  31.509  26.936  1.00  0.00     0.029 A 
ATOM     57  C   UNL A   1      46.264  30.536  27.844  1.00  0.00     0.049 A 
ATOM     58  H   UNL A   1      44.721  30.591  29.281  1.00  0.00     0.167 HD
ATOM     59  C   UNL A   1      46.371  28.321  28.948  1.00  0.00     0.074 A 
ATOM     60  C   UNL A   1      46.898  26.979  29.096  1.00  0.00     0.031 C 
ATOM     61  C   UNL A   1      46.815  29.217  28.031  1.00  0.00     0.034 A 
BRANCH  48  62
ATOM     62  C   UNL A   1      43.629  34.513  27.987  1.00  0.00     0.023 A 
ATOM     63  C   UNL A   1      42.921  34.600  26.771  1.00  0.00     0.012 A 
ATOM     64  C   UNL A   1      44.080  35.691  28.611  1.00  0.00     0.148 A 
ATOM     65  C   UNL A   1      42.695  35.837  26.168  1.00  0.00     0.002 A 
ATOM     66  C   UNL A   1      43.813  36.925  28.026  1.00  0.00     0.091 A 
ATOM     67  F   UNL A   1      44.772  35.586  29.754  1.00  0.00    -0.205 F 
ATOM     68  C   UNL A   1      43.132  36.998  26.800  1.00  0.00     0.022 A 
BRANCH  66  69
ATOM     69  S   UNL A   1      44.270  38.479  28.801  1.00  0.00     0.127 S 
ATOM     70  O   UNL A   1      45.719  38.486  28.617  1.00  0.00    -0.237 OA
ATOM     71  O   UNL A   1      43.547  39.455  27.983  1.00  0.00    -0.237 OA
ATOM     72  O   UNL A   1      43.812  38.388  30.181  1.00  0.00    -0.744 OA
ENDBRANCH  66  69
ENDBRANCH  48  62
BRANCH  49  73
ATOM     73  C   UNL A   1      44.514  25.546  32.273  1.00  0.00     0.023 A 
ATOM     74  C   UNL A   1      43.887  24.455  31.638  1.00  0.00     0.012 A 
ATOM     75  C   UNL A   1      45.243  25.326  33.457  1.00  0.00     0.148 A 
ATOM     76  C   UNL A   1      43.964  23.174  32.187  1.00  0.00     0.002 A 
ATOM     77  C   UNL A   1      45.361  24.039  33.969  1.00  0.00     0.091 A 
ATOM     78  F   UNL A   1      45.815  26.380  34.055  1.00  0.00    -0.205 F 
ATOM     79  C   UNL A   1      44.708  22.964  33.344  1.00  0.00     0.022 A 
BRANCH  77  80
ATOM     80  S   UNL A   1      46.398  23.653  35.383  1.00  0.00     0.127 S 
ATOM     81  O   UNL A   1      47.715  24.079  34.913  1.00  0.00    -0.237 OA
ATOM     82  O   UNL A   1      45.812  24.498  36.424  1.00  0.00    -0.237 OA
ATOM     83  O   UNL A   1      46.241  22.223  35.609  1.00  0.00    -0.744 OA
ENDBRANCH  77  80
ENDBRANCH  49  73
BRANCH  61  84
ATOM     84  C   UNL A   1      47.947  28.797  27.128  1.00  0.00     0.023 A 
ATOM     85  C   UNL A   1      49.279  28.910  27.575  1.00  0.00     0.012 A 
ATOM     86  C   UNL A   1      47.690  28.223  25.867  1.00  0.00     0.148 A 
ATOM     87  C   UNL A   1      50.337  28.492  26.768  1.00  0.00     0.002 A 
ATOM     88  C   UNL A   1      48.746  27.762  25.088  1.00  0.00     0.091 A 
ATOM     89  F   UNL A   1      46.418  28.138  25.449  1.00  0.00    -0.205 F 
ATOM     90  C   UNL A   1      50.071  27.908  25.531  1.00  0.00     0.022 A 
BRANCH  88  91
ATOM     91  S   UNL A   1      48.491  26.911  23.527  1.00  0.00     0.127 S 
ATOM     92  O   UNL A   1      47.780  25.708  23.956  1.00  0.00    -0.237 OA
ATOM     93  O   UNL A   1      47.674  27.868  22.779  1.00  0.00    -0.237 OA
ATOM     94  O   UNL A   1      49.818  26.690  22.970  1.00  0.00    -0.744 OA
ENDBRANCH  88  91
ENDBRANCH  61  84
ENDBRANCH  35  36
ENDBRANCH  28  30
ENDBRANCH  27  28
ENDBRANCH  26  27
ENDBRANCH  25  26
ENDBRANCH  24  25
ENDBRANCH   1  24
TORSDOF 22
ENDMDL
MODEL 3
REMARK VINA RESULT:      -9.8      2.082      8.061
REMARK SMILES CNc1nccc(-c2cc(C(=O)OCCOCCOCCOC(=O)c3ccc(-c4c5nc(c(-c6cccc(S(=O)(=O)[O-])c6F)c6ccc([nH]6)c(-c6cccc(S(=O)(=O)[O-])c6F)c6nc(c(-c7cccc(S(=O)(=O)[O-])c7F)c7ccc4[nH]7)C=C6)C=C5)cc3)ccn2)n1
REMARK SMILES IDX 18 1 17 2 16 3 15 4 14 5 13 6 11 7 12 8 10 9 8 10 9 11 90 12
REMARK SMILES IDX 89 13 88 14 7 15 3 16 4 17 91 18 5 19 6 20 2 21 1 22 19 24
REMARK SMILES IDX 20 25 21 26 22 27 23 28 24 29 25 30 26 31 87 32 27 33 86 34
REMARK SMILES IDX 28 35 29 36 30 37 80 38 31 39 85 40 79 41 81 42 32 43 84 44
REMARK SMILES IDX 78 45 77 46 33 48 65 49 45 50 64 51 46 52 49 53 63 54 82 55
REMARK SMILES IDX 47 56 48 57 62 59 83 60 50 61 34 62 35 63 43 64 36 65 38 66
REMARK SMILES IDX 44 67 37 68 39 69 40 70 41 71 42 72 66 73 67 74 75 75 68 76
REMARK SMILES IDX 70 77 76 78 69 79 71 80 72 81 73 82 74 83 51 84 52 85 60 86
REMARK SMILES IDX 53 87 55 88 61 89 54 90 56 91 57 92 58 93 59 94
REMARK H PARENT 2 23 81 47 49 58
REMARK Flexibility Score: inf
ROOT
ATOM      1  C   UNL A   1      36.491  23.001  23.491  1.00  0.00     0.188 C 
ENDROOT
BRANCH   1   2
ATOM      2  C   UNL A   1      34.954  22.947  23.364  1.00  0.00     0.188 C 
BRANCH   2   3
ATOM      3  O   UNL A   1      34.298  23.830  22.461  1.00  0.00    -0.376 OA
BRANCH   3   4
ATOM      4  C   UNL A   1      33.720  25.038  22.944  1.00  0.00     0.202 C 
BRANCH   4   5
ATOM      5  C   UNL A   1      32.220  25.290  22.737  1.00  0.00     0.261 C 
BRANCH   5   6
ATOM      6  O   UNL A   1      31.371  24.356  23.425  1.00  0.00    -0.460 OA
BRANCH   6   7
ATOM      7  C   UNL A   1      31.322  24.494  24.772  1.00  0.00     0.338 C 
ATOM      8  O   UNL A   1      30.720  25.341  25.409  1.00  0.00    -0.246 OA
BRANCH   7   9
ATOM      9  C   UNL A   1      32.005  23.353  25.412  1.00  0.00     0.063 A 
ATOM     10  C   UNL A   1      32.522  21.020  25.576  1.00  0.00     0.090 A 
ATOM     11  C   UNL A   1      31.797  22.047  24.973  1.00  0.00     0.046 A 
ATOM     12  N   UNL A   1      33.357  21.259  26.622  1.00  0.00    -0.255 NA
ATOM     13  C   UNL A   1      33.513  22.533  27.045  1.00  0.00     0.112 A 
ATOM     14  C   UNL A   1      32.884  23.612  26.459  1.00  0.00     0.036 A 
BRANCH  10  15
ATOM     15  C   UNL A   1      32.559  19.660  24.997  1.00  0.00     0.094 A 
ATOM     16  C   UNL A   1      32.800  17.387  25.287  1.00  0.00     0.222 A 
ATOM     17  N   UNL A   1      32.781  17.153  23.967  1.00  0.00    -0.222 NA
ATOM     18  N   UNL A   1      32.691  18.604  25.837  1.00  0.00    -0.211 NA
ATOM     19  C   UNL A   1      32.628  18.214  23.163  1.00  0.00     0.117 A 
ATOM     20  C   UNL A   1      32.506  19.495  23.624  1.00  0.00     0.051 A 
BRANCH  16  21
ATOM     21  N   UNL A   1      32.885  16.260  26.053  1.00  0.00    -0.357 N 
ATOM     22  C   UNL A   1      32.236  15.030  25.716  1.00  0.00     0.143 C 
ATOM     23  H   UNL A   1      33.419  16.296  26.879  1.00  0.00     0.163 HD
ENDBRANCH  16  21
ENDBRANCH  10  15
ENDBRANCH   7   9
ENDBRANCH   6   7
ENDBRANCH   5   6
ENDBRANCH   4   5
ENDBRANCH   3   4
ENDBRANCH   2   3
ENDBRANCH   1   2
BRANCH   1  24
ATOM     24  O   UNL A   1      36.956  23.303  24.786  1.00  0.00    -0.376 OA
BRANCH  24  25
ATOM     25  C   UNL A   1      37.927  22.473  25.398  1.00  0.00     0.202 C 
BRANCH  25  26
ATOM     26  C   UNL A   1      38.981  22.948  26.418  1.00  0.00     0.261 C 
BRANCH  26  27
ATOM     27  O   UNL A   1      40.009  22.037  26.810  1.00  0.00    -0.460 OA
BRANCH  27  28
ATOM     28  C   UNL A   1      41.251  22.272  26.327  1.00  0.00     0.338 C 
ATOM     29  O   UNL A   1      41.880  21.576  25.550  1.00  0.00    -0.246 OA
BRANCH  28  30
ATOM     30  C   UNL A   1      41.664  23.619  26.767  1.00  0.00     0.060 A 
ATOM     31  C   UNL A   1      41.912  23.837  28.128  1.00  0.00     0.016 A 
ATOM     32  C   UNL A   1      41.797  24.661  25.845  1.00  0.00     0.016 A 
ATOM     33  C   UNL A   1      42.269  25.110  28.574  1.00  0.00     0.010 A 
ATOM     34  C   UNL A   1      42.139  25.939  26.298  1.00  0.00     0.010 A 
ATOM     35  C   UNL A   1      42.349  26.176  27.667  1.00  0.00    -0.014 A 
BRANCH  35  36
ATOM     36  C   UNL A   1      42.507  27.564  28.169  1.00  0.00     0.031 A 
ATOM     37  C   UNL A   1      43.888  28.154  28.251  1.00  0.00     0.074 A 
ATOM     38  C   UNL A   1      41.441  28.287  28.559  1.00  0.00     0.049 A 
ATOM     39  N   UNL A   1      44.261  29.337  28.664  1.00  0.00    -0.248 NA
ATOM     40  C   UNL A   1      44.997  27.293  27.811  1.00  0.00     0.031 C 
ATOM     41  C   UNL A   1      40.055  27.825  28.542  1.00  0.00     0.029 A 
ATOM     42  N   UNL A   1      41.369  29.558  29.073  1.00  0.00    -0.354 N 
ATOM     43  C   UNL A   1      45.645  29.356  28.559  1.00  0.00     0.074 A 
ATOM     44  C   UNL A   1      46.049  28.061  28.055  1.00  0.00     0.031 C 
ATOM     45  C   UNL A   1      39.269  28.791  29.052  1.00  0.00     0.029 A 
ATOM     46  C   UNL A   1      40.099  29.929  29.447  1.00  0.00     0.049 A 
ATOM     47  H   UNL A   1      42.151  30.148  29.164  1.00  0.00     0.167 HD
ATOM     48  C   UNL A   1      46.505  30.363  28.839  1.00  0.00     0.034 A 
ATOM     49  C   UNL A   1      39.661  31.049  30.056  1.00  0.00     0.034 A 
ATOM     50  C   UNL A   1      46.107  31.655  29.328  1.00  0.00     0.049 A 
ATOM     51  C   UNL A   1      40.639  32.151  30.376  1.00  0.00     0.074 A 
ATOM     52  C   UNL A   1      46.898  32.760  29.587  1.00  0.00     0.029 A 
ATOM     53  N   UNL A   1      44.807  32.012  29.653  1.00  0.00    -0.354 N 
ATOM     54  N   UNL A   1      41.928  32.207  30.137  1.00  0.00    -0.248 NA
ATOM     55  C   UNL A   1      40.097  33.357  31.018  1.00  0.00     0.031 C 
ATOM     56  C   UNL A   1      46.081  33.776  30.095  1.00  0.00     0.029 A 
ATOM     57  C   UNL A   1      44.775  33.312  30.125  1.00  0.00     0.049 A 
ATOM     58  H   UNL A   1      44.021  31.426  29.560  1.00  0.00     0.167 HD
ATOM     59  C   UNL A   1      42.343  33.463  30.569  1.00  0.00     0.074 A 
ATOM     60  C   UNL A   1      41.164  34.145  31.063  1.00  0.00     0.031 C 
ATOM     61  C   UNL A   1      43.589  34.000  30.570  1.00  0.00     0.034 A 
BRANCH  48  62
ATOM     62  C   UNL A   1      47.970  30.113  28.597  1.00  0.00     0.023 A 
ATOM     63  C   UNL A   1      48.542  30.468  27.358  1.00  0.00     0.012 A 
ATOM     64  C   UNL A   1      48.788  29.568  29.606  1.00  0.00     0.148 A 
ATOM     65  C   UNL A   1      49.898  30.252  27.114  1.00  0.00     0.002 A 
ATOM     66  C   UNL A   1      50.147  29.397  29.371  1.00  0.00     0.091 A 
ATOM     67  F   UNL A   1      48.220  29.214  30.768  1.00  0.00    -0.205 F 
ATOM     68  C   UNL A   1      50.701  29.727  28.123  1.00  0.00     0.022 A 
BRANCH  66  69
ATOM     69  S   UNL A   1      51.276  28.797  30.632  1.00  0.00     0.127 S 
ATOM     70  O   UNL A   1      50.976  27.367  30.641  1.00  0.00    -0.237 OA
ATOM     71  O   UNL A   1      52.582  29.143  30.067  1.00  0.00    -0.237 OA
ATOM     72  O   UNL A   1      50.934  29.518  31.851  1.00  0.00    -0.744 OA
ENDBRANCH  66  69
ENDBRANCH  48  62
BRANCH  49  73
ATOM     73  C   UNL A   1      38.212  31.204  30.372  1.00  0.00     0.023 A 
ATOM     74  C   UNL A   1      37.727  30.790  31.628  1.00  0.00     0.012 A 
ATOM     75  C   UNL A   1      37.319  31.772  29.443  1.00  0.00     0.148 A 
ATOM     76  C   UNL A   1      36.373  30.915  31.942  1.00  0.00     0.002 A 
ATOM     77  C   UNL A   1      35.982  31.943  29.782  1.00  0.00     0.091 A 
ATOM     78  F   UNL A   1      37.798  32.141  28.247  1.00  0.00    -0.205 F 
ATOM     79  C   UNL A   1      35.504  31.500  31.025  1.00  0.00     0.022 A 
BRANCH  77  80
ATOM     80  S   UNL A   1      34.817  32.796  28.715  1.00  0.00     0.127 S 
ATOM     81  O   UNL A   1      33.915  31.712  28.330  1.00  0.00    -0.237 OA
ATOM     82  O   UNL A   1      34.240  33.782  29.629  1.00  0.00    -0.237 OA
ATOM     83  O   UNL A   1      35.614  33.367  27.638  1.00  0.00    -0.744 OA
ENDBRANCH  77  80
ENDBRANCH  49  73
BRANCH  61  84
ATOM     84  C   UNL A   1      43.749  35.405  31.095  1.00  0.00     0.023 A 
ATOM     85  C   UNL A   1      44.103  35.613  32.443  1.00  0.00     0.012 A 
ATOM     86  C   UNL A   1      43.621  36.514  30.236  1.00  0.00     0.148 A 
ATOM     87  C   UNL A   1      44.291  36.905  32.936  1.00  0.00     0.002 A 
ATOM     88  C   UNL A   1      43.858  37.796  30.722  1.00  0.00     0.091 A 
ATOM     89  F   UNL A   1      43.267  36.300  28.960  1.00  0.00    -0.205 F 
ATOM     90  C   UNL A   1      44.180  37.994  32.074  1.00  0.00     0.022 A 
BRANCH  88  91
ATOM     91  S   UNL A   1      43.833  39.247  29.662  1.00  0.00     0.127 S 
ATOM     92  O   UNL A   1      45.114  39.131  28.967  1.00  0.00    -0.237 OA
ATOM     93  O   UNL A   1      42.660  39.001  28.824  1.00  0.00    -0.237 OA
ATOM     94  O   UNL A   1      43.706  40.391  30.554  1.00  0.00    -0.744 OA
ENDBRANCH  88  91
ENDBRANCH  61  84
ENDBRANCH  35  36
ENDBRANCH  28  30
ENDBRANCH  27  28
ENDBRANCH  26  27
ENDBRANCH  25  26
ENDBRANCH  24  25
ENDBRANCH   1  24
TORSDOF 22
ENDMDL
