MODEL 1
REMARK VINA RESULT:      -9.8      0.000      0.000
REMARK SMILES CC[C@H](C)[C@H](NC(=O)[C@H](C(C)C)n1c(=O)[nH]c2ccccc2c1=O)C(=O)OCCOCCOCCOC(=O)c1ccc(-c2c3nc(c(-c4cccc(S(=O)(=O)[O-])c4F)c4ccc([nH]4)c(-c4cccc(S(=O)(=O)[O-])c4F)c4nc(c(-c5cccc(S(=O)(=O)[O-])c5F)c5ccc2[nH]5)C=C4)C=C3)cc1
REMARK SMILES IDX 31 1 30 2 29 3 28 4 27 5 25 6 26 7 5 8 3 9 4 10 2 11 1 12
REMARK SMILES IDX 6 13 7 14 8 16 9 17 13 18 14 19 23 20 15 21 16 22 22 23
REMARK SMILES IDX 24 24 17 25 21 27 18 28 20 29 19 30 10 31 11 32 12 33 32 34
REMARK SMILES IDX 33 35 34 36 35 37 36 38 37 39 38 40 39 41 40 42 101 43 41 44
REMARK SMILES IDX 100 45 42 46 43 47 44 48 94 49 45 50 99 51 93 52 95 53 46 54
REMARK SMILES IDX 98 55 92 56 91 57 47 59 79 60 59 61 78 62 60 63 63 64 77 65
REMARK SMILES IDX 96 66 61 67 62 68 76 70 97 71 64 72 48 73 49 74 57 75 50 76
REMARK SMILES IDX 52 77 58 78 51 79 53 80 54 81 55 82 56 83 80 84 81 85 89 86
REMARK SMILES IDX 82 87 84 88 90 89 83 90 85 91 86 92 87 93 88 94 65 95 66 96
REMARK SMILES IDX 74 97 67 98 69 99 75 100 68 101 70 102 71 103 72 104 73 105
REMARK H PARENT 6 15 16 26 95 58 63 69
REMARK Flexibility Score: inf
ROOT
ATOM      1  C   UNL A   1      39.990  21.040  26.694  1.00  0.00     0.188 C 
ENDROOT
BRANCH   1   2
ATOM      2  O   UNL A   1      39.377  22.259  26.343  1.00  0.00    -0.376 OA
BRANCH   2   3
ATOM      3  C   UNL A   1      38.083  22.237  25.769  1.00  0.00     0.202 C 
BRANCH   3   4
ATOM      4  C   UNL A   1      37.118  23.441  25.730  1.00  0.00     0.261 C 
BRANCH   4   5
ATOM      5  O   UNL A   1      35.873  23.323  25.026  1.00  0.00    -0.462 OA
BRANCH   5   6
ATOM      6  C   UNL A   1      34.765  23.502  25.796  1.00  0.00     0.328 C 
ATOM      7  O   UNL A   1      34.716  23.221  26.991  1.00  0.00    -0.250 OA
BRANCH   6   8
ATOM      8  C   UNL A   1      33.498  23.868  24.996  1.00  0.00     0.195 C 
BRANCH   8   9
ATOM      9  C   UNL A   1      32.840  22.504  24.616  1.00  0.00     0.019 C 
ATOM     10  C   UNL A   1      31.644  22.257  25.557  1.00  0.00     0.010 C 
BRANCH   9  11
ATOM     11  C   UNL A   1      32.455  22.288  23.130  1.00  0.00     0.002 C 
ATOM     12  C   UNL A   1      32.264  20.817  22.790  1.00  0.00     0.004 C 
ENDBRANCH   9  11
ENDBRANCH   8   9
BRANCH   8  13
ATOM     13  N   UNL A   1      33.578  24.799  23.873  1.00  0.00    -0.341 N 
ATOM     14  C   UNL A   1      32.855  25.976  23.744  1.00  0.00     0.244 C 
ATOM     15  H   UNL A   1      34.200  24.571  23.144  1.00  0.00     0.164 HD
ATOM     16  O   UNL A   1      32.894  26.561  22.661  1.00  0.00    -0.273 OA
BRANCH  14  17
ATOM     17  C   UNL A   1      31.920  26.420  24.923  1.00  0.00     0.187 C 
BRANCH  17  18
ATOM     18  N   UNL A   1      32.290  27.721  25.506  1.00  0.00    -0.247 N 
ATOM     19  C   UNL A   1      31.509  28.812  25.144  1.00  0.00     0.329 A 
ATOM     20  C   UNL A   1      33.452  27.830  26.267  1.00  0.00     0.264 A 
ATOM     21  O   UNL A   1      30.577  28.749  24.341  1.00  0.00    -0.248 OA
ATOM     22  N   UNL A   1      31.797  30.004  25.725  1.00  0.00    -0.307 N 
ATOM     23  C   UNL A   1      33.763  29.166  26.823  1.00  0.00     0.064 A 
ATOM     24  O   UNL A   1      34.200  26.888  26.510  1.00  0.00    -0.268 OA
ATOM     25  C   UNL A   1      32.893  30.217  26.549  1.00  0.00     0.055 A 
ATOM     26  H   UNL A   1      31.194  30.762  25.551  1.00  0.00     0.171 HD
ATOM     27  C   UNL A   1      34.904  29.391  27.599  1.00  0.00     0.016 A 
ATOM     28  C   UNL A   1      33.135  31.494  27.046  1.00  0.00     0.027 A 
ATOM     29  C   UNL A   1      35.165  30.674  28.081  1.00  0.00     0.001 A 
ATOM     30  C   UNL A   1      34.284  31.719  27.799  1.00  0.00     0.002 A 
ENDBRANCH  17  18
BRANCH  17  31
ATOM     31  C   UNL A   1      30.400  26.189  24.670  1.00  0.00     0.016 C 
ATOM     32  C   UNL A   1      30.231  25.240  23.465  1.00  0.00     0.010 C 
ATOM     33  C   UNL A   1      29.651  25.563  25.852  1.00  0.00     0.010 C 
ENDBRANCH  17  31
ENDBRANCH  14  17
ENDBRANCH   8  13
ENDBRANCH   6   8
ENDBRANCH   5   6
ENDBRANCH   4   5
ENDBRANCH   3   4
ENDBRANCH   2   3
ENDBRANCH   1   2
BRANCH   1  34
ATOM     34  C   UNL A   1      41.321  20.791  25.962  1.00  0.00     0.188 C 
BRANCH  34  35
ATOM     35  O   UNL A   1      41.696  19.476  25.585  1.00  0.00    -0.376 OA
BRANCH  35  36
ATOM     36  C   UNL A   1      42.674  18.788  26.360  1.00  0.00     0.202 C 
BRANCH  36  37
ATOM     37  C   UNL A   1      43.930  18.119  25.753  1.00  0.00     0.261 C 
BRANCH  37  38
ATOM     38  O   UNL A   1      45.024  18.974  25.405  1.00  0.00    -0.460 OA
BRANCH  38  39
ATOM     39  C   UNL A   1      44.830  19.773  24.316  1.00  0.00     0.338 C 
ATOM     40  O   UNL A   1      44.484  19.429  23.212  1.00  0.00    -0.246 OA
BRANCH  39  41
ATOM     41  C   UNL A   1      44.884  21.181  24.787  1.00  0.00     0.060 A 
ATOM     42  C   UNL A   1      45.249  21.477  26.099  1.00  0.00     0.016 A 
ATOM     43  C   UNL A   1      44.503  22.208  23.908  1.00  0.00     0.016 A 
ATOM     44  C   UNL A   1      45.253  22.808  26.524  1.00  0.00     0.010 A 
ATOM     45  C   UNL A   1      44.471  23.534  24.347  1.00  0.00     0.010 A 
ATOM     46  C   UNL A   1      44.873  23.845  25.652  1.00  0.00    -0.014 A 
BRANCH  46  47
ATOM     47  C   UNL A   1      45.120  25.254  26.043  1.00  0.00     0.031 A 
ATOM     48  C   UNL A   1      44.057  26.133  26.627  1.00  0.00     0.074 A 
ATOM     49  C   UNL A   1      46.368  25.727  25.869  1.00  0.00     0.049 A 
ATOM     50  N   UNL A   1      44.168  27.357  27.077  1.00  0.00    -0.248 NA
ATOM     51  C   UNL A   1      42.699  25.579  26.716  1.00  0.00     0.031 C 
ATOM     52  C   UNL A   1      47.474  24.966  25.281  1.00  0.00     0.029 A 
ATOM     53  N   UNL A   1      46.923  26.940  26.183  1.00  0.00    -0.354 N 
ATOM     54  C   UNL A   1      42.897  27.736  27.484  1.00  0.00     0.074 A 
ATOM     55  C   UNL A   1      42.029  26.602  27.239  1.00  0.00     0.031 C 
ATOM     56  C   UNL A   1      48.585  25.716  25.313  1.00  0.00     0.029 A 
ATOM     57  C   UNL A   1      48.267  27.013  25.903  1.00  0.00     0.049 A 
ATOM     58  H   UNL A   1      46.410  27.686  26.569  1.00  0.00     0.167 HD
ATOM     59  C   UNL A   1      42.499  28.923  28.004  1.00  0.00     0.034 A 
ATOM     60  C   UNL A   1      49.154  28.004  26.112  1.00  0.00     0.034 A 
ATOM     61  C   UNL A   1      43.381  30.030  28.279  1.00  0.00     0.049 A 
ATOM     62  C   UNL A   1      48.704  29.272  26.770  1.00  0.00     0.074 A 
ATOM     63  C   UNL A   1      43.069  31.251  28.855  1.00  0.00     0.029 A 
ATOM     64  N   UNL A   1      44.742  30.054  28.013  1.00  0.00    -0.354 N 
ATOM     65  N   UNL A   1      47.509  29.588  27.205  1.00  0.00    -0.248 NA
ATOM     66  C   UNL A   1      49.722  30.308  26.992  1.00  0.00     0.031 C 
ATOM     67  C   UNL A   1      44.237  32.013  28.934  1.00  0.00     0.029 A 
ATOM     68  C   UNL A   1      45.282  31.261  28.425  1.00  0.00     0.049 A 
ATOM     69  H   UNL A   1      45.248  29.321  27.594  1.00  0.00     0.167 HD
ATOM     70  C   UNL A   1      47.633  30.853  27.766  1.00  0.00     0.074 A 
ATOM     71  C   UNL A   1      49.022  31.238  27.631  1.00  0.00     0.031 C 
ATOM     72  C   UNL A   1      46.672  31.626  28.325  1.00  0.00     0.034 A 
BRANCH  59  73
ATOM     73  C   UNL A   1      41.045  29.105  28.359  1.00  0.00     0.023 A 
ATOM     74  C   UNL A   1      40.112  29.380  27.342  1.00  0.00     0.012 A 
ATOM     75  C   UNL A   1      40.586  28.872  29.671  1.00  0.00     0.148 A 
ATOM     76  C   UNL A   1      38.749  29.438  27.627  1.00  0.00     0.002 A 
ATOM     77  C   UNL A   1      39.225  28.916  29.947  1.00  0.00     0.091 A 
ATOM     78  F   UNL A   1      41.490  28.598  30.623  1.00  0.00    -0.205 F 
ATOM     79  C   UNL A   1      38.304  29.198  28.926  1.00  0.00     0.022 A 
BRANCH  77  80
ATOM     80  S   UNL A   1      38.554  28.606  31.584  1.00  0.00     0.127 S 
ATOM     81  O   UNL A   1      37.137  28.904  31.374  1.00  0.00    -0.237 OA
ATOM     82  O   UNL A   1      38.862  27.190  31.780  1.00  0.00    -0.237 OA
ATOM     83  O   UNL A   1      39.248  29.517  32.482  1.00  0.00    -0.744 OA
ENDBRANCH  77  80
ENDBRANCH  59  73
BRANCH  60  84
ATOM     84  C   UNL A   1      50.579  27.771  25.765  1.00  0.00     0.023 A 
ATOM     85  C   UNL A   1      51.483  27.403  26.780  1.00  0.00     0.012 A 
ATOM     86  C   UNL A   1      51.014  27.806  24.426  1.00  0.00     0.148 A 
ATOM     87  C   UNL A   1      52.802  27.076  26.467  1.00  0.00     0.002 A 
ATOM     88  C   UNL A   1      52.318  27.443  24.117  1.00  0.00     0.091 A 
ATOM     89  F   UNL A   1      50.126  28.152  23.483  1.00  0.00    -0.205 F 
ATOM     90  C   UNL A   1      53.216  27.085  25.136  1.00  0.00     0.022 A 
BRANCH  88  91
ATOM     91  S   UNL A   1      52.917  27.326  22.429  1.00  0.00     0.127 S 
ATOM     92  O   UNL A   1      51.736  26.826  21.729  1.00  0.00    -0.237 OA
ATOM     93  O   UNL A   1      53.261  28.718  22.140  1.00  0.00    -0.237 OA
ATOM     94  O   UNL A   1      54.050  26.413  22.471  1.00  0.00    -0.744 OA
ENDBRANCH  88  91
ENDBRANCH  60  84
BRANCH  72  95
ATOM     95  C   UNL A   1      47.067  32.977  28.854  1.00  0.00     0.023 A 
ATOM     96  C   UNL A   1      47.594  33.084  30.155  1.00  0.00     0.012 A 
ATOM     97  C   UNL A   1      47.036  34.112  28.020  1.00  0.00     0.148 A 
ATOM     98  C   UNL A   1      48.082  34.305  30.622  1.00  0.00     0.002 A 
ATOM     99  C   UNL A   1      47.551  35.317  28.481  1.00  0.00     0.091 A 
ATOM    100  F   UNL A   1      46.522  33.984  26.788  1.00  0.00    -0.205 F 
ATOM    101  C   UNL A   1      48.072  35.416  29.782  1.00  0.00     0.022 A 
BRANCH  99 102
ATOM    102  S   UNL A   1      47.644  36.790  27.456  1.00  0.00     0.127 S 
ATOM    103  O   UNL A   1      46.250  36.957  27.048  1.00  0.00    -0.237 OA
ATOM    104  O   UNL A   1      48.129  37.794  28.402  1.00  0.00    -0.237 OA
ATOM    105  O   UNL A   1      48.569  36.474  26.375  1.00  0.00    -0.744 OA
ENDBRANCH  99 102
ENDBRANCH  72  95
ENDBRANCH  46  47
ENDBRANCH  39  41
ENDBRANCH  38  39
ENDBRANCH  37  38
ENDBRANCH  36  37
ENDBRANCH  35  36
ENDBRANCH  34  35
ENDBRANCH   1  34
TORSDOF 26
ENDMDL
MODEL 2
REMARK VINA RESULT:      -9.3      1.555      7.289
REMARK SMILES CC[C@H](C)[C@H](NC(=O)[C@H](C(C)C)n1c(=O)[nH]c2ccccc2c1=O)C(=O)OCCOCCOCCOC(=O)c1ccc(-c2c3nc(c(-c4cccc(S(=O)(=O)[O-])c4F)c4ccc([nH]4)c(-c4cccc(S(=O)(=O)[O-])c4F)c4nc(c(-c5cccc(S(=O)(=O)[O-])c5F)c5ccc2[nH]5)C=C4)C=C3)cc1
REMARK SMILES IDX 31 1 30 2 29 3 28 4 27 5 25 6 26 7 5 8 3 9 4 10 2 11 1 12
REMARK SMILES IDX 6 13 7 14 8 16 9 17 13 18 14 19 23 20 15 21 16 22 22 23
REMARK SMILES IDX 24 24 17 25 21 27 18 28 20 29 19 30 10 31 11 32 12 33 32 34
REMARK SMILES IDX 33 35 34 36 35 37 36 38 37 39 38 40 39 41 40 42 101 43 41 44
REMARK SMILES IDX 100 45 42 46 43 47 44 48 94 49 45 50 99 51 93 52 95 53 46 54
REMARK SMILES IDX 98 55 92 56 91 57 47 59 79 60 59 61 78 62 60 63 63 64 77 65
REMARK SMILES IDX 96 66 61 67 62 68 76 70 97 71 64 72 48 73 49 74 57 75 50 76
REMARK SMILES IDX 52 77 58 78 51 79 53 80 54 81 55 82 56 83 80 84 81 85 89 86
REMARK SMILES IDX 82 87 84 88 90 89 83 90 85 91 86 92 87 93 88 94 65 95 66 96
REMARK SMILES IDX 74 97 67 98 69 99 75 100 68 101 70 102 71 103 72 104 73 105
REMARK H PARENT 6 15 16 26 95 58 63 69
REMARK Flexibility Score: inf
ROOT
ATOM      1  C   UNL A   1      39.864  21.120  26.448  1.00  0.00     0.188 C 
ENDROOT
BRANCH   1   2
ATOM      2  O   UNL A   1      39.279  22.316  25.986  1.00  0.00    -0.376 OA
BRANCH   2   3
ATOM      3  C   UNL A   1      37.883  22.353  25.758  1.00  0.00     0.202 C 
BRANCH   3   4
ATOM      4  C   UNL A   1      37.036  23.642  25.697  1.00  0.00     0.261 C 
BRANCH   4   5
ATOM      5  O   UNL A   1      35.954  23.731  24.758  1.00  0.00    -0.462 OA
BRANCH   5   6
ATOM      6  C   UNL A   1      34.716  23.789  25.319  1.00  0.00     0.328 C 
ATOM      7  O   UNL A   1      34.448  23.317  26.421  1.00  0.00    -0.250 OA
BRANCH   6   8
ATOM      8  C   UNL A   1      33.616  24.290  24.360  1.00  0.00     0.195 C 
BRANCH   8   9
ATOM      9  C   UNL A   1      33.089  23.013  23.633  1.00  0.00     0.019 C 
ATOM     10  C   UNL A   1      33.273  23.202  22.114  1.00  0.00     0.010 C 
BRANCH   9  11
ATOM     11  C   UNL A   1      33.636  21.643  24.111  1.00  0.00     0.002 C 
ATOM     12  C   UNL A   1      32.529  20.711  24.581  1.00  0.00     0.004 C 
ENDBRANCH   9  11
ENDBRANCH   8   9
BRANCH   8  13
ATOM     13  N   UNL A   1      33.881  25.400  23.449  1.00  0.00    -0.341 N 
ATOM     14  C   UNL A   1      33.263  26.642  23.485  1.00  0.00     0.244 C 
ATOM     15  H   UNL A   1      34.558  25.256  22.748  1.00  0.00     0.164 HD
ATOM     16  O   UNL A   1      33.458  27.410  22.543  1.00  0.00    -0.273 OA
BRANCH  14  17
ATOM     17  C   UNL A   1      32.244  26.945  24.639  1.00  0.00     0.187 C 
BRANCH  17  18
ATOM     18  N   UNL A   1      32.573  28.157  25.408  1.00  0.00    -0.247 N 
ATOM     19  C   UNL A   1      33.654  28.071  26.277  1.00  0.00     0.329 A 
ATOM     20  C   UNL A   1      31.732  29.266  25.340  1.00  0.00     0.264 A 
ATOM     21  O   UNL A   1      34.302  27.040  26.462  1.00  0.00    -0.248 OA
ATOM     22  N   UNL A   1      34.009  29.199  26.942  1.00  0.00    -0.307 N 
ATOM     23  C   UNL A   1      32.122  30.450  26.138  1.00  0.00     0.064 A 
ATOM     24  O   UNL A   1      30.719  29.313  24.648  1.00  0.00    -0.268 OA
ATOM     25  C   UNL A   1      33.282  30.380  26.902  1.00  0.00     0.055 A 
ATOM     26  H   UNL A   1      34.829  29.177  27.486  1.00  0.00     0.171 HD
ATOM     27  C   UNL A   1      31.352  31.617  26.146  1.00  0.00     0.016 A 
ATOM     28  C   UNL A   1      33.699  31.463  27.671  1.00  0.00     0.027 A 
ATOM     29  C   UNL A   1      31.750  32.698  26.932  1.00  0.00     0.001 A 
ATOM     30  C   UNL A   1      32.916  32.615  27.695  1.00  0.00     0.002 A 
ENDBRANCH  17  18
BRANCH  17  31
ATOM     31  C   UNL A   1      30.747  26.765  24.248  1.00  0.00     0.016 C 
ATOM     32  C   UNL A   1      30.667  26.074  22.871  1.00  0.00     0.010 C 
ATOM     33  C   UNL A   1      29.934  25.916  25.232  1.00  0.00     0.010 C 
ENDBRANCH  17  31
ENDBRANCH  14  17
ENDBRANCH   8  13
ENDBRANCH   6   8
ENDBRANCH   5   6
ENDBRANCH   4   5
ENDBRANCH   3   4
ENDBRANCH   2   3
ENDBRANCH   1   2
BRANCH   1  34
ATOM     34  C   UNL A   1      41.311  20.919  25.965  1.00  0.00     0.188 C 
BRANCH  34  35
ATOM     35  O   UNL A   1      41.733  19.659  25.467  1.00  0.00    -0.376 OA
BRANCH  35  36
ATOM     36  C   UNL A   1      42.743  18.942  26.170  1.00  0.00     0.202 C 
BRANCH  36  37
ATOM     37  C   UNL A   1      44.020  18.384  25.500  1.00  0.00     0.261 C 
BRANCH  37  38
ATOM     38  O   UNL A   1      45.090  19.305  25.261  1.00  0.00    -0.460 OA
BRANCH  38  39
ATOM     39  C   UNL A   1      44.883  20.209  24.259  1.00  0.00     0.338 C 
ATOM     40  O   UNL A   1      44.504  19.979  23.137  1.00  0.00    -0.246 OA
BRANCH  39  41
ATOM     41  C   UNL A   1      44.975  21.564  24.863  1.00  0.00     0.060 A 
ATOM     42  C   UNL A   1      45.316  21.721  26.205  1.00  0.00     0.016 A 
ATOM     43  C   UNL A   1      44.653  22.682  24.077  1.00  0.00     0.016 A 
ATOM     44  C   UNL A   1      45.356  23.005  26.754  1.00  0.00     0.010 A 
ATOM     45  C   UNL A   1      44.657  23.961  24.638  1.00  0.00     0.010 A 
ATOM     46  C   UNL A   1      45.036  24.133  25.976  1.00  0.00    -0.014 A 
BRANCH  46  47
ATOM     47  C   UNL A   1      45.322  25.489  26.504  1.00  0.00     0.031 A 
ATOM     48  C   UNL A   1      46.670  26.132  26.403  1.00  0.00     0.074 A 
ATOM     49  C   UNL A   1      44.298  26.150  27.076  1.00  0.00     0.049 A 
ATOM     50  N   UNL A   1      47.025  27.340  26.760  1.00  0.00    -0.248 NA
ATOM     51  C   UNL A   1      47.761  25.326  25.839  1.00  0.00     0.031 C 
ATOM     52  C   UNL A   1      42.949  25.606  27.254  1.00  0.00     0.029 A 
ATOM     53  N   UNL A   1      44.221  27.416  27.593  1.00  0.00    -0.354 N 
ATOM     54  C   UNL A   1      48.382  27.441  26.488  1.00  0.00     0.074 A 
ATOM     55  C   UNL A   1      48.785  26.170  25.920  1.00  0.00     0.031 C 
ATOM     56  C   UNL A   1      42.167  26.547  27.802  1.00  0.00     0.029 A 
ATOM     57  C   UNL A   1      42.962  27.749  28.033  1.00  0.00     0.049 A 
ATOM     58  H   UNL A   1      44.991  28.027  27.646  1.00  0.00     0.167 HD
ATOM     59  C   UNL A   1      49.207  28.495  26.701  1.00  0.00     0.034 A 
ATOM     60  C   UNL A   1      42.489  28.900  28.549  1.00  0.00     0.034 A 
ATOM     61  C   UNL A   1      48.785  29.768  27.230  1.00  0.00     0.049 A 
ATOM     62  C   UNL A   1      43.404  30.078  28.691  1.00  0.00     0.074 A 
ATOM     63  C   UNL A   1      49.547  30.908  27.429  1.00  0.00     0.029 A 
ATOM     64  N   UNL A   1      47.495  30.079  27.632  1.00  0.00    -0.354 N 
ATOM     65  N   UNL A   1      44.671  30.173  28.370  1.00  0.00    -0.248 NA
ATOM     66  C   UNL A   1      42.826  31.312  29.240  1.00  0.00     0.031 C 
ATOM     67  C   UNL A   1      48.721  31.905  27.954  1.00  0.00     0.029 A 
ATOM     68  C   UNL A   1      47.439  31.393  28.065  1.00  0.00     0.049 A 
ATOM     69  H   UNL A   1      46.733  29.457  27.613  1.00  0.00     0.167 HD
ATOM     70  C   UNL A   1      45.039  31.480  28.662  1.00  0.00     0.074 A 
ATOM     71  C   UNL A   1      43.857  32.145  29.171  1.00  0.00     0.031 C 
ATOM     72  C   UNL A   1      46.253  32.064  28.533  1.00  0.00     0.034 A 
BRANCH  59  73
ATOM     73  C   UNL A   1      50.663  28.358  26.334  1.00  0.00     0.023 A 
ATOM     74  C   UNL A   1      51.098  28.764  25.058  1.00  0.00     0.012 A 
ATOM     75  C   UNL A   1      51.615  27.953  27.291  1.00  0.00     0.148 A 
ATOM     76  C   UNL A   1      52.455  28.754  24.736  1.00  0.00     0.002 A 
ATOM     77  C   UNL A   1      52.967  27.959  26.969  1.00  0.00     0.091 A 
ATOM     78  F   UNL A   1      51.182  27.583  28.504  1.00  0.00    -0.205 F 
ATOM     79  C   UNL A   1      53.389  28.360  25.692  1.00  0.00     0.022 A 
BRANCH  77  80
ATOM     80  S   UNL A   1      54.247  27.485  28.137  1.00  0.00     0.127 S 
ATOM     81  O   UNL A   1      55.458  27.755  27.360  1.00  0.00    -0.237 OA
ATOM     82  O   UNL A   1      54.010  28.409  29.245  1.00  0.00    -0.237 OA
ATOM     83  O   UNL A   1      54.012  26.081  28.443  1.00  0.00    -0.744 OA
ENDBRANCH  77  80
ENDBRANCH  59  73
BRANCH  60  84
ATOM     84  C   UNL A   1      41.044  28.993  28.877  1.00  0.00     0.023 A 
ATOM     85  C   UNL A   1      40.101  29.009  27.832  1.00  0.00     0.012 A 
ATOM     86  C   UNL A   1      40.600  28.958  30.213  1.00  0.00     0.148 A 
ATOM     87  C   UNL A   1      38.735  28.989  28.112  1.00  0.00     0.002 A 
ATOM     88  C   UNL A   1      39.240  28.901  30.484  1.00  0.00     0.091 A 
ATOM     89  F   UNL A   1      41.524  28.935  31.184  1.00  0.00    -0.205 F 
ATOM     90  C   UNL A   1      38.305  28.925  29.435  1.00  0.00     0.022 A 
BRANCH  88  91
ATOM     91  S   UNL A   1      38.589  28.715  32.147  1.00  0.00     0.127 S 
ATOM     92  O   UNL A   1      39.120  29.905  32.807  1.00  0.00    -0.237 OA
ATOM     93  O   UNL A   1      37.147  28.735  31.905  1.00  0.00    -0.237 OA
ATOM     94  O   UNL A   1      39.109  27.447  32.637  1.00  0.00    -0.744 OA
ENDBRANCH  88  91
ENDBRANCH  60  84
BRANCH  72  95
ATOM     95  C   UNL A   1      46.394  33.506  28.936  1.00  0.00     0.023 A 
ATOM     96  C   UNL A   1      46.683  33.825  30.276  1.00  0.00     0.012 A 
ATOM     97  C   UNL A   1      46.368  34.528  27.966  1.00  0.00     0.148 A 
ATOM     98  C   UNL A   1      46.940  35.145  30.648  1.00  0.00     0.002 A 
ATOM     99  C   UNL A   1      46.655  35.836  28.339  1.00  0.00     0.091 A 
ATOM    100  F   UNL A   1      46.084  34.197  26.698  1.00  0.00    -0.205 F 
ATOM    101  C   UNL A   1      46.939  36.146  29.679  1.00  0.00     0.022 A 
BRANCH  99 102
ATOM    102  S   UNL A   1      46.743  37.186  27.156  1.00  0.00     0.127 S 
ATOM    103  O   UNL A   1      45.348  37.303  26.735  1.00  0.00    -0.237 OA
ATOM    104  O   UNL A   1      47.226  38.290  27.986  1.00  0.00    -0.237 OA
ATOM    105  O   UNL A   1      47.668  36.755  26.116  1.00  0.00    -0.744 OA
ENDBRANCH  99 102
ENDBRANCH  72  95
ENDBRANCH  46  47
ENDBRANCH  39  41
ENDBRANCH  38  39
ENDBRANCH  37  38
ENDBRANCH  36  37
ENDBRANCH  35  36
ENDBRANCH  34  35
ENDBRANCH   1  34
TORSDOF 26
ENDMDL
MODEL 3
REMARK VINA RESULT:      -9.2      2.923      8.415
REMARK SMILES CC[C@H](C)[C@H](NC(=O)[C@H](C(C)C)n1c(=O)[nH]c2ccccc2c1=O)C(=O)OCCOCCOCCOC(=O)c1ccc(-c2c3nc(c(-c4cccc(S(=O)(=O)[O-])c4F)c4ccc([nH]4)c(-c4cccc(S(=O)(=O)[O-])c4F)c4nc(c(-c5cccc(S(=O)(=O)[O-])c5F)c5ccc2[nH]5)C=C4)C=C3)cc1
REMARK SMILES IDX 31 1 30 2 29 3 28 4 27 5 25 6 26 7 5 8 3 9 4 10 2 11 1 12
REMARK SMILES IDX 6 13 7 14 8 16 9 17 13 18 14 19 23 20 15 21 16 22 22 23
REMARK SMILES IDX 24 24 17 25 21 27 18 28 20 29 19 30 10 31 11 32 12 33 32 34
REMARK SMILES IDX 33 35 34 36 35 37 36 38 37 39 38 40 39 41 40 42 101 43 41 44
REMARK SMILES IDX 100 45 42 46 43 47 44 48 94 49 45 50 99 51 93 52 95 53 46 54
REMARK SMILES IDX 98 55 92 56 91 57 47 59 79 60 59 61 78 62 60 63 63 64 77 65
REMARK SMILES IDX 96 66 61 67 62 68 76 70 97 71 64 72 48 73 49 74 57 75 50 76
REMARK SMILES IDX 52 77 58 78 51 79 53 80 54 81 55 82 56 83 80 84 81 85 89 86
REMARK SMILES IDX 82 87 84 88 90 89 83 90 85 91 86 92 87 93 88 94 65 95 66 96
REMARK SMILES IDX 74 97 67 98 69 99 75 100 68 101 70 102 71 103 72 104 73 105
REMARK H PARENT 6 15 16 26 95 58 63 69
REMARK Flexibility Score: inf
ROOT
ATOM      1  C   UNL A   1      33.148  21.698  26.165  1.00  0.00     0.188 C 
ENDROOT
BRANCH   1   2
ATOM      2  O   UNL A   1      31.832  21.655  25.663  1.00  0.00    -0.376 OA
BRANCH   2   3
ATOM      3  C   UNL A   1      31.047  22.832  25.692  1.00  0.00     0.202 C 
BRANCH   3   4
ATOM      4  C   UNL A   1      31.354  24.073  26.557  1.00  0.00     0.261 C 
BRANCH   4   5
ATOM      5  O   UNL A   1      31.818  25.275  25.925  1.00  0.00    -0.462 OA
BRANCH   5   6
ATOM      6  C   UNL A   1      33.168  25.444  25.944  1.00  0.00     0.328 C 
ATOM      7  O   UNL A   1      33.957  24.570  26.297  1.00  0.00    -0.250 OA
BRANCH   6   8
ATOM      8  C   UNL A   1      33.621  26.900  25.709  1.00  0.00     0.195 C 
BRANCH   8   9
ATOM      9  C   UNL A   1      32.352  27.773  25.961  1.00  0.00     0.019 C 
ATOM     10  C   UNL A   1      31.885  27.551  27.414  1.00  0.00     0.010 C 
BRANCH   9  11
ATOM     11  C   UNL A   1      32.443  29.281  25.612  1.00  0.00     0.002 C 
ATOM     12  C   UNL A   1      33.478  30.009  26.457  1.00  0.00     0.004 C 
ENDBRANCH   9  11
ENDBRANCH   8   9
BRANCH   8  13
ATOM     13  N   UNL A   1      34.333  27.263  24.487  1.00  0.00    -0.341 N 
ATOM     14  C   UNL A   1      33.851  27.113  23.194  1.00  0.00     0.244 C 
ATOM     15  H   UNL A   1      35.234  27.647  24.588  1.00  0.00     0.164 HD
ATOM     16  O   UNL A   1      34.635  27.293  22.262  1.00  0.00    -0.273 OA
BRANCH  14  17
ATOM     17  C   UNL A   1      32.387  26.588  22.991  1.00  0.00     0.187 C 
BRANCH  17  18
ATOM     18  N   UNL A   1      31.403  27.663  22.774  1.00  0.00    -0.247 N 
ATOM     19  C   UNL A   1      31.899  28.883  22.329  1.00  0.00     0.329 A 
ATOM     20  C   UNL A   1      30.073  27.465  23.139  1.00  0.00     0.264 A 
ATOM     21  O   UNL A   1      33.098  29.112  22.161  1.00  0.00    -0.248 OA
ATOM     22  N   UNL A   1      30.998  29.861  22.062  1.00  0.00    -0.307 N 
ATOM     23  C   UNL A   1      29.139  28.586  22.892  1.00  0.00     0.064 A 
ATOM     24  O   UNL A   1      29.647  26.421  23.624  1.00  0.00    -0.268 OA
ATOM     25  C   UNL A   1      29.641  29.754  22.327  1.00  0.00     0.055 A 
ATOM     26  H   UNL A   1      31.327  30.696  21.657  1.00  0.00     0.171 HD
ATOM     27  C   UNL A   1      27.783  28.498  23.221  1.00  0.00     0.016 A 
ATOM     28  C   UNL A   1      28.808  30.840  22.072  1.00  0.00     0.027 A 
ATOM     29  C   UNL A   1      26.948  29.591  22.990  1.00  0.00     0.001 A 
ATOM     30  C   UNL A   1      27.463  30.757  22.423  1.00  0.00     0.002 A 
ENDBRANCH  17  18
BRANCH  17  31
ATOM     31  C   UNL A   1      32.265  25.348  22.056  1.00  0.00     0.016 C 
ATOM     32  C   UNL A   1      32.597  25.774  20.611  1.00  0.00     0.010 C 
ATOM     33  C   UNL A   1      33.203  24.190  22.417  1.00  0.00     0.010 C 
ENDBRANCH  17  31
ENDBRANCH  14  17
ENDBRANCH   8  13
ENDBRANCH   6   8
ENDBRANCH   5   6
ENDBRANCH   4   5
ENDBRANCH   3   4
ENDBRANCH   2   3
ENDBRANCH   1   2
BRANCH   1  34
ATOM     34  C   UNL A   1      34.187  21.078  25.215  1.00  0.00     0.188 C 
BRANCH  34  35
ATOM     35  O   UNL A   1      34.732  21.842  24.152  1.00  0.00    -0.376 OA
BRANCH  35  36
ATOM     36  C   UNL A   1      36.133  22.103  24.136  1.00  0.00     0.202 C 
BRANCH  36  37
ATOM     37  C   UNL A   1      37.196  21.096  24.633  1.00  0.00     0.261 C 
BRANCH  37  38
ATOM     38  O   UNL A   1      37.698  21.275  25.962  1.00  0.00    -0.460 OA
BRANCH  38  39
ATOM     39  C   UNL A   1      39.040  21.083  26.120  1.00  0.00     0.338 C 
ATOM     40  O   UNL A   1      39.690  20.137  25.746  1.00  0.00    -0.246 OA
BRANCH  39  41
ATOM     41  C   UNL A   1      39.612  22.358  26.624  1.00  0.00     0.060 A 
ATOM     42  C   UNL A   1      40.604  22.354  27.603  1.00  0.00     0.016 A 
ATOM     43  C   UNL A   1      39.094  23.572  26.145  1.00  0.00     0.016 A 
ATOM     44  C   UNL A   1      41.094  23.570  28.086  1.00  0.00     0.010 A 
ATOM     45  C   UNL A   1      39.559  24.787  26.656  1.00  0.00     0.010 A 
ATOM     46  C   UNL A   1      40.583  24.793  27.612  1.00  0.00    -0.014 A 
BRANCH  46  47
ATOM     47  C   UNL A   1      41.281  26.056  27.951  1.00  0.00     0.031 A 
ATOM     48  C   UNL A   1      42.670  26.367  27.484  1.00  0.00     0.074 A 
ATOM     49  C   UNL A   1      40.604  26.947  28.699  1.00  0.00     0.049 A 
ATOM     50  N   UNL A   1      43.358  27.468  27.652  1.00  0.00    -0.248 NA
ATOM     51  C   UNL A   1      43.381  25.320  26.739  1.00  0.00     0.031 C 
ATOM     52  C   UNL A   1      39.256  26.733  29.234  1.00  0.00     0.029 A 
ATOM     53  N   UNL A   1      40.938  28.207  29.121  1.00  0.00    -0.354 N 
ATOM     54  C   UNL A   1      44.592  27.247  27.058  1.00  0.00     0.074 A 
ATOM     55  C   UNL A   1      44.553  25.905  26.510  1.00  0.00     0.031 C 
ATOM     56  C   UNL A   1      38.862  27.840  29.878  1.00  0.00     0.029 A 
ATOM     57  C   UNL A   1      39.933  28.831  29.821  1.00  0.00     0.049 A 
ATOM     58  H   UNL A   1      41.811  28.624  28.942  1.00  0.00     0.167 HD
ATOM     59  C   UNL A   1      45.656  28.086  26.988  1.00  0.00     0.034 A 
ATOM     60  C   UNL A   1      39.867  30.070  30.345  1.00  0.00     0.034 A 
ATOM     61  C   UNL A   1      45.668  29.432  27.503  1.00  0.00     0.049 A 
ATOM     62  C   UNL A   1      41.024  31.006  30.175  1.00  0.00     0.074 A 
ATOM     63  C   UNL A   1      46.686  30.368  27.427  1.00  0.00     0.029 A 
ATOM     64  N   UNL A   1      44.619  30.040  28.176  1.00  0.00    -0.354 N 
ATOM     65  N   UNL A   1      42.159  30.800  29.555  1.00  0.00    -0.248 NA
ATOM     66  C   UNL A   1      40.886  32.352  30.749  1.00  0.00     0.031 C 
ATOM     67  C   UNL A   1      46.256  31.539  28.056  1.00  0.00     0.029 A 
ATOM     68  C   UNL A   1      44.962  31.341  28.508  1.00  0.00     0.049 A 
ATOM     69  H   UNL A   1      43.759  29.611  28.386  1.00  0.00     0.167 HD
ATOM     70  C   UNL A   1      42.866  31.991  29.651  1.00  0.00     0.074 A 
ATOM     71  C   UNL A   1      42.024  32.922  30.373  1.00  0.00     0.031 C 
ATOM     72  C   UNL A   1      44.108  32.276  29.192  1.00  0.00     0.034 A 
BRANCH  59  73
ATOM     73  C   UNL A   1      46.907  27.608  26.296  1.00  0.00     0.023 A 
ATOM     74  C   UNL A   1      47.043  27.785  24.906  1.00  0.00     0.012 A 
ATOM     75  C   UNL A   1      47.997  27.107  27.037  1.00  0.00     0.148 A 
ATOM     76  C   UNL A   1      48.235  27.457  24.263  1.00  0.00     0.002 A 
ATOM     77  C   UNL A   1      49.188  26.795  26.393  1.00  0.00     0.091 A 
ATOM     78  F   UNL A   1      47.851  26.957  28.361  1.00  0.00    -0.205 F 
ATOM     79  C   UNL A   1      49.310  26.970  25.006  1.00  0.00     0.022 A 
BRANCH  77  80
ATOM     80  S   UNL A   1      50.632  26.178  27.264  1.00  0.00     0.127 S 
ATOM     81  O   UNL A   1      50.364  24.739  27.280  1.00  0.00    -0.237 OA
ATOM     82  O   UNL A   1      51.724  26.591  26.384  1.00  0.00    -0.237 OA
ATOM     83  O   UNL A   1      50.618  26.820  28.571  1.00  0.00    -0.744 OA
ENDBRANCH  77  80
ENDBRANCH  59  73
BRANCH  60  84
ATOM     84  C   UNL A   1      38.606  30.501  31.000  1.00  0.00     0.023 A 
ATOM     85  C   UNL A   1      38.466  30.345  32.392  1.00  0.00     0.012 A 
ATOM     86  C   UNL A   1      37.598  31.160  30.269  1.00  0.00     0.148 A 
ATOM     87  C   UNL A   1      37.338  30.836  33.048  1.00  0.00     0.002 A 
ATOM     88  C   UNL A   1      36.496  31.679  30.934  1.00  0.00     0.091 A 
ATOM     89  F   UNL A   1      37.766  31.300  28.947  1.00  0.00    -0.205 F 
ATOM     90  C   UNL A   1      36.360  31.512  32.322  1.00  0.00     0.022 A 
BRANCH  88  91
ATOM     91  S   UNL A   1      35.234  32.651  30.106  1.00  0.00     0.127 S 
ATOM     92  O   UNL A   1      34.274  32.872  31.185  1.00  0.00    -0.237 OA
ATOM     93  O   UNL A   1      35.990  33.835  29.701  1.00  0.00    -0.237 OA
ATOM     94  O   UNL A   1      34.755  31.826  29.006  1.00  0.00    -0.744 OA
ENDBRANCH  88  91
ENDBRANCH  60  84
BRANCH  72  95
ATOM     95  C   UNL A   1      44.657  33.654  29.438  1.00  0.00     0.023 A 
ATOM     96  C   UNL A   1      45.334  33.925  30.643  1.00  0.00     0.012 A 
ATOM     97  C   UNL A   1      44.615  34.635  28.427  1.00  0.00     0.148 A 
ATOM     98  C   UNL A   1      45.958  35.157  30.841  1.00  0.00     0.002 A 
ATOM     99  C   UNL A   1      45.265  35.848  28.620  1.00  0.00     0.091 A 
ATOM    100  F   UNL A   1      43.958  34.354  27.293  1.00  0.00    -0.205 F 
ATOM    101  C   UNL A   1      45.935  36.111  29.827  1.00  0.00     0.022 A 
BRANCH  99 102
ATOM    102  S   UNL A   1      45.350  37.118  27.351  1.00  0.00     0.127 S 
ATOM    103  O   UNL A   1      46.168  38.138  28.006  1.00  0.00    -0.237 OA
ATOM    104  O   UNL A   1      46.013  36.413  26.255  1.00  0.00    -0.237 OA
ATOM    105  O   UNL A   1      43.973  37.511  27.079  1.00  0.00    -0.744 OA
ENDBRANCH  99 102
ENDBRANCH  72  95
ENDBRANCH  46  47
ENDBRANCH  39  41
ENDBRANCH  38  39
ENDBRANCH  37  38
ENDBRANCH  36  37
ENDBRANCH  35  36
ENDBRANCH  34  35
ENDBRANCH   1  34
TORSDOF 26
ENDMDL
