MODEL 1
REMARK VINA RESULT:     -11.0      0.000      0.000
REMARK SMILES O=C(OCCOCCOCCOC(=O)c1ccc(-n2cnc3ccccc32)nc1)c1ccc(-c2c3nc(c(-c4cccc(S(=O)(=O)[O-])c4F)c4ccc([nH]4)c(-c4cccc(S(=O)(=O)[O-])c4F)c4nc(c(-c5cccc(S(=O)(=O)[O-])c5F)c5ccc2[nH]5)C=C4)C=C3)cc1
REMARK SMILES IDX 7 1 6 2 5 3 4 4 3 5 2 6 1 7 30 8 31 9 92 10 32 11 91 12
REMARK SMILES IDX 33 13 34 14 35 15 85 16 36 17 90 18 84 19 86 20 37 21 89 22
REMARK SMILES IDX 83 23 82 24 38 26 70 27 50 28 69 29 51 30 54 31 68 32 87 33
REMARK SMILES IDX 52 34 53 35 67 37 88 38 55 39 39 40 40 41 48 42 41 43 43 44
REMARK SMILES IDX 49 45 42 46 44 47 45 48 46 49 47 50 71 51 72 52 80 53 73 54
REMARK SMILES IDX 75 55 81 56 74 57 76 58 77 59 78 60 79 61 56 62 57 63 65 64
REMARK SMILES IDX 58 65 60 66 66 67 59 68 61 69 62 70 63 71 64 72 8 73 9 74
REMARK SMILES IDX 10 75 11 76 12 77 13 78 14 79 15 80 16 81 29 82 17 83 28 84
REMARK SMILES IDX 18 85 19 86 20 87 27 88 21 89 22 90 26 91 23 92 25 93 24 94
REMARK H PARENT 86 25 54 36
REMARK Flexibility Score: inf
ROOT
ATOM      1  C   UNL A   1      37.060  21.890  25.507  1.00  0.00     0.188 C 
ENDROOT
BRANCH   1   2
ATOM      2  O   UNL A   1      37.081  20.937  24.456  1.00  0.00    -0.376 OA
BRANCH   2   3
ATOM      3  C   UNL A   1      37.802  19.748  24.753  1.00  0.00     0.202 C 
BRANCH   3   4
ATOM      4  C   UNL A   1      39.032  19.913  25.658  1.00  0.00     0.261 C 
BRANCH   4   5
ATOM      5  O   UNL A   1      40.177  19.036  25.491  1.00  0.00    -0.460 OA
BRANCH   5   6
ATOM      6  C   UNL A   1      41.468  19.191  25.873  1.00  0.00     0.338 C 
ATOM      7  O   UNL A   1      42.268  18.267  25.768  1.00  0.00    -0.246 OA
BRANCH   6   8
ATOM      8  C   UNL A   1      41.855  20.438  26.553  1.00  0.00     0.060 A 
ATOM      9  C   UNL A   1      41.462  20.588  27.880  1.00  0.00     0.016 A 
ATOM     10  C   UNL A   1      42.478  21.494  25.882  1.00  0.00     0.016 A 
ATOM     11  C   UNL A   1      41.530  21.848  28.454  1.00  0.00     0.010 A 
ATOM     12  C   UNL A   1      42.444  22.778  26.431  1.00  0.00     0.010 A 
ATOM     13  C   UNL A   1      41.914  22.973  27.706  1.00  0.00    -0.014 A 
BRANCH  13  14
ATOM     14  C   UNL A   1      42.198  24.211  28.449  1.00  0.00     0.031 A 
ATOM     15  C   UNL A   1      41.156  25.209  28.098  1.00  0.00     0.074 A 
ATOM     16  C   UNL A   1      43.159  24.489  29.363  1.00  0.00     0.049 A 
ATOM     17  N   UNL A   1      41.325  26.258  27.359  1.00  0.00    -0.248 NA
ATOM     18  C   UNL A   1      39.745  24.869  28.362  1.00  0.00     0.031 C 
ATOM     19  C   UNL A   1      44.189  23.604  29.896  1.00  0.00     0.029 A 
ATOM     20  N   UNL A   1      43.381  25.637  30.092  1.00  0.00    -0.354 N 
ATOM     21  C   UNL A   1      40.076  26.859  27.347  1.00  0.00     0.074 A 
ATOM     22  C   UNL A   1      39.114  25.860  27.734  1.00  0.00     0.031 C 
ATOM     23  C   UNL A   1      44.754  24.132  30.995  1.00  0.00     0.029 A 
ATOM     24  C   UNL A   1      44.213  25.446  31.197  1.00  0.00     0.049 A 
ATOM     25  H   UNL A   1      42.989  26.509  29.856  1.00  0.00     0.167 HD
ATOM     26  C   UNL A   1      39.972  28.207  27.457  1.00  0.00     0.034 A 
ATOM     27  C   UNL A   1      44.541  26.283  32.208  1.00  0.00     0.034 A 
ATOM     28  C   UNL A   1      41.193  28.889  27.155  1.00  0.00     0.049 A 
ATOM     29  C   UNL A   1      44.404  27.645  31.667  1.00  0.00     0.074 A 
ATOM     30  C   UNL A   1      41.856  29.316  26.029  1.00  0.00     0.029 A 
ATOM     31  N   UNL A   1      42.082  28.911  28.194  1.00  0.00    -0.354 N 
ATOM     32  N   UNL A   1      45.185  28.125  30.736  1.00  0.00    -0.248 NA
ATOM     33  C   UNL A   1      43.170  28.382  31.907  1.00  0.00     0.031 C 
ATOM     34  C   UNL A   1      43.210  29.535  26.417  1.00  0.00     0.029 A 
ATOM     35  C   UNL A   1      43.336  29.258  27.775  1.00  0.00     0.049 A 
ATOM     36  H   UNL A   1      41.849  28.703  29.127  1.00  0.00     0.167 HD
ATOM     37  C   UNL A   1      44.345  28.932  29.996  1.00  0.00     0.074 A 
ATOM     38  C   UNL A   1      43.188  29.189  30.844  1.00  0.00     0.031 C 
ATOM     39  C   UNL A   1      44.471  29.053  28.647  1.00  0.00     0.034 A 
BRANCH  26  40
ATOM     40  C   UNL A   1      38.929  28.822  28.342  1.00  0.00     0.023 A 
ATOM     41  C   UNL A   1      37.992  29.701  27.782  1.00  0.00     0.012 A 
ATOM     42  C   UNL A   1      38.988  28.738  29.755  1.00  0.00     0.148 A 
ATOM     43  C   UNL A   1      37.109  30.419  28.596  1.00  0.00     0.002 A 
ATOM     44  C   UNL A   1      38.045  29.364  30.551  1.00  0.00     0.091 A 
ATOM     45  F   UNL A   1      40.046  28.159  30.339  1.00  0.00    -0.205 F 
ATOM     46  C   UNL A   1      37.110  30.224  29.976  1.00  0.00     0.022 A 
BRANCH  44  47
ATOM     47  S   UNL A   1      37.979  29.059  32.318  1.00  0.00     0.127 S 
ATOM     48  O   UNL A   1      39.164  29.770  32.785  1.00  0.00    -0.237 OA
ATOM     49  O   UNL A   1      36.700  29.671  32.682  1.00  0.00    -0.237 OA
ATOM     50  O   UNL A   1      38.001  27.607  32.452  1.00  0.00    -0.744 OA
ENDBRANCH  44  47
ENDBRANCH  26  40
BRANCH  27  51
ATOM     51  C   UNL A   1      44.898  25.980  33.623  1.00  0.00     0.023 A 
ATOM     52  C   UNL A   1      46.259  25.896  33.984  1.00  0.00     0.012 A 
ATOM     53  C   UNL A   1      43.950  26.047  34.672  1.00  0.00     0.148 A 
ATOM     54  C   UNL A   1      46.663  25.973  35.324  1.00  0.00     0.002 A 
ATOM     55  C   UNL A   1      44.355  26.114  36.004  1.00  0.00     0.091 A 
ATOM     56  F   UNL A   1      42.646  26.138  34.382  1.00  0.00    -0.205 F 
ATOM     57  C   UNL A   1      45.714  26.102  36.333  1.00  0.00     0.022 A 
BRANCH  55  58
ATOM     58  S   UNL A   1      43.160  26.292  37.339  1.00  0.00     0.127 S 
ATOM     59  O   UNL A   1      42.527  27.575  37.027  1.00  0.00    -0.237 OA
ATOM     60  O   UNL A   1      42.307  25.125  37.139  1.00  0.00    -0.237 OA
ATOM     61  O   UNL A   1      43.948  26.306  38.566  1.00  0.00    -0.744 OA
ENDBRANCH  55  58
ENDBRANCH  27  51
BRANCH  39  62
ATOM     62  C   UNL A   1      45.806  28.824  28.015  1.00  0.00     0.023 A 
ATOM     63  C   UNL A   1      46.827  29.790  27.990  1.00  0.00     0.012 A 
ATOM     64  C   UNL A   1      46.084  27.518  27.578  1.00  0.00     0.148 A 
ATOM     65  C   UNL A   1      48.112  29.442  27.554  1.00  0.00     0.002 A 
ATOM     66  C   UNL A   1      47.368  27.166  27.192  1.00  0.00     0.091 A 
ATOM     67  F   UNL A   1      45.083  26.623  27.597  1.00  0.00    -0.205 F 
ATOM     68  C   UNL A   1      48.388  28.127  27.175  1.00  0.00     0.022 A 
BRANCH  66  69
ATOM     69  S   UNL A   1      47.804  25.464  26.830  1.00  0.00     0.127 S 
ATOM     70  O   UNL A   1      49.212  25.580  26.457  1.00  0.00    -0.237 OA
ATOM     71  O   UNL A   1      47.559  24.803  28.113  1.00  0.00    -0.237 OA
ATOM     72  O   UNL A   1      46.910  25.036  25.762  1.00  0.00    -0.744 OA
ENDBRANCH  66  69
ENDBRANCH  39  62
ENDBRANCH  13  14
ENDBRANCH   6   8
ENDBRANCH   5   6
ENDBRANCH   4   5
ENDBRANCH   3   4
ENDBRANCH   2   3
ENDBRANCH   1   2
BRANCH   1  73
ATOM     73  C   UNL A   1      35.672  22.488  25.760  1.00  0.00     0.188 C 
BRANCH  73  74
ATOM     74  O   UNL A   1      34.898  21.920  26.809  1.00  0.00    -0.376 OA
BRANCH  74  75
ATOM     75  C   UNL A   1      33.530  21.677  26.530  1.00  0.00     0.202 C 
BRANCH  75  76
ATOM     76  C   UNL A   1      33.112  21.119  25.160  1.00  0.00     0.261 C 
BRANCH  76  77
ATOM     77  O   UNL A   1      31.893  21.526  24.537  1.00  0.00    -0.460 OA
BRANCH  77  78
ATOM     78  C   UNL A   1      32.068  22.191  23.374  1.00  0.00     0.339 C 
ATOM     79  O   UNL A   1      32.420  21.704  22.309  1.00  0.00    -0.246 OA
BRANCH  78  80
ATOM     80  C   UNL A   1      31.911  23.641  23.567  1.00  0.00     0.078 A 
ATOM     81  C   UNL A   1      30.658  24.142  23.920  1.00  0.00     0.021 A 
ATOM     82  C   UNL A   1      32.946  24.547  23.370  1.00  0.00     0.129 A 
ATOM     83  C   UNL A   1      30.510  25.504  24.150  1.00  0.00     0.048 A 
ATOM     84  N   UNL A   1      32.828  25.891  23.556  1.00  0.00    -0.238 NA
ATOM     85  C   UNL A   1      31.624  26.330  24.017  1.00  0.00     0.138 A 
BRANCH  85  86
ATOM     86  N   UNL A   1      31.545  27.653  24.517  1.00  0.00    -0.283 N 
ATOM     87  C   UNL A   1      30.783  28.675  24.005  1.00  0.00     0.206 A 
ATOM     88  C   UNL A   1      32.349  28.206  25.503  1.00  0.00     0.074 A 
ATOM     89  N   UNL A   1      30.961  29.809  24.653  1.00  0.00    -0.236 NA
ATOM     90  C   UNL A   1      31.956  29.541  25.563  1.00  0.00     0.089 A 
ATOM     91  C   UNL A   1      33.423  27.707  26.260  1.00  0.00     0.029 A 
ATOM     92  C   UNL A   1      32.611  30.409  26.453  1.00  0.00     0.030 A 
ATOM     93  C   UNL A   1      34.080  28.591  27.118  1.00  0.00     0.002 A 
ATOM     94  C   UNL A   1      33.678  29.921  27.221  1.00  0.00     0.002 A 
ENDBRANCH  85  86
ENDBRANCH  78  80
ENDBRANCH  77  78
ENDBRANCH  76  77
ENDBRANCH  75  76
ENDBRANCH  74  75
ENDBRANCH  73  74
ENDBRANCH   1  73
TORSDOF 21
ENDMDL
MODEL 2
REMARK VINA RESULT:     -10.7      4.449      9.726
REMARK SMILES O=C(OCCOCCOCCOC(=O)c1ccc(-n2cnc3ccccc32)nc1)c1ccc(-c2c3nc(c(-c4cccc(S(=O)(=O)[O-])c4F)c4ccc([nH]4)c(-c4cccc(S(=O)(=O)[O-])c4F)c4nc(c(-c5cccc(S(=O)(=O)[O-])c5F)c5ccc2[nH]5)C=C4)C=C3)cc1
REMARK SMILES IDX 7 1 6 2 5 3 4 4 3 5 2 6 1 7 30 8 31 9 92 10 32 11 91 12
REMARK SMILES IDX 33 13 34 14 35 15 85 16 36 17 90 18 84 19 86 20 37 21 89 22
REMARK SMILES IDX 83 23 82 24 38 26 70 27 50 28 69 29 51 30 54 31 68 32 87 33
REMARK SMILES IDX 52 34 53 35 67 37 88 38 55 39 39 40 40 41 48 42 41 43 43 44
REMARK SMILES IDX 49 45 42 46 44 47 45 48 46 49 47 50 71 51 72 52 80 53 73 54
REMARK SMILES IDX 75 55 81 56 74 57 76 58 77 59 78 60 79 61 56 62 57 63 65 64
REMARK SMILES IDX 58 65 60 66 66 67 59 68 61 69 62 70 63 71 64 72 8 73 9 74
REMARK SMILES IDX 10 75 11 76 12 77 13 78 14 79 15 80 16 81 29 82 17 83 28 84
REMARK SMILES IDX 18 85 19 86 20 87 27 88 21 89 22 90 26 91 23 92 25 93 24 94
REMARK H PARENT 86 25 54 36
REMARK Flexibility Score: inf
ROOT
ATOM      1  C   UNL A   1      33.281  29.426  26.874  1.00  0.00     0.188 C 
ENDROOT
BRANCH   1   2
ATOM      2  O   UNL A   1      33.281  30.611  27.654  1.00  0.00    -0.376 OA
BRANCH   2   3
ATOM      3  C   UNL A   1      32.978  31.796  26.929  1.00  0.00     0.202 C 
BRANCH   3   4
ATOM      4  C   UNL A   1      31.899  32.703  27.541  1.00  0.00     0.261 C 
BRANCH   4   5
ATOM      5  O   UNL A   1      32.160  34.121  27.719  1.00  0.00    -0.460 OA
BRANCH   5   6
ATOM      6  C   UNL A   1      32.847  34.774  28.686  1.00  0.00     0.338 C 
ATOM      7  O   UNL A   1      32.399  35.798  29.191  1.00  0.00    -0.246 OA
BRANCH   6   8
ATOM      8  C   UNL A   1      34.209  34.317  29.013  1.00  0.00     0.060 A 
ATOM      9  C   UNL A   1      35.170  34.411  28.009  1.00  0.00     0.016 A 
ATOM     10  C   UNL A   1      34.518  33.695  30.225  1.00  0.00     0.016 A 
ATOM     11  C   UNL A   1      36.361  33.719  28.166  1.00  0.00     0.010 A 
ATOM     12  C   UNL A   1      35.673  32.917  30.329  1.00  0.00     0.010 A 
ATOM     13  C   UNL A   1      36.580  32.879  29.269  1.00  0.00    -0.014 A 
BRANCH  13  14
ATOM     14  C   UNL A   1      37.951  32.388  29.481  1.00  0.00     0.031 A 
ATOM     15  C   UNL A   1      37.958  30.923  29.238  1.00  0.00     0.074 A 
ATOM     16  C   UNL A   1      39.090  33.058  29.777  1.00  0.00     0.049 A 
ATOM     17  N   UNL A   1      38.071  30.002  30.140  1.00  0.00    -0.248 NA
ATOM     18  C   UNL A   1      37.530  30.431  27.914  1.00  0.00     0.031 C 
ATOM     19  C   UNL A   1      39.282  34.495  29.945  1.00  0.00     0.029 A 
ATOM     20  N   UNL A   1      40.380  32.591  29.918  1.00  0.00    -0.354 N 
ATOM     21  C   UNL A   1      38.038  28.821  29.415  1.00  0.00     0.074 A 
ATOM     22  C   UNL A   1      37.450  29.120  28.135  1.00  0.00     0.031 C 
ATOM     23  C   UNL A   1      40.588  34.810  29.924  1.00  0.00     0.029 A 
ATOM     24  C   UNL A   1      41.349  33.595  29.849  1.00  0.00     0.049 A 
ATOM     25  H   UNL A   1      40.596  31.641  30.054  1.00  0.00     0.167 HD
ATOM     26  C   UNL A   1      38.881  27.808  29.731  1.00  0.00     0.034 A 
ATOM     27  C   UNL A   1      42.698  33.516  29.805  1.00  0.00     0.034 A 
ATOM     28  C   UNL A   1      39.425  27.923  31.050  1.00  0.00     0.049 A 
ATOM     29  C   UNL A   1      43.051  32.251  30.472  1.00  0.00     0.074 A 
ATOM     30  C   UNL A   1      39.032  27.619  32.331  1.00  0.00     0.029 A 
ATOM     31  N   UNL A   1      40.487  28.781  31.134  1.00  0.00    -0.354 N 
ATOM     32  N   UNL A   1      42.871  32.044  31.749  1.00  0.00    -0.248 NA
ATOM     33  C   UNL A   1      43.291  31.065  29.661  1.00  0.00     0.031 C 
ATOM     34  C   UNL A   1      39.861  28.386  33.201  1.00  0.00     0.029 A 
ATOM     35  C   UNL A   1      40.755  29.123  32.430  1.00  0.00     0.049 A 
ATOM     36  H   UNL A   1      40.994  29.113  30.358  1.00  0.00     0.167 HD
ATOM     37  C   UNL A   1      42.536  30.707  31.814  1.00  0.00     0.074 A 
ATOM     38  C   UNL A   1      42.973  30.124  30.552  1.00  0.00     0.031 C 
ATOM     39  C   UNL A   1      41.632  30.236  32.715  1.00  0.00     0.034 A 
BRANCH  26  40
ATOM     40  C   UNL A   1      39.592  27.041  28.656  1.00  0.00     0.023 A 
ATOM     41  C   UNL A   1      39.388  25.658  28.557  1.00  0.00     0.012 A 
ATOM     42  C   UNL A   1      40.633  27.608  27.882  1.00  0.00     0.148 A 
ATOM     43  C   UNL A   1      40.153  24.884  27.677  1.00  0.00     0.002 A 
ATOM     44  C   UNL A   1      41.312  26.862  26.935  1.00  0.00     0.091 A 
ATOM     45  F   UNL A   1      41.064  28.847  28.160  1.00  0.00    -0.205 F 
ATOM     46  C   UNL A   1      41.089  25.489  26.840  1.00  0.00     0.022 A 
BRANCH  44  47
ATOM     47  S   UNL A   1      42.459  27.640  25.794  1.00  0.00     0.127 S 
ATOM     48  O   UNL A   1      42.574  26.624  24.753  1.00  0.00    -0.237 OA
ATOM     49  O   UNL A   1      41.728  28.848  25.410  1.00  0.00    -0.237 OA
ATOM     50  O   UNL A   1      43.659  27.897  26.582  1.00  0.00    -0.744 OA
ENDBRANCH  44  47
ENDBRANCH  26  40
BRANCH  27  51
ATOM     51  C   UNL A   1      43.690  34.426  29.167  1.00  0.00     0.023 A 
ATOM     52  C   UNL A   1      44.280  35.448  29.939  1.00  0.00     0.012 A 
ATOM     53  C   UNL A   1      44.272  34.144  27.907  1.00  0.00     0.148 A 
ATOM     54  C   UNL A   1      45.452  36.092  29.520  1.00  0.00     0.002 A 
ATOM     55  C   UNL A   1      45.432  34.794  27.490  1.00  0.00     0.091 A 
ATOM     56  F   UNL A   1      43.755  33.176  27.140  1.00  0.00    -0.205 F 
ATOM     57  C   UNL A   1      46.041  35.752  28.306  1.00  0.00     0.022 A 
BRANCH  55  58
ATOM     58  S   UNL A   1      46.232  34.376  25.931  1.00  0.00     0.127 S 
ATOM     59  O   UNL A   1      47.226  35.441  25.791  1.00  0.00    -0.237 OA
ATOM     60  O   UNL A   1      46.785  33.057  26.219  1.00  0.00    -0.237 OA
ATOM     61  O   UNL A   1      45.173  34.421  24.928  1.00  0.00    -0.744 OA
ENDBRANCH  55  58
ENDBRANCH  27  51
BRANCH  39  62
ATOM     62  C   UNL A   1      41.428  30.976  33.998  1.00  0.00     0.023 A 
ATOM     63  C   UNL A   1      42.316  30.903  35.085  1.00  0.00     0.012 A 
ATOM     64  C   UNL A   1      40.377  31.909  34.030  1.00  0.00     0.148 A 
ATOM     65  C   UNL A   1      42.163  31.769  36.176  1.00  0.00     0.002 A 
ATOM     66  C   UNL A   1      40.258  32.795  35.089  1.00  0.00     0.091 A 
ATOM     67  F   UNL A   1      39.535  31.942  32.984  1.00  0.00    -0.205 F 
ATOM     68  C   UNL A   1      41.148  32.727  36.169  1.00  0.00     0.022 A 
BRANCH  66  69
ATOM     69  S   UNL A   1      39.061  34.131  35.063  1.00  0.00     0.127 S 
ATOM     70  O   UNL A   1      37.796  33.409  34.951  1.00  0.00    -0.237 OA
ATOM     71  O   UNL A   1      39.290  34.775  36.357  1.00  0.00    -0.237 OA
ATOM     72  O   UNL A   1      39.408  34.962  33.917  1.00  0.00    -0.744 OA
ENDBRANCH  66  69
ENDBRANCH  39  62
ENDBRANCH  13  14
ENDBRANCH   6   8
ENDBRANCH   5   6
ENDBRANCH   4   5
ENDBRANCH   3   4
ENDBRANCH   2   3
ENDBRANCH   1   2
BRANCH   1  73
ATOM     73  C   UNL A   1      32.596  29.593  25.513  1.00  0.00     0.188 C 
BRANCH  73  74
ATOM     74  O   UNL A   1      33.105  28.827  24.428  1.00  0.00    -0.376 OA
BRANCH  74  75
ATOM     75  C   UNL A   1      32.310  28.780  23.256  1.00  0.00     0.202 C 
BRANCH  75  76
ATOM     76  C   UNL A   1      30.876  28.234  23.320  1.00  0.00     0.261 C 
BRANCH  76  77
ATOM     77  O   UNL A   1      30.407  27.518  24.464  1.00  0.00    -0.460 OA
BRANCH  77  78
ATOM     78  C   UNL A   1      29.634  26.451  24.164  1.00  0.00     0.339 C 
ATOM     79  O   UNL A   1      28.442  26.476  23.893  1.00  0.00    -0.246 OA
BRANCH  78  80
ATOM     80  C   UNL A   1      30.381  25.195  24.336  1.00  0.00     0.078 A 
ATOM     81  C   UNL A   1      30.667  24.423  23.210  1.00  0.00     0.021 A 
ATOM     82  C   UNL A   1      30.777  24.714  25.577  1.00  0.00     0.129 A 
ATOM     83  C   UNL A   1      31.412  23.258  23.355  1.00  0.00     0.048 A 
ATOM     84  N   UNL A   1      31.480  23.562  25.759  1.00  0.00    -0.238 NA
ATOM     85  C   UNL A   1      31.847  22.898  24.628  1.00  0.00     0.138 A 
BRANCH  85  86
ATOM     86  N   UNL A   1      32.828  21.882  24.742  1.00  0.00    -0.283 N 
ATOM     87  C   UNL A   1      32.634  20.610  25.224  1.00  0.00     0.206 A 
ATOM     88  C   UNL A   1      34.193  22.035  24.551  1.00  0.00     0.074 A 
ATOM     89  N   UNL A   1      33.750  19.909  25.259  1.00  0.00    -0.236 NA
ATOM     90  C   UNL A   1      34.731  20.792  24.876  1.00  0.00     0.089 A 
ATOM     91  C   UNL A   1      35.000  23.140  24.231  1.00  0.00     0.029 A 
ATOM     92  C   UNL A   1      36.124  20.614  24.825  1.00  0.00     0.030 A 
ATOM     93  C   UNL A   1      36.383  22.951  24.213  1.00  0.00     0.002 A 
ATOM     94  C   UNL A   1      36.940  21.706  24.497  1.00  0.00     0.002 A 
ENDBRANCH  85  86
ENDBRANCH  78  80
ENDBRANCH  77  78
ENDBRANCH  76  77
ENDBRANCH  75  76
ENDBRANCH  74  75
ENDBRANCH  73  74
ENDBRANCH   1  73
TORSDOF 21
ENDMDL
MODEL 3
REMARK VINA RESULT:      -9.7      4.438      9.856
REMARK SMILES O=C(OCCOCCOCCOC(=O)c1ccc(-n2cnc3ccccc32)nc1)c1ccc(-c2c3nc(c(-c4cccc(S(=O)(=O)[O-])c4F)c4ccc([nH]4)c(-c4cccc(S(=O)(=O)[O-])c4F)c4nc(c(-c5cccc(S(=O)(=O)[O-])c5F)c5ccc2[nH]5)C=C4)C=C3)cc1
REMARK SMILES IDX 7 1 6 2 5 3 4 4 3 5 2 6 1 7 30 8 31 9 92 10 32 11 91 12
REMARK SMILES IDX 33 13 34 14 35 15 85 16 36 17 90 18 84 19 86 20 37 21 89 22
REMARK SMILES IDX 83 23 82 24 38 26 70 27 50 28 69 29 51 30 54 31 68 32 87 33
REMARK SMILES IDX 52 34 53 35 67 37 88 38 55 39 39 40 40 41 48 42 41 43 43 44
REMARK SMILES IDX 49 45 42 46 44 47 45 48 46 49 47 50 71 51 72 52 80 53 73 54
REMARK SMILES IDX 75 55 81 56 74 57 76 58 77 59 78 60 79 61 56 62 57 63 65 64
REMARK SMILES IDX 58 65 60 66 66 67 59 68 61 69 62 70 63 71 64 72 8 73 9 74
REMARK SMILES IDX 10 75 11 76 12 77 13 78 14 79 15 80 16 81 29 82 17 83 28 84
REMARK SMILES IDX 18 85 19 86 20 87 27 88 21 89 22 90 26 91 23 92 25 93 24 94
REMARK H PARENT 86 25 54 36
REMARK Flexibility Score: inf
ROOT
ATOM      1  C   UNL A   1      33.606  30.025  26.754  1.00  0.00     0.188 C 
ENDROOT
BRANCH   1   2
ATOM      2  O   UNL A   1      33.335  31.087  27.655  1.00  0.00    -0.376 OA
BRANCH   2   3
ATOM      3  C   UNL A   1      33.050  32.332  27.031  1.00  0.00     0.202 C 
BRANCH   3   4
ATOM      4  C   UNL A   1      32.052  33.241  27.765  1.00  0.00     0.261 C 
BRANCH   4   5
ATOM      5  O   UNL A   1      32.498  34.505  28.323  1.00  0.00    -0.460 OA
BRANCH   5   6
ATOM      6  C   UNL A   1      33.097  34.783  29.506  1.00  0.00     0.338 C 
ATOM      7  O   UNL A   1      32.539  35.487  30.341  1.00  0.00    -0.246 OA
BRANCH   6   8
ATOM      8  C   UNL A   1      34.489  34.349  29.709  1.00  0.00     0.060 A 
ATOM      9  C   UNL A   1      35.354  34.455  28.623  1.00  0.00     0.016 A 
ATOM     10  C   UNL A   1      34.917  33.734  30.888  1.00  0.00     0.016 A 
ATOM     11  C   UNL A   1      36.566  33.783  28.671  1.00  0.00     0.010 A 
ATOM     12  C   UNL A   1      36.088  32.974  30.887  1.00  0.00     0.010 A 
ATOM     13  C   UNL A   1      36.897  32.948  29.751  1.00  0.00    -0.014 A 
BRANCH  13  14
ATOM     14  C   UNL A   1      38.289  32.480  29.838  1.00  0.00     0.031 A 
ATOM     15  C   UNL A   1      38.298  31.014  29.599  1.00  0.00     0.074 A 
ATOM     16  C   UNL A   1      39.440  33.169  30.027  1.00  0.00     0.049 A 
ATOM     17  N   UNL A   1      38.507  30.100  30.491  1.00  0.00    -0.248 NA
ATOM     18  C   UNL A   1      37.759  30.510  28.322  1.00  0.00     0.031 C 
ATOM     19  C   UNL A   1      39.623  34.609  30.173  1.00  0.00     0.029 A 
ATOM     20  N   UNL A   1      40.744  32.724  30.052  1.00  0.00    -0.354 N 
ATOM     21  C   UNL A   1      38.427  28.915  29.775  1.00  0.00     0.074 A 
ATOM     22  C   UNL A   1      37.720  29.199  28.553  1.00  0.00     0.031 C 
ATOM     23  C   UNL A   1      40.916  34.945  30.033  1.00  0.00     0.029 A 
ATOM     24  C   UNL A   1      41.686  33.741  29.892  1.00  0.00     0.049 A 
ATOM     25  H   UNL A   1      40.987  31.777  30.171  1.00  0.00     0.167 HD
ATOM     26  C   UNL A   1      39.311  27.916  30.016  1.00  0.00     0.034 A 
ATOM     27  C   UNL A   1      43.028  33.683  29.726  1.00  0.00     0.034 A 
ATOM     28  C   UNL A   1      39.971  28.046  31.279  1.00  0.00     0.049 A 
ATOM     29  C   UNL A   1      43.459  32.427  30.361  1.00  0.00     0.074 A 
ATOM     30  C   UNL A   1      39.701  27.742  32.592  1.00  0.00     0.029 A 
ATOM     31  N   UNL A   1      41.022  28.921  31.264  1.00  0.00    -0.354 N 
ATOM     32  N   UNL A   1      43.400  32.223  31.650  1.00  0.00    -0.248 NA
ATOM     33  C   UNL A   1      43.644  31.241  29.535  1.00  0.00     0.031 C 
ATOM     34  C   UNL A   1      40.593  28.525  33.380  1.00  0.00     0.029 A 
ATOM     35  C   UNL A   1      41.402  29.273  32.530  1.00  0.00     0.049 A 
ATOM     36  H   UNL A   1      41.451  29.257  30.444  1.00  0.00     0.167 HD
ATOM     37  C   UNL A   1      43.093  30.881  31.749  1.00  0.00     0.074 A 
ATOM     38  C   UNL A   1      43.423  30.299  30.454  1.00  0.00     0.031 C 
ATOM     39  C   UNL A   1      42.283  30.401  32.730  1.00  0.00     0.034 A 
BRANCH  26  40
ATOM     40  C   UNL A   1      39.933  27.156  28.883  1.00  0.00     0.023 A 
ATOM     41  C   UNL A   1      39.677  25.783  28.761  1.00  0.00     0.012 A 
ATOM     42  C   UNL A   1      40.948  27.709  28.065  1.00  0.00     0.148 A 
ATOM     43  C   UNL A   1      40.364  25.009  27.819  1.00  0.00     0.002 A 
ATOM     44  C   UNL A   1      41.547  26.967  27.062  1.00  0.00     0.091 A 
ATOM     45  F   UNL A   1      41.436  28.925  28.349  1.00  0.00    -0.205 F 
ATOM     46  C   UNL A   1      41.271  25.605  26.945  1.00  0.00     0.022 A 
BRANCH  44  47
ATOM     47  S   UNL A   1      42.653  27.737  25.878  1.00  0.00     0.127 S 
ATOM     48  O   UNL A   1      43.960  27.408  26.436  1.00  0.00    -0.237 OA
ATOM     49  O   UNL A   1      42.307  27.036  24.641  1.00  0.00    -0.237 OA
ATOM     50  O   UNL A   1      42.286  29.149  25.881  1.00  0.00    -0.744 OA
ENDBRANCH  44  47
ENDBRANCH  26  40
BRANCH  27  51
ATOM     51  C   UNL A   1      43.942  34.606  28.997  1.00  0.00     0.023 A 
ATOM     52  C   UNL A   1      44.465  35.729  29.672  1.00  0.00     0.012 A 
ATOM     53  C   UNL A   1      44.529  34.263  27.754  1.00  0.00     0.148 A 
ATOM     54  C   UNL A   1      45.582  36.419  29.181  1.00  0.00     0.002 A 
ATOM     55  C   UNL A   1      45.634  34.958  27.265  1.00  0.00     0.091 A 
ATOM     56  F   UNL A   1      44.076  33.200  27.079  1.00  0.00    -0.205 F 
ATOM     57  C   UNL A   1      46.179  36.022  27.989  1.00  0.00     0.022 A 
BRANCH  55  58
ATOM     58  S   UNL A   1      46.443  34.470  25.732  1.00  0.00     0.127 S 
ATOM     59  O   UNL A   1      47.438  35.528  25.550  1.00  0.00    -0.237 OA
ATOM     60  O   UNL A   1      46.996  33.166  26.084  1.00  0.00    -0.237 OA
ATOM     61  O   UNL A   1      45.391  34.467  24.722  1.00  0.00    -0.744 OA
ENDBRANCH  55  58
ENDBRANCH  27  51
BRANCH  39  62
ATOM     62  C   UNL A   1      42.184  31.143  34.025  1.00  0.00     0.023 A 
ATOM     63  C   UNL A   1      41.139  32.032  34.330  1.00  0.00     0.012 A 
ATOM     64  C   UNL A   1      43.103  30.790  35.028  1.00  0.00     0.148 A 
ATOM     65  C   UNL A   1      41.008  32.542  35.628  1.00  0.00     0.002 A 
ATOM     66  C   UNL A   1      42.942  31.260  36.321  1.00  0.00     0.091 A 
ATOM     67  F   UNL A   1      44.101  29.953  34.700  1.00  0.00    -0.205 F 
ATOM     68  C   UNL A   1      41.896  32.140  36.628  1.00  0.00     0.022 A 
BRANCH  66  69
ATOM     69  S   UNL A   1      43.969  30.667  37.668  1.00  0.00     0.127 S 
ATOM     70  O   UNL A   1      45.262  31.272  37.358  1.00  0.00    -0.237 OA
ATOM     71  O   UNL A   1      43.293  31.225  38.840  1.00  0.00    -0.237 OA
ATOM     72  O   UNL A   1      43.929  29.212  37.596  1.00  0.00    -0.744 OA
ENDBRANCH  66  69
ENDBRANCH  39  62
ENDBRANCH  13  14
ENDBRANCH   6   8
ENDBRANCH   5   6
ENDBRANCH   4   5
ENDBRANCH   3   4
ENDBRANCH   2   3
ENDBRANCH   1   2
BRANCH   1  73
ATOM     73  C   UNL A   1      32.562  29.889  25.640  1.00  0.00     0.188 C 
BRANCH  73  74
ATOM     74  O   UNL A   1      32.962  29.221  24.450  1.00  0.00    -0.376 OA
BRANCH  74  75
ATOM     75  C   UNL A   1      31.990  28.398  23.826  1.00  0.00     0.202 C 
BRANCH  75  76
ATOM     76  C   UNL A   1      31.167  27.408  24.665  1.00  0.00     0.261 C 
BRANCH  76  77
ATOM     77  O   UNL A   1      31.803  26.436  25.497  1.00  0.00    -0.460 OA
BRANCH  77  78
ATOM     78  C   UNL A   1      31.003  25.405  25.846  1.00  0.00     0.339 C 
ATOM     79  O   UNL A   1      29.898  25.491  26.364  1.00  0.00    -0.246 OA
BRANCH  78  80
ATOM     80  C   UNL A   1      31.686  24.117  25.649  1.00  0.00     0.078 A 
ATOM     81  C   UNL A   1      32.084  23.757  24.362  1.00  0.00     0.021 A 
ATOM     82  C   UNL A   1      31.915  23.217  26.681  1.00  0.00     0.129 A 
ATOM     83  C   UNL A   1      32.772  22.564  24.171  1.00  0.00     0.048 A 
ATOM     84  N   UNL A   1      32.558  22.026  26.525  1.00  0.00    -0.238 NA
ATOM     85  C   UNL A   1      33.039  21.763  25.279  1.00  0.00     0.138 A 
BRANCH  85  86
ATOM     86  N   UNL A   1      33.969  20.704  25.134  1.00  0.00    -0.283 N 
ATOM     87  C   UNL A   1      35.338  20.806  25.196  1.00  0.00     0.206 A 
ATOM     88  C   UNL A   1      33.681  19.408  24.735  1.00  0.00     0.074 A 
ATOM     89  N   UNL A   1      35.940  19.655  24.968  1.00  0.00    -0.236 NA
ATOM     90  C   UNL A   1      34.924  18.786  24.647  1.00  0.00     0.089 A 
ATOM     91  C   UNL A   1      32.493  18.762  24.354  1.00  0.00     0.029 A 
ATOM     92  C   UNL A   1      34.993  17.449  24.222  1.00  0.00     0.030 A 
ATOM     93  C   UNL A   1      32.584  17.442  23.908  1.00  0.00     0.002 A 
ATOM     94  C   UNL A   1      33.814  16.790  23.849  1.00  0.00     0.002 A 
ENDBRANCH  85  86
ENDBRANCH  78  80
ENDBRANCH  77  78
ENDBRANCH  76  77
ENDBRANCH  75  76
ENDBRANCH  74  75
ENDBRANCH  73  74
ENDBRANCH   1  73
TORSDOF 21
ENDMDL
