MODEL 1
REMARK VINA RESULT:      -9.8      0.000      0.000
REMARK SMILES O=C(OCCOCCOCCOC(=O)c1ccc(-n2cc(CSc3nc4ccccc4c(=O)n3-c3ccc(Br)cc3)nn2)cc1)c1ccc(-c2c3nc(c(-c4cccc(S(=O)(=O)[O-])c4F)c4ccc([nH]4)c(-c4cccc(S(=O)(=O)[O-])c4F)c4nc(c(-c5cccc(S(=O)(=O)[O-])c5F)c5ccc2[nH]5)C=C4)C=C3)cc1
REMARK SMILES IDX 8 1 7 2 6 3 5 4 4 5 3 6 2 7 1 8 46 9 47 10 108 11 48 12
REMARK SMILES IDX 107 13 49 14 50 15 51 16 101 17 52 18 106 19 100 20 102 21
REMARK SMILES IDX 53 22 105 23 99 24 98 25 54 27 86 28 66 29 85 30 67 31 70 32
REMARK SMILES IDX 84 33 103 34 68 35 69 36 83 38 104 39 71 40 55 41 56 42
REMARK SMILES IDX 64 43 57 44 59 45 65 46 58 47 60 48 61 49 62 50 63 51 87 52
REMARK SMILES IDX 88 53 96 54 89 55 91 56 97 57 90 58 92 59 93 60 94 61 95 62
REMARK SMILES IDX 72 63 73 64 81 65 74 66 76 67 82 68 75 69 77 70 78 71 79 72
REMARK SMILES IDX 80 73 9 74 10 75 11 76 12 77 13 78 14 79 15 80 16 81 45 82
REMARK SMILES IDX 17 83 44 84 18 85 19 86 20 87 43 88 21 89 42 90 22 91 23 92
REMARK SMILES IDX 24 93 25 94 34 95 26 96 32 97 27 98 31 99 33 100 28 101
REMARK SMILES IDX 30 102 29 103 35 104 36 105 41 106 37 107 40 108 38 109
REMARK SMILES IDX 39 110
REMARK H PARENT 102 26 70 37
REMARK Flexibility Score: inf
ROOT
ATOM      1  C   UNL A   1      36.436  21.507  25.979  1.00  0.00     0.188 C 
ENDROOT
BRANCH   1   2
ATOM      2  C   UNL A   1      37.629  22.446  25.665  1.00  0.00     0.188 C 
BRANCH   2   3
ATOM      3  O   UNL A   1      38.817  21.796  25.280  1.00  0.00    -0.376 OA
BRANCH   3   4
ATOM      4  C   UNL A   1      39.775  21.361  26.222  1.00  0.00     0.202 C 
BRANCH   4   5
ATOM      5  C   UNL A   1      41.149  22.018  26.419  1.00  0.00     0.261 C 
BRANCH   5   6
ATOM      6  O   UNL A   1      42.218  21.511  25.624  1.00  0.00    -0.460 OA
BRANCH   6   7
ATOM      7  C   UNL A   1      43.363  22.078  25.196  1.00  0.00     0.338 C 
ATOM      8  O   UNL A   1      43.922  21.565  24.225  1.00  0.00    -0.246 OA
BRANCH   7   9
ATOM      9  C   UNL A   1      44.057  23.223  25.856  1.00  0.00     0.060 A 
ATOM     10  C   UNL A   1      45.021  23.154  26.862  1.00  0.00     0.016 A 
ATOM     11  C   UNL A   1      43.638  24.498  25.417  1.00  0.00     0.016 A 
ATOM     12  C   UNL A   1      45.366  24.298  27.566  1.00  0.00     0.010 A 
ATOM     13  C   UNL A   1      44.008  25.648  26.091  1.00  0.00     0.010 A 
ATOM     14  C   UNL A   1      44.796  25.525  27.223  1.00  0.00    -0.014 A 
BRANCH  14  15
ATOM     15  C   UNL A   1      45.121  26.684  28.035  1.00  0.00     0.031 A 
ATOM     16  C   UNL A   1      46.330  27.405  27.575  1.00  0.00     0.074 A 
ATOM     17  C   UNL A   1      44.375  27.069  29.089  1.00  0.00     0.049 A 
ATOM     18  N   UNL A   1      47.499  27.383  28.125  1.00  0.00    -0.248 NA
ATOM     19  C   UNL A   1      46.295  28.062  26.263  1.00  0.00     0.031 C 
ATOM     20  C   UNL A   1      43.042  26.593  29.470  1.00  0.00     0.029 A 
ATOM     21  N   UNL A   1      44.609  28.065  29.989  1.00  0.00    -0.354 N 
ATOM     22  C   UNL A   1      48.278  28.252  27.365  1.00  0.00     0.074 A 
ATOM     23  C   UNL A   1      47.564  28.455  26.133  1.00  0.00     0.031 C 
ATOM     24  C   UNL A   1      42.493  27.462  30.351  1.00  0.00     0.029 A 
ATOM     25  C   UNL A   1      43.481  28.468  30.700  1.00  0.00     0.049 A 
ATOM     26  H   UNL A   1      45.498  28.465  30.124  1.00  0.00     0.167 HD
ATOM     27  C   UNL A   1      49.302  28.943  27.938  1.00  0.00     0.034 A 
ATOM     28  C   UNL A   1      43.359  29.588  31.459  1.00  0.00     0.034 A 
ATOM     29  C   UNL A   1      49.655  28.379  29.218  1.00  0.00     0.049 A 
ATOM     30  C   UNL A   1      44.727  30.023  31.821  1.00  0.00     0.074 A 
ATOM     31  C   UNL A   1      50.085  27.146  29.664  1.00  0.00     0.029 A 
ATOM     32  N   UNL A   1      49.200  29.050  30.327  1.00  0.00    -0.354 N 
ATOM     33  N   UNL A   1      45.503  29.350  32.623  1.00  0.00    -0.248 NA
ATOM     34  C   UNL A   1      45.396  30.971  30.947  1.00  0.00     0.031 C 
ATOM     35  C   UNL A   1      49.438  26.965  30.921  1.00  0.00     0.029 A 
ATOM     36  C   UNL A   1      48.718  28.125  31.210  1.00  0.00     0.049 A 
ATOM     37  H   UNL A   1      49.218  30.025  30.462  1.00  0.00     0.167 HD
ATOM     38  C   UNL A   1      46.751  29.421  32.020  1.00  0.00     0.074 A 
ATOM     39  C   UNL A   1      46.648  30.520  31.060  1.00  0.00     0.031 C 
ATOM     40  C   UNL A   1      47.644  28.397  32.139  1.00  0.00     0.034 A 
BRANCH  27  41
ATOM     41  C   UNL A   1      49.708  30.355  27.575  1.00  0.00     0.023 A 
ATOM     42  C   UNL A   1      48.781  31.381  27.873  1.00  0.00     0.012 A 
ATOM     43  C   UNL A   1      50.775  30.692  26.709  1.00  0.00     0.148 A 
ATOM     44  C   UNL A   1      48.861  32.644  27.276  1.00  0.00     0.002 A 
ATOM     45  C   UNL A   1      50.894  31.971  26.176  1.00  0.00     0.091 A 
ATOM     46  F   UNL A   1      51.619  29.751  26.284  1.00  0.00    -0.205 F 
ATOM     47  C   UNL A   1      49.919  32.939  26.428  1.00  0.00     0.022 A 
BRANCH  45  48
ATOM     48  S   UNL A   1      52.258  32.428  25.098  1.00  0.00     0.127 S 
ATOM     49  O   UNL A   1      53.291  31.486  25.519  1.00  0.00    -0.237 OA
ATOM     50  O   UNL A   1      51.685  32.174  23.777  1.00  0.00    -0.237 OA
ATOM     51  O   UNL A   1      52.530  33.833  25.375  1.00  0.00    -0.744 OA
ENDBRANCH  45  48
ENDBRANCH  27  41
BRANCH  28  52
ATOM     52  C   UNL A   1      42.189  30.472  31.681  1.00  0.00     0.023 A 
ATOM     53  C   UNL A   1      41.516  31.033  30.574  1.00  0.00     0.012 A 
ATOM     54  C   UNL A   1      41.549  30.517  32.938  1.00  0.00     0.148 A 
ATOM     55  C   UNL A   1      40.233  31.580  30.708  1.00  0.00     0.002 A 
ATOM     56  C   UNL A   1      40.274  31.064  33.067  1.00  0.00     0.091 A 
ATOM     57  F   UNL A   1      42.144  29.936  33.986  1.00  0.00    -0.205 F 
ATOM     58  C   UNL A   1      39.608  31.585  31.951  1.00  0.00     0.022 A 
BRANCH  56  59
ATOM     59  S   UNL A   1      39.389  31.068  34.632  1.00  0.00     0.127 S 
ATOM     60  O   UNL A   1      40.004  32.201  35.324  1.00  0.00    -0.237 OA
ATOM     61  O   UNL A   1      38.012  31.289  34.199  1.00  0.00    -0.237 OA
ATOM     62  O   UNL A   1      39.656  29.774  35.245  1.00  0.00    -0.744 OA
ENDBRANCH  56  59
ENDBRANCH  28  52
BRANCH  40  63
ATOM     63  C   UNL A   1      47.375  27.335  33.174  1.00  0.00     0.023 A 
ATOM     64  C   UNL A   1      47.810  27.435  34.512  1.00  0.00     0.012 A 
ATOM     65  C   UNL A   1      46.515  26.285  32.813  1.00  0.00     0.148 A 
ATOM     66  C   UNL A   1      47.412  26.491  35.463  1.00  0.00     0.002 A 
ATOM     67  C   UNL A   1      46.081  25.380  33.771  1.00  0.00     0.091 A 
ATOM     68  F   UNL A   1      46.114  26.205  31.536  1.00  0.00    -0.205 F 
ATOM     69  C   UNL A   1      46.534  25.472  35.095  1.00  0.00     0.022 A 
BRANCH  67  70
ATOM     70  S   UNL A   1      44.853  24.133  33.379  1.00  0.00     0.127 S 
ATOM     71  O   UNL A   1      43.680  24.625  34.099  1.00  0.00    -0.237 OA
ATOM     72  O   UNL A   1      44.762  24.228  31.922  1.00  0.00    -0.237 OA
ATOM     73  O   UNL A   1      45.400  22.869  33.858  1.00  0.00    -0.744 OA
ENDBRANCH  67  70
ENDBRANCH  40  63
ENDBRANCH  14  15
ENDBRANCH   7   9
ENDBRANCH   6   7
ENDBRANCH   5   6
ENDBRANCH   4   5
ENDBRANCH   3   4
ENDBRANCH   2   3
ENDBRANCH   1   2
BRANCH   1  74
ATOM     74  O   UNL A   1      35.961  20.564  25.023  1.00  0.00    -0.376 OA
BRANCH  74  75
ATOM     75  C   UNL A   1      34.575  20.468  24.757  1.00  0.00     0.202 C 
BRANCH  75  76
ATOM     76  C   UNL A   1      33.599  20.300  25.933  1.00  0.00     0.261 C 
BRANCH  76  77
ATOM     77  O   UNL A   1      33.151  21.514  26.559  1.00  0.00    -0.460 OA
BRANCH  77  78
ATOM     78  C   UNL A   1      32.126  22.169  25.964  1.00  0.00     0.338 C 
ATOM     79  O   UNL A   1      31.064  21.692  25.572  1.00  0.00    -0.246 OA
BRANCH  78  80
ATOM     80  C   UNL A   1      32.425  23.615  25.929  1.00  0.00     0.060 A 
ATOM     81  C   UNL A   1      31.509  24.530  26.475  1.00  0.00     0.018 A 
ATOM     82  C   UNL A   1      33.614  24.068  25.354  1.00  0.00     0.018 A 
ATOM     83  C   UNL A   1      31.781  25.903  26.457  1.00  0.00     0.029 A 
ATOM     84  C   UNL A   1      33.899  25.435  25.355  1.00  0.00     0.029 A 
ATOM     85  C   UNL A   1      32.979  26.350  25.899  1.00  0.00     0.066 A 
BRANCH  85  86
ATOM     86  N   UNL A   1      33.264  27.731  25.806  1.00  0.00    -0.220 N 
ATOM     87  C   UNL A   1      34.031  28.487  26.678  1.00  0.00     0.141 A 
ATOM     88  N   UNL A   1      32.543  28.539  25.009  1.00  0.00    -0.062 NA
ATOM     89  C   UNL A   1      33.608  29.786  26.480  1.00  0.00     0.093 A 
ATOM     90  N   UNL A   1      32.791  29.786  25.365  1.00  0.00    -0.134 NA
BRANCH  89  91
ATOM     91  C   UNL A   1      33.595  31.065  27.239  1.00  0.00     0.138 C 
BRANCH  91  92
ATOM     92  S   UNL A   1      34.895  32.032  27.964  1.00  0.00    -0.081 SA
BRANCH  92  93
ATOM     93  C   UNL A   1      36.065  31.158  28.889  1.00  0.00     0.176 A 
ATOM     94  N   UNL A   1      36.852  30.464  28.120  1.00  0.00    -0.223 NA
ATOM     95  N   UNL A   1      36.235  31.193  30.264  1.00  0.00    -0.255 N 
ATOM     96  C   UNL A   1      37.770  29.591  28.699  1.00  0.00     0.079 A 
ATOM     97  C   UNL A   1      36.664  29.973  30.818  1.00  0.00     0.266 A 
ATOM     98  C   UNL A   1      38.792  29.019  27.942  1.00  0.00     0.029 A 
ATOM     99  C   UNL A   1      37.588  29.171  30.005  1.00  0.00     0.066 A 
ATOM    100  O   UNL A   1      36.315  29.517  31.907  1.00  0.00    -0.268 OA
ATOM    101  C   UNL A   1      39.561  27.978  28.474  1.00  0.00     0.002 A 
ATOM    102  C   UNL A   1      38.302  28.090  30.529  1.00  0.00     0.016 A 
ATOM    103  C   UNL A   1      39.286  27.484  29.751  1.00  0.00     0.001 A 
BRANCH  95 104
ATOM    104  C   UNL A   1      35.947  32.297  31.168  1.00  0.00     0.051 A 
ATOM    105  C   UNL A   1      34.814  32.239  32.009  1.00  0.00     0.028 A 
ATOM    106  C   UNL A   1      36.721  33.454  31.294  1.00  0.00     0.028 A 
ATOM    107  C   UNL A   1      34.351  33.349  32.721  1.00  0.00     0.018 A 
ATOM    108  C   UNL A   1      36.235  34.599  31.944  1.00  0.00     0.018 A 
ATOM    109  C   UNL A   1      35.027  34.551  32.621  1.00  0.00     0.018 A 
ATOM    110  Br  UNL A   1      34.312  36.112  33.404  1.00  0.00    -0.051 Br
ENDBRANCH  95 104
ENDBRANCH  92  93
ENDBRANCH  91  92
ENDBRANCH  89  91
ENDBRANCH  85  86
ENDBRANCH  78  80
ENDBRANCH  77  78
ENDBRANCH  76  77
ENDBRANCH  75  76
ENDBRANCH  74  75
ENDBRANCH   1  74
TORSDOF 25
ENDMDL
MODEL 2
REMARK VINA RESULT:      -9.8      4.184      9.260
REMARK SMILES O=C(OCCOCCOCCOC(=O)c1ccc(-n2cc(CSc3nc4ccccc4c(=O)n3-c3ccc(Br)cc3)nn2)cc1)c1ccc(-c2c3nc(c(-c4cccc(S(=O)(=O)[O-])c4F)c4ccc([nH]4)c(-c4cccc(S(=O)(=O)[O-])c4F)c4nc(c(-c5cccc(S(=O)(=O)[O-])c5F)c5ccc2[nH]5)C=C4)C=C3)cc1
REMARK SMILES IDX 8 1 7 2 6 3 5 4 4 5 3 6 2 7 1 8 46 9 47 10 108 11 48 12
REMARK SMILES IDX 107 13 49 14 50 15 51 16 101 17 52 18 106 19 100 20 102 21
REMARK SMILES IDX 53 22 105 23 99 24 98 25 54 27 86 28 66 29 85 30 67 31 70 32
REMARK SMILES IDX 84 33 103 34 68 35 69 36 83 38 104 39 71 40 55 41 56 42
REMARK SMILES IDX 64 43 57 44 59 45 65 46 58 47 60 48 61 49 62 50 63 51 87 52
REMARK SMILES IDX 88 53 96 54 89 55 91 56 97 57 90 58 92 59 93 60 94 61 95 62
REMARK SMILES IDX 72 63 73 64 81 65 74 66 76 67 82 68 75 69 77 70 78 71 79 72
REMARK SMILES IDX 80 73 9 74 10 75 11 76 12 77 13 78 14 79 15 80 16 81 45 82
REMARK SMILES IDX 17 83 44 84 18 85 19 86 20 87 43 88 21 89 42 90 22 91 23 92
REMARK SMILES IDX 24 93 25 94 34 95 26 96 32 97 27 98 31 99 33 100 28 101
REMARK SMILES IDX 30 102 29 103 35 104 36 105 41 106 37 107 40 108 38 109
REMARK SMILES IDX 39 110
REMARK H PARENT 102 26 70 37
REMARK Flexibility Score: inf
ROOT
ATOM      1  C   UNL A   1      35.916  23.867  25.933  1.00  0.00     0.188 C 
ENDROOT
BRANCH   1   2
ATOM      2  C   UNL A   1      34.764  24.638  25.239  1.00  0.00     0.188 C 
BRANCH   2   3
ATOM      3  O   UNL A   1      33.675  24.962  26.070  1.00  0.00    -0.376 OA
BRANCH   3   4
ATOM      4  C   UNL A   1      33.106  26.254  26.094  1.00  0.00     0.202 C 
BRANCH   4   5
ATOM      5  C   UNL A   1      33.921  27.555  26.069  1.00  0.00     0.261 C 
BRANCH   5   6
ATOM      6  O   UNL A   1      33.869  28.361  27.244  1.00  0.00    -0.460 OA
BRANCH   6   7
ATOM      7  C   UNL A   1      34.492  29.512  27.568  1.00  0.00     0.338 C 
ATOM      8  O   UNL A   1      34.000  30.560  27.147  1.00  0.00    -0.246 OA
BRANCH   7   9
ATOM      9  C   UNL A   1      35.777  29.614  28.320  1.00  0.00     0.060 A 
ATOM     10  C   UNL A   1      35.939  29.657  29.705  1.00  0.00     0.016 A 
ATOM     11  C   UNL A   1      36.927  29.714  27.508  1.00  0.00     0.016 A 
ATOM     12  C   UNL A   1      37.162  30.032  30.244  1.00  0.00     0.010 A 
ATOM     13  C   UNL A   1      38.158  30.050  28.042  1.00  0.00     0.010 A 
ATOM     14  C   UNL A   1      38.241  30.301  29.401  1.00  0.00    -0.014 A 
BRANCH  14  15
ATOM     15  C   UNL A   1      39.479  30.767  30.000  1.00  0.00     0.031 A 
ATOM     16  C   UNL A   1      40.402  29.672  30.375  1.00  0.00     0.074 A 
ATOM     17  C   UNL A   1      39.759  32.074  30.171  1.00  0.00     0.049 A 
ATOM     18  N   UNL A   1      40.637  29.234  31.567  1.00  0.00    -0.248 NA
ATOM     19  C   UNL A   1      40.975  28.844  29.306  1.00  0.00     0.031 C 
ATOM     20  C   UNL A   1      39.048  33.229  29.613  1.00  0.00     0.029 A 
ATOM     21  N   UNL A   1      40.824  32.650  30.798  1.00  0.00    -0.354 N 
ATOM     22  C   UNL A   1      41.605  28.245  31.411  1.00  0.00     0.074 A 
ATOM     23  C   UNL A   1      41.605  27.903  30.014  1.00  0.00     0.031 C 
ATOM     24  C   UNL A   1      39.833  34.326  29.713  1.00  0.00     0.029 A 
ATOM     25  C   UNL A   1      41.030  33.985  30.462  1.00  0.00     0.049 A 
ATOM     26  H   UNL A   1      41.397  32.162  31.433  1.00  0.00     0.167 HD
ATOM     27  C   UNL A   1      42.512  28.002  32.398  1.00  0.00     0.034 A 
ATOM     28  C   UNL A   1      42.138  34.725  30.725  1.00  0.00     0.034 A 
ATOM     29  C   UNL A   1      42.091  28.593  33.645  1.00  0.00     0.049 A 
ATOM     30  C   UNL A   1      42.852  34.065  31.841  1.00  0.00     0.074 A 
ATOM     31  C   UNL A   1      40.989  28.472  34.467  1.00  0.00     0.029 A 
ATOM     32  N   UNL A   1      42.711  29.765  34.005  1.00  0.00    -0.354 N 
ATOM     33  N   UNL A   1      42.384  34.010  33.056  1.00  0.00    -0.248 NA
ATOM     34  C   UNL A   1      43.871  33.082  31.515  1.00  0.00     0.031 C 
ATOM     35  C   UNL A   1      40.745  29.792  34.949  1.00  0.00     0.029 A 
ATOM     36  C   UNL A   1      41.753  30.626  34.461  1.00  0.00     0.049 A 
ATOM     37  H   UNL A   1      43.675  29.952  33.945  1.00  0.00     0.167 HD
ATOM     38  C   UNL A   1      42.672  32.717  33.468  1.00  0.00     0.074 A 
ATOM     39  C   UNL A   1      43.682  32.233  32.528  1.00  0.00     0.031 C 
ATOM     40  C   UNL A   1      41.851  32.063  34.340  1.00  0.00     0.034 A 
BRANCH  27  41
ATOM     41  C   UNL A   1      43.958  27.613  32.174  1.00  0.00     0.023 A 
ATOM     42  C   UNL A   1      44.411  26.443  32.827  1.00  0.00     0.012 A 
ATOM     43  C   UNL A   1      44.948  28.464  31.631  1.00  0.00     0.148 A 
ATOM     44  C   UNL A   1      45.773  26.178  33.004  1.00  0.00     0.002 A 
ATOM     45  C   UNL A   1      46.300  28.160  31.743  1.00  0.00     0.091 A 
ATOM     46  F   UNL A   1      44.608  29.644  31.110  1.00  0.00    -0.205 F 
ATOM     47  C   UNL A   1      46.718  27.037  32.461  1.00  0.00     0.022 A 
BRANCH  45  48
ATOM     48  S   UNL A   1      47.573  29.212  31.034  1.00  0.00     0.127 S 
ATOM     49  O   UNL A   1      48.789  28.514  31.443  1.00  0.00    -0.237 OA
ATOM     50  O   UNL A   1      47.260  29.130  29.607  1.00  0.00    -0.237 OA
ATOM     51  O   UNL A   1      47.372  30.531  31.619  1.00  0.00    -0.744 OA
ENDBRANCH  45  48
ENDBRANCH  27  41
BRANCH  28  52
ATOM     52  C   UNL A   1      42.784  35.799  29.930  1.00  0.00     0.023 A 
ATOM     53  C   UNL A   1      42.398  36.004  28.588  1.00  0.00     0.012 A 
ATOM     54  C   UNL A   1      43.539  36.808  30.564  1.00  0.00     0.148 A 
ATOM     55  C   UNL A   1      42.717  37.191  27.916  1.00  0.00     0.002 A 
ATOM     56  C   UNL A   1      43.857  37.986  29.892  1.00  0.00     0.091 A 
ATOM     57  F   UNL A   1      43.861  36.659  31.854  1.00  0.00    -0.205 F 
ATOM     58  C   UNL A   1      43.436  38.187  28.571  1.00  0.00     0.022 A 
BRANCH  56  59
ATOM     59  S   UNL A   1      44.747  39.332  30.687  1.00  0.00     0.127 S 
ATOM     60  O   UNL A   1      46.062  38.732  30.913  1.00  0.00    -0.237 OA
ATOM     61  O   UNL A   1      44.714  40.365  29.656  1.00  0.00    -0.237 OA
ATOM     62  O   UNL A   1      44.007  39.633  31.905  1.00  0.00    -0.744 OA
ENDBRANCH  56  59
ENDBRANCH  28  52
BRANCH  40  63
ATOM     63  C   UNL A   1      40.807  32.865  35.073  1.00  0.00     0.023 A 
ATOM     64  C   UNL A   1      41.118  33.761  36.118  1.00  0.00     0.012 A 
ATOM     65  C   UNL A   1      39.496  32.828  34.575  1.00  0.00     0.148 A 
ATOM     66  C   UNL A   1      40.131  34.585  36.667  1.00  0.00     0.002 A 
ATOM     67  C   UNL A   1      38.531  33.684  35.088  1.00  0.00     0.091 A 
ATOM     68  F   UNL A   1      39.219  31.969  33.583  1.00  0.00    -0.205 F 
ATOM     69  C   UNL A   1      38.841  34.557  36.141  1.00  0.00     0.022 A 
BRANCH  67  70
ATOM     70  S   UNL A   1      36.895  33.779  34.359  1.00  0.00     0.127 S 
ATOM     71  O   UNL A   1      36.958  32.741  33.332  1.00  0.00    -0.237 OA
ATOM     72  O   UNL A   1      36.026  33.467  35.494  1.00  0.00    -0.237 OA
ATOM     73  O   UNL A   1      36.757  35.144  33.864  1.00  0.00    -0.744 OA
ENDBRANCH  67  70
ENDBRANCH  40  63
ENDBRANCH  14  15
ENDBRANCH   7   9
ENDBRANCH   6   7
ENDBRANCH   5   6
ENDBRANCH   4   5
ENDBRANCH   3   4
ENDBRANCH   2   3
ENDBRANCH   1   2
BRANCH   1  74
ATOM     74  O   UNL A   1      36.768  22.988  25.204  1.00  0.00    -0.376 OA
BRANCH  74  75
ATOM     75  C   UNL A   1      37.080  21.713  25.729  1.00  0.00     0.202 C 
BRANCH  75  76
ATOM     76  C   UNL A   1      38.364  21.008  25.266  1.00  0.00     0.261 C 
BRANCH  76  77
ATOM     77  O   UNL A   1      39.412  20.898  26.244  1.00  0.00    -0.460 OA
BRANCH  77  78
ATOM     78  C   UNL A   1      40.402  20.010  25.985  1.00  0.00     0.338 C 
ATOM     79  O   UNL A   1      40.295  18.795  25.845  1.00  0.00    -0.246 OA
BRANCH  78  80
ATOM     80  C   UNL A   1      41.672  20.738  25.790  1.00  0.00     0.060 A 
ATOM     81  C   UNL A   1      42.874  20.021  25.663  1.00  0.00     0.018 A 
ATOM     82  C   UNL A   1      41.676  22.133  25.734  1.00  0.00     0.018 A 
ATOM     83  C   UNL A   1      44.086  20.695  25.470  1.00  0.00     0.029 A 
ATOM     84  C   UNL A   1      42.880  22.807  25.518  1.00  0.00     0.029 A 
ATOM     85  C   UNL A   1      44.082  22.088  25.395  1.00  0.00     0.066 A 
BRANCH  85  86
ATOM     86  N   UNL A   1      45.290  22.809  25.263  1.00  0.00    -0.220 N 
ATOM     87  C   UNL A   1      46.046  23.369  26.281  1.00  0.00     0.141 A 
ATOM     88  N   UNL A   1      45.679  23.307  24.076  1.00  0.00    -0.062 NA
ATOM     89  C   UNL A   1      46.792  24.352  25.663  1.00  0.00     0.093 A 
ATOM     90  N   UNL A   1      46.630  24.195  24.299  1.00  0.00    -0.134 NA
BRANCH  89  91
ATOM     91  C   UNL A   1      47.484  25.612  26.048  1.00  0.00     0.138 C 
BRANCH  91  92
ATOM     92  S   UNL A   1      46.892  27.120  26.771  1.00  0.00    -0.081 SA
BRANCH  92  93
ATOM     93  C   UNL A   1      45.177  27.265  26.927  1.00  0.00     0.176 A 
ATOM     94  N   UNL A   1      44.648  26.162  27.368  1.00  0.00    -0.223 NA
ATOM     95  N   UNL A   1      44.410  28.396  26.689  1.00  0.00    -0.255 N 
ATOM     96  C   UNL A   1      43.260  26.050  27.427  1.00  0.00     0.079 A 
ATOM     97  C   UNL A   1      43.129  28.120  26.180  1.00  0.00     0.266 A 
ATOM     98  C   UNL A   1      42.654  25.000  28.116  1.00  0.00     0.029 A 
ATOM     99  C   UNL A   1      42.470  26.905  26.679  1.00  0.00     0.066 A 
ATOM    100  O   UNL A   1      42.528  28.794  25.343  1.00  0.00    -0.268 OA
ATOM    101  C   UNL A   1      41.280  24.771  27.978  1.00  0.00     0.002 A 
ATOM    102  C   UNL A   1      41.110  26.653  26.478  1.00  0.00     0.016 A 
ATOM    103  C   UNL A   1      40.518  25.570  27.124  1.00  0.00     0.001 A 
BRANCH  95 104
ATOM    104  C   UNL A   1      44.812  29.789  26.827  1.00  0.00     0.051 A 
ATOM    105  C   UNL A   1      43.906  30.731  27.357  1.00  0.00     0.028 A 
ATOM    106  C   UNL A   1      46.065  30.300  26.477  1.00  0.00     0.028 A 
ATOM    107  C   UNL A   1      44.137  32.109  27.300  1.00  0.00     0.018 A 
ATOM    108  C   UNL A   1      46.287  31.679  26.345  1.00  0.00     0.018 A 
ATOM    109  C   UNL A   1      45.301  32.579  26.719  1.00  0.00     0.018 A 
ATOM    110  Br  UNL A   1      45.547  34.429  26.444  1.00  0.00    -0.051 Br
ENDBRANCH  95 104
ENDBRANCH  92  93
ENDBRANCH  91  92
ENDBRANCH  89  91
ENDBRANCH  85  86
ENDBRANCH  78  80
ENDBRANCH  77  78
ENDBRANCH  76  77
ENDBRANCH  75  76
ENDBRANCH  74  75
ENDBRANCH   1  74
TORSDOF 25
ENDMDL
MODEL 3
REMARK VINA RESULT:      -9.7      4.780     10.116
REMARK SMILES O=C(OCCOCCOCCOC(=O)c1ccc(-n2cc(CSc3nc4ccccc4c(=O)n3-c3ccc(Br)cc3)nn2)cc1)c1ccc(-c2c3nc(c(-c4cccc(S(=O)(=O)[O-])c4F)c4ccc([nH]4)c(-c4cccc(S(=O)(=O)[O-])c4F)c4nc(c(-c5cccc(S(=O)(=O)[O-])c5F)c5ccc2[nH]5)C=C4)C=C3)cc1
REMARK SMILES IDX 8 1 7 2 6 3 5 4 4 5 3 6 2 7 1 8 46 9 47 10 108 11 48 12
REMARK SMILES IDX 107 13 49 14 50 15 51 16 101 17 52 18 106 19 100 20 102 21
REMARK SMILES IDX 53 22 105 23 99 24 98 25 54 27 86 28 66 29 85 30 67 31 70 32
REMARK SMILES IDX 84 33 103 34 68 35 69 36 83 38 104 39 71 40 55 41 56 42
REMARK SMILES IDX 64 43 57 44 59 45 65 46 58 47 60 48 61 49 62 50 63 51 87 52
REMARK SMILES IDX 88 53 96 54 89 55 91 56 97 57 90 58 92 59 93 60 94 61 95 62
REMARK SMILES IDX 72 63 73 64 81 65 74 66 76 67 82 68 75 69 77 70 78 71 79 72
REMARK SMILES IDX 80 73 9 74 10 75 11 76 12 77 13 78 14 79 15 80 16 81 45 82
REMARK SMILES IDX 17 83 44 84 18 85 19 86 20 87 43 88 21 89 42 90 22 91 23 92
REMARK SMILES IDX 24 93 25 94 34 95 26 96 32 97 27 98 31 99 33 100 28 101
REMARK SMILES IDX 30 102 29 103 35 104 36 105 41 106 37 107 40 108 38 109
REMARK SMILES IDX 39 110
REMARK H PARENT 102 26 70 37
REMARK Flexibility Score: inf
ROOT
ATOM      1  C   UNL A   1      45.943  23.211  25.398  1.00  0.00     0.188 C 
ENDROOT
BRANCH   1   2
ATOM      2  C   UNL A   1      46.161  24.694  25.003  1.00  0.00     0.188 C 
BRANCH   2   3
ATOM      3  O   UNL A   1      45.865  25.632  26.011  1.00  0.00    -0.376 OA
BRANCH   3   4
ATOM      4  C   UNL A   1      44.940  25.359  27.042  1.00  0.00     0.202 C 
BRANCH   4   5
ATOM      5  C   UNL A   1      43.415  25.422  26.870  1.00  0.00     0.261 C 
BRANCH   5   6
ATOM      6  O   UNL A   1      42.931  26.148  25.742  1.00  0.00    -0.460 OA
BRANCH   6   7
ATOM      7  C   UNL A   1      42.780  27.469  25.526  1.00  0.00     0.338 C 
ATOM      8  O   UNL A   1      42.653  27.841  24.358  1.00  0.00    -0.246 OA
BRANCH   7   9
ATOM      9  C   UNL A   1      42.846  28.527  26.577  1.00  0.00     0.060 A 
ATOM     10  C   UNL A   1      43.976  29.240  26.981  1.00  0.00     0.016 A 
ATOM     11  C   UNL A   1      41.624  28.780  27.235  1.00  0.00     0.016 A 
ATOM     12  C   UNL A   1      43.938  29.984  28.152  1.00  0.00     0.010 A 
ATOM     13  C   UNL A   1      41.571  29.552  28.382  1.00  0.00     0.010 A 
ATOM     14  C   UNL A   1      42.752  30.070  28.884  1.00  0.00    -0.014 A 
BRANCH  14  15
ATOM     15  C   UNL A   1      42.775  30.791  30.144  1.00  0.00     0.031 A 
ATOM     16  C   UNL A   1      42.990  29.917  31.319  1.00  0.00     0.074 A 
ATOM     17  C   UNL A   1      42.638  32.129  30.221  1.00  0.00     0.049 A 
ATOM     18  N   UNL A   1      42.101  29.550  32.182  1.00  0.00    -0.248 NA
ATOM     19  C   UNL A   1      44.275  29.217  31.445  1.00  0.00     0.031 C 
ATOM     20  C   UNL A   1      42.679  33.104  29.127  1.00  0.00     0.029 A 
ATOM     21  N   UNL A   1      42.544  32.921  31.327  1.00  0.00    -0.354 N 
ATOM     22  C   UNL A   1      42.792  28.784  33.118  1.00  0.00     0.074 A 
ATOM     23  C   UNL A   1      44.045  28.435  32.503  1.00  0.00     0.031 C 
ATOM     24  C   UNL A   1      42.864  34.342  29.640  1.00  0.00     0.029 A 
ATOM     25  C   UNL A   1      42.812  34.266  31.089  1.00  0.00     0.049 A 
ATOM     26  H   UNL A   1      42.309  32.571  32.217  1.00  0.00     0.167 HD
ATOM     27  C   UNL A   1      42.384  28.745  34.417  1.00  0.00     0.034 A 
ATOM     28  C   UNL A   1      43.043  35.225  32.024  1.00  0.00     0.034 A 
ATOM     29  C   UNL A   1      41.039  29.248  34.553  1.00  0.00     0.049 A 
ATOM     30  C   UNL A   1      42.469  34.740  33.300  1.00  0.00     0.074 A 
ATOM     31  C   UNL A   1      39.806  28.907  34.035  1.00  0.00     0.029 A 
ATOM     32  N   UNL A   1      40.910  30.527  35.037  1.00  0.00    -0.354 N 
ATOM     33  N   UNL A   1      41.189  34.601  33.501  1.00  0.00    -0.248 NA
ATOM     34  C   UNL A   1      43.332  33.988  34.195  1.00  0.00     0.031 C 
ATOM     35  C   UNL A   1      39.145  30.152  33.813  1.00  0.00     0.029 A 
ATOM     36  C   UNL A   1      39.975  31.173  34.280  1.00  0.00     0.049 A 
ATOM     37  H   UNL A   1      41.406  30.911  35.796  1.00  0.00     0.167 HD
ATOM     38  C   UNL A   1      41.087  33.400  34.190  1.00  0.00     0.074 A 
ATOM     39  C   UNL A   1      42.435  33.128  34.685  1.00  0.00     0.031 C 
ATOM     40  C   UNL A   1      39.994  32.597  34.035  1.00  0.00     0.034 A 
BRANCH  27  41
ATOM     41  C   UNL A   1      43.306  28.665  35.615  1.00  0.00     0.023 A 
ATOM     42  C   UNL A   1      43.964  29.859  35.994  1.00  0.00     0.012 A 
ATOM     43  C   UNL A   1      43.789  27.464  36.185  1.00  0.00     0.148 A 
ATOM     44  C   UNL A   1      45.091  29.849  36.823  1.00  0.00     0.002 A 
ATOM     45  C   UNL A   1      44.862  27.466  37.067  1.00  0.00     0.091 A 
ATOM     46  F   UNL A   1      43.303  26.288  35.785  1.00  0.00    -0.205 F 
ATOM     47  C   UNL A   1      45.539  28.651  37.361  1.00  0.00     0.022 A 
BRANCH  45  48
ATOM     48  S   UNL A   1      45.472  25.954  37.826  1.00  0.00     0.127 S 
ATOM     49  O   UNL A   1      46.528  26.468  38.693  1.00  0.00    -0.237 OA
ATOM     50  O   UNL A   1      44.277  25.472  38.520  1.00  0.00    -0.237 OA
ATOM     51  O   UNL A   1      45.910  25.105  36.726  1.00  0.00    -0.744 OA
ENDBRANCH  45  48
ENDBRANCH  27  41
BRANCH  28  52
ATOM     52  C   UNL A   1      43.945  36.401  31.987  1.00  0.00     0.023 A 
ATOM     53  C   UNL A   1      44.935  36.493  30.985  1.00  0.00     0.012 A 
ATOM     54  C   UNL A   1      43.642  37.564  32.728  1.00  0.00     0.148 A 
ATOM     55  C   UNL A   1      45.568  37.711  30.703  1.00  0.00     0.002 A 
ATOM     56  C   UNL A   1      44.276  38.772  32.445  1.00  0.00     0.091 A 
ATOM     57  F   UNL A   1      42.664  37.512  33.640  1.00  0.00    -0.205 F 
ATOM     58  C   UNL A   1      45.231  38.852  31.424  1.00  0.00     0.022 A 
BRANCH  56  59
ATOM     59  S   UNL A   1      43.862  40.295  33.307  1.00  0.00     0.127 S 
ATOM     60  O   UNL A   1      42.402  40.305  33.220  1.00  0.00    -0.237 OA
ATOM     61  O   UNL A   1      44.394  40.039  34.643  1.00  0.00    -0.237 OA
ATOM     62  O   UNL A   1      44.515  41.364  32.563  1.00  0.00    -0.744 OA
ENDBRANCH  56  59
ENDBRANCH  28  52
BRANCH  40  63
ATOM     63  C   UNL A   1      38.780  33.172  33.350  1.00  0.00     0.023 A 
ATOM     64  C   UNL A   1      37.814  33.950  34.021  1.00  0.00     0.012 A 
ATOM     65  C   UNL A   1      38.710  33.051  31.954  1.00  0.00     0.148 A 
ATOM     66  C   UNL A   1      36.786  34.576  33.310  1.00  0.00     0.002 A 
ATOM     67  C   UNL A   1      37.717  33.715  31.246  1.00  0.00     0.091 A 
ATOM     68  F   UNL A   1      39.636  32.305  31.334  1.00  0.00    -0.205 F 
ATOM     69  C   UNL A   1      36.747  34.471  31.921  1.00  0.00     0.022 A 
BRANCH  67  70
ATOM     70  S   UNL A   1      37.702  33.719  29.453  1.00  0.00     0.127 S 
ATOM     71  O   UNL A   1      37.778  32.293  29.145  1.00  0.00    -0.237 OA
ATOM     72  O   UNL A   1      36.415  34.345  29.151  1.00  0.00    -0.237 OA
ATOM     73  O   UNL A   1      38.856  34.513  29.045  1.00  0.00    -0.744 OA
ENDBRANCH  67  70
ENDBRANCH  40  63
ENDBRANCH  14  15
ENDBRANCH   7   9
ENDBRANCH   6   7
ENDBRANCH   5   6
ENDBRANCH   4   5
ENDBRANCH   3   4
ENDBRANCH   2   3
ENDBRANCH   1   2
BRANCH   1  74
ATOM     74  O   UNL A   1      45.578  22.230  24.431  1.00  0.00    -0.376 OA
BRANCH  74  75
ATOM     75  C   UNL A   1      46.402  21.098  24.230  1.00  0.00     0.202 C 
BRANCH  75  76
ATOM     76  C   UNL A   1      46.288  19.911  25.199  1.00  0.00     0.261 C 
BRANCH  76  77
ATOM     77  O   UNL A   1      45.100  19.869  26.009  1.00  0.00    -0.460 OA
BRANCH  77  78
ATOM     78  C   UNL A   1      44.038  19.198  25.504  1.00  0.00     0.338 C 
ATOM     79  O   UNL A   1      44.035  18.079  24.998  1.00  0.00    -0.246 OA
BRANCH  78  80
ATOM     80  C   UNL A   1      42.809  19.982  25.738  1.00  0.00     0.060 A 
ATOM     81  C   UNL A   1      41.579  19.322  25.898  1.00  0.00     0.018 A 
ATOM     82  C   UNL A   1      42.872  21.376  25.799  1.00  0.00     0.018 A 
ATOM     83  C   UNL A   1      40.406  20.050  26.129  1.00  0.00     0.029 A 
ATOM     84  C   UNL A   1      41.707  22.105  26.051  1.00  0.00     0.029 A 
ATOM     85  C   UNL A   1      40.477  21.442  26.207  1.00  0.00     0.066 A 
BRANCH  85  86
ATOM     86  N   UNL A   1      39.307  22.217  26.377  1.00  0.00    -0.220 N 
ATOM     87  C   UNL A   1      38.086  22.036  25.748  1.00  0.00     0.141 A 
ATOM     88  N   UNL A   1      39.354  23.433  26.949  1.00  0.00    -0.062 NA
ATOM     89  C   UNL A   1      37.466  23.267  25.826  1.00  0.00     0.093 A 
ATOM     90  N   UNL A   1      38.221  24.054  26.676  1.00  0.00    -0.134 NA
BRANCH  89  91
ATOM     91  C   UNL A   1      36.406  24.012  25.095  1.00  0.00     0.138 C 
BRANCH  91  92
ATOM     92  S   UNL A   1      34.667  24.205  25.391  1.00  0.00    -0.081 SA
BRANCH  92  93
ATOM     93  C   UNL A   1      33.655  22.922  24.831  1.00  0.00     0.176 A 
ATOM     94  N   UNL A   1      33.881  21.821  25.485  1.00  0.00    -0.223 NA
ATOM     95  N   UNL A   1      32.670  23.002  23.858  1.00  0.00    -0.255 N 
ATOM     96  C   UNL A   1      33.253  20.646  25.076  1.00  0.00     0.079 A 
ATOM     97  C   UNL A   1      32.525  21.830  23.094  1.00  0.00     0.266 A 
ATOM     98  C   UNL A   1      33.265  19.508  25.882  1.00  0.00     0.029 A 
ATOM     99  C   UNL A   1      32.730  20.556  23.798  1.00  0.00     0.066 A 
ATOM    100  O   UNL A   1      32.265  21.784  21.891  1.00  0.00    -0.268 OA
ATOM    101  C   UNL A   1      32.834  18.280  25.369  1.00  0.00     0.002 A 
ATOM    102  C   UNL A   1      32.357  19.327  23.248  1.00  0.00     0.016 A 
ATOM    103  C   UNL A   1      32.422  18.182  24.038  1.00  0.00     0.001 A 
BRANCH  95 104
ATOM    104  C   UNL A   1      31.859  24.159  23.506  1.00  0.00     0.051 A 
ATOM    105  C   UNL A   1      32.310  25.056  22.514  1.00  0.00     0.028 A 
ATOM    106  C   UNL A   1      30.622  24.475  24.074  1.00  0.00     0.028 A 
ATOM    107  C   UNL A   1      31.706  26.298  22.294  1.00  0.00     0.018 A 
ATOM    108  C   UNL A   1      30.043  25.743  23.921  1.00  0.00     0.018 A 
ATOM    109  C   UNL A   1      30.615  26.667  23.060  1.00  0.00     0.018 A 
ATOM    110  Br  UNL A   1      29.908  28.411  22.929  1.00  0.00    -0.051 Br
ENDBRANCH  95 104
ENDBRANCH  92  93
ENDBRANCH  91  92
ENDBRANCH  89  91
ENDBRANCH  85  86
ENDBRANCH  78  80
ENDBRANCH  77  78
ENDBRANCH  76  77
ENDBRANCH  75  76
ENDBRANCH  74  75
ENDBRANCH   1  74
TORSDOF 25
ENDMDL
