MODEL 1
REMARK VINA RESULT:      -9.8      0.000      0.000
REMARK SMILES Cc1cc(OC(F)(F)F)cc2c1O[C@H](C(F)(F)F)C(C(=O)OCCOCCOCCOC(=O)c1ccc(-c3c4nc(c(-c5cccc(S(=O)(=O)[O-])c5F)c5ccc([nH]5)c(-c5cccc(S(=O)(=O)[O-])c5F)c5nc(c(-c6cccc(S(=O)(=O)[O-])c6F)c6ccc3[nH]6)C=C5)C=C4)cc1)=C2
REMARK SMILES IDX 27 1 26 2 25 3 24 4 23 5 22 6 20 7 21 8 19 9 1 10 2 11 3 12
REMARK SMILES IDX 12 13 4 14 11 15 13 16 10 17 97 18 14 19 5 20 6 21 7 22 8 23
REMARK SMILES IDX 9 24 15 25 16 26 17 27 18 28 28 29 29 30 30 31 31 32 32 33
REMARK SMILES IDX 33 34 34 35 35 36 96 37 36 38 95 39 37 40 38 41 39 42 89 43
REMARK SMILES IDX 40 44 94 45 88 46 90 47 41 48 93 49 87 50 86 51 42 53 74 54
REMARK SMILES IDX 54 55 73 56 55 57 58 58 72 59 91 60 56 61 57 62 71 64 92 65
REMARK SMILES IDX 59 66 43 67 44 68 52 69 45 70 47 71 53 72 46 73 48 74 49 75
REMARK SMILES IDX 50 76 51 77 75 78 76 79 84 80 77 81 79 82 85 83 78 84 80 85
REMARK SMILES IDX 81 86 82 87 83 88 60 89 61 90 69 91 62 92 64 93 70 94 63 95
REMARK SMILES IDX 65 96 66 97 67 98 68 99
REMARK H PARENT 90 52 58 63
REMARK Flexibility Score: inf
ROOT
ATOM      1  C   UNL A   1      33.153  33.695  28.073  1.00  0.00     0.188 C 
ENDROOT
BRANCH   1   2
ATOM      2  C   UNL A   1      34.692  33.601  28.001  1.00  0.00     0.188 C 
BRANCH   2   3
ATOM      3  O   UNL A   1      35.134  32.272  27.830  1.00  0.00    -0.376 OA
BRANCH   3   4
ATOM      4  C   UNL A   1      34.188  31.232  27.703  1.00  0.00     0.202 C 
BRANCH   4   5
ATOM      5  C   UNL A   1      34.614  29.807  27.313  1.00  0.00     0.261 C 
BRANCH   5   6
ATOM      6  O   UNL A   1      33.815  29.139  26.329  1.00  0.00    -0.460 OA
BRANCH   6   7
ATOM      7  C   UNL A   1      32.953  28.197  26.770  1.00  0.00     0.338 C 
ATOM      8  O   UNL A   1      32.123  28.326  27.655  1.00  0.00    -0.246 OA
BRANCH   7   9
ATOM      9  C   UNL A   1      33.114  26.983  25.941  1.00  0.00     0.087 C 
ATOM     10  C   UNL A   1      32.589  23.268  22.455  1.00  0.00     0.048 C 
ATOM     11  C   UNL A   1      33.648  23.669  23.445  1.00  0.00    -0.005 A 
ATOM     12  C   UNL A   1      34.884  23.000  23.453  1.00  0.00     0.054 A 
ATOM     13  C   UNL A   1      33.441  24.745  24.325  1.00  0.00     0.131 A 
ATOM     14  C   UNL A   1      35.895  23.381  24.336  1.00  0.00     0.130 A 
ATOM     15  C   UNL A   1      34.456  25.148  25.195  1.00  0.00     0.021 A 
ATOM     16  O   UNL A   1      32.219  25.353  24.270  1.00  0.00    -0.475 OA
ATOM     17  C   UNL A   1      35.668  24.447  25.213  1.00  0.00     0.058 A 
ATOM     18  C   UNL A   1      34.275  26.323  26.034  1.00  0.00     0.027 C 
ATOM     19  C   UNL A   1      31.970  26.542  25.063  1.00  0.00     0.316 C 
BRANCH  14  20
ATOM     20  O   UNL A   1      37.133  22.815  24.442  1.00  0.00    -0.406 OA
BRANCH  20  21
ATOM     21  C   UNL A   1      37.307  21.780  25.396  1.00  0.00     0.573 C 
ATOM     22  F   UNL A   1      38.293  22.083  26.268  1.00  0.00    -0.132 F 
ATOM     23  F   UNL A   1      36.163  21.555  26.081  1.00  0.00    -0.132 F 
ATOM     24  F   UNL A   1      37.642  20.640  24.756  1.00  0.00    -0.132 F 
ENDBRANCH  20  21
ENDBRANCH  14  20
BRANCH  19  25
ATOM     25  C   UNL A   1      31.496  27.651  24.114  1.00  0.00     0.430 C 
ATOM     26  F   UNL A   1      32.546  28.340  23.601  1.00  0.00    -0.167 F 
ATOM     27  F   UNL A   1      30.810  27.157  23.057  1.00  0.00    -0.167 F 
ATOM     28  F   UNL A   1      30.693  28.545  24.734  1.00  0.00    -0.167 F 
ENDBRANCH  19  25
ENDBRANCH   7   9
ENDBRANCH   6   7
ENDBRANCH   5   6
ENDBRANCH   4   5
ENDBRANCH   3   4
ENDBRANCH   2   3
ENDBRANCH   1   2
BRANCH   1  29
ATOM     29  O   UNL A   1      32.545  34.950  28.368  1.00  0.00    -0.376 OA
BRANCH  29  30
ATOM     30  C   UNL A   1      33.347  35.976  28.949  1.00  0.00     0.202 C 
BRANCH  30  31
ATOM     31  C   UNL A   1      32.826  36.706  30.195  1.00  0.00     0.261 C 
BRANCH  31  32
ATOM     32  O   UNL A   1      33.568  36.442  31.397  1.00  0.00    -0.460 OA
BRANCH  32  33
ATOM     33  C   UNL A   1      33.271  35.276  32.023  1.00  0.00     0.338 C 
ATOM     34  O   UNL A   1      32.179  34.908  32.420  1.00  0.00    -0.246 OA
BRANCH  33  35
ATOM     35  C   UNL A   1      34.451  34.389  31.997  1.00  0.00     0.060 A 
ATOM     36  C   UNL A   1      34.363  33.143  32.634  1.00  0.00     0.016 A 
ATOM     37  C   UNL A   1      35.647  34.806  31.414  1.00  0.00     0.016 A 
ATOM     38  C   UNL A   1      35.478  32.310  32.696  1.00  0.00     0.010 A 
ATOM     39  C   UNL A   1      36.776  33.987  31.514  1.00  0.00     0.010 A 
ATOM     40  C   UNL A   1      36.703  32.750  32.176  1.00  0.00    -0.014 A 
BRANCH  40  41
ATOM     41  C   UNL A   1      37.940  32.010  32.516  1.00  0.00     0.031 A 
ATOM     42  C   UNL A   1      38.645  32.359  33.798  1.00  0.00     0.074 A 
ATOM     43  C   UNL A   1      38.423  31.046  31.713  1.00  0.00     0.049 A 
ATOM     44  N   UNL A   1      39.744  31.860  34.297  1.00  0.00    -0.248 NA
ATOM     45  C   UNL A   1      38.024  33.401  34.637  1.00  0.00     0.031 C 
ATOM     46  C   UNL A   1      37.812  30.595  30.464  1.00  0.00     0.029 A 
ATOM     47  N   UNL A   1      39.554  30.277  31.831  1.00  0.00    -0.354 N 
ATOM     48  C   UNL A   1      39.951  32.528  35.497  1.00  0.00     0.074 A 
ATOM     49  C   UNL A   1      38.868  33.470  35.658  1.00  0.00     0.031 C 
ATOM     50  C   UNL A   1      38.588  29.639  29.920  1.00  0.00     0.029 A 
ATOM     51  C   UNL A   1      39.756  29.424  30.772  1.00  0.00     0.049 A 
ATOM     52  H   UNL A   1      40.164  30.332  32.602  1.00  0.00     0.167 HD
ATOM     53  C   UNL A   1      40.948  32.361  36.393  1.00  0.00     0.034 A 
ATOM     54  C   UNL A   1      40.774  28.578  30.519  1.00  0.00     0.034 A 
ATOM     55  C   UNL A   1      42.023  31.424  36.242  1.00  0.00     0.049 A 
ATOM     56  C   UNL A   1      41.909  28.464  31.505  1.00  0.00     0.074 A 
ATOM     57  C   UNL A   1      43.073  31.181  37.110  1.00  0.00     0.029 A 
ATOM     58  N   UNL A   1      42.193  30.585  35.155  1.00  0.00    -0.354 N 
ATOM     59  N   UNL A   1      42.046  29.043  32.673  1.00  0.00    -0.248 NA
ATOM     60  C   UNL A   1      43.021  27.568  31.147  1.00  0.00     0.031 C 
ATOM     61  C   UNL A   1      43.884  30.197  36.543  1.00  0.00     0.029 A 
ATOM     62  C   UNL A   1      43.333  29.824  35.326  1.00  0.00     0.049 A 
ATOM     63  H   UNL A   1      41.592  30.539  34.377  1.00  0.00     0.167 HD
ATOM     64  C   UNL A   1      43.236  28.557  33.202  1.00  0.00     0.074 A 
ATOM     65  C   UNL A   1      43.783  27.632  32.232  1.00  0.00     0.031 C 
ATOM     66  C   UNL A   1      43.830  28.862  34.381  1.00  0.00     0.034 A 
BRANCH  53  67
ATOM     67  C   UNL A   1      40.912  33.174  37.654  1.00  0.00     0.023 A 
ATOM     68  C   UNL A   1      40.268  32.640  38.787  1.00  0.00     0.012 A 
ATOM     69  C   UNL A   1      41.616  34.386  37.754  1.00  0.00     0.148 A 
ATOM     70  C   UNL A   1      40.332  33.304  40.010  1.00  0.00     0.002 A 
ATOM     71  C   UNL A   1      41.697  35.029  38.982  1.00  0.00     0.091 A 
ATOM     72  F   UNL A   1      42.210  34.871  36.654  1.00  0.00    -0.205 F 
ATOM     73  C   UNL A   1      41.054  34.490  40.111  1.00  0.00     0.022 A 
BRANCH  71  74
ATOM     74  S   UNL A   1      42.643  36.534  39.234  1.00  0.00     0.127 S 
ATOM     75  O   UNL A   1      41.603  37.558  39.129  1.00  0.00    -0.237 OA
ATOM     76  O   UNL A   1      43.173  36.338  40.583  1.00  0.00    -0.237 OA
ATOM     77  O   UNL A   1      43.642  36.567  38.175  1.00  0.00    -0.744 OA
ENDBRANCH  71  74
ENDBRANCH  53  67
BRANCH  54  78
ATOM     78  C   UNL A   1      40.756  27.727  29.296  1.00  0.00     0.023 A 
ATOM     79  C   UNL A   1      39.898  26.612  29.253  1.00  0.00     0.012 A 
ATOM     80  C   UNL A   1      41.578  28.010  28.189  1.00  0.00     0.148 A 
ATOM     81  C   UNL A   1      39.872  25.779  28.133  1.00  0.00     0.002 A 
ATOM     82  C   UNL A   1      41.523  27.196  27.064  1.00  0.00     0.091 A 
ATOM     83  F   UNL A   1      42.398  29.067  28.263  1.00  0.00    -0.205 F 
ATOM     84  C   UNL A   1      40.679  26.074  27.037  1.00  0.00     0.022 A 
BRANCH  82  85
ATOM     85  S   UNL A   1      42.465  27.537  25.573  1.00  0.00     0.127 S 
ATOM     86  O   UNL A   1      43.828  27.619  26.093  1.00  0.00    -0.237 OA
ATOM     87  O   UNL A   1      42.185  26.352  24.762  1.00  0.00    -0.237 OA
ATOM     88  O   UNL A   1      41.921  28.778  25.036  1.00  0.00    -0.744 OA
ENDBRANCH  82  85
ENDBRANCH  54  78
BRANCH  66  89
ATOM     89  C   UNL A   1      45.127  28.186  34.730  1.00  0.00     0.023 A 
ATOM     90  C   UNL A   1      45.098  26.921  35.348  1.00  0.00     0.012 A 
ATOM     91  C   UNL A   1      46.354  28.725  34.298  1.00  0.00     0.148 A 
ATOM     92  C   UNL A   1      46.277  26.201  35.531  1.00  0.00     0.002 A 
ATOM     93  C   UNL A   1      47.520  27.987  34.452  1.00  0.00     0.091 A 
ATOM     94  F   UNL A   1      46.348  29.932  33.713  1.00  0.00    -0.205 F 
ATOM     95  C   UNL A   1      47.484  26.726  35.072  1.00  0.00     0.022 A 
BRANCH  93  96
ATOM     96  S   UNL A   1      49.109  28.538  33.820  1.00  0.00     0.127 S 
ATOM     97  O   UNL A   1      50.004  27.492  34.314  1.00  0.00    -0.237 OA
ATOM     98  O   UNL A   1      48.889  28.519  32.374  1.00  0.00    -0.237 OA
ATOM     99  O   UNL A   1      49.333  29.861  34.386  1.00  0.00    -0.744 OA
ENDBRANCH  93  96
ENDBRANCH  66  89
ENDBRANCH  40  41
ENDBRANCH  33  35
ENDBRANCH  32  33
ENDBRANCH  31  32
ENDBRANCH  30  31
ENDBRANCH  29  30
ENDBRANCH   1  29
TORSDOF 23
ENDMDL
MODEL 2
REMARK VINA RESULT:      -9.8      1.844      7.527
REMARK SMILES Cc1cc(OC(F)(F)F)cc2c1O[C@H](C(F)(F)F)C(C(=O)OCCOCCOCCOC(=O)c1ccc(-c3c4nc(c(-c5cccc(S(=O)(=O)[O-])c5F)c5ccc([nH]5)c(-c5cccc(S(=O)(=O)[O-])c5F)c5nc(c(-c6cccc(S(=O)(=O)[O-])c6F)c6ccc3[nH]6)C=C5)C=C4)cc1)=C2
REMARK SMILES IDX 27 1 26 2 25 3 24 4 23 5 22 6 20 7 21 8 19 9 1 10 2 11 3 12
REMARK SMILES IDX 12 13 4 14 11 15 13 16 10 17 97 18 14 19 5 20 6 21 7 22 8 23
REMARK SMILES IDX 9 24 15 25 16 26 17 27 18 28 28 29 29 30 30 31 31 32 32 33
REMARK SMILES IDX 33 34 34 35 35 36 96 37 36 38 95 39 37 40 38 41 39 42 89 43
REMARK SMILES IDX 40 44 94 45 88 46 90 47 41 48 93 49 87 50 86 51 42 53 74 54
REMARK SMILES IDX 54 55 73 56 55 57 58 58 72 59 91 60 56 61 57 62 71 64 92 65
REMARK SMILES IDX 59 66 43 67 44 68 52 69 45 70 47 71 53 72 46 73 48 74 49 75
REMARK SMILES IDX 50 76 51 77 75 78 76 79 84 80 77 81 79 82 85 83 78 84 80 85
REMARK SMILES IDX 81 86 82 87 83 88 60 89 61 90 69 91 62 92 64 93 70 94 63 95
REMARK SMILES IDX 65 96 66 97 67 98 68 99
REMARK H PARENT 90 52 58 63
REMARK Flexibility Score: inf
ROOT
ATOM      1  C   UNL A   1      33.871  33.804  29.018  1.00  0.00     0.188 C 
ENDROOT
BRANCH   1   2
ATOM      2  C   UNL A   1      35.052  33.575  28.050  1.00  0.00     0.188 C 
BRANCH   2   3
ATOM      3  O   UNL A   1      34.994  32.307  27.434  1.00  0.00    -0.376 OA
BRANCH   3   4
ATOM      4  C   UNL A   1      35.236  31.147  28.201  1.00  0.00     0.202 C 
BRANCH   4   5
ATOM      5  C   UNL A   1      35.194  29.746  27.567  1.00  0.00     0.261 C 
BRANCH   5   6
ATOM      6  O   UNL A   1      34.365  29.583  26.411  1.00  0.00    -0.460 OA
BRANCH   6   7
ATOM      7  C   UNL A   1      33.057  29.316  26.621  1.00  0.00     0.338 C 
ATOM      8  O   UNL A   1      32.244  30.043  27.167  1.00  0.00    -0.246 OA
BRANCH   7   9
ATOM      9  C   UNL A   1      32.735  28.013  26.002  1.00  0.00     0.087 C 
ATOM     10  C   UNL A   1      30.669  24.221  23.248  1.00  0.00     0.048 C 
ATOM     11  C   UNL A   1      31.914  24.392  24.075  1.00  0.00    -0.005 A 
ATOM     12  C   UNL A   1      32.877  23.369  24.105  1.00  0.00     0.054 A 
ATOM     13  C   UNL A   1      32.157  25.588  24.772  1.00  0.00     0.131 A 
ATOM     14  C   UNL A   1      34.057  23.523  24.832  1.00  0.00     0.130 A 
ATOM     15  C   UNL A   1      33.347  25.759  25.482  1.00  0.00     0.021 A 
ATOM     16  O   UNL A   1      31.183  26.544  24.704  1.00  0.00    -0.475 OA
ATOM     17  C   UNL A   1      34.278  24.715  25.529  1.00  0.00     0.058 A 
ATOM     18  C   UNL A   1      33.640  27.034  26.120  1.00  0.00     0.027 C 
ATOM     19  C   UNL A   1      31.411  27.847  25.300  1.00  0.00     0.316 C 
BRANCH  14  20
ATOM     20  O   UNL A   1      35.066  22.608  24.941  1.00  0.00    -0.406 OA
BRANCH  20  21
ATOM     21  C   UNL A   1      36.167  22.731  24.055  1.00  0.00     0.573 C 
ATOM     22  F   UNL A   1      35.752  22.996  22.797  1.00  0.00    -0.132 F 
ATOM     23  F   UNL A   1      37.009  23.709  24.460  1.00  0.00    -0.132 F 
ATOM     24  F   UNL A   1      36.854  21.569  24.039  1.00  0.00    -0.132 F 
ENDBRANCH  20  21
ENDBRANCH  14  20
BRANCH  19  25
ATOM     25  C   UNL A   1      31.184  28.907  24.213  1.00  0.00     0.430 C 
ATOM     26  F   UNL A   1      32.358  29.294  23.653  1.00  0.00    -0.167 F 
ATOM     27  F   UNL A   1      30.413  28.444  23.203  1.00  0.00    -0.167 F 
ATOM     28  F   UNL A   1      30.587  30.018  24.701  1.00  0.00    -0.167 F 
ENDBRANCH  19  25
ENDBRANCH   7   9
ENDBRANCH   6   7
ENDBRANCH   5   6
ENDBRANCH   4   5
ENDBRANCH   3   4
ENDBRANCH   2   3
ENDBRANCH   1   2
BRANCH   1  29
ATOM     29  O   UNL A   1      32.906  34.808  28.713  1.00  0.00    -0.376 OA
BRANCH  29  30
ATOM     30  C   UNL A   1      33.139  36.138  29.172  1.00  0.00     0.202 C 
BRANCH  30  31
ATOM     31  C   UNL A   1      32.347  36.653  30.382  1.00  0.00     0.261 C 
BRANCH  31  32
ATOM     32  O   UNL A   1      33.062  36.604  31.628  1.00  0.00    -0.460 OA
BRANCH  32  33
ATOM     33  C   UNL A   1      32.885  35.474  32.359  1.00  0.00     0.338 C 
ATOM     34  O   UNL A   1      31.840  35.046  32.817  1.00  0.00    -0.246 OA
BRANCH  33  35
ATOM     35  C   UNL A   1      34.140  34.697  32.374  1.00  0.00     0.060 A 
ATOM     36  C   UNL A   1      34.123  33.412  32.934  1.00  0.00     0.016 A 
ATOM     37  C   UNL A   1      35.331  35.252  31.906  1.00  0.00     0.016 A 
ATOM     38  C   UNL A   1      35.302  32.677  33.034  1.00  0.00     0.010 A 
ATOM     39  C   UNL A   1      36.521  34.530  32.046  1.00  0.00     0.010 A 
ATOM     40  C   UNL A   1      36.515  33.253  32.633  1.00  0.00    -0.014 A 
BRANCH  40  41
ATOM     41  C   UNL A   1      37.787  32.605  33.024  1.00  0.00     0.031 A 
ATOM     42  C   UNL A   1      38.406  31.621  32.067  1.00  0.00     0.074 A 
ATOM     43  C   UNL A   1      38.388  32.887  34.194  1.00  0.00     0.049 A 
ATOM     44  N   UNL A   1      39.503  30.925  32.196  1.00  0.00    -0.248 NA
ATOM     45  C   UNL A   1      37.701  31.402  30.791  1.00  0.00     0.031 C 
ATOM     46  C   UNL A   1      37.905  33.846  35.186  1.00  0.00     0.029 A 
ATOM     47  N   UNL A   1      39.537  32.379  34.746  1.00  0.00    -0.354 N 
ATOM     48  C   UNL A   1      39.616  30.181  31.028  1.00  0.00     0.074 A 
ATOM     49  C   UNL A   1      38.479  30.507  30.198  1.00  0.00     0.031 C 
ATOM     50  C   UNL A   1      38.745  33.842  36.239  1.00  0.00     0.029 A 
ATOM     51  C   UNL A   1      39.811  32.871  36.001  1.00  0.00     0.049 A 
ATOM     52  H   UNL A   1      40.111  31.724  34.287  1.00  0.00     0.167 HD
ATOM     53  C   UNL A   1      40.590  29.315  30.672  1.00  0.00     0.034 A 
ATOM     54  C   UNL A   1      40.803  32.560  36.859  1.00  0.00     0.034 A 
ATOM     55  C   UNL A   1      41.724  28.992  31.489  1.00  0.00     0.049 A 
ATOM     56  C   UNL A   1      41.837  31.537  36.461  1.00  0.00     0.074 A 
ATOM     57  C   UNL A   1      42.766  28.130  31.200  1.00  0.00     0.029 A 
ATOM     58  N   UNL A   1      41.960  29.506  32.751  1.00  0.00    -0.354 N 
ATOM     59  N   UNL A   1      41.974  30.906  35.320  1.00  0.00    -0.248 NA
ATOM     60  C   UNL A   1      42.862  31.196  37.461  1.00  0.00     0.031 C 
ATOM     61  C   UNL A   1      43.633  28.117  32.294  1.00  0.00     0.029 A 
ATOM     62  C   UNL A   1      43.131  28.978  33.259  1.00  0.00     0.049 A 
ATOM     63  H   UNL A   1      41.380  30.151  33.217  1.00  0.00     0.167 HD
ATOM     64  C   UNL A   1      43.116  30.122  35.453  1.00  0.00     0.074 A 
ATOM     65  C   UNL A   1      43.638  30.360  36.783  1.00  0.00     0.031 C 
ATOM     66  C   UNL A   1      43.672  29.272  34.558  1.00  0.00     0.034 A 
BRANCH  53  67
ATOM     67  C   UNL A   1      40.511  28.677  29.317  1.00  0.00     0.023 A 
ATOM     68  C   UNL A   1      40.982  29.396  28.200  1.00  0.00     0.012 A 
ATOM     69  C   UNL A   1      40.101  27.341  29.167  1.00  0.00     0.148 A 
ATOM     70  C   UNL A   1      41.050  28.788  26.949  1.00  0.00     0.002 A 
ATOM     71  C   UNL A   1      40.197  26.733  27.923  1.00  0.00     0.091 A 
ATOM     72  F   UNL A   1      39.650  26.688  30.248  1.00  0.00    -0.205 F 
ATOM     73  C   UNL A   1      40.669  27.455  26.812  1.00  0.00     0.022 A 
BRANCH  71  74
ATOM     74  S   UNL A   1      39.781  25.008  27.646  1.00  0.00     0.127 S 
ATOM     75  O   UNL A   1      40.940  24.328  28.225  1.00  0.00    -0.237 OA
ATOM     76  O   UNL A   1      38.544  24.866  28.412  1.00  0.00    -0.237 OA
ATOM     77  O   UNL A   1      39.638  24.852  26.205  1.00  0.00    -0.744 OA
ENDBRANCH  71  74
ENDBRANCH  53  67
BRANCH  54  78
ATOM     78  C   UNL A   1      40.905  33.257  38.171  1.00  0.00     0.023 A 
ATOM     79  C   UNL A   1      40.279  32.688  39.297  1.00  0.00     0.012 A 
ATOM     80  C   UNL A   1      41.606  34.469  38.310  1.00  0.00     0.148 A 
ATOM     81  C   UNL A   1      40.333  33.325  40.537  1.00  0.00     0.002 A 
ATOM     82  C   UNL A   1      41.685  35.081  39.556  1.00  0.00     0.091 A 
ATOM     83  F   UNL A   1      42.179  34.998  37.220  1.00  0.00    -0.205 F 
ATOM     84  C   UNL A   1      41.041  34.517  40.668  1.00  0.00     0.022 A 
BRANCH  82  85
ATOM     85  S   UNL A   1      42.638  36.577  39.842  1.00  0.00     0.127 S 
ATOM     86  O   UNL A   1      43.925  36.231  39.245  1.00  0.00    -0.237 OA
ATOM     87  O   UNL A   1      41.862  37.573  39.103  1.00  0.00    -0.237 OA
ATOM     88  O   UNL A   1      42.646  36.771  41.287  1.00  0.00    -0.744 OA
ENDBRANCH  82  85
ENDBRANCH  54  78
BRANCH  66  89
ATOM     89  C   UNL A   1      44.926  28.539  34.945  1.00  0.00     0.023 A 
ATOM     90  C   UNL A   1      46.166  29.197  34.843  1.00  0.00     0.012 A 
ATOM     91  C   UNL A   1      44.855  27.273  35.559  1.00  0.00     0.148 A 
ATOM     92  C   UNL A   1      47.322  28.603  35.348  1.00  0.00     0.002 A 
ATOM     93  C   UNL A   1      46.004  26.703  36.090  1.00  0.00     0.091 A 
ATOM     94  F   UNL A   1      43.659  26.671  35.639  1.00  0.00    -0.205 F 
ATOM     95  C   UNL A   1      47.239  27.365  35.983  1.00  0.00     0.022 A 
BRANCH  93  96
ATOM     96  S   UNL A   1      45.988  25.153  37.000  1.00  0.00     0.127 S 
ATOM     97  O   UNL A   1      45.564  24.208  35.968  1.00  0.00    -0.237 OA
ATOM     98  O   UNL A   1      47.386  25.022  37.411  1.00  0.00    -0.237 OA
ATOM     99  O   UNL A   1      45.045  25.336  38.095  1.00  0.00    -0.744 OA
ENDBRANCH  93  96
ENDBRANCH  66  89
ENDBRANCH  40  41
ENDBRANCH  33  35
ENDBRANCH  32  33
ENDBRANCH  31  32
ENDBRANCH  30  31
ENDBRANCH  29  30
ENDBRANCH   1  29
TORSDOF 23
ENDMDL
MODEL 3
REMARK VINA RESULT:      -9.5      2.630      8.403
REMARK SMILES Cc1cc(OC(F)(F)F)cc2c1O[C@H](C(F)(F)F)C(C(=O)OCCOCCOCCOC(=O)c1ccc(-c3c4nc(c(-c5cccc(S(=O)(=O)[O-])c5F)c5ccc([nH]5)c(-c5cccc(S(=O)(=O)[O-])c5F)c5nc(c(-c6cccc(S(=O)(=O)[O-])c6F)c6ccc3[nH]6)C=C5)C=C4)cc1)=C2
REMARK SMILES IDX 27 1 26 2 25 3 24 4 23 5 22 6 20 7 21 8 19 9 1 10 2 11 3 12
REMARK SMILES IDX 12 13 4 14 11 15 13 16 10 17 97 18 14 19 5 20 6 21 7 22 8 23
REMARK SMILES IDX 9 24 15 25 16 26 17 27 18 28 28 29 29 30 30 31 31 32 32 33
REMARK SMILES IDX 33 34 34 35 35 36 96 37 36 38 95 39 37 40 38 41 39 42 89 43
REMARK SMILES IDX 40 44 94 45 88 46 90 47 41 48 93 49 87 50 86 51 42 53 74 54
REMARK SMILES IDX 54 55 73 56 55 57 58 58 72 59 91 60 56 61 57 62 71 64 92 65
REMARK SMILES IDX 59 66 43 67 44 68 52 69 45 70 47 71 53 72 46 73 48 74 49 75
REMARK SMILES IDX 50 76 51 77 75 78 76 79 84 80 77 81 79 82 85 83 78 84 80 85
REMARK SMILES IDX 81 86 82 87 83 88 60 89 61 90 69 91 62 92 64 93 70 94 63 95
REMARK SMILES IDX 65 96 66 97 67 98 68 99
REMARK H PARENT 90 52 58 63
REMARK Flexibility Score: inf
ROOT
ATOM      1  C   UNL A   1      34.159  33.698  29.095  1.00  0.00     0.188 C 
ENDROOT
BRANCH   1   2
ATOM      2  C   UNL A   1      35.211  33.454  27.992  1.00  0.00     0.188 C 
BRANCH   2   3
ATOM      3  O   UNL A   1      35.177  32.127  27.512  1.00  0.00    -0.376 OA
BRANCH   3   4
ATOM      4  C   UNL A   1      36.177  31.215  27.912  1.00  0.00     0.202 C 
BRANCH   4   5
ATOM      5  C   UNL A   1      35.989  29.698  27.740  1.00  0.00     0.261 C 
BRANCH   5   6
ATOM      6  O   UNL A   1      35.134  29.267  26.675  1.00  0.00    -0.460 OA
BRANCH   6   7
ATOM      7  C   UNL A   1      33.925  28.772  27.016  1.00  0.00     0.338 C 
ATOM      8  O   UNL A   1      33.489  28.626  28.146  1.00  0.00    -0.246 OA
BRANCH   7   9
ATOM      9  C   UNL A   1      33.158  28.503  25.781  1.00  0.00     0.087 C 
ATOM     10  C   UNL A   1      31.211  26.439  21.516  1.00  0.00     0.048 C 
ATOM     11  C   UNL A   1      30.867  27.610  22.396  1.00  0.00    -0.005 A 
ATOM     12  C   UNL A   1      29.694  28.344  22.152  1.00  0.00     0.054 A 
ATOM     13  C   UNL A   1      31.674  27.945  23.497  1.00  0.00     0.131 A 
ATOM     14  C   UNL A   1      29.334  29.408  22.980  1.00  0.00     0.130 A 
ATOM     15  C   UNL A   1      31.308  28.994  24.343  1.00  0.00     0.021 A 
ATOM     16  O   UNL A   1      32.801  27.195  23.680  1.00  0.00    -0.475 OA
ATOM     17  C   UNL A   1      30.155  29.736  24.065  1.00  0.00     0.058 A 
ATOM     18  C   UNL A   1      32.091  29.275  25.537  1.00  0.00     0.027 C 
ATOM     19  C   UNL A   1      33.621  27.405  24.858  1.00  0.00     0.316 C 
BRANCH  14  20
ATOM     20  O   UNL A   1      28.225  30.195  22.850  1.00  0.00    -0.406 OA
BRANCH  20  21
ATOM     21  C   UNL A   1      28.321  31.338  22.017  1.00  0.00     0.573 C 
ATOM     22  F   UNL A   1      27.464  31.254  20.976  1.00  0.00    -0.132 F 
ATOM     23  F   UNL A   1      28.063  32.470  22.712  1.00  0.00    -0.132 F 
ATOM     24  F   UNL A   1      29.575  31.425  21.527  1.00  0.00    -0.132 F 
ENDBRANCH  20  21
ENDBRANCH  14  20
BRANCH  19  25
ATOM     25  C   UNL A   1      33.767  26.055  25.576  1.00  0.00     0.430 C 
ATOM     26  F   UNL A   1      33.559  25.021  24.723  1.00  0.00    -0.167 F 
ATOM     27  F   UNL A   1      35.008  25.884  26.089  1.00  0.00    -0.167 F 
ATOM     28  F   UNL A   1      32.887  25.921  26.593  1.00  0.00    -0.167 F 
ENDBRANCH  19  25
ENDBRANCH   7   9
ENDBRANCH   6   7
ENDBRANCH   5   6
ENDBRANCH   4   5
ENDBRANCH   3   4
ENDBRANCH   2   3
ENDBRANCH   1   2
BRANCH   1  29
ATOM     29  O   UNL A   1      33.095  34.614  28.850  1.00  0.00    -0.376 OA
BRANCH  29  30
ATOM     30  C   UNL A   1      33.294  35.991  29.164  1.00  0.00     0.202 C 
BRANCH  30  31
ATOM     31  C   UNL A   1      32.547  36.592  30.363  1.00  0.00     0.261 C 
BRANCH  31  32
ATOM     32  O   UNL A   1      33.256  36.510  31.611  1.00  0.00    -0.460 OA
BRANCH  32  33
ATOM     33  C   UNL A   1      33.037  35.382  32.334  1.00  0.00     0.338 C 
ATOM     34  O   UNL A   1      31.965  34.944  32.714  1.00  0.00    -0.246 OA
BRANCH  33  35
ATOM     35  C   UNL A   1      34.297  34.620  32.449  1.00  0.00     0.060 A 
ATOM     36  C   UNL A   1      34.249  33.331  32.997  1.00  0.00     0.016 A 
ATOM     37  C   UNL A   1      35.516  35.193  32.087  1.00  0.00     0.016 A 
ATOM     38  C   UNL A   1      35.425  32.609  33.191  1.00  0.00     0.010 A 
ATOM     39  C   UNL A   1      36.699  34.485  32.321  1.00  0.00     0.010 A 
ATOM     40  C   UNL A   1      36.659  33.203  32.897  1.00  0.00    -0.014 A 
BRANCH  40  41
ATOM     41  C   UNL A   1      37.903  32.568  33.389  1.00  0.00     0.031 A 
ATOM     42  C   UNL A   1      38.476  31.424  32.597  1.00  0.00     0.074 A 
ATOM     43  C   UNL A   1      38.516  32.999  34.506  1.00  0.00     0.049 A 
ATOM     44  N   UNL A   1      39.542  30.708  32.836  1.00  0.00    -0.248 NA
ATOM     45  C   UNL A   1      37.761  31.043  31.365  1.00  0.00     0.031 C 
ATOM     46  C   UNL A   1      38.077  34.118  35.338  1.00  0.00     0.029 A 
ATOM     47  N   UNL A   1      39.643  32.531  35.136  1.00  0.00    -0.354 N 
ATOM     48  C   UNL A   1      39.621  29.791  31.797  1.00  0.00     0.074 A 
ATOM     49  C   UNL A   1      38.499  30.035  30.920  1.00  0.00     0.031 C 
ATOM     50  C   UNL A   1      38.917  34.237  36.383  1.00  0.00     0.029 A 
ATOM     51  C   UNL A   1      39.940  33.196  36.303  1.00  0.00     0.049 A 
ATOM     52  H   UNL A   1      40.187  31.790  34.785  1.00  0.00     0.167 HD
ATOM     53  C   UNL A   1      40.555  28.839  31.582  1.00  0.00     0.034 A 
ATOM     54  C   UNL A   1      40.918  32.977  37.203  1.00  0.00     0.034 A 
ATOM     55  C   UNL A   1      41.675  28.595  32.445  1.00  0.00     0.049 A 
ATOM     56  C   UNL A   1      41.905  31.862  36.971  1.00  0.00     0.074 A 
ATOM     57  C   UNL A   1      42.678  27.655  32.297  1.00  0.00     0.029 A 
ATOM     58  N   UNL A   1      41.935  29.285  33.616  1.00  0.00    -0.354 N 
ATOM     59  N   UNL A   1      42.014  31.058  35.941  1.00  0.00    -0.248 NA
ATOM     60  C   UNL A   1      42.916  31.633  38.017  1.00  0.00     0.031 C 
ATOM     61  C   UNL A   1      43.545  27.771  33.385  1.00  0.00     0.029 A 
ATOM     62  C   UNL A   1      43.083  28.790  34.204  1.00  0.00     0.049 A 
ATOM     63  H   UNL A   1      41.384  30.018  33.974  1.00  0.00     0.167 HD
ATOM     64  C   UNL A   1      43.120  30.255  36.199  1.00  0.00     0.074 A 
ATOM     65  C   UNL A   1      43.653  30.670  37.479  1.00  0.00     0.031 C 
ATOM     66  C   UNL A   1      43.637  29.255  35.446  1.00  0.00     0.034 A 
BRANCH  53  67
ATOM     67  C   UNL A   1      40.447  28.006  30.339  1.00  0.00     0.023 A 
ATOM     68  C   UNL A   1      39.443  27.021  30.267  1.00  0.00     0.012 A 
ATOM     69  C   UNL A   1      41.241  28.282  29.212  1.00  0.00     0.148 A 
ATOM     70  C   UNL A   1      39.226  26.323  29.081  1.00  0.00     0.002 A 
ATOM     71  C   UNL A   1      41.001  27.601  28.026  1.00  0.00     0.091 A 
ATOM     72  F   UNL A   1      42.194  29.219  29.317  1.00  0.00    -0.205 F 
ATOM     73  C   UNL A   1      39.996  26.620  27.959  1.00  0.00     0.022 A 
BRANCH  71  74
ATOM     74  S   UNL A   1      41.899  27.940  26.508  1.00  0.00     0.127 S 
ATOM     75  O   UNL A   1      41.531  29.333  26.252  1.00  0.00    -0.237 OA
ATOM     76  O   UNL A   1      43.287  27.742  26.925  1.00  0.00    -0.237 OA
ATOM     77  O   UNL A   1      41.406  26.987  25.524  1.00  0.00    -0.744 OA
ENDBRANCH  71  74
ENDBRANCH  53  67
BRANCH  54  78
ATOM     78  C   UNL A   1      41.052  33.861  38.395  1.00  0.00     0.023 A 
ATOM     79  C   UNL A   1      41.986  34.913  38.364  1.00  0.00     0.012 A 
ATOM     80  C   UNL A   1      40.270  33.664  39.549  1.00  0.00     0.148 A 
ATOM     81  C   UNL A   1      42.155  35.745  39.472  1.00  0.00     0.002 A 
ATOM     82  C   UNL A   1      40.419  34.518  40.636  1.00  0.00     0.091 A 
ATOM     83  F   UNL A   1      39.400  32.645  39.559  1.00  0.00    -0.205 F 
ATOM     84  C   UNL A   1      41.367  35.552  40.604  1.00  0.00     0.022 A 
BRANCH  82  85
ATOM     85  S   UNL A   1      39.398  34.399  42.109  1.00  0.00     0.127 S 
ATOM     86  O   UNL A   1      38.060  34.620  41.564  1.00  0.00    -0.237 OA
ATOM     87  O   UNL A   1      39.666  33.030  42.551  1.00  0.00    -0.237 OA
ATOM     88  O   UNL A   1      39.886  35.431  43.014  1.00  0.00    -0.744 OA
ENDBRANCH  82  85
ENDBRANCH  54  78
BRANCH  66  89
ATOM     89  C   UNL A   1      44.858  28.536  35.947  1.00  0.00     0.023 A 
ATOM     90  C   UNL A   1      46.133  29.041  35.629  1.00  0.00     0.012 A 
ATOM     91  C   UNL A   1      44.737  27.470  36.860  1.00  0.00     0.148 A 
ATOM     92  C   UNL A   1      47.273  28.494  36.214  1.00  0.00     0.002 A 
ATOM     93  C   UNL A   1      45.875  26.953  37.465  1.00  0.00     0.091 A 
ATOM     94  F   UNL A   1      43.509  27.009  37.142  1.00  0.00    -0.205 F 
ATOM     95  C   UNL A   1      47.144  27.461  37.141  1.00  0.00     0.022 A 
BRANCH  93  96
ATOM     96  S   UNL A   1      45.807  25.680  38.733  1.00  0.00     0.127 S 
ATOM     97  O   UNL A   1      45.255  24.549  37.989  1.00  0.00    -0.237 OA
ATOM     98  O   UNL A   1      47.215  25.538  39.103  1.00  0.00    -0.237 OA
ATOM     99  O   UNL A   1      44.949  26.204  39.787  1.00  0.00    -0.744 OA
ENDBRANCH  93  96
ENDBRANCH  66  89
ENDBRANCH  40  41
ENDBRANCH  33  35
ENDBRANCH  32  33
ENDBRANCH  31  32
ENDBRANCH  30  31
ENDBRANCH  29  30
ENDBRANCH   1  29
TORSDOF 23
ENDMDL
