MODEL 1
REMARK VINA RESULT:     -10.0      0.000      0.000
REMARK SMILES C[N@@H+]([C@@H]1CCOC2(CCCC2)C1)C(C)(C)C(=O)OCCOCCOCCOC(=O)c1ccc(-c2c3nc(c(-c4cccc(S(=O)(=O)[O-])c4F)c4ccc([nH]4)c(-c4cccc(S(=O)(=O)[O-])c4F)c4nc(c(-c5cccc(S(=O)(=O)[O-])c5F)c5ccc2[nH]5)C=C4)C=C3)cc1
REMARK SMILES IDX 23 1 22 2 21 3 20 4 19 5 18 6 16 7 17 8 13 9 14 10 15 11
REMARK SMILES IDX 2 12 1 13 3 15 4 16 12 17 5 18 7 19 6 20 8 21 11 22 9 23
REMARK SMILES IDX 10 24 24 25 25 26 26 27 27 28 28 29 29 30 30 31 31 32 92 33
REMARK SMILES IDX 32 34 91 35 33 36 34 37 35 38 85 39 36 40 90 41 84 42 86 43
REMARK SMILES IDX 37 44 89 45 83 46 82 47 38 49 70 50 50 51 69 52 51 53 54 54
REMARK SMILES IDX 68 55 87 56 52 57 53 58 67 60 88 61 55 62 39 63 40 64 48 65
REMARK SMILES IDX 41 66 43 67 49 68 42 69 44 70 45 71 46 72 47 73 71 74 72 75
REMARK SMILES IDX 80 76 73 77 75 78 81 79 74 80 76 81 77 82 78 83 79 84 56 85
REMARK SMILES IDX 57 86 65 87 58 88 60 89 66 90 59 91 61 92 62 93 63 94 64 95
REMARK H PARENT 2 14 86 48 54 59
REMARK Flexibility Score: inf
ROOT
ATOM      1  C   UNL A   1      33.644  27.857  26.064  1.00  0.00     0.188 C 
ENDROOT
BRANCH   1   2
ATOM      2  C   UNL A   1      33.343  28.658  24.817  1.00  0.00     0.188 C 
BRANCH   2   3
ATOM      3  O   UNL A   1      34.327  28.554  23.789  1.00  0.00    -0.376 OA
BRANCH   3   4
ATOM      4  C   UNL A   1      33.737  28.436  22.487  1.00  0.00     0.202 C 
BRANCH   4   5
ATOM      5  C   UNL A   1      33.451  27.007  21.961  1.00  0.00     0.261 C 
BRANCH   5   6
ATOM      6  O   UNL A   1      33.486  26.023  23.015  1.00  0.00    -0.459 OA
BRANCH   6   7
ATOM      7  C   UNL A   1      32.735  24.897  22.838  1.00  0.00     0.367 C 
ATOM      8  O   UNL A   1      32.845  24.185  21.844  1.00  0.00    -0.245 OA
BRANCH   7   9
ATOM      9  C   UNL A   1      31.705  24.633  24.007  1.00  0.00     0.190 C 
ATOM     10  C   UNL A   1      30.726  23.597  23.414  1.00  0.00     0.092 C 
ATOM     11  C   UNL A   1      30.857  25.905  24.309  1.00  0.00     0.092 C 
BRANCH   9  12
ATOM     12  N   UNL A   1      32.376  24.179  25.315  1.00  0.00    -0.321 N 
ATOM     13  C   UNL A   1      31.728  24.794  26.488  1.00  0.00     0.333 C 
ATOM     14  H   UNL A   1      33.334  24.523  25.245  1.00  0.00     0.349 HD
BRANCH  12  15
ATOM     15  C   UNL A   1      32.536  22.696  25.484  1.00  0.00     0.189 C 
ATOM     16  C   UNL A   1      32.577  22.106  26.923  1.00  0.00     0.093 C 
ATOM     17  C   UNL A   1      33.793  22.153  24.766  1.00  0.00     0.100 C 
ATOM     18  C   UNL A   1      33.924  22.255  27.610  1.00  0.00     0.167 C 
ATOM     19  C   UNL A   1      35.119  22.266  25.539  1.00  0.00     0.074 C 
ATOM     20  O   UNL A   1      34.966  21.680  26.829  1.00  0.00    -0.375 OA
ATOM     21  C   UNL A   1      36.214  21.478  24.776  1.00  0.00     0.036 C 
ATOM     22  C   UNL A   1      35.691  23.698  25.638  1.00  0.00     0.036 C 
ATOM     23  C   UNL A   1      36.992  22.535  24.011  1.00  0.00     0.003 C 
ATOM     24  C   UNL A   1      37.091  23.645  25.032  1.00  0.00     0.003 C 
ENDBRANCH  12  15
ENDBRANCH   9  12
ENDBRANCH   7   9
ENDBRANCH   6   7
ENDBRANCH   5   6
ENDBRANCH   4   5
ENDBRANCH   3   4
ENDBRANCH   2   3
ENDBRANCH   1   2
BRANCH   1  25
ATOM     25  O   UNL A   1      33.282  28.553  27.255  1.00  0.00    -0.376 OA
BRANCH  25  26
ATOM     26  C   UNL A   1      32.306  29.563  27.044  1.00  0.00     0.202 C 
BRANCH  26  27
ATOM     27  C   UNL A   1      32.789  31.003  27.283  1.00  0.00     0.261 C 
BRANCH  27  28
ATOM     28  O   UNL A   1      34.215  31.182  27.293  1.00  0.00    -0.460 OA
BRANCH  28  29
ATOM     29  C   UNL A   1      34.762  31.413  28.513  1.00  0.00     0.338 C 
ATOM     30  O   UNL A   1      34.301  32.120  29.405  1.00  0.00    -0.246 OA
BRANCH  29  31
ATOM     31  C   UNL A   1      35.980  30.590  28.680  1.00  0.00     0.060 A 
ATOM     32  C   UNL A   1      36.133  29.821  29.842  1.00  0.00     0.016 A 
ATOM     33  C   UNL A   1      36.998  30.625  27.724  1.00  0.00     0.016 A 
ATOM     34  C   UNL A   1      37.329  29.130  30.072  1.00  0.00     0.010 A 
ATOM     35  C   UNL A   1      38.196  29.941  27.960  1.00  0.00     0.010 A 
ATOM     36  C   UNL A   1      38.387  29.223  29.152  1.00  0.00    -0.014 A 
BRANCH  36  37
ATOM     37  C   UNL A   1      39.740  28.729  29.520  1.00  0.00     0.031 A 
ATOM     38  C   UNL A   1      40.476  29.405  30.642  1.00  0.00     0.074 A 
ATOM     39  C   UNL A   1      40.337  27.720  28.859  1.00  0.00     0.049 A 
ATOM     40  N   UNL A   1      41.638  29.114  31.164  1.00  0.00    -0.248 NA
ATOM     41  C   UNL A   1      39.829  30.589  31.230  1.00  0.00     0.031 C 
ATOM     42  C   UNL A   1      39.782  27.046  27.695  1.00  0.00     0.029 A 
ATOM     43  N   UNL A   1      41.544  27.094  29.066  1.00  0.00    -0.354 N 
ATOM     44  C   UNL A   1      41.885  30.100  32.109  1.00  0.00     0.074 A 
ATOM     45  C   UNL A   1      40.748  30.997  32.091  1.00  0.00     0.031 C 
ATOM     46  C   UNL A   1      40.624  26.073  27.309  1.00  0.00     0.029 A 
ATOM     47  C   UNL A   1      41.792  26.066  28.184  1.00  0.00     0.049 A 
ATOM     48  H   UNL A   1      42.171  27.357  29.777  1.00  0.00     0.167 HD
ATOM     49  C   UNL A   1      42.961  30.254  32.916  1.00  0.00     0.034 A 
ATOM     50  C   UNL A   1      42.836  25.216  28.096  1.00  0.00     0.034 A 
ATOM     51  C   UNL A   1      44.097  29.371  32.936  1.00  0.00     0.049 A 
ATOM     52  C   UNL A   1      43.987  25.359  29.060  1.00  0.00     0.074 A 
ATOM     53  C   UNL A   1      45.210  29.423  33.756  1.00  0.00     0.029 A 
ATOM     54  N   UNL A   1      44.279  28.294  32.084  1.00  0.00    -0.354 N 
ATOM     55  N   UNL A   1      44.134  26.202  30.053  1.00  0.00    -0.248 NA
ATOM     56  C   UNL A   1      45.115  24.429  28.895  1.00  0.00     0.031 C 
ATOM     57  C   UNL A   1      46.081  28.395  33.379  1.00  0.00     0.029 A 
ATOM     58  C   UNL A   1      45.492  27.679  32.350  1.00  0.00     0.049 A 
ATOM     59  H   UNL A   1      43.641  28.007  31.390  1.00  0.00     0.167 HD
ATOM     60  C   UNL A   1      45.361  25.899  30.635  1.00  0.00     0.074 A 
ATOM     61  C   UNL A   1      45.897  24.764  29.914  1.00  0.00     0.031 C 
ATOM     62  C   UNL A   1      46.002  26.524  31.654  1.00  0.00     0.034 A 
BRANCH  49  63
ATOM     63  C   UNL A   1      42.953  31.429  33.857  1.00  0.00     0.023 A 
ATOM     64  C   UNL A   1      43.462  32.671  33.428  1.00  0.00     0.012 A 
ATOM     65  C   UNL A   1      42.410  31.311  35.152  1.00  0.00     0.148 A 
ATOM     66  C   UNL A   1      43.466  33.769  34.287  1.00  0.00     0.002 A 
ATOM     67  C   UNL A   1      42.375  32.422  35.984  1.00  0.00     0.091 A 
ATOM     68  F   UNL A   1      41.954  30.114  35.548  1.00  0.00    -0.205 F 
ATOM     69  C   UNL A   1      42.914  33.647  35.559  1.00  0.00     0.022 A 
BRANCH  67  70
ATOM     70  S   UNL A   1      41.615  32.388  37.611  1.00  0.00     0.127 S 
ATOM     71  O   UNL A   1      40.232  32.043  37.283  1.00  0.00    -0.237 OA
ATOM     72  O   UNL A   1      42.366  31.324  38.277  1.00  0.00    -0.237 OA
ATOM     73  O   UNL A   1      41.811  33.716  38.175  1.00  0.00    -0.744 OA
ENDBRANCH  67  70
ENDBRANCH  49  63
BRANCH  50  74
ATOM     74  C   UNL A   1      42.825  24.105  27.095  1.00  0.00     0.023 A 
ATOM     75  C   UNL A   1      43.510  24.276  25.873  1.00  0.00     0.012 A 
ATOM     76  C   UNL A   1      42.153  22.893  27.336  1.00  0.00     0.148 A 
ATOM     77  C   UNL A   1      43.496  23.274  24.900  1.00  0.00     0.002 A 
ATOM     78  C   UNL A   1      42.197  21.874  26.390  1.00  0.00     0.091 A 
ATOM     79  F   UNL A   1      41.479  22.758  28.487  1.00  0.00    -0.205 F 
ATOM     80  C   UNL A   1      42.851  22.070  25.163  1.00  0.00     0.022 A 
BRANCH  78  81
ATOM     81  S   UNL A   1      41.505  20.245  26.695  1.00  0.00     0.127 S 
ATOM     82  O   UNL A   1      42.245  19.824  27.882  1.00  0.00    -0.237 OA
ATOM     83  O   UNL A   1      40.093  20.553  26.930  1.00  0.00    -0.237 OA
ATOM     84  O   UNL A   1      41.760  19.476  25.485  1.00  0.00    -0.744 OA
ENDBRANCH  78  81
ENDBRANCH  50  74
BRANCH  62  85
ATOM     85  C   UNL A   1      47.352  25.993  32.068  1.00  0.00     0.023 A 
ATOM     86  C   UNL A   1      48.513  26.429  31.398  1.00  0.00     0.012 A 
ATOM     87  C   UNL A   1      47.477  25.117  33.164  1.00  0.00     0.148 A 
ATOM     88  C   UNL A   1      49.772  25.972  31.787  1.00  0.00     0.002 A 
ATOM     89  C   UNL A   1      48.739  24.704  33.578  1.00  0.00     0.091 A 
ATOM     90  F   UNL A   1      46.362  24.699  33.780  1.00  0.00    -0.205 F 
ATOM     91  C   UNL A   1      49.886  25.120  32.883  1.00  0.00     0.022 A 
BRANCH  89  92
ATOM     92  S   UNL A   1      48.989  23.684  35.036  1.00  0.00     0.127 S 
ATOM     93  O   UNL A   1      48.239  22.478  34.688  1.00  0.00    -0.237 OA
ATOM     94  O   UNL A   1      50.443  23.514  35.050  1.00  0.00    -0.237 OA
ATOM     95  O   UNL A   1      48.459  24.449  36.157  1.00  0.00    -0.744 OA
ENDBRANCH  89  92
ENDBRANCH  62  85
ENDBRANCH  36  37
ENDBRANCH  29  31
ENDBRANCH  28  29
ENDBRANCH  27  28
ENDBRANCH  26  27
ENDBRANCH  25  26
ENDBRANCH   1  25
TORSDOF 22
ENDMDL
MODEL 2
REMARK VINA RESULT:      -9.6      4.792      9.523
REMARK SMILES C[N@@H+]([C@@H]1CCOC2(CCCC2)C1)C(C)(C)C(=O)OCCOCCOCCOC(=O)c1ccc(-c2c3nc(c(-c4cccc(S(=O)(=O)[O-])c4F)c4ccc([nH]4)c(-c4cccc(S(=O)(=O)[O-])c4F)c4nc(c(-c5cccc(S(=O)(=O)[O-])c5F)c5ccc2[nH]5)C=C4)C=C3)cc1
REMARK SMILES IDX 23 1 22 2 21 3 20 4 19 5 18 6 16 7 17 8 13 9 14 10 15 11
REMARK SMILES IDX 2 12 1 13 3 15 4 16 12 17 5 18 7 19 6 20 8 21 11 22 9 23
REMARK SMILES IDX 10 24 24 25 25 26 26 27 27 28 28 29 29 30 30 31 31 32 92 33
REMARK SMILES IDX 32 34 91 35 33 36 34 37 35 38 85 39 36 40 90 41 84 42 86 43
REMARK SMILES IDX 37 44 89 45 83 46 82 47 38 49 70 50 50 51 69 52 51 53 54 54
REMARK SMILES IDX 68 55 87 56 52 57 53 58 67 60 88 61 55 62 39 63 40 64 48 65
REMARK SMILES IDX 41 66 43 67 49 68 42 69 44 70 45 71 46 72 47 73 71 74 72 75
REMARK SMILES IDX 80 76 73 77 75 78 81 79 74 80 76 81 77 82 78 83 79 84 56 85
REMARK SMILES IDX 57 86 65 87 58 88 60 89 66 90 59 91 61 92 62 93 63 94 64 95
REMARK H PARENT 2 14 86 48 54 59
REMARK Flexibility Score: inf
ROOT
ATOM      1  C   UNL A   1      35.826  21.044  25.443  1.00  0.00     0.188 C 
ENDROOT
BRANCH   1   2
ATOM      2  C   UNL A   1      35.772  22.539  25.668  1.00  0.00     0.188 C 
BRANCH   2   3
ATOM      3  O   UNL A   1      35.206  22.934  26.918  1.00  0.00    -0.376 OA
BRANCH   3   4
ATOM      4  C   UNL A   1      33.964  22.267  27.182  1.00  0.00     0.202 C 
BRANCH   4   5
ATOM      5  C   UNL A   1      32.659  23.056  26.913  1.00  0.00     0.261 C 
BRANCH   5   6
ATOM      6  O   UNL A   1      32.918  24.440  26.594  1.00  0.00    -0.459 OA
BRANCH   6   7
ATOM      7  C   UNL A   1      31.833  25.251  26.423  1.00  0.00     0.367 C 
ATOM      8  O   UNL A   1      30.687  24.867  26.639  1.00  0.00    -0.245 OA
BRANCH   7   9
ATOM      9  C   UNL A   1      32.199  26.694  25.895  1.00  0.00     0.190 C 
ATOM     10  C   UNL A   1      33.678  26.876  26.303  1.00  0.00     0.092 C 
ATOM     11  C   UNL A   1      31.403  27.793  26.661  1.00  0.00     0.092 C 
BRANCH   9  12
ATOM     12  N   UNL A   1      31.941  26.873  24.390  1.00  0.00    -0.321 N 
ATOM     13  C   UNL A   1      31.250  28.146  24.114  1.00  0.00     0.333 C 
ATOM     14  H   UNL A   1      31.326  26.098  24.142  1.00  0.00     0.349 HD
BRANCH  12  15
ATOM     15  C   UNL A   1      33.135  26.685  23.498  1.00  0.00     0.189 C 
ATOM     16  C   UNL A   1      33.022  27.092  22.001  1.00  0.00     0.093 C 
ATOM     17  C   UNL A   1      33.652  25.228  23.504  1.00  0.00     0.100 C 
ATOM     18  C   UNL A   1      32.307  26.067  21.137  1.00  0.00     0.167 C 
ATOM     19  C   UNL A   1      32.937  24.249  22.557  1.00  0.00     0.074 C 
ATOM     20  O   UNL A   1      32.927  24.789  21.238  1.00  0.00    -0.375 OA
ATOM     21  C   UNL A   1      33.723  22.914  22.527  1.00  0.00     0.036 C 
ATOM     22  C   UNL A   1      31.517  23.835  23.004  1.00  0.00     0.036 C 
ATOM     23  C   UNL A   1      32.961  21.993  23.464  1.00  0.00     0.003 C 
ATOM     24  C   UNL A   1      31.526  22.313  23.113  1.00  0.00     0.003 C 
ENDBRANCH  12  15
ENDBRANCH   9  12
ENDBRANCH   7   9
ENDBRANCH   6   7
ENDBRANCH   5   6
ENDBRANCH   4   5
ENDBRANCH   3   4
ENDBRANCH   2   3
ENDBRANCH   1   2
BRANCH   1  25
ATOM     25  O   UNL A   1      37.155  20.580  25.214  1.00  0.00    -0.376 OA
BRANCH  25  26
ATOM     26  C   UNL A   1      38.120  21.621  25.184  1.00  0.00     0.202 C 
BRANCH  26  27
ATOM     27  C   UNL A   1      39.325  21.428  26.121  1.00  0.00     0.261 C 
BRANCH  27  28
ATOM     28  O   UNL A   1      39.831  20.086  26.206  1.00  0.00    -0.460 OA
BRANCH  28  29
ATOM     29  C   UNL A   1      41.181  19.968  26.128  1.00  0.00     0.338 C 
ATOM     30  O   UNL A   1      41.814  18.988  25.746  1.00  0.00    -0.246 OA
BRANCH  29  31
ATOM     31  C   UNL A   1      41.816  21.259  26.474  1.00  0.00     0.060 A 
ATOM     32  C   UNL A   1      42.024  21.581  27.823  1.00  0.00     0.016 A 
ATOM     33  C   UNL A   1      42.147  22.179  25.476  1.00  0.00     0.016 A 
ATOM     34  C   UNL A   1      42.512  22.845  28.174  1.00  0.00     0.010 A 
ATOM     35  C   UNL A   1      42.626  23.446  25.830  1.00  0.00     0.010 A 
ATOM     36  C   UNL A   1      42.774  23.802  27.180  1.00  0.00    -0.014 A 
BRANCH  36  37
ATOM     37  C   UNL A   1      43.021  25.219  27.558  1.00  0.00     0.031 A 
ATOM     38  C   UNL A   1      44.399  25.788  27.370  1.00  0.00     0.074 A 
ATOM     39  C   UNL A   1      42.060  25.994  28.092  1.00  0.00     0.049 A 
ATOM     40  N   UNL A   1      44.829  27.003  27.582  1.00  0.00    -0.248 NA
ATOM     41  C   UNL A   1      45.438  24.850  26.913  1.00  0.00     0.031 C 
ATOM     42  C   UNL A   1      40.715  25.544  28.420  1.00  0.00     0.029 A 
ATOM     43  N   UNL A   1      42.070  27.318  28.463  1.00  0.00    -0.354 N 
ATOM     44  C   UNL A   1      46.194  26.970  27.331  1.00  0.00     0.074 A 
ATOM     45  C   UNL A   1      46.520  25.613  26.945  1.00  0.00     0.031 C 
ATOM     46  C   UNL A   1      40.012  26.580  28.907  1.00  0.00     0.029 A 
ATOM     47  C   UNL A   1      40.861  27.766  28.948  1.00  0.00     0.049 A 
ATOM     48  H   UNL A   1      42.866  27.893  28.387  1.00  0.00     0.167 HD
ATOM     49  C   UNL A   1      47.099  27.973  27.417  1.00  0.00     0.034 A 
ATOM     50  C   UNL A   1      40.482  28.990  29.371  1.00  0.00     0.034 A 
ATOM     51  C   UNL A   1      46.784  29.322  27.805  1.00  0.00     0.049 A 
ATOM     52  C   UNL A   1      41.491  30.111  29.383  1.00  0.00     0.074 A 
ATOM     53  C   UNL A   1      47.631  30.415  27.872  1.00  0.00     0.029 A 
ATOM     54  N   UNL A   1      45.535  29.759  28.214  1.00  0.00    -0.354 N 
ATOM     55  N   UNL A   1      42.743  30.102  28.992  1.00  0.00    -0.248 NA
ATOM     56  C   UNL A   1      41.034  31.415  29.888  1.00  0.00     0.031 C 
ATOM     57  C   UNL A   1      46.900  31.507  28.352  1.00  0.00     0.029 A 
ATOM     58  C   UNL A   1      45.589  31.103  28.547  1.00  0.00     0.049 A 
ATOM     59  H   UNL A   1      44.727  29.197  28.262  1.00  0.00     0.167 HD
ATOM     60  C   UNL A   1      43.218  31.394  29.195  1.00  0.00     0.074 A 
ATOM     61  C   UNL A   1      42.107  32.173  29.699  1.00  0.00     0.031 C 
ATOM     62  C   UNL A   1      44.469  31.884  29.010  1.00  0.00     0.034 A 
BRANCH  49  63
ATOM     63  C   UNL A   1      48.527  27.642  27.075  1.00  0.00     0.023 A 
ATOM     64  C   UNL A   1      49.400  27.188  28.084  1.00  0.00     0.012 A 
ATOM     65  C   UNL A   1      48.994  27.748  25.750  1.00  0.00     0.148 A 
ATOM     66  C   UNL A   1      50.727  26.880  27.788  1.00  0.00     0.002 A 
ATOM     67  C   UNL A   1      50.304  27.395  25.455  1.00  0.00     0.091 A 
ATOM     68  F   UNL A   1      48.155  28.206  24.811  1.00  0.00    -0.205 F 
ATOM     69  C   UNL A   1      51.175  26.974  26.473  1.00  0.00     0.022 A 
BRANCH  67  70
ATOM     70  S   UNL A   1      50.954  27.406  23.780  1.00  0.00     0.127 S 
ATOM     71  O   UNL A   1      49.901  26.701  23.051  1.00  0.00    -0.237 OA
ATOM     72  O   UNL A   1      51.039  28.838  23.496  1.00  0.00    -0.237 OA
ATOM     73  O   UNL A   1      52.238  26.722  23.843  1.00  0.00    -0.744 OA
ENDBRANCH  67  70
ENDBRANCH  49  63
BRANCH  50  74
ATOM     74  C   UNL A   1      39.064  29.249  29.766  1.00  0.00     0.023 A 
ATOM     75  C   UNL A   1      38.649  28.940  31.079  1.00  0.00     0.012 A 
ATOM     76  C   UNL A   1      38.129  29.793  28.867  1.00  0.00     0.148 A 
ATOM     77  C   UNL A   1      37.325  29.138  31.476  1.00  0.00     0.002 A 
ATOM     78  C   UNL A   1      36.828  30.048  29.287  1.00  0.00     0.091 A 
ATOM     79  F   UNL A   1      38.528  30.051  27.614  1.00  0.00    -0.205 F 
ATOM     80  C   UNL A   1      36.418  29.703  30.585  1.00  0.00     0.022 A 
BRANCH  78  81
ATOM     81  S   UNL A   1      35.628  30.892  28.250  1.00  0.00     0.127 S 
ATOM     82  O   UNL A   1      36.403  32.030  27.762  1.00  0.00    -0.237 OA
ATOM     83  O   UNL A   1      35.329  29.874  27.242  1.00  0.00    -0.237 OA
ATOM     84  O   UNL A   1      34.511  31.216  29.126  1.00  0.00    -0.744 OA
ENDBRANCH  78  81
ENDBRANCH  50  74
BRANCH  62  85
ATOM     85  C   UNL A   1      44.712  33.336  29.341  1.00  0.00     0.023 A 
ATOM     86  C   UNL A   1      45.264  33.689  30.590  1.00  0.00     0.012 A 
ATOM     87  C   UNL A   1      44.459  34.344  28.390  1.00  0.00     0.148 A 
ATOM     88  C   UNL A   1      45.524  35.023  30.899  1.00  0.00     0.002 A 
ATOM     89  C   UNL A   1      44.768  35.667  28.687  1.00  0.00     0.091 A 
ATOM     90  F   UNL A   1      43.919  33.993  27.214  1.00  0.00    -0.205 F 
ATOM     91  C   UNL A   1      45.287  36.010  29.945  1.00  0.00     0.022 A 
BRANCH  89  92
ATOM     92  S   UNL A   1      44.585  36.992  27.487  1.00  0.00     0.127 S 
ATOM     93  O   UNL A   1      45.784  36.818  26.667  1.00  0.00    -0.237 OA
ATOM     94  O   UNL A   1      43.333  36.635  26.819  1.00  0.00    -0.237 OA
ATOM     95  O   UNL A   1      44.528  38.226  28.257  1.00  0.00    -0.744 OA
ENDBRANCH  89  92
ENDBRANCH  62  85
ENDBRANCH  36  37
ENDBRANCH  29  31
ENDBRANCH  28  29
ENDBRANCH  27  28
ENDBRANCH  26  27
ENDBRANCH  25  26
ENDBRANCH   1  25
TORSDOF 22
ENDMDL
MODEL 3
REMARK VINA RESULT:      -9.6      4.962      9.658
REMARK SMILES C[N@@H+]([C@@H]1CCOC2(CCCC2)C1)C(C)(C)C(=O)OCCOCCOCCOC(=O)c1ccc(-c2c3nc(c(-c4cccc(S(=O)(=O)[O-])c4F)c4ccc([nH]4)c(-c4cccc(S(=O)(=O)[O-])c4F)c4nc(c(-c5cccc(S(=O)(=O)[O-])c5F)c5ccc2[nH]5)C=C4)C=C3)cc1
REMARK SMILES IDX 23 1 22 2 21 3 20 4 19 5 18 6 16 7 17 8 13 9 14 10 15 11
REMARK SMILES IDX 2 12 1 13 3 15 4 16 12 17 5 18 7 19 6 20 8 21 11 22 9 23
REMARK SMILES IDX 10 24 24 25 25 26 26 27 27 28 28 29 29 30 30 31 31 32 92 33
REMARK SMILES IDX 32 34 91 35 33 36 34 37 35 38 85 39 36 40 90 41 84 42 86 43
REMARK SMILES IDX 37 44 89 45 83 46 82 47 38 49 70 50 50 51 69 52 51 53 54 54
REMARK SMILES IDX 68 55 87 56 52 57 53 58 67 60 88 61 55 62 39 63 40 64 48 65
REMARK SMILES IDX 41 66 43 67 49 68 42 69 44 70 45 71 46 72 47 73 71 74 72 75
REMARK SMILES IDX 80 76 73 77 75 78 81 79 74 80 76 81 77 82 78 83 79 84 56 85
REMARK SMILES IDX 57 86 65 87 58 88 60 89 66 90 59 91 61 92 62 93 63 94 64 95
REMARK H PARENT 2 14 86 48 54 59
REMARK Flexibility Score: inf
ROOT
ATOM      1  C   UNL A   1      38.500  23.315  26.461  1.00  0.00     0.188 C 
ENDROOT
BRANCH   1   2
ATOM      2  C   UNL A   1      37.382  23.219  25.446  1.00  0.00     0.188 C 
BRANCH   2   3
ATOM      3  O   UNL A   1      36.140  22.750  25.969  1.00  0.00    -0.376 OA
BRANCH   3   4
ATOM      4  C   UNL A   1      35.821  21.432  25.502  1.00  0.00     0.202 C 
BRANCH   4   5
ATOM      5  C   UNL A   1      34.334  21.002  25.538  1.00  0.00     0.261 C 
BRANCH   5   6
ATOM      6  O   UNL A   1      33.447  22.086  25.186  1.00  0.00    -0.459 OA
BRANCH   6   7
ATOM      7  C   UNL A   1      32.125  21.929  25.486  1.00  0.00     0.367 C 
ATOM      8  O   UNL A   1      31.535  20.866  25.313  1.00  0.00    -0.245 OA
BRANCH   7   9
ATOM      9  C   UNL A   1      31.441  23.243  26.035  1.00  0.00     0.190 C 
ATOM     10  C   UNL A   1      32.369  23.693  27.185  1.00  0.00     0.092 C 
ATOM     11  C   UNL A   1      30.062  22.929  26.691  1.00  0.00     0.092 C 
BRANCH   9  12
ATOM     12  N   UNL A   1      31.227  24.314  24.952  1.00  0.00    -0.321 N 
ATOM     13  C   UNL A   1      30.991  23.698  23.633  1.00  0.00     0.333 C 
ATOM     14  H   UNL A   1      32.105  24.831  24.926  1.00  0.00     0.349 HD
BRANCH  12  15
ATOM     15  C   UNL A   1      30.200  25.363  25.267  1.00  0.00     0.189 C 
ATOM     16  C   UNL A   1      29.569  26.169  24.095  1.00  0.00     0.093 C 
ATOM     17  C   UNL A   1      30.719  26.413  26.275  1.00  0.00     0.100 C 
ATOM     18  C   UNL A   1      30.450  27.293  23.578  1.00  0.00     0.167 C 
ATOM     19  C   UNL A   1      31.547  27.569  25.685  1.00  0.00     0.074 C 
ATOM     20  O   UNL A   1      30.816  28.183  24.628  1.00  0.00    -0.375 OA
ATOM     21  C   UNL A   1      31.785  28.630  26.789  1.00  0.00     0.036 C 
ATOM     22  C   UNL A   1      32.971  27.179  25.229  1.00  0.00     0.036 C 
ATOM     23  C   UNL A   1      33.194  28.360  27.290  1.00  0.00     0.003 C 
ATOM     24  C   UNL A   1      33.932  28.080  26.001  1.00  0.00     0.003 C 
ENDBRANCH  12  15
ENDBRANCH   9  12
ENDBRANCH   7   9
ENDBRANCH   6   7
ENDBRANCH   5   6
ENDBRANCH   4   5
ENDBRANCH   3   4
ENDBRANCH   2   3
ENDBRANCH   1   2
BRANCH   1  25
ATOM     25  O   UNL A   1      39.249  22.106  26.556  1.00  0.00    -0.376 OA
BRANCH  25  26
ATOM     26  C   UNL A   1      38.993  21.198  25.494  1.00  0.00     0.202 C 
BRANCH  26  27
ATOM     27  C   UNL A   1      39.528  19.771  25.706  1.00  0.00     0.261 C 
BRANCH  27  28
ATOM     28  O   UNL A   1      40.599  19.649  26.656  1.00  0.00    -0.460 OA
BRANCH  28  29
ATOM     29  C   UNL A   1      41.848  19.648  26.126  1.00  0.00     0.338 C 
ATOM     30  O   UNL A   1      42.335  18.796  25.389  1.00  0.00    -0.246 OA
BRANCH  29  31
ATOM     31  C   UNL A   1      42.541  20.908  26.476  1.00  0.00     0.060 A 
ATOM     32  C   UNL A   1      42.643  21.282  27.823  1.00  0.00     0.016 A 
ATOM     33  C   UNL A   1      43.030  21.753  25.476  1.00  0.00     0.016 A 
ATOM     34  C   UNL A   1      43.188  22.526  28.165  1.00  0.00     0.010 A 
ATOM     35  C   UNL A   1      43.565  22.999  25.820  1.00  0.00     0.010 A 
ATOM     36  C   UNL A   1      43.611  23.412  27.161  1.00  0.00    -0.014 A 
BRANCH  36  37
ATOM     37  C   UNL A   1      43.924  24.826  27.499  1.00  0.00     0.031 A 
ATOM     38  C   UNL A   1      45.341  25.306  27.360  1.00  0.00     0.074 A 
ATOM     39  C   UNL A   1      42.986  25.675  27.958  1.00  0.00     0.049 A 
ATOM     40  N   UNL A   1      45.832  26.502  27.549  1.00  0.00    -0.248 NA
ATOM     41  C   UNL A   1      46.342  24.293  26.989  1.00  0.00     0.031 C 
ATOM     42  C   UNL A   1      41.603  25.317  28.234  1.00  0.00     0.029 A 
ATOM     43  N   UNL A   1      43.058  27.010  28.280  1.00  0.00    -0.354 N 
ATOM     44  C   UNL A   1      47.203  26.380  27.368  1.00  0.00     0.074 A 
ATOM     45  C   UNL A   1      47.465  24.992  27.048  1.00  0.00     0.031 C 
ATOM     46  C   UNL A   1      40.941  26.410  28.648  1.00  0.00     0.029 A 
ATOM     47  C   UNL A   1      41.857  27.546  28.688  1.00  0.00     0.049 A 
ATOM     48  H   UNL A   1      43.890  27.534  28.224  1.00  0.00     0.167 HD
ATOM     49  C   UNL A   1      48.161  27.331  27.462  1.00  0.00     0.034 A 
ATOM     50  C   UNL A   1      41.532  28.805  29.048  1.00  0.00     0.034 A 
ATOM     51  C   UNL A   1      47.910  28.710  27.785  1.00  0.00     0.049 A 
ATOM     52  C   UNL A   1      42.605  29.865  29.069  1.00  0.00     0.074 A 
ATOM     53  C   UNL A   1      48.816  29.754  27.855  1.00  0.00     0.029 A 
ATOM     54  N   UNL A   1      46.671  29.235  28.116  1.00  0.00    -0.354 N 
ATOM     55  N   UNL A   1      43.870  29.769  28.741  1.00  0.00    -0.248 NA
ATOM     56  C   UNL A   1      42.203  31.212  29.504  1.00  0.00     0.031 C 
ATOM     57  C   UNL A   1      48.129  30.904  28.259  1.00  0.00     0.029 A 
ATOM     58  C   UNL A   1      46.789  30.585  28.402  1.00  0.00     0.049 A 
ATOM     59  H   UNL A   1      45.830  28.723  28.144  1.00  0.00     0.167 HD
ATOM     60  C   UNL A   1      44.412  31.038  28.921  1.00  0.00     0.074 A 
ATOM     61  C   UNL A   1      43.326  31.899  29.341  1.00  0.00     0.031 C 
ATOM     62  C   UNL A   1      45.697  31.447  28.782  1.00  0.00     0.034 A 
BRANCH  49  63
ATOM     63  C   UNL A   1      49.582  26.905  27.204  1.00  0.00     0.023 A 
ATOM     64  C   UNL A   1      50.299  26.221  28.206  1.00  0.00     0.012 A 
ATOM     65  C   UNL A   1      50.192  27.151  25.958  1.00  0.00     0.148 A 
ATOM     66  C   UNL A   1      51.617  25.822  27.986  1.00  0.00     0.002 A 
ATOM     67  C   UNL A   1      51.489  26.708  25.731  1.00  0.00     0.091 A 
ATOM     68  F   UNL A   1      49.501  27.825  25.028  1.00  0.00    -0.205 F 
ATOM     69  C   UNL A   1      52.207  26.057  26.747  1.00  0.00     0.022 A 
BRANCH  67  70
ATOM     70  S   UNL A   1      52.309  26.891  24.144  1.00  0.00     0.127 S 
ATOM     71  O   UNL A   1      52.894  28.226  24.267  1.00  0.00    -0.237 OA
ATOM     72  O   UNL A   1      53.280  25.797  24.175  1.00  0.00    -0.237 OA
ATOM     73  O   UNL A   1      51.269  26.754  23.135  1.00  0.00    -0.744 OA
ENDBRANCH  67  70
ENDBRANCH  49  63
BRANCH  50  74
ATOM     74  C   UNL A   1      40.115  29.161  29.363  1.00  0.00     0.023 A 
ATOM     75  C   UNL A   1      39.232  29.465  28.304  1.00  0.00     0.012 A 
ATOM     76  C   UNL A   1      39.634  29.202  30.684  1.00  0.00     0.148 A 
ATOM     77  C   UNL A   1      37.910  29.833  28.560  1.00  0.00     0.002 A 
ATOM     78  C   UNL A   1      38.299  29.507  30.928  1.00  0.00     0.091 A 
ATOM     79  F   UNL A   1      40.492  28.944  31.681  1.00  0.00    -0.205 F 
ATOM     80  C   UNL A   1      37.440  29.842  29.869  1.00  0.00     0.022 A 
BRANCH  78  81
ATOM     81  S   UNL A   1      37.574  29.417  32.569  1.00  0.00     0.127 S 
ATOM     82  O   UNL A   1      37.698  27.993  32.873  1.00  0.00    -0.237 OA
ATOM     83  O   UNL A   1      38.461  30.289  33.341  1.00  0.00    -0.237 OA
ATOM     84  O   UNL A   1      36.214  29.917  32.426  1.00  0.00    -0.744 OA
ENDBRANCH  78  81
ENDBRANCH  50  74
BRANCH  62  85
ATOM     85  C   UNL A   1      46.011  32.894  29.072  1.00  0.00     0.023 A 
ATOM     86  C   UNL A   1      46.326  33.294  30.386  1.00  0.00     0.012 A 
ATOM     87  C   UNL A   1      46.061  33.843  28.031  1.00  0.00     0.148 A 
ATOM     88  C   UNL A   1      46.649  34.622  30.666  1.00  0.00     0.002 A 
ATOM     89  C   UNL A   1      46.432  35.154  28.310  1.00  0.00     0.091 A 
ATOM     90  F   UNL A   1      45.742  33.449  26.790  1.00  0.00    -0.205 F 
ATOM     91  C   UNL A   1      46.713  35.548  29.628  1.00  0.00     0.022 A 
BRANCH  89  92
ATOM     92  S   UNL A   1      46.633  36.392  27.024  1.00  0.00     0.127 S 
ATOM     93  O   UNL A   1      47.299  37.472  27.752  1.00  0.00    -0.237 OA
ATOM     94  O   UNL A   1      47.482  35.697  26.055  1.00  0.00    -0.237 OA
ATOM     95  O   UNL A   1      45.292  36.696  26.545  1.00  0.00    -0.744 OA
ENDBRANCH  89  92
ENDBRANCH  62  85
ENDBRANCH  36  37
ENDBRANCH  29  31
ENDBRANCH  28  29
ENDBRANCH  27  28
ENDBRANCH  26  27
ENDBRANCH  25  26
ENDBRANCH   1  25
TORSDOF 22
ENDMDL
