MODEL 1
REMARK VINA RESULT:      -9.4      0.000      0.000
REMARK SMILES CC[C@](C)(NC(=O)[C@H]1CNc2ccccc2O1)C(=O)OCCOCCOCCOC(=O)c1ccc(-c2c3nc(c(-c4cccc(S(=O)(=O)[O-])c4F)c4ccc([nH]4)c(-c4cccc(S(=O)(=O)[O-])c4F)c4nc(c(-c5cccc(S(=O)(=O)[O-])c5F)c5ccc2[nH]5)C=C4)C=C3)cc1
REMARK SMILES IDX 25 1 24 2 23 3 22 4 21 5 20 6 18 7 19 8 3 9 4 10 2 11 1 12
REMARK SMILES IDX 5 13 6 14 7 16 8 17 9 18 17 19 10 20 16 21 11 22 15 24 12 25
REMARK SMILES IDX 14 26 13 27 26 28 27 29 28 30 29 31 30 32 31 33 32 34 33 35
REMARK SMILES IDX 94 36 34 37 93 38 35 39 36 40 37 41 87 42 38 43 92 44 86 45
REMARK SMILES IDX 88 46 39 47 91 48 85 49 84 50 40 52 72 53 52 54 71 55 53 56
REMARK SMILES IDX 56 57 70 58 89 59 54 60 55 61 69 63 90 64 57 65 41 66 42 67
REMARK SMILES IDX 50 68 43 69 45 70 51 71 44 72 46 73 47 74 48 75 49 76 73 77
REMARK SMILES IDX 74 78 82 79 75 80 77 81 83 82 76 83 78 84 79 85 80 86 81 87
REMARK SMILES IDX 58 88 59 89 67 90 60 91 62 92 68 93 61 94 63 95 64 96 65 97
REMARK SMILES IDX 66 98
REMARK H PARENT 5 15 10 23 88 51 56 62
REMARK Flexibility Score: inf
ROOT
ATOM      1  C   UNL A   1      40.731  19.679  26.494  1.00  0.00     0.188 C 
ENDROOT
BRANCH   1   2
ATOM      2  C   UNL A   1      39.377  19.960  25.800  1.00  0.00     0.188 C 
BRANCH   2   3
ATOM      3  O   UNL A   1      39.005  21.320  25.601  1.00  0.00    -0.376 OA
BRANCH   3   4
ATOM      4  C   UNL A   1      37.725  21.607  25.006  1.00  0.00     0.202 C 
BRANCH   4   5
ATOM      5  C   UNL A   1      36.521  20.650  25.135  1.00  0.00     0.261 C 
BRANCH   5   6
ATOM      6  O   UNL A   1      35.424  21.286  25.804  1.00  0.00    -0.462 OA
BRANCH   6   7
ATOM      7  C   UNL A   1      34.259  21.364  25.132  1.00  0.00     0.331 C 
ATOM      8  O   UNL A   1      33.754  20.432  24.519  1.00  0.00    -0.249 OA
BRANCH   7   9
ATOM      9  C   UNL A   1      33.652  22.793  25.206  1.00  0.00     0.135 C 
ATOM     10  C   UNL A   1      34.742  23.611  25.968  1.00  0.00     0.047 C 
BRANCH   9  11
ATOM     11  C   UNL A   1      32.393  22.685  26.110  1.00  0.00     0.037 C 
ATOM     12  C   UNL A   1      31.053  22.830  25.393  1.00  0.00     0.007 C 
ENDBRANCH   9  11
BRANCH   9  13
ATOM     13  N   UNL A   1      33.337  23.570  23.931  1.00  0.00    -0.337 N 
ATOM     14  C   UNL A   1      33.355  24.865  23.471  1.00  0.00     0.263 C 
ATOM     15  H   UNL A   1      33.027  22.958  23.224  1.00  0.00     0.164 HD
ATOM     16  O   UNL A   1      33.990  25.025  22.415  1.00  0.00    -0.271 OA
BRANCH  14  17
ATOM     17  C   UNL A   1      32.513  26.068  24.052  1.00  0.00     0.281 C 
ATOM     18  C   UNL A   1      33.439  27.198  24.526  1.00  0.00     0.168 C 
ATOM     19  O   UNL A   1      31.614  26.617  23.064  1.00  0.00    -0.477 OA
ATOM     20  N   UNL A   1      32.649  28.307  25.078  1.00  0.00    -0.378 N 
ATOM     21  C   UNL A   1      31.084  27.868  23.296  1.00  0.00     0.143 A 
ATOM     22  C   UNL A   1      31.530  28.674  24.340  1.00  0.00     0.077 A 
ATOM     23  H   UNL A   1      32.896  28.759  25.916  1.00  0.00     0.160 HD
ATOM     24  C   UNL A   1      30.015  28.286  22.490  1.00  0.00     0.049 A 
ATOM     25  C   UNL A   1      30.867  29.889  24.563  1.00  0.00     0.029 A 
ATOM     26  C   UNL A   1      29.365  29.493  22.712  1.00  0.00     0.004 A 
ATOM     27  C   UNL A   1      29.789  30.294  23.760  1.00  0.00     0.002 A 
ENDBRANCH  14  17
ENDBRANCH   9  13
ENDBRANCH   7   9
ENDBRANCH   6   7
ENDBRANCH   5   6
ENDBRANCH   4   5
ENDBRANCH   3   4
ENDBRANCH   2   3
ENDBRANCH   1   2
BRANCH   1  28
ATOM     28  O   UNL A   1      41.713  19.048  25.655  1.00  0.00    -0.376 OA
BRANCH  28  29
ATOM     29  C   UNL A   1      43.025  19.588  25.415  1.00  0.00     0.202 C 
BRANCH  29  30
ATOM     30  C   UNL A   1      43.546  20.887  26.055  1.00  0.00     0.261 C 
BRANCH  30  31
ATOM     31  O   UNL A   1      42.680  22.003  25.919  1.00  0.00    -0.460 OA
BRANCH  31  32
ATOM     32  C   UNL A   1      43.159  23.000  25.140  1.00  0.00     0.338 C 
ATOM     33  O   UNL A   1      43.533  22.921  23.991  1.00  0.00    -0.246 OA
BRANCH  32  34
ATOM     34  C   UNL A   1      42.843  24.250  25.861  1.00  0.00     0.060 A 
ATOM     35  C   UNL A   1      42.641  25.403  25.086  1.00  0.00     0.016 A 
ATOM     36  C   UNL A   1      42.575  24.251  27.238  1.00  0.00     0.016 A 
ATOM     37  C   UNL A   1      42.210  26.574  25.695  1.00  0.00     0.010 A 
ATOM     38  C   UNL A   1      42.179  25.431  27.853  1.00  0.00     0.010 A 
ATOM     39  C   UNL A   1      42.058  26.602  27.086  1.00  0.00    -0.014 A 
BRANCH  39  40
ATOM     40  C   UNL A   1      42.218  27.895  27.773  1.00  0.00     0.031 A 
ATOM     41  C   UNL A   1      43.635  28.318  28.044  1.00  0.00     0.074 A 
ATOM     42  C   UNL A   1      41.173  28.637  28.163  1.00  0.00     0.049 A 
ATOM     43  N   UNL A   1      44.084  29.342  28.712  1.00  0.00    -0.248 NA
ATOM     44  C   UNL A   1      44.693  27.448  27.493  1.00  0.00     0.031 C 
ATOM     45  C   UNL A   1      39.768  28.314  27.934  1.00  0.00     0.029 A 
ATOM     46  N   UNL A   1      41.147  29.804  28.879  1.00  0.00    -0.354 N 
ATOM     47  C   UNL A   1      45.466  29.212  28.699  1.00  0.00     0.074 A 
ATOM     48  C   UNL A   1      45.788  28.015  27.965  1.00  0.00     0.031 C 
ATOM     49  C   UNL A   1      39.009  29.241  28.548  1.00  0.00     0.029 A 
ATOM     50  C   UNL A   1      39.881  30.193  29.237  1.00  0.00     0.049 A 
ATOM     51  H   UNL A   1      41.957  30.314  29.114  1.00  0.00     0.167 HD
ATOM     52  C   UNL A   1      46.393  30.023  29.254  1.00  0.00     0.034 A 
ATOM     53  C   UNL A   1      39.486  31.176  30.068  1.00  0.00     0.034 A 
ATOM     54  C   UNL A   1      46.058  31.204  29.990  1.00  0.00     0.049 A 
ATOM     55  C   UNL A   1      40.530  32.059  30.702  1.00  0.00     0.074 A 
ATOM     56  C   UNL A   1      46.907  32.131  30.559  1.00  0.00     0.029 A 
ATOM     57  N   UNL A   1      44.762  31.602  30.283  1.00  0.00    -0.354 N 
ATOM     58  N   UNL A   1      41.838  31.999  30.593  1.00  0.00    -0.248 NA
ATOM     59  C   UNL A   1      40.050  33.160  31.547  1.00  0.00     0.031 C 
ATOM     60  C   UNL A   1      46.123  33.067  31.238  1.00  0.00     0.029 A 
ATOM     61  C   UNL A   1      44.785  32.752  31.045  1.00  0.00     0.049 A 
ATOM     62  H   UNL A   1      43.946  31.133  29.990  1.00  0.00     0.167 HD
ATOM     63  C   UNL A   1      42.334  33.073  31.324  1.00  0.00     0.074 A 
ATOM     64  C   UNL A   1      41.186  33.770  31.866  1.00  0.00     0.031 C 
ATOM     65  C   UNL A   1      43.622  33.450  31.530  1.00  0.00     0.034 A 
BRANCH  52  66
ATOM     66  C   UNL A   1      47.833  29.622  29.103  1.00  0.00     0.023 A 
ATOM     67  C   UNL A   1      48.489  28.921  30.137  1.00  0.00     0.012 A 
ATOM     68  C   UNL A   1      48.546  29.964  27.939  1.00  0.00     0.148 A 
ATOM     69  C   UNL A   1      49.844  28.608  30.033  1.00  0.00     0.002 A 
ATOM     70  C   UNL A   1      49.881  29.600  27.820  1.00  0.00     0.091 A 
ATOM     71  F   UNL A   1      47.918  30.667  26.987  1.00  0.00    -0.205 F 
ATOM     72  C   UNL A   1      50.536  28.938  28.871  1.00  0.00     0.022 A 
BRANCH  70  73
ATOM     73  S   UNL A   1      50.829  29.909  26.328  1.00  0.00     0.127 S 
ATOM     74  O   UNL A   1      50.641  31.348  26.150  1.00  0.00    -0.237 OA
ATOM     75  O   UNL A   1      52.178  29.516  26.736  1.00  0.00    -0.237 OA
ATOM     76  O   UNL A   1      50.240  29.066  25.297  1.00  0.00    -0.744 OA
ENDBRANCH  70  73
ENDBRANCH  52  66
BRANCH  53  77
ATOM     77  C   UNL A   1      38.035  31.362  30.342  1.00  0.00     0.023 A 
ATOM     78  C   UNL A   1      37.454  30.777  31.483  1.00  0.00     0.012 A 
ATOM     79  C   UNL A   1      37.241  32.173  29.504  1.00  0.00     0.148 A 
ATOM     80  C   UNL A   1      36.104  30.982  31.776  1.00  0.00     0.002 A 
ATOM     81  C   UNL A   1      35.914  32.417  29.832  1.00  0.00     0.091 A 
ATOM     82  F   UNL A   1      37.814  32.710  28.418  1.00  0.00    -0.205 F 
ATOM     83  C   UNL A   1      35.338  31.811  30.958  1.00  0.00     0.022 A 
BRANCH  81  84
ATOM     84  S   UNL A   1      34.887  33.569  28.912  1.00  0.00     0.127 S 
ATOM     85  O   UNL A   1      33.715  33.681  29.776  1.00  0.00    -0.237 OA
ATOM     86  O   UNL A   1      35.738  34.758  28.870  1.00  0.00    -0.237 OA
ATOM     87  O   UNL A   1      34.653  32.946  27.616  1.00  0.00    -0.744 OA
ENDBRANCH  81  84
ENDBRANCH  53  77
BRANCH  65  88
ATOM     88  C   UNL A   1      43.875  34.700  32.329  1.00  0.00     0.023 A 
ATOM     89  C   UNL A   1      43.923  35.952  31.689  1.00  0.00     0.012 A 
ATOM     90  C   UNL A   1      43.929  34.636  33.736  1.00  0.00     0.148 A 
ATOM     91  C   UNL A   1      44.042  37.123  32.438  1.00  0.00     0.002 A 
ATOM     92  C   UNL A   1      43.992  35.807  34.478  1.00  0.00     0.091 A 
ATOM     93  F   UNL A   1      43.892  33.430  34.322  1.00  0.00    -0.205 F 
ATOM     94  C   UNL A   1      44.061  37.051  33.830  1.00  0.00     0.022 A 
BRANCH  92  95
ATOM     95  S   UNL A   1      43.909  35.817  36.272  1.00  0.00     0.127 S 
ATOM     96  O   UNL A   1      43.454  37.180  36.540  1.00  0.00    -0.237 OA
ATOM     97  O   UNL A   1      42.915  34.778  36.540  1.00  0.00    -0.237 OA
ATOM     98  O   UNL A   1      45.252  35.508  36.741  1.00  0.00    -0.744 OA
ENDBRANCH  92  95
ENDBRANCH  65  88
ENDBRANCH  39  40
ENDBRANCH  32  34
ENDBRANCH  31  32
ENDBRANCH  30  31
ENDBRANCH  29  30
ENDBRANCH  28  29
ENDBRANCH   1  28
TORSDOF 23
ENDMDL
MODEL 2
REMARK VINA RESULT:      -9.3      4.163      7.254
REMARK SMILES CC[C@](C)(NC(=O)[C@H]1CNc2ccccc2O1)C(=O)OCCOCCOCCOC(=O)c1ccc(-c2c3nc(c(-c4cccc(S(=O)(=O)[O-])c4F)c4ccc([nH]4)c(-c4cccc(S(=O)(=O)[O-])c4F)c4nc(c(-c5cccc(S(=O)(=O)[O-])c5F)c5ccc2[nH]5)C=C4)C=C3)cc1
REMARK SMILES IDX 25 1 24 2 23 3 22 4 21 5 20 6 18 7 19 8 3 9 4 10 2 11 1 12
REMARK SMILES IDX 5 13 6 14 7 16 8 17 9 18 17 19 10 20 16 21 11 22 15 24 12 25
REMARK SMILES IDX 14 26 13 27 26 28 27 29 28 30 29 31 30 32 31 33 32 34 33 35
REMARK SMILES IDX 94 36 34 37 93 38 35 39 36 40 37 41 87 42 38 43 92 44 86 45
REMARK SMILES IDX 88 46 39 47 91 48 85 49 84 50 40 52 72 53 52 54 71 55 53 56
REMARK SMILES IDX 56 57 70 58 89 59 54 60 55 61 69 63 90 64 57 65 41 66 42 67
REMARK SMILES IDX 50 68 43 69 45 70 51 71 44 72 46 73 47 74 48 75 49 76 73 77
REMARK SMILES IDX 74 78 82 79 75 80 77 81 83 82 76 83 78 84 79 85 80 86 81 87
REMARK SMILES IDX 58 88 59 89 67 90 60 91 62 92 68 93 61 94 63 95 64 96 65 97
REMARK SMILES IDX 66 98
REMARK H PARENT 5 15 10 23 88 51 56 62
REMARK Flexibility Score: inf
ROOT
ATOM      1  C   UNL A   1      39.331  24.624  27.075  1.00  0.00     0.188 C 
ENDROOT
BRANCH   1   2
ATOM      2  C   UNL A   1      37.987  24.172  26.457  1.00  0.00     0.188 C 
BRANCH   2   3
ATOM      3  O   UNL A   1      37.982  22.976  25.684  1.00  0.00    -0.376 OA
BRANCH   3   4
ATOM      4  C   UNL A   1      36.993  22.825  24.648  1.00  0.00     0.202 C 
BRANCH   4   5
ATOM      5  C   UNL A   1      35.757  23.744  24.546  1.00  0.00     0.261 C 
BRANCH   5   6
ATOM      6  O   UNL A   1      34.672  23.080  23.886  1.00  0.00    -0.462 OA
BRANCH   6   7
ATOM      7  C   UNL A   1      33.435  23.293  24.376  1.00  0.00     0.331 C 
ATOM      8  O   UNL A   1      33.173  23.382  25.570  1.00  0.00    -0.249 OA
BRANCH   7   9
ATOM      9  C   UNL A   1      32.377  23.381  23.240  1.00  0.00     0.135 C 
ATOM     10  C   UNL A   1      31.017  23.328  24.006  1.00  0.00     0.047 C 
BRANCH   9  11
ATOM     11  C   UNL A   1      32.525  22.078  22.407  1.00  0.00     0.037 C 
ATOM     12  C   UNL A   1      32.181  20.784  23.142  1.00  0.00     0.007 C 
ENDBRANCH   9  11
BRANCH   9  13
ATOM     13  N   UNL A   1      32.316  24.603  22.328  1.00  0.00    -0.337 N 
ATOM     14  C   UNL A   1      33.002  25.775  22.112  1.00  0.00     0.263 C 
ATOM     15  H   UNL A   1      31.556  24.530  21.707  1.00  0.00     0.164 HD
ATOM     16  O   UNL A   1      33.353  25.952  20.934  1.00  0.00    -0.271 OA
BRANCH  14  17
ATOM     17  C   UNL A   1      33.199  26.940  23.159  1.00  0.00     0.281 C 
ATOM     18  C   UNL A   1      32.703  28.275  22.583  1.00  0.00     0.168 C 
ATOM     19  O   UNL A   1      32.473  26.689  24.381  1.00  0.00    -0.477 OA
ATOM     20  N   UNL A   1      32.903  29.356  23.556  1.00  0.00    -0.378 N 
ATOM     21  C   UNL A   1      32.253  27.749  25.234  1.00  0.00     0.143 A 
ATOM     22  C   UNL A   1      32.543  29.061  24.866  1.00  0.00     0.077 A 
ATOM     23  H   UNL A   1      33.269  30.233  23.298  1.00  0.00     0.160 HD
ATOM     24  C   UNL A   1      31.797  27.465  26.529  1.00  0.00     0.049 A 
ATOM     25  C   UNL A   1      32.383  30.066  25.831  1.00  0.00     0.029 A 
ATOM     26  C   UNL A   1      31.635  28.465  27.479  1.00  0.00     0.004 A 
ATOM     27  C   UNL A   1      31.938  29.771  27.130  1.00  0.00     0.002 A 
ENDBRANCH  14  17
ENDBRANCH   9  13
ENDBRANCH   7   9
ENDBRANCH   6   7
ENDBRANCH   5   6
ENDBRANCH   4   5
ENDBRANCH   3   4
ENDBRANCH   2   3
ENDBRANCH   1   2
BRANCH   1  28
ATOM     28  O   UNL A   1      39.204  25.419  28.266  1.00  0.00    -0.376 OA
BRANCH  28  29
ATOM     29  C   UNL A   1      39.657  26.780  28.371  1.00  0.00     0.202 C 
BRANCH  29  30
ATOM     30  C   UNL A   1      38.722  28.001  28.314  1.00  0.00     0.261 C 
BRANCH  30  31
ATOM     31  O   UNL A   1      38.054  28.291  29.532  1.00  0.00    -0.460 OA
BRANCH  31  32
ATOM     32  C   UNL A   1      37.239  29.371  29.487  1.00  0.00     0.338 C 
ATOM     33  O   UNL A   1      36.137  29.441  28.991  1.00  0.00    -0.246 OA
BRANCH  32  34
ATOM     34  C   UNL A   1      37.825  30.346  30.431  1.00  0.00     0.060 A 
ATOM     35  C   UNL A   1      37.304  31.649  30.410  1.00  0.00     0.016 A 
ATOM     36  C   UNL A   1      38.728  29.947  31.426  1.00  0.00     0.016 A 
ATOM     37  C   UNL A   1      37.718  32.571  31.362  1.00  0.00     0.010 A 
ATOM     38  C   UNL A   1      39.171  30.878  32.356  1.00  0.00     0.010 A 
ATOM     39  C   UNL A   1      38.709  32.202  32.280  1.00  0.00    -0.014 A 
BRANCH  39  40
ATOM     40  C   UNL A   1      39.564  33.264  32.836  1.00  0.00     0.031 A 
ATOM     41  C   UNL A   1      40.596  33.828  31.899  1.00  0.00     0.074 A 
ATOM     42  C   UNL A   1      39.459  33.683  34.104  1.00  0.00     0.049 A 
ATOM     43  N   UNL A   1      41.546  34.689  32.129  1.00  0.00    -0.248 NA
ATOM     44  C   UNL A   1      40.554  33.334  30.508  1.00  0.00     0.031 C 
ATOM     45  C   UNL A   1      38.484  33.205  35.080  1.00  0.00     0.029 A 
ATOM     46  N   UNL A   1      40.223  34.587  34.794  1.00  0.00    -0.354 N 
ATOM     47  C   UNL A   1      42.237  34.802  30.929  1.00  0.00     0.074 A 
ATOM     48  C   UNL A   1      41.607  33.926  29.975  1.00  0.00     0.031 C 
ATOM     49  C   UNL A   1      38.743  33.785  36.266  1.00  0.00     0.029 A 
ATOM     50  C   UNL A   1      39.921  34.643  36.131  1.00  0.00     0.049 A 
ATOM     51  H   UNL A   1      40.920  35.141  34.372  1.00  0.00     0.167 HD
ATOM     52  C   UNL A   1      43.310  35.572  30.646  1.00  0.00     0.034 A 
ATOM     53  C   UNL A   1      40.561  35.278  37.132  1.00  0.00     0.034 A 
ATOM     54  C   UNL A   1      43.931  36.431  31.607  1.00  0.00     0.049 A 
ATOM     55  C   UNL A   1      41.772  36.115  36.806  1.00  0.00     0.074 A 
ATOM     56  C   UNL A   1      44.992  37.295  31.428  1.00  0.00     0.029 A 
ATOM     57  N   UNL A   1      43.561  36.509  32.941  1.00  0.00    -0.354 N 
ATOM     58  N   UNL A   1      42.355  36.308  35.645  1.00  0.00    -0.248 NA
ATOM     59  C   UNL A   1      42.398  36.844  37.918  1.00  0.00     0.031 C 
ATOM     60  C   UNL A   1      45.295  37.862  32.669  1.00  0.00     0.029 A 
ATOM     61  C   UNL A   1      44.386  37.392  33.606  1.00  0.00     0.049 A 
ATOM     62  H   UNL A   1      42.818  36.009  33.353  1.00  0.00     0.167 HD
ATOM     63  C   UNL A   1      43.390  37.207  35.879  1.00  0.00     0.074 A 
ATOM     64  C   UNL A   1      43.351  37.524  37.292  1.00  0.00     0.031 C 
ATOM     65  C   UNL A   1      44.292  37.723  35.006  1.00  0.00     0.034 A 
BRANCH  52  66
ATOM     66  C   UNL A   1      43.874  35.477  29.256  1.00  0.00     0.023 A 
ATOM     67  C   UNL A   1      43.407  36.335  28.238  1.00  0.00     0.012 A 
ATOM     68  C   UNL A   1      44.857  34.517  28.954  1.00  0.00     0.148 A 
ATOM     69  C   UNL A   1      43.876  36.206  26.931  1.00  0.00     0.002 A 
ATOM     70  C   UNL A   1      45.359  34.431  27.662  1.00  0.00     0.091 A 
ATOM     71  F   UNL A   1      45.257  33.683  29.925  1.00  0.00    -0.205 F 
ATOM     72  C   UNL A   1      44.858  35.261  26.646  1.00  0.00     0.022 A 
BRANCH  70  73
ATOM     73  S   UNL A   1      46.683  33.303  27.222  1.00  0.00     0.127 S 
ATOM     74  O   UNL A   1      46.819  33.552  25.787  1.00  0.00    -0.237 OA
ATOM     75  O   UNL A   1      47.793  33.801  28.035  1.00  0.00    -0.237 OA
ATOM     76  O   UNL A   1      46.215  31.973  27.587  1.00  0.00    -0.744 OA
ENDBRANCH  70  73
ENDBRANCH  52  66
BRANCH  53  77
ATOM     77  C   UNL A   1      40.062  35.135  38.526  1.00  0.00     0.023 A 
ATOM     78  C   UNL A   1      39.316  36.171  39.116  1.00  0.00     0.012 A 
ATOM     79  C   UNL A   1      40.274  33.942  39.248  1.00  0.00     0.148 A 
ATOM     80  C   UNL A   1      38.802  36.031  40.407  1.00  0.00     0.002 A 
ATOM     81  C   UNL A   1      39.715  33.788  40.510  1.00  0.00     0.091 A 
ATOM     82  F   UNL A   1      40.998  32.974  38.670  1.00  0.00    -0.205 F 
ATOM     83  C   UNL A   1      38.991  34.836  41.098  1.00  0.00     0.022 A 
BRANCH  81  84
ATOM     84  S   UNL A   1      39.797  32.242  41.421  1.00  0.00     0.127 S 
ATOM     85  O   UNL A   1      39.584  32.692  42.794  1.00  0.00    -0.237 OA
ATOM     86  O   UNL A   1      38.683  31.493  40.839  1.00  0.00    -0.237 OA
ATOM     87  O   UNL A   1      41.113  31.683  41.141  1.00  0.00    -0.744 OA
ENDBRANCH  81  84
ENDBRANCH  53  77
BRANCH  65  88
ATOM     88  C   UNL A   1      45.284  38.729  35.525  1.00  0.00     0.023 A 
ATOM     89  C   UNL A   1      46.565  38.315  35.933  1.00  0.00     0.012 A 
ATOM     90  C   UNL A   1      44.980  40.104  35.476  1.00  0.00     0.148 A 
ATOM     91  C   UNL A   1      47.525  39.256  36.305  1.00  0.00     0.002 A 
ATOM     92  C   UNL A   1      45.957  41.038  35.794  1.00  0.00     0.091 A 
ATOM     93  F   UNL A   1      43.749  40.473  35.093  1.00  0.00    -0.205 F 
ATOM     94  C   UNL A   1      47.227  40.616  36.221  1.00  0.00     0.022 A 
BRANCH  92  95
ATOM     95  S   UNL A   1      45.698  42.806  35.608  1.00  0.00     0.127 S 
ATOM     96  O   UNL A   1      45.224  42.892  34.229  1.00  0.00    -0.237 OA
ATOM     97  O   UNL A   1      44.679  43.076  36.622  1.00  0.00    -0.237 OA
ATOM     98  O   UNL A   1      46.988  43.432  35.862  1.00  0.00    -0.744 OA
ENDBRANCH  92  95
ENDBRANCH  65  88
ENDBRANCH  39  40
ENDBRANCH  32  34
ENDBRANCH  31  32
ENDBRANCH  30  31
ENDBRANCH  29  30
ENDBRANCH  28  29
ENDBRANCH   1  28
TORSDOF 23
ENDMDL
MODEL 3
REMARK VINA RESULT:      -9.1      4.963     10.595
REMARK SMILES CC[C@](C)(NC(=O)[C@H]1CNc2ccccc2O1)C(=O)OCCOCCOCCOC(=O)c1ccc(-c2c3nc(c(-c4cccc(S(=O)(=O)[O-])c4F)c4ccc([nH]4)c(-c4cccc(S(=O)(=O)[O-])c4F)c4nc(c(-c5cccc(S(=O)(=O)[O-])c5F)c5ccc2[nH]5)C=C4)C=C3)cc1
REMARK SMILES IDX 25 1 24 2 23 3 22 4 21 5 20 6 18 7 19 8 3 9 4 10 2 11 1 12
REMARK SMILES IDX 5 13 6 14 7 16 8 17 9 18 17 19 10 20 16 21 11 22 15 24 12 25
REMARK SMILES IDX 14 26 13 27 26 28 27 29 28 30 29 31 30 32 31 33 32 34 33 35
REMARK SMILES IDX 94 36 34 37 93 38 35 39 36 40 37 41 87 42 38 43 92 44 86 45
REMARK SMILES IDX 88 46 39 47 91 48 85 49 84 50 40 52 72 53 52 54 71 55 53 56
REMARK SMILES IDX 56 57 70 58 89 59 54 60 55 61 69 63 90 64 57 65 41 66 42 67
REMARK SMILES IDX 50 68 43 69 45 70 51 71 44 72 46 73 47 74 48 75 49 76 73 77
REMARK SMILES IDX 74 78 82 79 75 80 77 81 83 82 76 83 78 84 79 85 80 86 81 87
REMARK SMILES IDX 58 88 59 89 67 90 60 91 62 92 68 93 61 94 63 95 64 96 65 97
REMARK SMILES IDX 66 98
REMARK H PARENT 5 15 10 23 88 51 56 62
REMARK Flexibility Score: inf
ROOT
ATOM      1  C   UNL A   1      41.229  21.796  26.067  1.00  0.00     0.188 C 
ENDROOT
BRANCH   1   2
ATOM      2  C   UNL A   1      39.905  20.996  26.042  1.00  0.00     0.188 C 
BRANCH   2   3
ATOM      3  O   UNL A   1      38.687  21.729  26.122  1.00  0.00    -0.376 OA
BRANCH   3   4
ATOM      4  C   UNL A   1      37.707  21.558  25.081  1.00  0.00     0.202 C 
BRANCH   4   5
ATOM      5  C   UNL A   1      36.226  21.248  25.384  1.00  0.00     0.261 C 
BRANCH   5   6
ATOM      6  O   UNL A   1      35.361  22.232  24.802  1.00  0.00    -0.462 OA
BRANCH   6   7
ATOM      7  C   UNL A   1      34.806  23.130  25.639  1.00  0.00     0.331 C 
ATOM      8  O   UNL A   1      34.886  23.076  26.859  1.00  0.00    -0.249 OA
BRANCH   7   9
ATOM      9  C   UNL A   1      34.022  24.226  24.862  1.00  0.00     0.135 C 
ATOM     10  C   UNL A   1      34.710  24.238  23.460  1.00  0.00     0.047 C 
BRANCH   9  11
ATOM     11  C   UNL A   1      34.331  25.570  25.575  1.00  0.00     0.037 C 
ATOM     12  C   UNL A   1      33.113  26.410  25.953  1.00  0.00     0.007 C 
ENDBRANCH   9  11
BRANCH   9  13
ATOM     13  N   UNL A   1      32.524  24.079  24.610  1.00  0.00    -0.337 N 
ATOM     14  C   UNL A   1      31.520  23.163  24.817  1.00  0.00     0.263 C 
ATOM     15  H   UNL A   1      32.171  24.882  24.164  1.00  0.00     0.164 HD
ATOM     16  O   UNL A   1      30.528  23.617  25.410  1.00  0.00    -0.271 OA
BRANCH  14  17
ATOM     17  C   UNL A   1      31.459  21.703  24.221  1.00  0.00     0.281 C 
ATOM     18  C   UNL A   1      32.031  21.675  22.795  1.00  0.00     0.168 C 
ATOM     19  O   UNL A   1      32.216  20.767  25.018  1.00  0.00    -0.477 OA
ATOM     20  N   UNL A   1      31.957  20.317  22.242  1.00  0.00    -0.378 N 
ATOM     21  C   UNL A   1      32.553  19.557  24.452  1.00  0.00     0.143 A 
ATOM     22  C   UNL A   1      32.350  19.295  23.099  1.00  0.00     0.077 A 
ATOM     23  H   UNL A   1      31.650  20.141  21.323  1.00  0.00     0.160 HD
ATOM     24  C   UNL A   1      33.041  18.550  25.298  1.00  0.00     0.049 A 
ATOM     25  C   UNL A   1      32.628  18.004  22.629  1.00  0.00     0.029 A 
ATOM     26  C   UNL A   1      33.321  17.275  24.825  1.00  0.00     0.004 A 
ATOM     27  C   UNL A   1      33.105  16.999  23.485  1.00  0.00     0.002 A 
ENDBRANCH  14  17
ENDBRANCH   9  13
ENDBRANCH   7   9
ENDBRANCH   6   7
ENDBRANCH   5   6
ENDBRANCH   4   5
ENDBRANCH   3   4
ENDBRANCH   2   3
ENDBRANCH   1   2
BRANCH   1  28
ATOM     28  O   UNL A   1      42.388  21.046  25.665  1.00  0.00    -0.376 OA
BRANCH  28  29
ATOM     29  C   UNL A   1      43.733  21.548  25.748  1.00  0.00     0.202 C 
BRANCH  29  30
ATOM     30  C   UNL A   1      44.129  22.809  26.538  1.00  0.00     0.261 C 
BRANCH  30  31
ATOM     31  O   UNL A   1      45.489  22.852  26.941  1.00  0.00    -0.460 OA
BRANCH  31  32
ATOM     32  C   UNL A   1      46.369  23.094  25.941  1.00  0.00     0.338 C 
ATOM     33  O   UNL A   1      46.581  22.408  24.966  1.00  0.00    -0.246 OA
BRANCH  32  34
ATOM     34  C   UNL A   1      46.787  24.500  26.116  1.00  0.00     0.060 A 
ATOM     35  C   UNL A   1      46.721  25.332  24.988  1.00  0.00     0.016 A 
ATOM     36  C   UNL A   1      47.061  25.028  27.386  1.00  0.00     0.016 A 
ATOM     37  C   UNL A   1      46.971  26.692  25.120  1.00  0.00     0.010 A 
ATOM     38  C   UNL A   1      47.347  26.381  27.514  1.00  0.00     0.010 A 
ATOM     39  C   UNL A   1      47.361  27.194  26.368  1.00  0.00    -0.014 A 
BRANCH  39  40
ATOM     40  C   UNL A   1      48.192  28.408  26.394  1.00  0.00     0.031 A 
ATOM     41  C   UNL A   1      47.446  29.708  26.509  1.00  0.00     0.074 A 
ATOM     42  C   UNL A   1      49.528  28.369  26.289  1.00  0.00     0.049 A 
ATOM     43  N   UNL A   1      47.891  30.931  26.455  1.00  0.00    -0.248 NA
ATOM     44  C   UNL A   1      45.984  29.607  26.695  1.00  0.00     0.031 C 
ATOM     45  C   UNL A   1      50.337  27.158  26.186  1.00  0.00     0.029 A 
ATOM     46  N   UNL A   1      50.430  29.396  26.210  1.00  0.00    -0.354 N 
ATOM     47  C   UNL A   1      46.764  31.736  26.556  1.00  0.00     0.074 A 
ATOM     48  C   UNL A   1      45.616  30.874  26.669  1.00  0.00     0.031 C 
ATOM     49  C   UNL A   1      51.622  27.516  26.003  1.00  0.00     0.029 A 
ATOM     50  C   UNL A   1      51.709  28.975  25.942  1.00  0.00     0.049 A 
ATOM     51  H   UNL A   1      50.186  30.342  26.332  1.00  0.00     0.167 HD
ATOM     52  C   UNL A   1      46.692  33.085  26.551  1.00  0.00     0.034 A 
ATOM     53  C   UNL A   1      52.805  29.695  25.636  1.00  0.00     0.034 A 
ATOM     54  C   UNL A   1      47.841  33.929  26.428  1.00  0.00     0.049 A 
ATOM     55  C   UNL A   1      52.706  31.199  25.610  1.00  0.00     0.074 A 
ATOM     56  C   UNL A   1      47.901  35.308  26.459  1.00  0.00     0.029 A 
ATOM     57  N   UNL A   1      49.132  33.468  26.219  1.00  0.00    -0.354 N 
ATOM     58  N   UNL A   1      51.656  31.961  25.819  1.00  0.00    -0.248 NA
ATOM     59  C   UNL A   1      53.941  31.945  25.337  1.00  0.00     0.031 C 
ATOM     60  C   UNL A   1      49.226  35.682  26.220  1.00  0.00     0.029 A 
ATOM     61  C   UNL A   1      49.997  34.535  26.097  1.00  0.00     0.049 A 
ATOM     62  H   UNL A   1      49.392  32.519  26.166  1.00  0.00     0.167 HD
ATOM     63  C   UNL A   1      52.111  33.272  25.739  1.00  0.00     0.074 A 
ATOM     64  C   UNL A   1      53.532  33.201  25.468  1.00  0.00     0.031 C 
ATOM     65  C   UNL A   1      51.418  34.431  25.875  1.00  0.00     0.034 A 
BRANCH  52  66
ATOM     66  C   UNL A   1      45.323  33.699  26.651  1.00  0.00     0.023 A 
ATOM     67  C   UNL A   1      44.605  34.029  25.482  1.00  0.00     0.012 A 
ATOM     68  C   UNL A   1      44.757  33.969  27.910  1.00  0.00     0.148 A 
ATOM     69  C   UNL A   1      43.366  34.662  25.566  1.00  0.00     0.002 A 
ATOM     70  C   UNL A   1      43.498  34.550  27.986  1.00  0.00     0.091 A 
ATOM     71  F   UNL A   1      45.472  33.687  29.008  1.00  0.00    -0.205 F 
ATOM     72  C   UNL A   1      42.808  34.913  26.817  1.00  0.00     0.022 A 
BRANCH  70  73
ATOM     73  S   UNL A   1      42.666  34.833  29.550  1.00  0.00     0.127 S 
ATOM     74  O   UNL A   1      41.376  35.362  29.109  1.00  0.00    -0.237 OA
ATOM     75  O   UNL A   1      42.611  33.485  30.117  1.00  0.00    -0.237 OA
ATOM     76  O   UNL A   1      43.507  35.765  30.289  1.00  0.00    -0.744 OA
ENDBRANCH  70  73
ENDBRANCH  52  66
BRANCH  53  77
ATOM     77  C   UNL A   1      54.079  28.991  25.326  1.00  0.00     0.023 A 
ATOM     78  C   UNL A   1      54.910  28.550  26.373  1.00  0.00     0.012 A 
ATOM     79  C   UNL A   1      54.437  28.701  23.994  1.00  0.00     0.148 A 
ATOM     80  C   UNL A   1      56.086  27.848  26.097  1.00  0.00     0.002 A 
ATOM     81  C   UNL A   1      55.578  27.955  23.729  1.00  0.00     0.091 A 
ATOM     82  F   UNL A   1      53.634  29.140  23.014  1.00  0.00    -0.205 F 
ATOM     83  C   UNL A   1      56.412  27.540  24.778  1.00  0.00     0.022 A 
BRANCH  81  84
ATOM     84  S   UNL A   1      56.010  27.402  22.076  1.00  0.00     0.127 S 
ATOM     85  O   UNL A   1      56.281  28.667  21.399  1.00  0.00    -0.237 OA
ATOM     86  O   UNL A   1      57.190  26.578  22.337  1.00  0.00    -0.237 OA
ATOM     87  O   UNL A   1      54.853  26.665  21.587  1.00  0.00    -0.744 OA
ENDBRANCH  81  84
ENDBRANCH  53  77
BRANCH  65  88
ATOM     88  C   UNL A   1      52.180  35.727  25.792  1.00  0.00     0.023 A 
ATOM     89  C   UNL A   1      52.309  36.395  24.561  1.00  0.00     0.012 A 
ATOM     90  C   UNL A   1      52.649  36.341  26.970  1.00  0.00     0.148 A 
ATOM     91  C   UNL A   1      52.914  37.651  24.501  1.00  0.00     0.002 A 
ATOM     92  C   UNL A   1      53.200  37.614  26.912  1.00  0.00     0.091 A 
ATOM     93  F   UNL A   1      52.524  35.679  28.130  1.00  0.00    -0.205 F 
ATOM     94  C   UNL A   1      53.344  38.266  25.676  1.00  0.00     0.022 A 
BRANCH  92  95
ATOM     95  S   UNL A   1      53.678  38.526  28.383  1.00  0.00     0.127 S 
ATOM     96  O   UNL A   1      54.230  39.751  27.806  1.00  0.00    -0.237 OA
ATOM     97  O   UNL A   1      52.398  38.698  29.068  1.00  0.00    -0.237 OA
ATOM     98  O   UNL A   1      54.636  37.686  29.087  1.00  0.00    -0.744 OA
ENDBRANCH  92  95
ENDBRANCH  65  88
ENDBRANCH  39  40
ENDBRANCH  32  34
ENDBRANCH  31  32
ENDBRANCH  30  31
ENDBRANCH  29  30
ENDBRANCH  28  29
ENDBRANCH   1  28
TORSDOF 23
ENDMDL
