MODEL 1
REMARK VINA RESULT:      -9.3      0.000      0.000
REMARK SMILES COc1cccc(C(=O)Nc2ccc(NC(=O)[C@@H]3[C@@H](C(=O)OCCOCCOCCOC(=O)c4ccc(-c5c6nc(c(-c7cccc(S(=O)(=O)[O-])c7F)c7ccc([nH]7)c(-c7cccc(S(=O)(=O)[O-])c7F)c7nc(c(-c8cccc(S(=O)(=O)[O-])c8F)c8ccc5[nH]8)C=C7)C=C6)cc4)[C@@H]4C=C[C@H]3C4)cc2)c1
REMARK SMILES IDX 26 1 25 2 24 3 23 4 22 5 20 6 21 7 19 8 18 9 100 10 97 11
REMARK SMILES IDX 99 12 101 13 98 14 16 15 15 16 17 18 14 19 11 20 12 21
REMARK SMILES IDX 103 22 13 23 102 24 10 25 8 26 9 27 7 29 3 30 4 31 104 32
REMARK SMILES IDX 5 33 6 34 2 35 1 36 27 37 28 38 29 39 30 40 31 41 32 42
REMARK SMILES IDX 33 43 34 44 35 45 96 46 36 47 95 48 37 49 38 50 39 51 89 52
REMARK SMILES IDX 40 53 94 54 88 55 90 56 41 57 93 58 87 59 86 60 42 62 74 63
REMARK SMILES IDX 54 64 73 65 55 66 58 67 72 68 91 69 56 70 57 71 71 73 92 74
REMARK SMILES IDX 59 75 43 76 44 77 52 78 45 79 47 80 53 81 46 82 48 83 49 84
REMARK SMILES IDX 50 85 51 86 75 87 76 88 84 89 77 90 79 91 85 92 78 93 80 94
REMARK SMILES IDX 81 95 82 96 83 97 60 98 61 99 69 100 62 101 64 102 70 103
REMARK SMILES IDX 63 104 65 105 66 106 67 107 68 108
REMARK H PARENT 15 17 10 28 90 61 58 72
REMARK Flexibility Score: inf
ROOT
ATOM      1  C   UNL A   1      42.229  26.430  27.924  1.00  0.00     0.188 C 
ENDROOT
BRANCH   1   2
ATOM      2  O   UNL A   1      41.623  25.181  28.151  1.00  0.00    -0.376 OA
BRANCH   2   3
ATOM      3  C   UNL A   1      40.235  24.986  27.961  1.00  0.00     0.202 C 
BRANCH   3   4
ATOM      4  C   UNL A   1      39.561  24.623  26.630  1.00  0.00     0.261 C 
BRANCH   4   5
ATOM      5  O   UNL A   1      38.258  24.049  26.699  1.00  0.00    -0.463 OA
BRANCH   5   6
ATOM      6  C   UNL A   1      38.106  22.819  26.122  1.00  0.00     0.310 C 
ATOM      7  O   UNL A   1      38.980  21.968  26.050  1.00  0.00    -0.252 OA
BRANCH   6   8
ATOM      8  C   UNL A   1      36.687  22.678  25.602  1.00  0.00     0.119 C 
ATOM      9  C   UNL A   1      36.509  21.534  24.569  1.00  0.00     0.100 C 
ATOM     10  C   UNL A   1      36.080  22.290  23.282  1.00  0.00     0.025 C 
ATOM     11  C   UNL A   1      36.384  23.948  24.760  1.00  0.00     0.027 C 
ATOM     12  C   UNL A   1      34.766  23.009  23.440  1.00  0.00    -0.027 C 
ATOM     13  C   UNL A   1      36.974  23.539  23.402  1.00  0.00     0.017 C 
ATOM     14  C   UNL A   1      34.940  23.980  24.349  1.00  0.00    -0.027 C 
BRANCH   9  15
ATOM     15  C   UNL A   1      35.762  20.252  24.984  1.00  0.00     0.228 C 
ATOM     16  N   UNL A   1      34.419  20.130  25.164  1.00  0.00    -0.326 N 
ATOM     17  H   UNL A   1      34.064  19.243  24.924  1.00  0.00     0.169 HD
ATOM     18  O   UNL A   1      36.405  19.197  25.058  1.00  0.00    -0.274 OA
BRANCH  16  19
ATOM     19  C   UNL A   1      33.448  21.019  25.621  1.00  0.00     0.041 A 
ATOM     20  C   UNL A   1      31.501  22.725  26.642  1.00  0.00     0.041 A 
ATOM     21  C   UNL A   1      31.295  22.097  25.416  1.00  0.00     0.028 A 
ATOM     22  C   UNL A   1      32.691  22.547  27.345  1.00  0.00     0.028 A 
ATOM     23  C   UNL A   1      32.293  21.283  24.889  1.00  0.00     0.028 A 
ATOM     24  C   UNL A   1      33.680  21.712  26.815  1.00  0.00     0.028 A 
BRANCH  20  25
ATOM     25  N   UNL A   1      30.512  23.573  27.134  1.00  0.00    -0.322 N 
ATOM     26  C   UNL A   1      30.050  24.737  26.546  1.00  0.00     0.255 C 
ATOM     27  O   UNL A   1      28.904  25.104  26.809  1.00  0.00    -0.269 OA
ATOM     28  H   UNL A   1      30.098  23.319  27.991  1.00  0.00     0.170 HD
BRANCH  26  29
ATOM     29  C   UNL A   1      30.945  25.631  25.740  1.00  0.00     0.043 A 
ATOM     30  C   UNL A   1      32.655  27.347  25.472  1.00  0.00     0.119 A 
ATOM     31  C   UNL A   1      32.323  27.454  24.123  1.00  0.00     0.046 A 
ATOM     32  C   UNL A   1      31.997  26.401  26.256  1.00  0.00     0.060 A 
ATOM     33  C   UNL A   1      31.345  26.632  23.566  1.00  0.00     0.005 A 
ATOM     34  C   UNL A   1      30.652  25.731  24.373  1.00  0.00     0.014 A 
BRANCH  30  35
ATOM     35  O   UNL A   1      33.605  28.229  25.904  1.00  0.00    -0.497 OA
ATOM     36  C   UNL A   1      33.608  28.618  27.274  1.00  0.00     0.278 C 
ENDBRANCH  30  35
ENDBRANCH  26  29
ENDBRANCH  20  25
ENDBRANCH  16  19
ENDBRANCH   9  15
ENDBRANCH   6   8
ENDBRANCH   5   6
ENDBRANCH   4   5
ENDBRANCH   3   4
ENDBRANCH   2   3
ENDBRANCH   1   2
BRANCH   1  37
ATOM     37  C   UNL A   1      43.773  26.437  27.853  1.00  0.00     0.188 C 
BRANCH  37  38
ATOM     38  O   UNL A   1      44.554  25.860  28.885  1.00  0.00    -0.376 OA
BRANCH  38  39
ATOM     39  C   UNL A   1      45.099  24.563  28.691  1.00  0.00     0.202 C 
BRANCH  39  40
ATOM     40  C   UNL A   1      45.993  24.257  27.476  1.00  0.00     0.261 C 
BRANCH  40  41
ATOM     41  O   UNL A   1      47.408  24.309  27.715  1.00  0.00    -0.460 OA
BRANCH  41  42
ATOM     42  C   UNL A   1      48.125  25.092  26.868  1.00  0.00     0.338 C 
ATOM     43  O   UNL A   1      48.806  24.726  25.926  1.00  0.00    -0.246 OA
BRANCH  42  44
ATOM     44  C   UNL A   1      47.805  26.512  27.126  1.00  0.00     0.060 A 
ATOM     45  C   UNL A   1      48.083  27.046  28.393  1.00  0.00     0.016 A 
ATOM     46  C   UNL A   1      47.228  27.306  26.136  1.00  0.00     0.016 A 
ATOM     47  C   UNL A   1      47.793  28.382  28.673  1.00  0.00     0.010 A 
ATOM     48  C   UNL A   1      46.910  28.636  26.429  1.00  0.00     0.010 A 
ATOM     49  C   UNL A   1      47.178  29.179  27.699  1.00  0.00    -0.014 A 
BRANCH  49  50
ATOM     50  C   UNL A   1      46.703  30.546  28.022  1.00  0.00     0.031 A 
ATOM     51  C   UNL A   1      45.352  30.713  28.657  1.00  0.00     0.074 A 
ATOM     52  C   UNL A   1      47.433  31.627  27.695  1.00  0.00     0.049 A 
ATOM     53  N   UNL A   1      44.679  31.807  28.898  1.00  0.00    -0.248 NA
ATOM     54  C   UNL A   1      44.666  29.478  29.075  1.00  0.00     0.031 C 
ATOM     55  C   UNL A   1      48.765  31.599  27.094  1.00  0.00     0.029 A 
ATOM     56  N   UNL A   1      47.130  32.965  27.782  1.00  0.00    -0.354 N 
ATOM     57  C   UNL A   1      43.475  31.396  29.454  1.00  0.00     0.074 A 
ATOM     58  C   UNL A   1      43.512  29.951  29.523  1.00  0.00     0.031 C 
ATOM     59  C   UNL A   1      49.145  32.859  26.819  1.00  0.00     0.029 A 
ATOM     60  C   UNL A   1      48.070  33.778  27.191  1.00  0.00     0.049 A 
ATOM     61  H   UNL A   1      46.320  33.308  28.224  1.00  0.00     0.167 HD
ATOM     62  C   UNL A   1      42.434  32.153  29.874  1.00  0.00     0.034 A 
ATOM     63  C   UNL A   1      48.045  35.103  26.937  1.00  0.00     0.034 A 
ATOM     64  C   UNL A   1      42.402  33.589  29.815  1.00  0.00     0.049 A 
ATOM     65  C   UNL A   1      46.849  35.917  27.362  1.00  0.00     0.074 A 
ATOM     66  C   UNL A   1      41.417  34.446  30.273  1.00  0.00     0.029 A 
ATOM     67  N   UNL A   1      43.385  34.380  29.241  1.00  0.00    -0.354 N 
ATOM     68  N   UNL A   1      45.771  35.532  28.004  1.00  0.00    -0.248 NA
ATOM     69  C   UNL A   1      46.871  37.353  27.043  1.00  0.00     0.031 C 
ATOM     70  C   UNL A   1      41.787  35.754  29.941  1.00  0.00     0.029 A 
ATOM     71  C   UNL A   1      43.018  35.714  29.305  1.00  0.00     0.049 A 
ATOM     72  H   UNL A   1      44.222  34.044  28.845  1.00  0.00     0.167 HD
ATOM     73  C   UNL A   1      45.005  36.679  28.189  1.00  0.00     0.074 A 
ATOM     74  C   UNL A   1      45.750  37.778  27.612  1.00  0.00     0.031 C 
ATOM     75  C   UNL A   1      43.786  36.808  28.770  1.00  0.00     0.034 A 
BRANCH  62  76
ATOM     76  C   UNL A   1      41.238  31.441  30.449  1.00  0.00     0.023 A 
ATOM     77  C   UNL A   1      40.326  30.798  29.589  1.00  0.00     0.012 A 
ATOM     78  C   UNL A   1      41.053  31.358  31.843  1.00  0.00     0.148 A 
ATOM     79  C   UNL A   1      39.232  30.107  30.106  1.00  0.00     0.002 A 
ATOM     80  C   UNL A   1      39.984  30.632  32.352  1.00  0.00     0.091 A 
ATOM     81  F   UNL A   1      41.920  31.996  32.643  1.00  0.00    -0.205 F 
ATOM     82  C   UNL A   1      39.067  30.015  31.485  1.00  0.00     0.022 A 
BRANCH  80  83
ATOM     83  S   UNL A   1      39.727  30.390  34.113  1.00  0.00     0.127 S 
ATOM     84  O   UNL A   1      40.964  29.711  34.501  1.00  0.00    -0.237 OA
ATOM     85  O   UNL A   1      39.610  31.765  34.599  1.00  0.00    -0.237 OA
ATOM     86  O   UNL A   1      38.514  29.595  34.237  1.00  0.00    -0.744 OA
ENDBRANCH  80  83
ENDBRANCH  62  76
BRANCH  63  87
ATOM     87  C   UNL A   1      49.193  35.751  26.242  1.00  0.00     0.023 A 
ATOM     88  C   UNL A   1      49.351  35.577  24.853  1.00  0.00     0.012 A 
ATOM     89  C   UNL A   1      50.128  36.538  26.946  1.00  0.00     0.148 A 
ATOM     90  C   UNL A   1      50.432  36.152  24.183  1.00  0.00     0.002 A 
ATOM     91  C   UNL A   1      51.171  37.151  26.263  1.00  0.00     0.091 A 
ATOM     92  F   UNL A   1      49.973  36.672  28.271  1.00  0.00    -0.205 F 
ATOM     93  C   UNL A   1      51.335  36.946  24.884  1.00  0.00     0.022 A 
BRANCH  91  94
ATOM     94  S   UNL A   1      52.319  38.279  27.062  1.00  0.00     0.127 S 
ATOM     95  O   UNL A   1      52.966  37.406  28.038  1.00  0.00    -0.237 OA
ATOM     96  O   UNL A   1      53.169  38.688  25.943  1.00  0.00    -0.237 OA
ATOM     97  O   UNL A   1      51.501  39.348  27.618  1.00  0.00    -0.744 OA
ENDBRANCH  91  94
ENDBRANCH  63  87
BRANCH  75  98
ATOM     98  C   UNL A   1      43.173  38.184  28.838  1.00  0.00     0.023 A 
ATOM     99  C   UNL A   1      42.264  38.593  27.843  1.00  0.00     0.012 A 
ATOM    100  C   UNL A   1      43.420  39.030  29.938  1.00  0.00     0.148 A 
ATOM    101  C   UNL A   1      41.626  39.830  27.930  1.00  0.00     0.002 A 
ATOM    102  C   UNL A   1      42.744  40.241  30.043  1.00  0.00     0.091 A 
ATOM    103  F   UNL A   1      44.297  38.628  30.869  1.00  0.00    -0.205 F 
ATOM    104  C   UNL A   1      41.856  40.647  29.035  1.00  0.00     0.022 A 
BRANCH 102 105
ATOM    105  S   UNL A   1      42.900  41.319  31.473  1.00  0.00     0.127 S 
ATOM    106  O   UNL A   1      41.835  42.291  31.229  1.00  0.00    -0.237 OA
ATOM    107  O   UNL A   1      42.644  40.400  32.581  1.00  0.00    -0.237 OA
ATOM    108  O   UNL A   1      44.252  41.858  31.429  1.00  0.00    -0.744 OA
ENDBRANCH 102 105
ENDBRANCH  75  98
ENDBRANCH  49  50
ENDBRANCH  42  44
ENDBRANCH  41  42
ENDBRANCH  40  41
ENDBRANCH  39  40
ENDBRANCH  38  39
ENDBRANCH  37  38
ENDBRANCH   1  37
TORSDOF 25
ENDMDL
MODEL 2
REMARK VINA RESULT:      -9.3      7.710     18.569
REMARK SMILES COc1cccc(C(=O)Nc2ccc(NC(=O)[C@@H]3[C@@H](C(=O)OCCOCCOCCOC(=O)c4ccc(-c5c6nc(c(-c7cccc(S(=O)(=O)[O-])c7F)c7ccc([nH]7)c(-c7cccc(S(=O)(=O)[O-])c7F)c7nc(c(-c8cccc(S(=O)(=O)[O-])c8F)c8ccc5[nH]8)C=C7)C=C6)cc4)[C@@H]4C=C[C@H]3C4)cc2)c1
REMARK SMILES IDX 26 1 25 2 24 3 23 4 22 5 20 6 21 7 19 8 18 9 100 10 97 11
REMARK SMILES IDX 99 12 101 13 98 14 16 15 15 16 17 18 14 19 11 20 12 21
REMARK SMILES IDX 103 22 13 23 102 24 10 25 8 26 9 27 7 29 3 30 4 31 104 32
REMARK SMILES IDX 5 33 6 34 2 35 1 36 27 37 28 38 29 39 30 40 31 41 32 42
REMARK SMILES IDX 33 43 34 44 35 45 96 46 36 47 95 48 37 49 38 50 39 51 89 52
REMARK SMILES IDX 40 53 94 54 88 55 90 56 41 57 93 58 87 59 86 60 42 62 74 63
REMARK SMILES IDX 54 64 73 65 55 66 58 67 72 68 91 69 56 70 57 71 71 73 92 74
REMARK SMILES IDX 59 75 43 76 44 77 52 78 45 79 47 80 53 81 46 82 48 83 49 84
REMARK SMILES IDX 50 85 51 86 75 87 76 88 84 89 77 90 79 91 85 92 78 93 80 94
REMARK SMILES IDX 81 95 82 96 83 97 60 98 61 99 69 100 62 101 64 102 70 103
REMARK SMILES IDX 63 104 65 105 66 106 67 107 68 108
REMARK H PARENT 15 17 10 28 90 61 58 72
REMARK Flexibility Score: inf
ROOT
ATOM      1  C   UNL A   1      43.145  41.195  25.748  1.00  0.00     0.188 C 
ENDROOT
BRANCH   1   2
ATOM      2  O   UNL A   1      43.252  41.730  24.451  1.00  0.00    -0.376 OA
BRANCH   2   3
ATOM      3  C   UNL A   1      43.366  43.123  24.232  1.00  0.00     0.202 C 
BRANCH   3   4
ATOM      4  C   UNL A   1      42.738  43.895  23.062  1.00  0.00     0.261 C 
BRANCH   4   5
ATOM      5  O   UNL A   1      43.416  43.836  21.810  1.00  0.00    -0.463 OA
BRANCH   5   6
ATOM      6  C   UNL A   1      42.644  43.562  20.715  1.00  0.00     0.310 C 
ATOM      7  O   UNL A   1      41.439  43.363  20.741  1.00  0.00    -0.252 OA
BRANCH   6   8
ATOM      8  C   UNL A   1      43.515  43.561  19.472  1.00  0.00     0.119 C 
ATOM      9  C   UNL A   1      44.768  44.469  19.584  1.00  0.00     0.100 C 
ATOM     10  C   UNL A   1      44.530  45.530  18.474  1.00  0.00     0.025 C 
ATOM     11  C   UNL A   1      42.696  44.246  18.344  1.00  0.00     0.027 C 
ATOM     12  C   UNL A   1      44.489  44.927  17.094  1.00  0.00    -0.027 C 
ATOM     13  C   UNL A   1      43.009  45.725  18.621  1.00  0.00     0.017 C 
ATOM     14  C   UNL A   1      43.410  44.134  17.027  1.00  0.00    -0.027 C 
BRANCH   9  15
ATOM     15  C   UNL A   1      46.158  43.822  19.733  1.00  0.00     0.228 C 
ATOM     16  N   UNL A   1      47.253  44.398  20.300  1.00  0.00    -0.326 N 
ATOM     17  H   UNL A   1      47.843  43.761  20.764  1.00  0.00     0.169 HD
ATOM     18  O   UNL A   1      46.288  42.632  19.419  1.00  0.00    -0.274 OA
BRANCH  16  19
ATOM     19  C   UNL A   1      47.699  45.718  20.351  1.00  0.00     0.041 A 
ATOM     20  C   UNL A   1      48.489  48.386  20.384  1.00  0.00     0.041 A 
ATOM     21  C   UNL A   1      49.353  47.415  19.882  1.00  0.00     0.028 A 
ATOM     22  C   UNL A   1      47.249  48.033  20.913  1.00  0.00     0.028 A 
ATOM     23  C   UNL A   1      48.971  46.078  19.913  1.00  0.00     0.028 A 
ATOM     24  C   UNL A   1      46.867  46.687  20.923  1.00  0.00     0.028 A 
BRANCH  20  25
ATOM     25  N   UNL A   1      48.905  49.715  20.389  1.00  0.00    -0.322 N 
ATOM     26  C   UNL A   1      48.291  50.777  19.750  1.00  0.00     0.255 C 
ATOM     27  O   UNL A   1      48.462  51.907  20.211  1.00  0.00    -0.269 OA
ATOM     28  H   UNL A   1      49.722  49.920  20.899  1.00  0.00     0.170 HD
BRANCH  26  29
ATOM     29  C   UNL A   1      47.571  50.614  18.445  1.00  0.00     0.043 A 
ATOM     30  C   UNL A   1      45.600  50.207  17.071  1.00  0.00     0.119 A 
ATOM     31  C   UNL A   1      46.422  50.023  15.961  1.00  0.00     0.046 A 
ATOM     32  C   UNL A   1      46.179  50.550  18.291  1.00  0.00     0.060 A 
ATOM     33  C   UNL A   1      47.804  50.174  16.070  1.00  0.00     0.005 A 
ATOM     34  C   UNL A   1      48.377  50.458  17.309  1.00  0.00     0.014 A 
BRANCH  30  35
ATOM     35  O   UNL A   1      44.268  49.999  16.842  1.00  0.00    -0.497 OA
ATOM     36  C   UNL A   1      43.813  48.671  16.601  1.00  0.00     0.278 C 
ENDBRANCH  30  35
ENDBRANCH  26  29
ENDBRANCH  20  25
ENDBRANCH  16  19
ENDBRANCH   9  15
ENDBRANCH   6   8
ENDBRANCH   5   6
ENDBRANCH   4   5
ENDBRANCH   3   4
ENDBRANCH   2   3
ENDBRANCH   1   2
BRANCH   1  37
ATOM     37  C   UNL A   1      44.274  40.234  26.185  1.00  0.00     0.188 C 
BRANCH  37  38
ATOM     38  O   UNL A   1      45.445  40.079  25.402  1.00  0.00    -0.376 OA
BRANCH  38  39
ATOM     39  C   UNL A   1      46.443  39.165  25.833  1.00  0.00     0.202 C 
BRANCH  39  40
ATOM     40  C   UNL A   1      46.682  38.909  27.332  1.00  0.00     0.261 C 
BRANCH  40  41
ATOM     41  O   UNL A   1      46.011  37.766  27.884  1.00  0.00    -0.460 OA
BRANCH  41  42
ATOM     42  C   UNL A   1      46.797  36.875  28.541  1.00  0.00     0.338 C 
ATOM     43  O   UNL A   1      47.829  37.110  29.147  1.00  0.00    -0.246 OA
BRANCH  42  44
ATOM     44  C   UNL A   1      46.115  35.565  28.594  1.00  0.00     0.060 A 
ATOM     45  C   UNL A   1      46.437  34.679  29.633  1.00  0.00     0.016 A 
ATOM     46  C   UNL A   1      45.177  35.208  27.627  1.00  0.00     0.016 A 
ATOM     47  C   UNL A   1      45.813  33.433  29.714  1.00  0.00     0.010 A 
ATOM     48  C   UNL A   1      44.576  33.947  27.692  1.00  0.00     0.010 A 
ATOM     49  C   UNL A   1      44.898  33.048  28.726  1.00  0.00    -0.014 A 
BRANCH  49  50
ATOM     50  C   UNL A   1      44.352  31.670  28.689  1.00  0.00     0.031 A 
ATOM     51  C   UNL A   1      45.101  30.612  27.929  1.00  0.00     0.074 A 
ATOM     52  C   UNL A   1      43.172  31.378  29.267  1.00  0.00     0.049 A 
ATOM     53  N   UNL A   1      44.746  29.387  27.647  1.00  0.00    -0.248 NA
ATOM     54  C   UNL A   1      46.429  30.990  27.416  1.00  0.00     0.031 C 
ATOM     55  C   UNL A   1      42.359  32.308  30.048  1.00  0.00     0.029 A 
ATOM     56  N   UNL A   1      42.432  30.220  29.243  1.00  0.00    -0.354 N 
ATOM     57  C   UNL A   1      45.782  28.858  26.889  1.00  0.00     0.074 A 
ATOM     58  C   UNL A   1      46.785  29.895  26.762  1.00  0.00     0.031 C 
ATOM     59  C   UNL A   1      41.209  31.701  30.387  1.00  0.00     0.029 A 
ATOM     60  C   UNL A   1      41.188  30.354  29.816  1.00  0.00     0.049 A 
ATOM     61  H   UNL A   1      42.760  29.377  28.853  1.00  0.00     0.167 HD
ATOM     62  C   UNL A   1      45.892  27.621  26.351  1.00  0.00     0.034 A 
ATOM     63  C   UNL A   1      40.139  29.507  29.838  1.00  0.00     0.034 A 
ATOM     64  C   UNL A   1      44.901  26.588  26.487  1.00  0.00     0.049 A 
ATOM     65  C   UNL A   1      40.265  28.155  29.182  1.00  0.00     0.074 A 
ATOM     66  C   UNL A   1      44.951  25.284  26.030  1.00  0.00     0.029 A 
ATOM     67  N   UNL A   1      43.670  26.749  27.103  1.00  0.00    -0.354 N 
ATOM     68  N   UNL A   1      41.300  27.620  28.578  1.00  0.00    -0.248 NA
ATOM     69  C   UNL A   1      39.082  27.281  29.223  1.00  0.00     0.031 C 
ATOM     70  C   UNL A   1      43.733  24.667  26.335  1.00  0.00     0.029 A 
ATOM     71  C   UNL A   1      42.937  25.577  27.012  1.00  0.00     0.049 A 
ATOM     72  H   UNL A   1      43.360  27.575  27.541  1.00  0.00     0.167 HD
ATOM     73  C   UNL A   1      40.902  26.342  28.195  1.00  0.00     0.074 A 
ATOM     74  C   UNL A   1      39.540  26.173  28.654  1.00  0.00     0.031 C 
ATOM     75  C   UNL A   1      41.598  25.400  27.511  1.00  0.00     0.034 A 
BRANCH  62  76
ATOM     76  C   UNL A   1      47.140  27.306  25.569  1.00  0.00     0.023 A 
ATOM     77  C   UNL A   1      48.191  26.596  26.184  1.00  0.00     0.012 A 
ATOM     78  C   UNL A   1      47.244  27.659  24.210  1.00  0.00     0.148 A 
ATOM     79  C   UNL A   1      49.339  26.268  25.465  1.00  0.00     0.002 A 
ATOM     80  C   UNL A   1      48.372  27.291  23.489  1.00  0.00     0.091 A 
ATOM     81  F   UNL A   1      46.243  28.353  23.651  1.00  0.00    -0.205 F 
ATOM     82  C   UNL A   1      49.425  26.606  24.117  1.00  0.00     0.022 A 
BRANCH  80  83
ATOM     83  S   UNL A   1      48.547  27.613  21.730  1.00  0.00     0.127 S 
ATOM     84  O   UNL A   1      48.841  26.276  21.214  1.00  0.00    -0.237 OA
ATOM     85  O   UNL A   1      47.222  28.123  21.378  1.00  0.00    -0.237 OA
ATOM     86  O   UNL A   1      49.626  28.581  21.603  1.00  0.00    -0.744 OA
ENDBRANCH  80  83
ENDBRANCH  62  76
BRANCH  63  87
ATOM     87  C   UNL A   1      38.869  29.909  30.507  1.00  0.00     0.023 A 
ATOM     88  C   UNL A   1      38.587  29.432  31.802  1.00  0.00     0.012 A 
ATOM     89  C   UNL A   1      37.942  30.760  29.872  1.00  0.00     0.148 A 
ATOM     90  C   UNL A   1      37.395  29.772  32.442  1.00  0.00     0.002 A 
ATOM     91  C   UNL A   1      36.781  31.137  30.535  1.00  0.00     0.091 A 
ATOM     92  F   UNL A   1      38.218  31.184  28.631  1.00  0.00    -0.205 F 
ATOM     93  C   UNL A   1      36.497  30.631  31.813  1.00  0.00     0.022 A 
BRANCH  91  94
ATOM     94  S   UNL A   1      35.619  32.325  29.851  1.00  0.00     0.127 S 
ATOM     95  O   UNL A   1      34.589  32.367  30.887  1.00  0.00    -0.237 OA
ATOM     96  O   UNL A   1      36.443  33.531  29.754  1.00  0.00    -0.237 OA
ATOM     97  O   UNL A   1      35.201  31.777  28.569  1.00  0.00    -0.744 OA
ENDBRANCH  91  94
ENDBRANCH  63  87
BRANCH  75  98
ATOM     98  C   UNL A   1      40.919  24.084  27.225  1.00  0.00     0.023 A 
ATOM     99  C   UNL A   1      41.444  22.896  27.770  1.00  0.00     0.012 A 
ATOM    100  C   UNL A   1      39.711  24.038  26.503  1.00  0.00     0.148 A 
ATOM    101  C   UNL A   1      40.789  21.679  27.583  1.00  0.00     0.002 A 
ATOM    102  C   UNL A   1      39.037  22.829  26.361  1.00  0.00     0.091 A 
ATOM    103  F   UNL A   1      39.233  25.178  25.982  1.00  0.00    -0.205 F 
ATOM    104  C   UNL A   1      39.580  21.649  26.891  1.00  0.00     0.022 A 
BRANCH 102 105
ATOM    105  S   UNL A   1      37.428  22.701  25.569  1.00  0.00     0.127 S 
ATOM    106  O   UNL A   1      36.600  23.531  26.444  1.00  0.00    -0.237 OA
ATOM    107  O   UNL A   1      37.687  23.277  24.250  1.00  0.00    -0.237 OA
ATOM    108  O   UNL A   1      37.093  21.284  25.560  1.00  0.00    -0.744 OA
ENDBRANCH 102 105
ENDBRANCH  75  98
ENDBRANCH  49  50
ENDBRANCH  42  44
ENDBRANCH  41  42
ENDBRANCH  40  41
ENDBRANCH  39  40
ENDBRANCH  38  39
ENDBRANCH  37  38
ENDBRANCH   1  37
TORSDOF 25
ENDMDL
MODEL 3
REMARK VINA RESULT:      -8.6      7.793     18.978
REMARK SMILES COc1cccc(C(=O)Nc2ccc(NC(=O)[C@@H]3[C@@H](C(=O)OCCOCCOCCOC(=O)c4ccc(-c5c6nc(c(-c7cccc(S(=O)(=O)[O-])c7F)c7ccc([nH]7)c(-c7cccc(S(=O)(=O)[O-])c7F)c7nc(c(-c8cccc(S(=O)(=O)[O-])c8F)c8ccc5[nH]8)C=C7)C=C6)cc4)[C@@H]4C=C[C@H]3C4)cc2)c1
REMARK SMILES IDX 26 1 25 2 24 3 23 4 22 5 20 6 21 7 19 8 18 9 100 10 97 11
REMARK SMILES IDX 99 12 101 13 98 14 16 15 15 16 17 18 14 19 11 20 12 21
REMARK SMILES IDX 103 22 13 23 102 24 10 25 8 26 9 27 7 29 3 30 4 31 104 32
REMARK SMILES IDX 5 33 6 34 2 35 1 36 27 37 28 38 29 39 30 40 31 41 32 42
REMARK SMILES IDX 33 43 34 44 35 45 96 46 36 47 95 48 37 49 38 50 39 51 89 52
REMARK SMILES IDX 40 53 94 54 88 55 90 56 41 57 93 58 87 59 86 60 42 62 74 63
REMARK SMILES IDX 54 64 73 65 55 66 58 67 72 68 91 69 56 70 57 71 71 73 92 74
REMARK SMILES IDX 59 75 43 76 44 77 52 78 45 79 47 80 53 81 46 82 48 83 49 84
REMARK SMILES IDX 50 85 51 86 75 87 76 88 84 89 77 90 79 91 85 92 78 93 80 94
REMARK SMILES IDX 81 95 82 96 83 97 60 98 61 99 69 100 62 101 64 102 70 103
REMARK SMILES IDX 63 104 65 105 66 106 67 107 68 108
REMARK H PARENT 15 17 10 28 90 61 58 72
REMARK Flexibility Score: inf
ROOT
ATOM      1  C   UNL A   1      43.186  41.347  25.758  1.00  0.00     0.188 C 
ENDROOT
BRANCH   1   2
ATOM      2  O   UNL A   1      43.319  41.867  24.458  1.00  0.00    -0.376 OA
BRANCH   2   3
ATOM      3  C   UNL A   1      42.980  43.207  24.158  1.00  0.00     0.202 C 
BRANCH   3   4
ATOM      4  C   UNL A   1      42.466  43.713  22.802  1.00  0.00     0.261 C 
BRANCH   4   5
ATOM      5  O   UNL A   1      43.386  43.695  21.714  1.00  0.00    -0.463 OA
BRANCH   5   6
ATOM      6  C   UNL A   1      43.275  42.646  20.843  1.00  0.00     0.310 C 
ATOM      7  O   UNL A   1      42.755  41.572  21.105  1.00  0.00    -0.252 OA
BRANCH   6   8
ATOM      8  C   UNL A   1      43.881  43.034  19.507  1.00  0.00     0.119 C 
ATOM      9  C   UNL A   1      44.668  44.370  19.540  1.00  0.00     0.100 C 
ATOM     10  C   UNL A   1      43.867  45.272  18.561  1.00  0.00     0.025 C 
ATOM     11  C   UNL A   1      42.701  43.356  18.550  1.00  0.00     0.027 C 
ATOM     12  C   UNL A   1      43.868  44.743  17.151  1.00  0.00    -0.027 C 
ATOM     13  C   UNL A   1      42.434  44.826  18.910  1.00  0.00     0.017 C 
ATOM     14  C   UNL A   1      43.199  43.581  17.150  1.00  0.00    -0.027 C 
BRANCH   9  15
ATOM     15  C   UNL A   1      46.207  44.342  19.463  1.00  0.00     0.228 C 
ATOM     16  N   UNL A   1      47.042  45.380  19.741  1.00  0.00    -0.326 N 
ATOM     17  H   UNL A   1      47.903  45.105  20.131  1.00  0.00     0.169 HD
ATOM     18  O   UNL A   1      46.763  43.259  19.239  1.00  0.00    -0.274 OA
BRANCH  16  19
ATOM     19  C   UNL A   1      46.913  46.759  19.579  1.00  0.00     0.041 A 
ATOM     20  C   UNL A   1      46.777  49.523  19.290  1.00  0.00     0.041 A 
ATOM     21  C   UNL A   1      45.910  48.877  20.168  1.00  0.00     0.028 A 
ATOM     22  C   UNL A   1      47.683  48.798  18.518  1.00  0.00     0.028 A 
ATOM     23  C   UNL A   1      45.951  47.490  20.272  1.00  0.00     0.028 A 
ATOM     24  C   UNL A   1      47.728  47.406  18.644  1.00  0.00     0.028 A 
BRANCH  20  25
ATOM     25  N   UNL A   1      46.692  50.907  19.163  1.00  0.00    -0.322 N 
ATOM     26  C   UNL A   1      47.745  51.795  19.045  1.00  0.00     0.255 C 
ATOM     27  O   UNL A   1      47.538  52.867  18.475  1.00  0.00    -0.269 OA
ATOM     28  H   UNL A   1      45.787  51.296  19.158  1.00  0.00     0.170 HD
BRANCH  26  29
ATOM     29  C   UNL A   1      49.064  51.560  19.720  1.00  0.00     0.043 A 
ATOM     30  C   UNL A   1      50.485  50.705  21.505  1.00  0.00     0.119 A 
ATOM     31  C   UNL A   1      51.543  51.469  21.017  1.00  0.00     0.046 A 
ATOM     32  C   UNL A   1      49.270  50.719  20.823  1.00  0.00     0.060 A 
ATOM     33  C   UNL A   1      51.388  52.241  19.866  1.00  0.00     0.005 A 
ATOM     34  C   UNL A   1      50.151  52.294  19.227  1.00  0.00     0.014 A 
BRANCH  30  35
ATOM     35  O   UNL A   1      50.753  50.018  22.656  1.00  0.00    -0.497 OA
ATOM     36  C   UNL A   1      51.744  48.995  22.628  1.00  0.00     0.278 C 
ENDBRANCH  30  35
ENDBRANCH  26  29
ENDBRANCH  20  25
ENDBRANCH  16  19
ENDBRANCH   9  15
ENDBRANCH   6   8
ENDBRANCH   5   6
ENDBRANCH   4   5
ENDBRANCH   3   4
ENDBRANCH   2   3
ENDBRANCH   1   2
BRANCH   1  37
ATOM     37  C   UNL A   1      44.257  40.323  26.198  1.00  0.00     0.188 C 
BRANCH  37  38
ATOM     38  O   UNL A   1      45.457  40.160  25.461  1.00  0.00    -0.376 OA
BRANCH  38  39
ATOM     39  C   UNL A   1      46.386  39.169  25.875  1.00  0.00     0.202 C 
BRANCH  39  40
ATOM     40  C   UNL A   1      46.551  38.816  27.364  1.00  0.00     0.261 C 
BRANCH  40  41
ATOM     41  O   UNL A   1      45.875  37.627  27.801  1.00  0.00    -0.460 OA
BRANCH  41  42
ATOM     42  C   UNL A   1      46.638  36.720  28.465  1.00  0.00     0.338 C 
ATOM     43  O   UNL A   1      47.662  36.937  29.090  1.00  0.00    -0.246 OA
BRANCH  42  44
ATOM     44  C   UNL A   1      45.936  35.420  28.497  1.00  0.00     0.060 A 
ATOM     45  C   UNL A   1      46.195  34.540  29.559  1.00  0.00     0.016 A 
ATOM     46  C   UNL A   1      45.043  35.064  27.487  1.00  0.00     0.016 A 
ATOM     47  C   UNL A   1      45.551  33.303  29.621  1.00  0.00     0.010 A 
ATOM     48  C   UNL A   1      44.424  33.811  27.535  1.00  0.00     0.010 A 
ATOM     49  C   UNL A   1      44.682  32.920  28.593  1.00  0.00    -0.014 A 
BRANCH  49  50
ATOM     50  C   UNL A   1      44.120  31.548  28.542  1.00  0.00     0.031 A 
ATOM     51  C   UNL A   1      44.862  30.487  27.781  1.00  0.00     0.074 A 
ATOM     52  C   UNL A   1      42.933  31.266  29.109  1.00  0.00     0.049 A 
ATOM     53  N   UNL A   1      44.496  29.267  27.488  1.00  0.00    -0.248 NA
ATOM     54  C   UNL A   1      46.199  30.852  27.281  1.00  0.00     0.031 C 
ATOM     55  C   UNL A   1      42.124  32.200  29.890  1.00  0.00     0.029 A 
ATOM     56  N   UNL A   1      42.179  30.117  29.071  1.00  0.00    -0.354 N 
ATOM     57  C   UNL A   1      45.532  28.732  26.734  1.00  0.00     0.074 A 
ATOM     58  C   UNL A   1      46.547  29.757  26.622  1.00  0.00     0.031 C 
ATOM     59  C   UNL A   1      40.964  31.604  30.215  1.00  0.00     0.029 A 
ATOM     60  C   UNL A   1      40.933  30.262  29.635  1.00  0.00     0.049 A 
ATOM     61  H   UNL A   1      42.500  29.273  28.678  1.00  0.00     0.167 HD
ATOM     62  C   UNL A   1      45.632  27.497  26.189  1.00  0.00     0.034 A 
ATOM     63  C   UNL A   1      39.874  29.426  29.643  1.00  0.00     0.034 A 
ATOM     64  C   UNL A   1      44.627  26.475  26.311  1.00  0.00     0.049 A 
ATOM     65  C   UNL A   1      39.989  28.077  28.979  1.00  0.00     0.074 A 
ATOM     66  C   UNL A   1      44.666  25.173  25.844  1.00  0.00     0.029 A 
ATOM     67  N   UNL A   1      43.394  26.646  26.917  1.00  0.00    -0.354 N 
ATOM     68  N   UNL A   1      41.022  27.534  28.380  1.00  0.00    -0.248 NA
ATOM     69  C   UNL A   1      38.795  27.216  29.005  1.00  0.00     0.031 C 
ATOM     70  C   UNL A   1      43.439  24.568  26.136  1.00  0.00     0.029 A 
ATOM     71  C   UNL A   1      42.648  25.483  26.813  1.00  0.00     0.049 A 
ATOM     72  H   UNL A   1      43.090  27.473  27.359  1.00  0.00     0.167 HD
ATOM     73  C   UNL A   1      40.613  26.263  27.985  1.00  0.00     0.074 A 
ATOM     74  C   UNL A   1      39.245  26.107  28.432  1.00  0.00     0.031 C 
ATOM     75  C   UNL A   1      41.303  25.318  27.301  1.00  0.00     0.034 A 
BRANCH  62  76
ATOM     76  C   UNL A   1      46.882  27.173  25.415  1.00  0.00     0.023 A 
ATOM     77  C   UNL A   1      47.887  26.381  26.007  1.00  0.00     0.012 A 
ATOM     78  C   UNL A   1      47.032  27.600  24.081  1.00  0.00     0.148 A 
ATOM     79  C   UNL A   1      49.036  26.045  25.293  1.00  0.00     0.002 A 
ATOM     80  C   UNL A   1      48.159  27.225  23.362  1.00  0.00     0.091 A 
ATOM     81  F   UNL A   1      46.075  28.370  23.544  1.00  0.00    -0.205 F 
ATOM     82  C   UNL A   1      49.167  26.457  23.970  1.00  0.00     0.022 A 
BRANCH  80  83
ATOM     83  S   UNL A   1      48.387  27.641  21.630  1.00  0.00     0.127 S 
ATOM     84  O   UNL A   1      47.026  27.995  21.230  1.00  0.00    -0.237 OA
ATOM     85  O   UNL A   1      49.314  28.771  21.704  1.00  0.00    -0.237 OA
ATOM     86  O   UNL A   1      48.933  26.448  20.998  1.00  0.00    -0.744 OA
ENDBRANCH  80  83
ENDBRANCH  62  76
BRANCH  63  87
ATOM     87  C   UNL A   1      38.603  29.838  30.306  1.00  0.00     0.023 A 
ATOM     88  C   UNL A   1      38.362  29.458  31.640  1.00  0.00     0.012 A 
ATOM     89  C   UNL A   1      37.635  30.603  29.624  1.00  0.00     0.148 A 
ATOM     90  C   UNL A   1      37.171  29.809  32.276  1.00  0.00     0.002 A 
ATOM     91  C   UNL A   1      36.474  30.994  30.280  1.00  0.00     0.091 A 
ATOM     92  F   UNL A   1      37.873  30.936  28.347  1.00  0.00    -0.205 F 
ATOM     93  C   UNL A   1      36.232  30.585  31.600  1.00  0.00     0.022 A 
BRANCH  91  94
ATOM     94  S   UNL A   1      35.259  32.084  29.528  1.00  0.00     0.127 S 
ATOM     95  O   UNL A   1      34.434  32.450  30.677  1.00  0.00    -0.237 OA
ATOM     96  O   UNL A   1      36.101  33.161  29.007  1.00  0.00    -0.237 OA
ATOM     97  O   UNL A   1      34.595  31.290  28.504  1.00  0.00    -0.744 OA
ENDBRANCH  91  94
ENDBRANCH  63  87
BRANCH  75  98
ATOM     98  C   UNL A   1      40.612  24.012  27.000  1.00  0.00     0.023 A 
ATOM     99  C   UNL A   1      39.350  24.019  26.373  1.00  0.00     0.012 A 
ATOM    100  C   UNL A   1      41.254  22.783  27.244  1.00  0.00     0.148 A 
ATOM    101  C   UNL A   1      38.729  22.823  26.014  1.00  0.00     0.002 A 
ATOM    102  C   UNL A   1      40.652  21.596  26.841  1.00  0.00     0.091 A 
ATOM    103  F   UNL A   1      42.451  22.796  27.852  1.00  0.00    -0.205 F 
ATOM    104  C   UNL A   1      39.385  21.615  26.236  1.00  0.00     0.022 A 
BRANCH 102 105
ATOM    105  S   UNL A   1      41.457  19.997  26.996  1.00  0.00     0.127 S 
ATOM    106  O   UNL A   1      40.875  19.262  25.873  1.00  0.00    -0.237 OA
ATOM    107  O   UNL A   1      42.868  20.344  26.831  1.00  0.00    -0.237 OA
ATOM    108  O   UNL A   1      41.104  19.492  28.316  1.00  0.00    -0.744 OA
ENDBRANCH 102 105
ENDBRANCH  75  98
ENDBRANCH  49  50
ENDBRANCH  42  44
ENDBRANCH  41  42
ENDBRANCH  40  41
ENDBRANCH  39  40
ENDBRANCH  38  39
ENDBRANCH  37  38
ENDBRANCH   1  37
TORSDOF 25
ENDMDL
