MODEL 1
REMARK VINA RESULT:      -9.3      0.000      0.000
REMARK SMILES C[C@@H](C(=O)OCCOCCOCCOC(=O)c1ccc(-c2c3nc(c(-c4cccc(S(=O)(=O)[O-])c4F)c4ccc([nH]4)c(-c4cccc(S(=O)(=O)[O-])c4F)c4nc(c(-c5cccc(S(=O)(=O)[O-])c5F)c5ccc2[nH]5)C=C4)C=C3)cc1)c1ccc2c3cc(Cl)ccc3n(C(=O)c3cocn3)c2c1
REMARK SMILES IDX 9 1 8 2 7 3 6 4 5 5 3 6 4 7 2 8 1 9 80 10 81 11 100 12 82 13
REMARK SMILES IDX 99 14 83 15 91 16 84 17 90 18 85 19 89 20 86 21 88 22 87 23
REMARK SMILES IDX 92 24 93 25 94 26 95 27 98 28 96 29 97 30 10 31 11 32 12 33
REMARK SMILES IDX 13 34 14 35 15 36 16 37 17 38 18 39 79 40 19 41 78 42 20 43
REMARK SMILES IDX 21 44 22 45 72 46 23 47 77 48 71 49 73 50 24 51 76 52 70 53
REMARK SMILES IDX 69 54 25 56 57 57 37 58 56 59 38 60 41 61 55 62 74 63 39 64
REMARK SMILES IDX 40 65 54 67 75 68 42 69 26 70 27 71 35 72 28 73 30 74 36 75
REMARK SMILES IDX 29 76 31 77 32 78 33 79 34 80 58 81 59 82 67 83 60 84 62 85
REMARK SMILES IDX 68 86 61 87 63 88 64 89 65 90 66 91 43 92 44 93 52 94 45 95
REMARK SMILES IDX 47 96 53 97 46 98 48 99 49 100 50 101 51 102
REMARK H PARENT 73 55 41 66
REMARK Flexibility Score: inf
ROOT
ATOM      1  C   UNL A   1      35.797  35.072  32.858  1.00  0.00     0.188 C 
ENDROOT
BRANCH   1   2
ATOM      2  O   UNL A   1      36.721  34.821  33.915  1.00  0.00    -0.376 OA
BRANCH   2   3
ATOM      3  C   UNL A   1      36.472  33.704  34.771  1.00  0.00     0.202 C 
BRANCH   3   4
ATOM      4  C   UNL A   1      37.402  33.505  35.977  1.00  0.00     0.261 C 
BRANCH   4   5
ATOM      5  O   UNL A   1      36.667  33.231  37.186  1.00  0.00    -0.463 OA
BRANCH   5   6
ATOM      6  C   UNL A   1      37.257  32.357  38.041  1.00  0.00     0.313 C 
ATOM      7  O   UNL A   1      37.450  31.173  37.788  1.00  0.00    -0.252 OA
BRANCH   6   8
ATOM      8  C   UNL A   1      37.711  33.017  39.350  1.00  0.00     0.126 C 
ATOM      9  C   UNL A   1      39.196  33.400  39.299  1.00  0.00     0.025 C 
BRANCH   8  10
ATOM     10  C   UNL A   1      37.236  32.299  40.621  1.00  0.00    -0.032 A 
ATOM     11  C   UNL A   1      37.787  31.089  41.059  1.00  0.00     0.005 A 
ATOM     12  C   UNL A   1      36.296  32.934  41.454  1.00  0.00     0.032 A 
ATOM     13  C   UNL A   1      37.464  30.547  42.315  1.00  0.00     0.011 A 
ATOM     14  C   UNL A   1      35.939  32.370  42.702  1.00  0.00     0.058 A 
ATOM     15  C   UNL A   1      36.557  31.216  43.163  1.00  0.00     0.008 A 
ATOM     16  N   UNL A   1      35.025  32.809  43.679  1.00  0.00    -0.274 N 
ATOM     17  C   UNL A   1      36.123  31.006  44.500  1.00  0.00     0.009 A 
ATOM     18  C   UNL A   1      35.180  31.998  44.815  1.00  0.00     0.057 A 
ATOM     19  C   UNL A   1      36.477  30.039  45.471  1.00  0.00     0.031 A 
ATOM     20  C   UNL A   1      34.538  31.981  46.069  1.00  0.00     0.029 A 
ATOM     21  C   UNL A   1      35.896  30.086  46.733  1.00  0.00     0.041 A 
ATOM     22  C   UNL A   1      34.945  31.046  47.029  1.00  0.00     0.023 A 
ATOM     23  Cl  UNL A   1      36.365  28.947  47.934  1.00  0.00    -0.084 Cl
BRANCH  16  24
ATOM     24  C   UNL A   1      34.123  33.890  43.454  1.00  0.00     0.284 C 
ATOM     25  O   UNL A   1      34.399  34.928  44.055  1.00  0.00    -0.266 OA
BRANCH  24  26
ATOM     26  C   UNL A   1      32.911  33.850  42.642  1.00  0.00     0.167 A 
ATOM     27  C   UNL A   1      32.731  34.074  41.294  1.00  0.00     0.231 A 
ATOM     28  N   UNL A   1      31.707  33.406  43.167  1.00  0.00    -0.211 NA
ATOM     29  O   UNL A   1      31.416  33.871  40.989  1.00  0.00    -0.451 OA
ATOM     30  C   UNL A   1      30.857  33.504  42.175  1.00  0.00     0.308 A 
ENDBRANCH  24  26
ENDBRANCH  16  24
ENDBRANCH   8  10
ENDBRANCH   6   8
ENDBRANCH   5   6
ENDBRANCH   4   5
ENDBRANCH   3   4
ENDBRANCH   2   3
ENDBRANCH   1   2
BRANCH   1  31
ATOM     31  C   UNL A   1      34.377  34.505  33.023  1.00  0.00     0.188 C 
BRANCH  31  32
ATOM     32  O   UNL A   1      33.878  33.852  31.873  1.00  0.00    -0.376 OA
BRANCH  32  33
ATOM     33  C   UNL A   1      34.592  33.969  30.653  1.00  0.00     0.202 C 
BRANCH  33  34
ATOM     34  C   UNL A   1      34.039  33.372  29.347  1.00  0.00     0.261 C 
BRANCH  34  35
ATOM     35  O   UNL A   1      34.996  32.907  28.387  1.00  0.00    -0.460 OA
BRANCH  35  36
ATOM     36  C   UNL A   1      34.985  31.587  28.082  1.00  0.00     0.338 C 
ATOM     37  O   UNL A   1      34.256  31.022  27.292  1.00  0.00    -0.246 OA
BRANCH  36  38
ATOM     38  C   UNL A   1      36.190  30.998  28.713  1.00  0.00     0.060 A 
ATOM     39  C   UNL A   1      37.420  31.658  28.575  1.00  0.00     0.016 A 
ATOM     40  C   UNL A   1      36.093  29.834  29.480  1.00  0.00     0.016 A 
ATOM     41  C   UNL A   1      38.560  31.143  29.193  1.00  0.00     0.010 A 
ATOM     42  C   UNL A   1      37.241  29.307  30.075  1.00  0.00     0.010 A 
ATOM     43  C   UNL A   1      38.483  29.945  29.913  1.00  0.00    -0.014 A 
BRANCH  43  44
ATOM     44  C   UNL A   1      39.725  29.251  30.329  1.00  0.00     0.031 A 
ATOM     45  C   UNL A   1      40.415  29.734  31.575  1.00  0.00     0.074 A 
ATOM     46  C   UNL A   1      40.245  28.243  29.605  1.00  0.00     0.049 A 
ATOM     47  N   UNL A   1      41.520  29.311  32.128  1.00  0.00    -0.248 NA
ATOM     48  C   UNL A   1      39.772  30.850  32.291  1.00  0.00     0.031 C 
ATOM     49  C   UNL A   1      39.667  27.701  28.378  1.00  0.00     0.029 A 
ATOM     50  N   UNL A   1      41.394  27.512  29.789  1.00  0.00    -0.354 N 
ATOM     51  C   UNL A   1      41.730  30.133  33.228  1.00  0.00     0.074 A 
ATOM     52  C   UNL A   1      40.632  31.074  33.272  1.00  0.00     0.031 C 
ATOM     53  C   UNL A   1      40.475  26.733  27.909  1.00  0.00     0.029 A 
ATOM     54  C   UNL A   1      41.631  26.591  28.794  1.00  0.00     0.049 A 
ATOM     55  H   UNL A   1      41.992  27.636  30.561  1.00  0.00     0.167 HD
ATOM     56  C   UNL A   1      42.744  30.108  34.123  1.00  0.00     0.034 A 
ATOM     57  C   UNL A   1      42.663  25.736  28.626  1.00  0.00     0.034 A 
ATOM     58  C   UNL A   1      43.824  29.163  34.086  1.00  0.00     0.049 A 
ATOM     59  C   UNL A   1      43.767  25.719  29.661  1.00  0.00     0.074 A 
ATOM     60  C   UNL A   1      44.887  29.037  34.963  1.00  0.00     0.029 A 
ATOM     61  N   UNL A   1      43.986  28.189  33.113  1.00  0.00    -0.354 N 
ATOM     62  N   UNL A   1      43.870  26.400  30.777  1.00  0.00    -0.248 NA
ATOM     63  C   UNL A   1      44.886  24.793  29.425  1.00  0.00     0.031 C 
ATOM     64  C   UNL A   1      45.704  27.998  34.506  1.00  0.00     0.029 A 
ATOM     65  C   UNL A   1      45.139  27.465  33.358  1.00  0.00     0.049 A 
ATOM     66  H   UNL A   1      43.372  28.035  32.360  1.00  0.00     0.167 HD
ATOM     67  C   UNL A   1      45.039  25.960  31.391  1.00  0.00     0.074 A 
ATOM     68  C   UNL A   1      45.591  24.925  30.540  1.00  0.00     0.031 C 
ATOM     69  C   UNL A   1      45.627  26.389  32.536  1.00  0.00     0.034 A 
BRANCH  56  70
ATOM     70  C   UNL A   1      42.725  31.134  35.222  1.00  0.00     0.023 A 
ATOM     71  C   UNL A   1      42.145  30.815  36.466  1.00  0.00     0.012 A 
ATOM     72  C   UNL A   1      43.317  32.398  35.037  1.00  0.00     0.148 A 
ATOM     73  C   UNL A   1      42.130  31.750  37.501  1.00  0.00     0.002 A 
ATOM     74  C   UNL A   1      43.335  33.309  36.085  1.00  0.00     0.091 A 
ATOM     75  F   UNL A   1      43.836  32.691  33.835  1.00  0.00    -0.205 F 
ATOM     76  C   UNL A   1      42.734  32.992  37.314  1.00  0.00     0.022 A 
BRANCH  74  77
ATOM     77  S   UNL A   1      44.150  34.906  35.962  1.00  0.00     0.127 S 
ATOM     78  O   UNL A   1      43.521  35.642  37.057  1.00  0.00    -0.237 OA
ATOM     79  O   UNL A   1      45.552  34.555  36.188  1.00  0.00    -0.237 OA
ATOM     80  O   UNL A   1      43.857  35.401  34.624  1.00  0.00    -0.744 OA
ENDBRANCH  74  77
ENDBRANCH  56  70
BRANCH  57  81
ATOM     81  C   UNL A   1      42.672  24.761  27.490  1.00  0.00     0.023 A 
ATOM     82  C   UNL A   1      43.283  25.132  26.273  1.00  0.00     0.012 A 
ATOM     83  C   UNL A   1      42.100  23.479  27.589  1.00  0.00     0.148 A 
ATOM     84  C   UNL A   1      43.343  24.254  25.191  1.00  0.00     0.002 A 
ATOM     85  C   UNL A   1      42.194  22.591  26.519  1.00  0.00     0.091 A 
ATOM     86  F   UNL A   1      41.472  23.148  28.725  1.00  0.00    -0.205 F 
ATOM     87  C   UNL A   1      42.811  22.978  25.320  1.00  0.00     0.022 A 
BRANCH  85  88
ATOM     88  S   UNL A   1      41.609  20.896  26.619  1.00  0.00     0.127 S 
ATOM     89  O   UNL A   1      42.226  20.300  25.438  1.00  0.00    -0.237 OA
ATOM     90  O   UNL A   1      42.177  20.456  27.896  1.00  0.00    -0.237 OA
ATOM     91  O   UNL A   1      40.156  20.989  26.605  1.00  0.00    -0.744 OA
ENDBRANCH  85  88
ENDBRANCH  57  81
BRANCH  69  92
ATOM     92  C   UNL A   1      46.919  25.732  32.953  1.00  0.00     0.023 A 
ATOM     93  C   UNL A   1      46.892  24.672  33.881  1.00  0.00     0.012 A 
ATOM     94  C   UNL A   1      48.145  26.102  32.363  1.00  0.00     0.148 A 
ATOM     95  C   UNL A   1      48.067  24.012  34.241  1.00  0.00     0.002 A 
ATOM     96  C   UNL A   1      49.304  25.409  32.691  1.00  0.00     0.091 A 
ATOM     97  F   UNL A   1      48.155  27.122  31.493  1.00  0.00    -0.205 F 
ATOM     98  C   UNL A   1      49.269  24.373  33.638  1.00  0.00     0.022 A 
BRANCH  96  99
ATOM     99  S   UNL A   1      50.880  25.737  31.893  1.00  0.00     0.127 S 
ATOM    100  O   UNL A   1      51.447  26.764  32.764  1.00  0.00    -0.237 OA
ATOM    101  O   UNL A   1      51.546  24.436  31.970  1.00  0.00    -0.237 OA
ATOM    102  O   UNL A   1      50.560  26.169  30.539  1.00  0.00    -0.744 OA
ENDBRANCH  96  99
ENDBRANCH  69  92
ENDBRANCH  43  44
ENDBRANCH  36  38
ENDBRANCH  35  36
ENDBRANCH  34  35
ENDBRANCH  33  34
ENDBRANCH  32  33
ENDBRANCH  31  32
ENDBRANCH   1  31
TORSDOF 23
ENDMDL
MODEL 2
REMARK VINA RESULT:      -8.8      7.021     11.556
REMARK SMILES C[C@@H](C(=O)OCCOCCOCCOC(=O)c1ccc(-c2c3nc(c(-c4cccc(S(=O)(=O)[O-])c4F)c4ccc([nH]4)c(-c4cccc(S(=O)(=O)[O-])c4F)c4nc(c(-c5cccc(S(=O)(=O)[O-])c5F)c5ccc2[nH]5)C=C4)C=C3)cc1)c1ccc2c3cc(Cl)ccc3n(C(=O)c3cocn3)c2c1
REMARK SMILES IDX 9 1 8 2 7 3 6 4 5 5 3 6 4 7 2 8 1 9 80 10 81 11 100 12 82 13
REMARK SMILES IDX 99 14 83 15 91 16 84 17 90 18 85 19 89 20 86 21 88 22 87 23
REMARK SMILES IDX 92 24 93 25 94 26 95 27 98 28 96 29 97 30 10 31 11 32 12 33
REMARK SMILES IDX 13 34 14 35 15 36 16 37 17 38 18 39 79 40 19 41 78 42 20 43
REMARK SMILES IDX 21 44 22 45 72 46 23 47 77 48 71 49 73 50 24 51 76 52 70 53
REMARK SMILES IDX 69 54 25 56 57 57 37 58 56 59 38 60 41 61 55 62 74 63 39 64
REMARK SMILES IDX 40 65 54 67 75 68 42 69 26 70 27 71 35 72 28 73 30 74 36 75
REMARK SMILES IDX 29 76 31 77 32 78 33 79 34 80 58 81 59 82 67 83 60 84 62 85
REMARK SMILES IDX 68 86 61 87 63 88 64 89 65 90 66 91 43 92 44 93 52 94 45 95
REMARK SMILES IDX 47 96 53 97 46 98 48 99 49 100 50 101 51 102
REMARK H PARENT 73 55 41 66
REMARK Flexibility Score: inf
ROOT
ATOM      1  C   UNL A   1      37.416  32.680  35.009  1.00  0.00     0.188 C 
ENDROOT
BRANCH   1   2
ATOM      2  O   UNL A   1      38.135  33.423  34.027  1.00  0.00    -0.376 OA
BRANCH   2   3
ATOM      3  C   UNL A   1      39.540  33.190  33.906  1.00  0.00     0.202 C 
BRANCH   3   4
ATOM      4  C   UNL A   1      40.010  31.746  33.679  1.00  0.00     0.261 C 
BRANCH   4   5
ATOM      5  O   UNL A   1      40.191  31.452  32.280  1.00  0.00    -0.463 OA
BRANCH   5   6
ATOM      6  C   UNL A   1      39.050  31.232  31.579  1.00  0.00     0.313 C 
ATOM      7  O   UNL A   1      38.064  30.662  32.034  1.00  0.00    -0.252 OA
BRANCH   6   8
ATOM      8  C   UNL A   1      39.096  31.820  30.162  1.00  0.00     0.126 C 
ATOM      9  C   UNL A   1      39.364  33.330  30.191  1.00  0.00     0.025 C 
BRANCH   8  10
ATOM     10  C   UNL A   1      37.962  31.348  29.242  1.00  0.00    -0.032 A 
ATOM     11  C   UNL A   1      37.921  30.063  28.687  1.00  0.00     0.005 A 
ATOM     12  C   UNL A   1      36.851  32.188  29.039  1.00  0.00     0.032 A 
ATOM     13  C   UNL A   1      36.788  29.596  27.998  1.00  0.00     0.011 A 
ATOM     14  C   UNL A   1      35.725  31.733  28.313  1.00  0.00     0.058 A 
ATOM     15  C   UNL A   1      35.661  30.429  27.843  1.00  0.00     0.008 A 
ATOM     16  N   UNL A   1      34.526  32.391  27.975  1.00  0.00    -0.274 N 
ATOM     17  C   UNL A   1      34.353  30.228  27.323  1.00  0.00     0.009 A 
ATOM     18  C   UNL A   1      33.655  31.443  27.413  1.00  0.00     0.057 A 
ATOM     19  C   UNL A   1      33.711  29.087  26.788  1.00  0.00     0.031 A 
ATOM     20  C   UNL A   1      32.344  31.538  26.903  1.00  0.00     0.029 A 
ATOM     21  C   UNL A   1      32.389  29.174  26.366  1.00  0.00     0.041 A 
ATOM     22  C   UNL A   1      31.715  30.380  26.427  1.00  0.00     0.023 A 
ATOM     23  Cl  UNL A   1      31.588  27.775  25.766  1.00  0.00    -0.084 Cl
BRANCH  16  24
ATOM     24  C   UNL A   1      34.331  33.787  28.188  1.00  0.00     0.284 C 
ATOM     25  O   UNL A   1      34.681  34.506  27.252  1.00  0.00    -0.266 OA
BRANCH  24  26
ATOM     26  C   UNL A   1      33.818  34.414  29.402  1.00  0.00     0.167 A 
ATOM     27  C   UNL A   1      34.185  34.242  30.719  1.00  0.00     0.231 A 
ATOM     28  N   UNL A   1      32.905  35.455  29.343  1.00  0.00    -0.211 NA
ATOM     29  O   UNL A   1      33.446  35.090  31.493  1.00  0.00    -0.451 OA
ATOM     30  C   UNL A   1      32.675  35.764  30.595  1.00  0.00     0.308 A 
ENDBRANCH  24  26
ENDBRANCH  16  24
ENDBRANCH   8  10
ENDBRANCH   6   8
ENDBRANCH   5   6
ENDBRANCH   4   5
ENDBRANCH   3   4
ENDBRANCH   2   3
ENDBRANCH   1   2
BRANCH   1  31
ATOM     31  C   UNL A   1      37.503  33.176  36.462  1.00  0.00     0.188 C 
BRANCH  31  32
ATOM     32  O   UNL A   1      37.312  32.164  37.431  1.00  0.00    -0.376 OA
BRANCH  32  33
ATOM     33  C   UNL A   1      37.295  32.524  38.803  1.00  0.00     0.202 C 
BRANCH  33  34
ATOM     34  C   UNL A   1      38.195  33.651  39.340  1.00  0.00     0.261 C 
BRANCH  34  35
ATOM     35  O   UNL A   1      39.569  33.639  38.930  1.00  0.00    -0.460 OA
BRANCH  35  36
ATOM     36  C   UNL A   1      40.345  34.681  39.314  1.00  0.00     0.338 C 
ATOM     37  O   UNL A   1      40.481  35.120  40.438  1.00  0.00    -0.246 OA
BRANCH  36  38
ATOM     38  C   UNL A   1      41.184  35.036  38.145  1.00  0.00     0.060 A 
ATOM     39  C   UNL A   1      40.557  35.469  36.967  1.00  0.00     0.016 A 
ATOM     40  C   UNL A   1      42.577  34.995  38.231  1.00  0.00     0.016 A 
ATOM     41  C   UNL A   1      41.327  35.847  35.866  1.00  0.00     0.010 A 
ATOM     42  C   UNL A   1      43.344  35.347  37.118  1.00  0.00     0.010 A 
ATOM     43  C   UNL A   1      42.722  35.751  35.925  1.00  0.00    -0.014 A 
BRANCH  43  44
ATOM     44  C   UNL A   1      43.524  35.878  34.684  1.00  0.00     0.031 A 
ATOM     45  C   UNL A   1      44.056  37.239  34.328  1.00  0.00     0.074 A 
ATOM     46  C   UNL A   1      43.747  34.823  33.879  1.00  0.00     0.049 A 
ATOM     47  N   UNL A   1      44.758  37.609  33.291  1.00  0.00    -0.248 NA
ATOM     48  C   UNL A   1      43.748  38.330  35.269  1.00  0.00     0.031 C 
ATOM     49  C   UNL A   1      43.273  33.463  34.120  1.00  0.00     0.029 A 
ATOM     50  N   UNL A   1      44.413  34.740  32.680  1.00  0.00    -0.354 N 
ATOM     51  C   UNL A   1      44.939  38.980  33.430  1.00  0.00     0.074 A 
ATOM     52  C   UNL A   1      44.282  39.375  34.656  1.00  0.00     0.031 C 
ATOM     53  C   UNL A   1      43.649  32.683  33.090  1.00  0.00     0.029 A 
ATOM     54  C   UNL A   1      44.381  33.487  32.112  1.00  0.00     0.049 A 
ATOM     55  H   UNL A   1      44.870  35.508  32.264  1.00  0.00     0.167 HD
ATOM     56  C   UNL A   1      45.593  39.834  32.610  1.00  0.00     0.034 A 
ATOM     57  C   UNL A   1      44.889  33.049  30.940  1.00  0.00     0.034 A 
ATOM     58  C   UNL A   1      46.257  39.437  31.401  1.00  0.00     0.049 A 
ATOM     59  C   UNL A   1      45.636  34.028  30.061  1.00  0.00     0.074 A 
ATOM     60  C   UNL A   1      46.972  40.223  30.515  1.00  0.00     0.029 A 
ATOM     61  N   UNL A   1      46.278  38.145  30.901  1.00  0.00    -0.354 N 
ATOM     62  N   UNL A   1      45.929  35.287  30.282  1.00  0.00    -0.248 NA
ATOM     63  C   UNL A   1      46.149  33.516  28.781  1.00  0.00     0.031 C 
ATOM     64  C   UNL A   1      47.408  39.407  29.466  1.00  0.00     0.029 A 
ATOM     65  C   UNL A   1      46.982  38.110  29.711  1.00  0.00     0.049 A 
ATOM     66  H   UNL A   1      45.856  37.366  31.330  1.00  0.00     0.167 HD
ATOM     67  C   UNL A   1      46.686  35.705  29.191  1.00  0.00     0.074 A 
ATOM     68  C   UNL A   1      46.841  34.552  28.327  1.00  0.00     0.031 C 
ATOM     69  C   UNL A   1      47.185  36.934  28.907  1.00  0.00     0.034 A 
BRANCH  56  70
ATOM     70  C   UNL A   1      45.625  41.285  33.003  1.00  0.00     0.023 A 
ATOM     71  C   UNL A   1      46.729  41.793  33.717  1.00  0.00     0.012 A 
ATOM     72  C   UNL A   1      44.582  42.155  32.631  1.00  0.00     0.148 A 
ATOM     73  C   UNL A   1      46.781  43.139  34.078  1.00  0.00     0.002 A 
ATOM     74  C   UNL A   1      44.659  43.502  32.959  1.00  0.00     0.091 A 
ATOM     75  F   UNL A   1      43.527  41.645  31.980  1.00  0.00    -0.205 F 
ATOM     76  C   UNL A   1      45.752  43.994  33.690  1.00  0.00     0.022 A 
BRANCH  74  77
ATOM     77  S   UNL A   1      43.418  44.694  32.443  1.00  0.00     0.127 S 
ATOM     78  O   UNL A   1      43.718  45.827  33.317  1.00  0.00    -0.237 OA
ATOM     79  O   UNL A   1      43.757  44.903  31.035  1.00  0.00    -0.237 OA
ATOM     80  O   UNL A   1      42.131  44.052  32.668  1.00  0.00    -0.744 OA
ENDBRANCH  74  77
ENDBRANCH  56  70
BRANCH  57  81
ATOM     81  C   UNL A   1      44.796  31.604  30.558  1.00  0.00     0.023 A 
ATOM     82  C   UNL A   1      45.693  30.683  31.140  1.00  0.00     0.012 A 
ATOM     83  C   UNL A   1      43.840  31.123  29.644  1.00  0.00     0.148 A 
ATOM     84  C   UNL A   1      45.634  29.322  30.841  1.00  0.00     0.002 A 
ATOM     85  C   UNL A   1      43.760  29.758  29.376  1.00  0.00     0.091 A 
ATOM     86  F   UNL A   1      43.025  32.005  29.050  1.00  0.00    -0.205 F 
ATOM     87  C   UNL A   1      44.658  28.858  29.969  1.00  0.00     0.022 A 
BRANCH  85  88
ATOM     88  S   UNL A   1      42.483  29.055  28.327  1.00  0.00     0.127 S 
ATOM     89  O   UNL A   1      41.267  29.511  28.995  1.00  0.00    -0.237 OA
ATOM     90  O   UNL A   1      42.757  29.702  27.042  1.00  0.00    -0.237 OA
ATOM     91  O   UNL A   1      42.721  27.618  28.342  1.00  0.00    -0.744 OA
ENDBRANCH  85  88
ENDBRANCH  57  81
BRANCH  69  92
ATOM     92  C   UNL A   1      47.962  37.099  27.625  1.00  0.00     0.023 A 
ATOM     93  C   UNL A   1      47.300  37.537  26.462  1.00  0.00     0.012 A 
ATOM     94  C   UNL A   1      49.359  36.908  27.594  1.00  0.00     0.148 A 
ATOM     95  C   UNL A   1      48.007  37.751  25.278  1.00  0.00     0.002 A 
ATOM     96  C   UNL A   1      50.064  37.169  26.425  1.00  0.00     0.091 A 
ATOM     97  F   UNL A   1      49.971  36.478  28.706  1.00  0.00    -0.205 F 
ATOM     98  C   UNL A   1      49.389  37.578  25.264  1.00  0.00     0.022 A 
BRANCH  96  99
ATOM     99  S   UNL A   1      51.856  37.069  26.339  1.00  0.00     0.127 S 
ATOM    100  O   UNL A   1      52.091  35.656  26.628  1.00  0.00    -0.237 OA
ATOM    101  O   UNL A   1      52.125  37.462  24.955  1.00  0.00    -0.237 OA
ATOM    102  O   UNL A   1      52.357  38.005  27.338  1.00  0.00    -0.744 OA
ENDBRANCH  96  99
ENDBRANCH  69  92
ENDBRANCH  43  44
ENDBRANCH  36  38
ENDBRANCH  35  36
ENDBRANCH  34  35
ENDBRANCH  33  34
ENDBRANCH  32  33
ENDBRANCH  31  32
ENDBRANCH   1  31
TORSDOF 23
ENDMDL
MODEL 3
REMARK VINA RESULT:      -8.4      7.735     13.843
REMARK SMILES C[C@@H](C(=O)OCCOCCOCCOC(=O)c1ccc(-c2c3nc(c(-c4cccc(S(=O)(=O)[O-])c4F)c4ccc([nH]4)c(-c4cccc(S(=O)(=O)[O-])c4F)c4nc(c(-c5cccc(S(=O)(=O)[O-])c5F)c5ccc2[nH]5)C=C4)C=C3)cc1)c1ccc2c3cc(Cl)ccc3n(C(=O)c3cocn3)c2c1
REMARK SMILES IDX 9 1 8 2 7 3 6 4 5 5 3 6 4 7 2 8 1 9 80 10 81 11 100 12 82 13
REMARK SMILES IDX 99 14 83 15 91 16 84 17 90 18 85 19 89 20 86 21 88 22 87 23
REMARK SMILES IDX 92 24 93 25 94 26 95 27 98 28 96 29 97 30 10 31 11 32 12 33
REMARK SMILES IDX 13 34 14 35 15 36 16 37 17 38 18 39 79 40 19 41 78 42 20 43
REMARK SMILES IDX 21 44 22 45 72 46 23 47 77 48 71 49 73 50 24 51 76 52 70 53
REMARK SMILES IDX 69 54 25 56 57 57 37 58 56 59 38 60 41 61 55 62 74 63 39 64
REMARK SMILES IDX 40 65 54 67 75 68 42 69 26 70 27 71 35 72 28 73 30 74 36 75
REMARK SMILES IDX 29 76 31 77 32 78 33 79 34 80 58 81 59 82 67 83 60 84 62 85
REMARK SMILES IDX 68 86 61 87 63 88 64 89 65 90 66 91 43 92 44 93 52 94 45 95
REMARK SMILES IDX 47 96 53 97 46 98 48 99 49 100 50 101 51 102
REMARK H PARENT 73 55 41 66
REMARK Flexibility Score: inf
ROOT
ATOM      1  C   UNL A   1      40.055  29.674  33.805  1.00  0.00     0.188 C 
ENDROOT
BRANCH   1   2
ATOM      2  O   UNL A   1      39.666  29.370  32.467  1.00  0.00    -0.376 OA
BRANCH   2   3
ATOM      3  C   UNL A   1      40.290  28.256  31.824  1.00  0.00     0.202 C 
BRANCH   3   4
ATOM      4  C   UNL A   1      41.152  28.534  30.584  1.00  0.00     0.261 C 
BRANCH   4   5
ATOM      5  O   UNL A   1      42.046  27.443  30.292  1.00  0.00    -0.463 OA
BRANCH   5   6
ATOM      6  C   UNL A   1      42.455  27.355  29.000  1.00  0.00     0.313 C 
ATOM      7  O   UNL A   1      42.697  28.325  28.289  1.00  0.00    -0.252 OA
BRANCH   6   8
ATOM      8  C   UNL A   1      42.635  25.906  28.528  1.00  0.00     0.126 C 
ATOM      9  C   UNL A   1      43.868  25.760  27.626  1.00  0.00     0.025 C 
BRANCH   8  10
ATOM     10  C   UNL A   1      41.346  25.235  28.033  1.00  0.00    -0.032 A 
ATOM     11  C   UNL A   1      40.159  25.943  27.813  1.00  0.00     0.005 A 
ATOM     12  C   UNL A   1      41.381  23.877  27.664  1.00  0.00     0.032 A 
ATOM     13  C   UNL A   1      39.050  25.342  27.190  1.00  0.00     0.011 A 
ATOM     14  C   UNL A   1      40.254  23.260  27.072  1.00  0.00     0.058 A 
ATOM     15  C   UNL A   1      39.113  23.995  26.780  1.00  0.00     0.008 A 
ATOM     16  N   UNL A   1      40.054  21.934  26.643  1.00  0.00    -0.274 N 
ATOM     17  C   UNL A   1      38.241  23.150  26.039  1.00  0.00     0.009 A 
ATOM     18  C   UNL A   1      38.832  21.880  25.953  1.00  0.00     0.057 A 
ATOM     19  C   UNL A   1      36.989  23.386  25.425  1.00  0.00     0.031 A 
ATOM     20  C   UNL A   1      38.141  20.827  25.320  1.00  0.00     0.029 A 
ATOM     21  C   UNL A   1      36.357  22.360  24.732  1.00  0.00     0.041 A 
ATOM     22  C   UNL A   1      36.927  21.101  24.676  1.00  0.00     0.023 A 
ATOM     23  Cl  UNL A   1      34.861  22.658  23.938  1.00  0.00    -0.084 Cl
BRANCH  16  24
ATOM     24  C   UNL A   1      40.981  20.888  26.926  1.00  0.00     0.284 C 
ATOM     25  O   UNL A   1      40.774  20.284  27.979  1.00  0.00    -0.266 OA
BRANCH  24  26
ATOM     26  C   UNL A   1      42.147  20.525  26.126  1.00  0.00     0.167 A 
ATOM     27  C   UNL A   1      42.560  19.298  25.655  1.00  0.00     0.231 A 
ATOM     28  N   UNL A   1      42.977  21.495  25.584  1.00  0.00    -0.211 NA
ATOM     29  O   UNL A   1      43.690  19.474  24.909  1.00  0.00    -0.451 OA
ATOM     30  C   UNL A   1      43.897  20.819  24.940  1.00  0.00     0.308 A 
ENDBRANCH  24  26
ENDBRANCH  16  24
ENDBRANCH   8  10
ENDBRANCH   6   8
ENDBRANCH   5   6
ENDBRANCH   4   5
ENDBRANCH   3   4
ENDBRANCH   2   3
ENDBRANCH   1   2
BRANCH   1  31
ATOM     31  C   UNL A   1      41.378  29.068  34.302  1.00  0.00     0.188 C 
BRANCH  31  32
ATOM     32  O   UNL A   1      41.227  28.131  35.350  1.00  0.00    -0.376 OA
BRANCH  32  33
ATOM     33  C   UNL A   1      41.523  26.767  35.098  1.00  0.00     0.202 C 
BRANCH  33  34
ATOM     34  C   UNL A   1      42.962  26.307  34.806  1.00  0.00     0.261 C 
BRANCH  34  35
ATOM     35  O   UNL A   1      43.373  26.287  33.433  1.00  0.00    -0.460 OA
BRANCH  35  36
ATOM     36  C   UNL A   1      44.546  25.676  33.140  1.00  0.00     0.338 C 
ATOM     37  O   UNL A   1      44.865  24.533  33.403  1.00  0.00    -0.246 OA
BRANCH  36  38
ATOM     38  C   UNL A   1      45.280  26.584  32.228  1.00  0.00     0.060 A 
ATOM     39  C   UNL A   1      45.482  26.191  30.897  1.00  0.00     0.016 A 
ATOM     40  C   UNL A   1      45.716  27.835  32.671  1.00  0.00     0.016 A 
ATOM     41  C   UNL A   1      46.137  27.046  30.009  1.00  0.00     0.010 A 
ATOM     42  C   UNL A   1      46.394  28.678  31.787  1.00  0.00     0.010 A 
ATOM     43  C   UNL A   1      46.629  28.276  30.460  1.00  0.00    -0.014 A 
BRANCH  43  44
ATOM     44  C   UNL A   1      47.560  29.056  29.610  1.00  0.00     0.031 A 
ATOM     45  C   UNL A   1      47.067  30.358  29.041  1.00  0.00     0.074 A 
ATOM     46  C   UNL A   1      48.796  28.608  29.323  1.00  0.00     0.049 A 
ATOM     47  N   UNL A   1      47.677  31.203  28.254  1.00  0.00    -0.248 NA
ATOM     48  C   UNL A   1      45.695  30.756  29.405  1.00  0.00     0.031 C 
ATOM     49  C   UNL A   1      49.373  27.359  29.812  1.00  0.00     0.029 A 
ATOM     50  N   UNL A   1      49.779  29.147  28.530  1.00  0.00    -0.354 N 
ATOM     51  C   UNL A   1      46.754  32.209  27.994  1.00  0.00     0.074 A 
ATOM     52  C   UNL A   1      45.545  31.875  28.713  1.00  0.00     0.031 C 
ATOM     53  C   UNL A   1      50.607  27.219  29.292  1.00  0.00     0.029 A 
ATOM     54  C   UNL A   1      50.904  28.360  28.428  1.00  0.00     0.049 A 
ATOM     55  H   UNL A   1      49.687  30.016  28.075  1.00  0.00     0.167 HD
ATOM     56  C   UNL A   1      46.899  33.312  27.225  1.00  0.00     0.034 A 
ATOM     57  C   UNL A   1      52.037  28.549  27.717  1.00  0.00     0.034 A 
ATOM     58  C   UNL A   1      48.106  33.650  26.524  1.00  0.00     0.049 A 
ATOM     59  C   UNL A   1      52.173  29.807  26.888  1.00  0.00     0.074 A 
ATOM     60  C   UNL A   1      48.363  34.760  25.740  1.00  0.00     0.029 A 
ATOM     61  N   UNL A   1      49.254  32.874  26.512  1.00  0.00    -0.354 N 
ATOM     62  N   UNL A   1      51.349  30.822  26.776  1.00  0.00    -0.248 NA
ATOM     63  C   UNL A   1      53.412  29.960  26.109  1.00  0.00     0.031 C 
ATOM     64  C   UNL A   1      49.662  34.644  25.236  1.00  0.00     0.029 A 
ATOM     65  C   UNL A   1      50.220  33.472  25.724  1.00  0.00     0.049 A 
ATOM     66  H   UNL A   1      49.366  32.023  26.995  1.00  0.00     0.167 HD
ATOM     67  C   UNL A   1      51.982  31.743  25.946  1.00  0.00     0.074 A 
ATOM     68  C   UNL A   1      53.277  31.183  25.616  1.00  0.00     0.031 C 
ATOM     69  C   UNL A   1      51.530  32.930  25.471  1.00  0.00     0.034 A 
BRANCH  56  70
ATOM     70  C   UNL A   1      45.719  34.237  27.109  1.00  0.00     0.023 A 
ATOM     71  C   UNL A   1      44.771  34.037  26.086  1.00  0.00     0.012 A 
ATOM     72  C   UNL A   1      45.528  35.279  28.037  1.00  0.00     0.148 A 
ATOM     73  C   UNL A   1      43.664  34.878  25.971  1.00  0.00     0.002 A 
ATOM     74  C   UNL A   1      44.403  36.087  27.941  1.00  0.00     0.091 A 
ATOM     75  F   UNL A   1      46.459  35.471  28.983  1.00  0.00    -0.205 F 
ATOM     76  C   UNL A   1      43.475  35.895  26.904  1.00  0.00     0.022 A 
BRANCH  74  77
ATOM     77  S   UNL A   1      44.037  37.378  29.136  1.00  0.00     0.127 S 
ATOM     78  O   UNL A   1      42.763  37.891  28.634  1.00  0.00    -0.237 OA
ATOM     79  O   UNL A   1      43.941  36.623  30.385  1.00  0.00    -0.237 OA
ATOM     80  O   UNL A   1      45.155  38.308  29.074  1.00  0.00    -0.744 OA
ENDBRANCH  74  77
ENDBRANCH  56  70
BRANCH  57  81
ATOM     81  C   UNL A   1      53.174  27.580  27.819  1.00  0.00     0.023 A 
ATOM     82  C   UNL A   1      54.006  27.618  28.959  1.00  0.00     0.012 A 
ATOM     83  C   UNL A   1      53.443  26.622  26.824  1.00  0.00     0.148 A 
ATOM     84  C   UNL A   1      55.063  26.722  29.118  1.00  0.00     0.002 A 
ATOM     85  C   UNL A   1      54.477  25.705  27.004  1.00  0.00     0.091 A 
ATOM     86  F   UNL A   1      52.688  26.623  25.718  1.00  0.00    -0.205 F 
ATOM     87  C   UNL A   1      55.289  25.757  28.146  1.00  0.00     0.022 A 
BRANCH  85  88
ATOM     88  S   UNL A   1      54.795  24.371  25.843  1.00  0.00     0.127 S 
ATOM     89  O   UNL A   1      55.468  25.078  24.757  1.00  0.00    -0.237 OA
ATOM     90  O   UNL A   1      55.658  23.487  26.629  1.00  0.00    -0.237 OA
ATOM     91  O   UNL A   1      53.486  23.814  25.530  1.00  0.00    -0.744 OA
ENDBRANCH  85  88
ENDBRANCH  57  81
BRANCH  69  92
ATOM     92  C   UNL A   1      52.439  33.719  24.563  1.00  0.00     0.023 A 
ATOM     93  C   UNL A   1      52.525  33.379  23.198  1.00  0.00     0.012 A 
ATOM     94  C   UNL A   1      53.139  34.847  25.039  1.00  0.00     0.148 A 
ATOM     95  C   UNL A   1      53.316  34.128  22.328  1.00  0.00     0.002 A 
ATOM     96  C   UNL A   1      53.887  35.616  24.156  1.00  0.00     0.091 A 
ATOM     97  F   UNL A   1      53.057  35.147  26.343  1.00  0.00    -0.205 F 
ATOM     98  C   UNL A   1      53.988  35.252  22.804  1.00  0.00     0.022 A 
BRANCH  96  99
ATOM     99  S   UNL A   1      54.705  37.135  24.658  1.00  0.00     0.127 S 
ATOM    100  O   UNL A   1      54.614  37.939  23.441  1.00  0.00    -0.237 OA
ATOM    101  O   UNL A   1      53.858  37.597  25.759  1.00  0.00    -0.237 OA
ATOM    102  O   UNL A   1      56.053  36.751  25.056  1.00  0.00    -0.744 OA
ENDBRANCH  96  99
ENDBRANCH  69  92
ENDBRANCH  43  44
ENDBRANCH  36  38
ENDBRANCH  35  36
ENDBRANCH  34  35
ENDBRANCH  33  34
ENDBRANCH  32  33
ENDBRANCH  31  32
ENDBRANCH   1  31
TORSDOF 23
ENDMDL
