MODEL 1
REMARK VINA RESULT:     -10.9      0.000      0.000
REMARK SMILES O=C(OCCOCCOCCOC(=O)c1cc(-c2ccccc2)ccc1F)c1ccc(-c2c3nc(c(-c4cccc(S(=O)(=O)[O-])c4F)c4ccc([nH]4)c(-c4cccc(S(=O)(=O)[O-])c4F)c4nc(c(-c5cccc(S(=O)(=O)[O-])c5F)c5ccc2[nH]5)C=C4)C=C3)cc1
REMARK SMILES IDX 7 1 6 2 5 3 4 4 3 5 2 6 1 7 28 8 29 9 90 10 30 11 89 12
REMARK SMILES IDX 31 13 32 14 33 15 83 16 34 17 88 18 82 19 84 20 35 21 87 22
REMARK SMILES IDX 81 23 80 24 36 26 68 27 48 28 67 29 49 30 52 31 66 32 85 33
REMARK SMILES IDX 50 34 51 35 65 37 86 38 53 39 37 40 38 41 46 42 39 43 41 44
REMARK SMILES IDX 47 45 40 46 42 47 43 48 44 49 45 50 69 51 70 52 78 53 71 54
REMARK SMILES IDX 73 55 79 56 72 57 74 58 75 59 76 60 77 61 54 62 55 63 63 64
REMARK SMILES IDX 56 65 58 66 64 67 57 68 59 69 60 70 61 71 62 72 8 73 9 74
REMARK SMILES IDX 10 75 11 76 12 77 13 78 14 79 15 80 16 81 26 82 17 83 25 84
REMARK SMILES IDX 27 85 24 86 18 87 19 88 23 89 20 90 22 91 21 92
REMARK H PARENT 84 25 52 36
REMARK Flexibility Score: inf
ROOT
ATOM      1  C   UNL A   1      33.634  23.160  24.731  1.00  0.00     0.188 C 
ENDROOT
BRANCH   1   2
ATOM      2  O   UNL A   1      34.635  22.157  24.950  1.00  0.00    -0.376 OA
BRANCH   2   3
ATOM      3  C   UNL A   1      35.932  22.510  24.467  1.00  0.00     0.202 C 
BRANCH   3   4
ATOM      4  C   UNL A   1      36.919  21.339  24.430  1.00  0.00     0.261 C 
BRANCH   4   5
ATOM      5  O   UNL A   1      37.495  21.097  25.724  1.00  0.00    -0.460 OA
BRANCH   5   6
ATOM      6  C   UNL A   1      38.789  21.266  26.096  1.00  0.00     0.338 C 
ATOM      7  O   UNL A   1      39.551  20.302  26.037  1.00  0.00    -0.246 OA
BRANCH   6   8
ATOM      8  C   UNL A   1      39.356  22.586  26.507  1.00  0.00     0.060 A 
ATOM      9  C   UNL A   1      38.859  23.827  26.105  1.00  0.00     0.016 A 
ATOM     10  C   UNL A   1      40.429  22.567  27.414  1.00  0.00     0.016 A 
ATOM     11  C   UNL A   1      39.499  25.009  26.469  1.00  0.00     0.010 A 
ATOM     12  C   UNL A   1      41.020  23.757  27.853  1.00  0.00     0.010 A 
ATOM     13  C   UNL A   1      40.590  24.987  27.340  1.00  0.00    -0.014 A 
BRANCH  13  14
ATOM     14  C   UNL A   1      41.319  26.244  27.626  1.00  0.00     0.031 A 
ATOM     15  C   UNL A   1      40.651  27.305  28.452  1.00  0.00     0.074 A 
ATOM     16  C   UNL A   1      42.594  26.400  27.218  1.00  0.00     0.049 A 
ATOM     17  N   UNL A   1      41.098  28.483  28.797  1.00  0.00    -0.248 NA
ATOM     18  C   UNL A   1      39.307  26.996  28.972  1.00  0.00     0.031 C 
ATOM     19  C   UNL A   1      43.364  25.407  26.469  1.00  0.00     0.029 A 
ATOM     20  N   UNL A   1      43.471  27.442  27.386  1.00  0.00    -0.354 N 
ATOM     21  C   UNL A   1      40.081  29.068  29.539  1.00  0.00     0.074 A 
ATOM     22  C   UNL A   1      38.989  28.122  29.593  1.00  0.00     0.031 C 
ATOM     23  C   UNL A   1      44.600  25.882  26.257  1.00  0.00     0.029 A 
ATOM     24  C   UNL A   1      44.692  27.235  26.791  1.00  0.00     0.049 A 
ATOM     25  H   UNL A   1      43.246  28.261  27.885  1.00  0.00     0.167 HD
ATOM     26  C   UNL A   1      40.067  30.277  30.141  1.00  0.00     0.034 A 
ATOM     27  C   UNL A   1      45.760  28.047  26.663  1.00  0.00     0.034 A 
ATOM     28  C   UNL A   1      41.170  31.194  30.118  1.00  0.00     0.049 A 
ATOM     29  C   UNL A   1      45.701  29.408  27.297  1.00  0.00     0.074 A 
ATOM     30  C   UNL A   1      41.254  32.451  30.689  1.00  0.00     0.029 A 
ATOM     31  N   UNL A   1      42.385  30.948  29.498  1.00  0.00    -0.354 N 
ATOM     32  N   UNL A   1      44.745  29.930  28.028  1.00  0.00    -0.248 NA
ATOM     33  C   UNL A   1      46.865  30.286  27.113  1.00  0.00     0.031 C 
ATOM     34  C   UNL A   1      42.521  32.969  30.404  1.00  0.00     0.029 A 
ATOM     35  C   UNL A   1      43.227  32.031  29.667  1.00  0.00     0.049 A 
ATOM     36  H   UNL A   1      42.613  30.124  29.010  1.00  0.00     0.167 HD
ATOM     37  C   UNL A   1      45.198  31.185  28.411  1.00  0.00     0.074 A 
ATOM     38  C   UNL A   1      46.525  31.339  27.848  1.00  0.00     0.031 C 
ATOM     39  C   UNL A   1      44.566  32.132  29.143  1.00  0.00     0.034 A 
BRANCH  26  40
ATOM     40  C   UNL A   1      38.824  30.663  30.892  1.00  0.00     0.023 A 
ATOM     41  C   UNL A   1      38.541  30.046  32.128  1.00  0.00     0.012 A 
ATOM     42  C   UNL A   1      37.956  31.651  30.392  1.00  0.00     0.148 A 
ATOM     43  C   UNL A   1      37.397  30.393  32.845  1.00  0.00     0.002 A 
ATOM     44  C   UNL A   1      36.835  32.015  31.128  1.00  0.00     0.091 A 
ATOM     45  F   UNL A   1      38.238  32.206  29.205  1.00  0.00    -0.205 F 
ATOM     46  C   UNL A   1      36.549  31.382  32.350  1.00  0.00     0.022 A 
BRANCH  44  47
ATOM     47  S   UNL A   1      35.702  33.304  30.602  1.00  0.00     0.127 S 
ATOM     48  O   UNL A   1      34.409  32.634  30.741  1.00  0.00    -0.237 OA
ATOM     49  O   UNL A   1      35.956  34.354  31.587  1.00  0.00    -0.237 OA
ATOM     50  O   UNL A   1      36.079  33.641  29.236  1.00  0.00    -0.744 OA
ENDBRANCH  44  47
ENDBRANCH  26  40
BRANCH  27  51
ATOM     51  C   UNL A   1      46.968  27.581  25.923  1.00  0.00     0.023 A 
ATOM     52  C   UNL A   1      47.897  26.735  26.558  1.00  0.00     0.012 A 
ATOM     53  C   UNL A   1      47.173  27.924  24.571  1.00  0.00     0.148 A 
ATOM     54  C   UNL A   1      49.011  26.252  25.866  1.00  0.00     0.002 A 
ATOM     55  C   UNL A   1      48.252  27.395  23.872  1.00  0.00     0.091 A 
ATOM     56  F   UNL A   1      46.296  28.750  23.982  1.00  0.00    -0.205 F 
ATOM     57  C   UNL A   1      49.181  26.569  24.520  1.00  0.00     0.022 A 
BRANCH  55  58
ATOM     58  S   UNL A   1      48.433  27.634  22.100  1.00  0.00     0.127 S 
ATOM     59  O   UNL A   1      49.589  28.521  22.030  1.00  0.00    -0.237 OA
ATOM     60  O   UNL A   1      48.667  26.271  21.626  1.00  0.00    -0.237 OA
ATOM     61  O   UNL A   1      47.160  28.198  21.665  1.00  0.00    -0.744 OA
ENDBRANCH  55  58
ENDBRANCH  27  51
BRANCH  39  62
ATOM     62  C   UNL A   1      45.293  33.421  29.398  1.00  0.00     0.023 A 
ATOM     63  C   UNL A   1      46.272  33.471  30.409  1.00  0.00     0.012 A 
ATOM     64  C   UNL A   1      45.105  34.530  28.553  1.00  0.00     0.148 A 
ATOM     65  C   UNL A   1      47.053  34.613  30.577  1.00  0.00     0.002 A 
ATOM     66  C   UNL A   1      45.916  35.648  28.698  1.00  0.00     0.091 A 
ATOM     67  F   UNL A   1      44.151  34.464  27.613  1.00  0.00    -0.205 F 
ATOM     68  C   UNL A   1      46.886  35.693  29.712  1.00  0.00     0.022 A 
BRANCH  66  69
ATOM     69  S   UNL A   1      45.841  37.037  27.563  1.00  0.00     0.127 S 
ATOM     70  O   UNL A   1      46.878  37.917  28.097  1.00  0.00    -0.237 OA
ATOM     71  O   UNL A   1      46.170  36.413  26.281  1.00  0.00    -0.237 OA
ATOM     72  O   UNL A   1      44.479  37.548  27.649  1.00  0.00    -0.744 OA
ENDBRANCH  66  69
ENDBRANCH  39  62
ENDBRANCH  13  14
ENDBRANCH   6   8
ENDBRANCH   5   6
ENDBRANCH   4   5
ENDBRANCH   3   4
ENDBRANCH   2   3
ENDBRANCH   1   2
BRANCH   1  73
ATOM     73  C   UNL A   1      34.182  24.264  23.823  1.00  0.00     0.188 C 
BRANCH  73  74
ATOM     74  O   UNL A   1      33.199  25.211  23.391  1.00  0.00    -0.376 OA
BRANCH  74  75
ATOM     75  C   UNL A   1      33.264  25.618  22.026  1.00  0.00     0.202 C 
BRANCH  75  76
ATOM     76  C   UNL A   1      32.449  26.858  21.640  1.00  0.00     0.261 C 
BRANCH  76  77
ATOM     77  O   UNL A   1      31.032  26.757  21.858  1.00  0.00    -0.460 OA
BRANCH  77  78
ATOM     78  C   UNL A   1      30.497  27.828  22.499  1.00  0.00     0.341 C 
ATOM     79  O   UNL A   1      29.902  28.766  21.998  1.00  0.00    -0.246 OA
BRANCH  78  80
ATOM     80  C   UNL A   1      30.739  27.737  23.940  1.00  0.00     0.096 A 
ATOM     81  C   UNL A   1      31.676  28.568  24.568  1.00  0.00     0.027 A 
ATOM     82  C   UNL A   1      30.166  26.670  24.621  1.00  0.00     0.137 A 
ATOM     83  C   UNL A   1      32.060  28.317  25.898  1.00  0.00    -0.017 A 
ATOM     84  C   UNL A   1      30.535  26.405  25.930  1.00  0.00     0.041 A 
ATOM     85  F   UNL A   1      29.273  25.873  24.015  1.00  0.00    -0.206 F 
ATOM     86  C   UNL A   1      31.472  27.225  26.566  1.00  0.00     0.012 A 
BRANCH  83  87
ATOM     87  C   UNL A   1      33.095  29.124  26.563  1.00  0.00    -0.018 A 
ATOM     88  C   UNL A   1      32.856  30.452  26.944  1.00  0.00     0.009 A 
ATOM     89  C   UNL A   1      34.355  28.573  26.852  1.00  0.00     0.009 A 
ATOM     90  C   UNL A   1      33.837  31.202  27.602  1.00  0.00     0.001 A 
ATOM     91  C   UNL A   1      35.340  29.322  27.502  1.00  0.00     0.001 A 
ATOM     92  C   UNL A   1      35.078  30.636  27.880  1.00  0.00     0.000 A 
ENDBRANCH  83  87
ENDBRANCH  78  80
ENDBRANCH  77  78
ENDBRANCH  76  77
ENDBRANCH  75  76
ENDBRANCH  74  75
ENDBRANCH  73  74
ENDBRANCH   1  73
TORSDOF 21
ENDMDL
MODEL 2
REMARK VINA RESULT:     -10.8      1.416      7.840
REMARK SMILES O=C(OCCOCCOCCOC(=O)c1cc(-c2ccccc2)ccc1F)c1ccc(-c2c3nc(c(-c4cccc(S(=O)(=O)[O-])c4F)c4ccc([nH]4)c(-c4cccc(S(=O)(=O)[O-])c4F)c4nc(c(-c5cccc(S(=O)(=O)[O-])c5F)c5ccc2[nH]5)C=C4)C=C3)cc1
REMARK SMILES IDX 7 1 6 2 5 3 4 4 3 5 2 6 1 7 28 8 29 9 90 10 30 11 89 12
REMARK SMILES IDX 31 13 32 14 33 15 83 16 34 17 88 18 82 19 84 20 35 21 87 22
REMARK SMILES IDX 81 23 80 24 36 26 68 27 48 28 67 29 49 30 52 31 66 32 85 33
REMARK SMILES IDX 50 34 51 35 65 37 86 38 53 39 37 40 38 41 46 42 39 43 41 44
REMARK SMILES IDX 47 45 40 46 42 47 43 48 44 49 45 50 69 51 70 52 78 53 71 54
REMARK SMILES IDX 73 55 79 56 72 57 74 58 75 59 76 60 77 61 54 62 55 63 63 64
REMARK SMILES IDX 56 65 58 66 64 67 57 68 59 69 60 70 61 71 62 72 8 73 9 74
REMARK SMILES IDX 10 75 11 76 12 77 13 78 14 79 15 80 16 81 26 82 17 83 25 84
REMARK SMILES IDX 27 85 24 86 18 87 19 88 23 89 20 90 22 91 21 92
REMARK H PARENT 84 25 52 36
REMARK Flexibility Score: inf
ROOT
ATOM      1  C   UNL A   1      34.301  22.702  25.058  1.00  0.00     0.188 C 
ENDROOT
BRANCH   1   2
ATOM      2  O   UNL A   1      35.649  22.675  25.545  1.00  0.00    -0.376 OA
BRANCH   2   3
ATOM      3  C   UNL A   1      36.209  21.365  25.642  1.00  0.00     0.202 C 
BRANCH   3   4
ATOM      4  C   UNL A   1      37.516  21.190  24.862  1.00  0.00     0.261 C 
BRANCH   4   5
ATOM      5  O   UNL A   1      38.407  20.279  25.527  1.00  0.00    -0.460 OA
BRANCH   5   6
ATOM      6  C   UNL A   1      39.604  20.564  26.100  1.00  0.00     0.338 C 
ATOM      7  O   UNL A   1      40.438  19.666  26.205  1.00  0.00    -0.246 OA
BRANCH   6   8
ATOM      8  C   UNL A   1      39.989  21.937  26.546  1.00  0.00     0.060 A 
ATOM      9  C   UNL A   1      39.375  23.117  26.120  1.00  0.00     0.016 A 
ATOM     10  C   UNL A   1      41.003  22.034  27.513  1.00  0.00     0.016 A 
ATOM     11  C   UNL A   1      39.852  24.361  26.524  1.00  0.00     0.010 A 
ATOM     12  C   UNL A   1      41.427  23.280  27.989  1.00  0.00     0.010 A 
ATOM     13  C   UNL A   1      40.887  24.457  27.456  1.00  0.00    -0.014 A 
BRANCH  13  14
ATOM     14  C   UNL A   1      41.448  25.787  27.787  1.00  0.00     0.031 A 
ATOM     15  C   UNL A   1      42.833  26.131  27.319  1.00  0.00     0.074 A 
ATOM     16  C   UNL A   1      40.698  26.704  28.428  1.00  0.00     0.049 A 
ATOM     17  N   UNL A   1      43.522  27.223  27.520  1.00  0.00    -0.248 NA
ATOM     18  C   UNL A   1      43.533  25.120  26.507  1.00  0.00     0.031 C 
ATOM     19  C   UNL A   1      39.317  26.501  28.867  1.00  0.00     0.029 A 
ATOM     20  N   UNL A   1      40.982  27.991  28.810  1.00  0.00    -0.354 N 
ATOM     21  C   UNL A   1      44.744  27.017  26.893  1.00  0.00     0.074 A 
ATOM     22  C   UNL A   1      44.710  25.695  26.310  1.00  0.00     0.031 C 
ATOM     23  C   UNL A   1      38.872  27.627  29.443  1.00  0.00     0.029 A 
ATOM     24  C   UNL A   1      39.951  28.607  29.478  1.00  0.00     0.049 A 
ATOM     25  H   UNL A   1      41.843  28.430  28.624  1.00  0.00     0.167 HD
ATOM     26  C   UNL A   1      45.793  27.863  26.795  1.00  0.00     0.034 A 
ATOM     27  C   UNL A   1      39.883  29.813  30.075  1.00  0.00     0.034 A 
ATOM     28  C   UNL A   1      45.803  29.190  27.342  1.00  0.00     0.049 A 
ATOM     29  C   UNL A   1      41.081  30.716  29.997  1.00  0.00     0.074 A 
ATOM     30  C   UNL A   1      46.821  30.124  27.306  1.00  0.00     0.029 A 
ATOM     31  N   UNL A   1      44.741  29.771  28.017  1.00  0.00    -0.354 N 
ATOM     32  N   UNL A   1      42.215  30.519  29.367  1.00  0.00    -0.248 NA
ATOM     33  C   UNL A   1      40.992  32.010  30.686  1.00  0.00     0.031 C 
ATOM     34  C   UNL A   1      46.376  31.271  27.971  1.00  0.00     0.029 A 
ATOM     35  C   UNL A   1      45.078  31.053  28.408  1.00  0.00     0.049 A 
ATOM     36  H   UNL A   1      43.876  29.335  28.192  1.00  0.00     0.167 HD
ATOM     37  C   UNL A   1      42.966  31.670  29.563  1.00  0.00     0.074 A 
ATOM     38  C   UNL A   1      42.150  32.570  30.354  1.00  0.00     0.031 C 
ATOM     39  C   UNL A   1      44.223  31.948  29.146  1.00  0.00     0.034 A 
BRANCH  26  40
ATOM     40  C   UNL A   1      47.004  27.381  26.049  1.00  0.00     0.023 A 
ATOM     41  C   UNL A   1      47.937  26.550  26.702  1.00  0.00     0.012 A 
ATOM     42  C   UNL A   1      47.204  27.726  24.699  1.00  0.00     0.148 A 
ATOM     43  C   UNL A   1      49.064  26.086  26.027  1.00  0.00     0.002 A 
ATOM     44  C   UNL A   1      48.314  27.234  24.023  1.00  0.00     0.091 A 
ATOM     45  F   UNL A   1      46.313  28.535  24.109  1.00  0.00    -0.205 F 
ATOM     46  C   UNL A   1      49.249  26.421  24.687  1.00  0.00     0.022 A 
BRANCH  44  47
ATOM     47  S   UNL A   1      48.624  27.570  22.287  1.00  0.00     0.127 S 
ATOM     48  O   UNL A   1      47.454  28.372  21.929  1.00  0.00    -0.237 OA
ATOM     49  O   UNL A   1      49.882  28.313  22.340  1.00  0.00    -0.237 OA
ATOM     50  O   UNL A   1      48.706  26.272  21.632  1.00  0.00    -0.744 OA
ENDBRANCH  44  47
ENDBRANCH  26  40
BRANCH  27  51
ATOM     51  C   UNL A   1      38.634  30.229  30.776  1.00  0.00     0.023 A 
ATOM     52  C   UNL A   1      38.469  29.945  32.145  1.00  0.00     0.012 A 
ATOM     53  C   UNL A   1      37.630  30.958  30.106  1.00  0.00     0.148 A 
ATOM     54  C   UNL A   1      37.326  30.367  32.828  1.00  0.00     0.002 A 
ATOM     55  C   UNL A   1      36.522  31.424  30.805  1.00  0.00     0.091 A 
ATOM     56  F   UNL A   1      37.785  31.202  28.797  1.00  0.00    -0.205 F 
ATOM     57  C   UNL A   1      36.360  31.119  32.163  1.00  0.00     0.022 A 
BRANCH  55  58
ATOM     58  S   UNL A   1      35.329  32.532  30.044  1.00  0.00     0.127 S 
ATOM     59  O   UNL A   1      36.172  33.651  29.634  1.00  0.00    -0.237 OA
ATOM     60  O   UNL A   1      34.804  31.717  28.948  1.00  0.00    -0.237 OA
ATOM     61  O   UNL A   1      34.352  32.809  31.090  1.00  0.00    -0.744 OA
ENDBRANCH  55  58
ENDBRANCH  27  51
BRANCH  39  62
ATOM     62  C   UNL A   1      44.805  33.283  29.516  1.00  0.00     0.023 A 
ATOM     63  C   UNL A   1      45.613  33.388  30.665  1.00  0.00     0.012 A 
ATOM     64  C   UNL A   1      44.666  34.389  28.657  1.00  0.00     0.148 A 
ATOM     65  C   UNL A   1      46.271  34.580  30.956  1.00  0.00     0.002 A 
ATOM     66  C   UNL A   1      45.360  35.560  28.930  1.00  0.00     0.091 A 
ATOM     67  F   UNL A   1      43.873  34.268  27.582  1.00  0.00    -0.205 F 
ATOM     68  C   UNL A   1      46.158  35.659  30.081  1.00  0.00     0.022 A 
BRANCH  66  69
ATOM     69  S   UNL A   1      45.353  36.959  27.804  1.00  0.00     0.127 S 
ATOM     70  O   UNL A   1      43.922  37.210  27.648  1.00  0.00    -0.237 OA
ATOM     71  O   UNL A   1      46.073  37.979  28.568  1.00  0.00    -0.237 OA
ATOM     72  O   UNL A   1      46.045  36.507  26.604  1.00  0.00    -0.744 OA
ENDBRANCH  66  69
ENDBRANCH  39  62
ENDBRANCH  13  14
ENDBRANCH   6   8
ENDBRANCH   5   6
ENDBRANCH   4   5
ENDBRANCH   3   4
ENDBRANCH   2   3
ENDBRANCH   1   2
BRANCH   1  73
ATOM     73  C   UNL A   1      34.291  22.855  23.535  1.00  0.00     0.188 C 
BRANCH  73  74
ATOM     74  O   UNL A   1      33.073  22.440  22.910  1.00  0.00    -0.376 OA
BRANCH  74  75
ATOM     75  C   UNL A   1      31.883  22.570  23.684  1.00  0.00     0.202 C 
BRANCH  75  76
ATOM     76  C   UNL A   1      31.028  23.817  23.425  1.00  0.00     0.261 C 
BRANCH  76  77
ATOM     77  O   UNL A   1      31.592  25.056  23.883  1.00  0.00    -0.460 OA
BRANCH  77  78
ATOM     78  C   UNL A   1      31.010  25.543  25.010  1.00  0.00     0.341 C 
ATOM     79  O   UNL A   1      30.457  24.905  25.888  1.00  0.00    -0.246 OA
BRANCH  78  80
ATOM     80  C   UNL A   1      31.111  27.003  25.051  1.00  0.00     0.096 A 
ATOM     81  C   UNL A   1      30.254  27.806  24.287  1.00  0.00     0.027 A 
ATOM     82  C   UNL A   1      32.208  27.552  25.703  1.00  0.00     0.137 A 
ATOM     83  C   UNL A   1      30.508  29.184  24.160  1.00  0.00    -0.017 A 
ATOM     84  C   UNL A   1      32.475  28.907  25.587  1.00  0.00     0.041 A 
ATOM     85  F   UNL A   1      33.029  26.779  26.429  1.00  0.00    -0.206 F 
ATOM     86  C   UNL A   1      31.629  29.718  24.824  1.00  0.00     0.012 A 
BRANCH  83  87
ATOM     87  C   UNL A   1      29.672  30.043  23.306  1.00  0.00    -0.018 A 
ATOM     88  C   UNL A   1      29.755  29.990  21.908  1.00  0.00     0.009 A 
ATOM     89  C   UNL A   1      28.748  30.935  23.878  1.00  0.00     0.009 A 
ATOM     90  C   UNL A   1      28.934  30.790  21.106  1.00  0.00     0.001 A 
ATOM     91  C   UNL A   1      27.933  31.741  23.080  1.00  0.00     0.001 A 
ATOM     92  C   UNL A   1      28.024  31.666  21.693  1.00  0.00     0.000 A 
ENDBRANCH  83  87
ENDBRANCH  78  80
ENDBRANCH  77  78
ENDBRANCH  76  77
ENDBRANCH  75  76
ENDBRANCH  74  75
ENDBRANCH  73  74
ENDBRANCH   1  73
TORSDOF 21
ENDMDL
MODEL 3
REMARK VINA RESULT:     -10.6      2.176      8.420
REMARK SMILES O=C(OCCOCCOCCOC(=O)c1cc(-c2ccccc2)ccc1F)c1ccc(-c2c3nc(c(-c4cccc(S(=O)(=O)[O-])c4F)c4ccc([nH]4)c(-c4cccc(S(=O)(=O)[O-])c4F)c4nc(c(-c5cccc(S(=O)(=O)[O-])c5F)c5ccc2[nH]5)C=C4)C=C3)cc1
REMARK SMILES IDX 7 1 6 2 5 3 4 4 3 5 2 6 1 7 28 8 29 9 90 10 30 11 89 12
REMARK SMILES IDX 31 13 32 14 33 15 83 16 34 17 88 18 82 19 84 20 35 21 87 22
REMARK SMILES IDX 81 23 80 24 36 26 68 27 48 28 67 29 49 30 52 31 66 32 85 33
REMARK SMILES IDX 50 34 51 35 65 37 86 38 53 39 37 40 38 41 46 42 39 43 41 44
REMARK SMILES IDX 47 45 40 46 42 47 43 48 44 49 45 50 69 51 70 52 78 53 71 54
REMARK SMILES IDX 73 55 79 56 72 57 74 58 75 59 76 60 77 61 54 62 55 63 63 64
REMARK SMILES IDX 56 65 58 66 64 67 57 68 59 69 60 70 61 71 62 72 8 73 9 74
REMARK SMILES IDX 10 75 11 76 12 77 13 78 14 79 15 80 16 81 26 82 17 83 25 84
REMARK SMILES IDX 27 85 24 86 18 87 19 88 23 89 20 90 22 91 21 92
REMARK H PARENT 84 25 52 36
REMARK Flexibility Score: inf
ROOT
ATOM      1  C   UNL A   1      36.728  22.905  25.934  1.00  0.00     0.188 C 
ENDROOT
BRANCH   1   2
ATOM      2  O   UNL A   1      36.780  21.474  25.867  1.00  0.00    -0.376 OA
BRANCH   2   3
ATOM      3  C   UNL A   1      37.433  20.967  24.702  1.00  0.00     0.202 C 
BRANCH   3   4
ATOM      4  C   UNL A   1      38.314  19.743  24.970  1.00  0.00     0.261 C 
BRANCH   4   5
ATOM      5  O   UNL A   1      38.936  19.816  26.264  1.00  0.00    -0.460 OA
BRANCH   5   6
ATOM      6  C   UNL A   1      40.188  20.253  26.554  1.00  0.00     0.338 C 
ATOM      7  O   UNL A   1      41.125  19.460  26.470  1.00  0.00    -0.246 OA
BRANCH   6   8
ATOM      8  C   UNL A   1      40.498  21.673  26.900  1.00  0.00     0.060 A 
ATOM      9  C   UNL A   1      40.016  22.787  26.210  1.00  0.00     0.016 A 
ATOM     10  C   UNL A   1      41.283  21.895  28.044  1.00  0.00     0.016 A 
ATOM     11  C   UNL A   1      40.422  24.074  26.551  1.00  0.00     0.010 A 
ATOM     12  C   UNL A   1      41.621  23.193  28.443  1.00  0.00     0.010 A 
ATOM     13  C   UNL A   1      41.234  24.291  27.665  1.00  0.00    -0.014 A 
BRANCH  13  14
ATOM     14  C   UNL A   1      41.740  25.655  27.943  1.00  0.00     0.031 A 
ATOM     15  C   UNL A   1      43.109  26.038  27.460  1.00  0.00     0.074 A 
ATOM     16  C   UNL A   1      40.953  26.565  28.550  1.00  0.00     0.049 A 
ATOM     17  N   UNL A   1      43.752  27.164  27.618  1.00  0.00    -0.248 NA
ATOM     18  C   UNL A   1      43.850  25.026  26.687  1.00  0.00     0.031 C 
ATOM     19  C   UNL A   1      39.581  26.322  28.999  1.00  0.00     0.029 A 
ATOM     20  N   UNL A   1      41.183  27.876  28.881  1.00  0.00    -0.354 N 
ATOM     21  C   UNL A   1      44.982  26.985  26.997  1.00  0.00     0.074 A 
ATOM     22  C   UNL A   1      45.003  25.642  26.465  1.00  0.00     0.031 C 
ATOM     23  C   UNL A   1      39.090  27.450  29.531  1.00  0.00     0.029 A 
ATOM     24  C   UNL A   1      40.127  28.474  29.527  1.00  0.00     0.049 A 
ATOM     25  H   UNL A   1      42.025  28.344  28.677  1.00  0.00     0.167 HD
ATOM     26  C   UNL A   1      45.994  27.870  26.865  1.00  0.00     0.034 A 
ATOM     27  C   UNL A   1      40.010  29.699  30.077  1.00  0.00     0.034 A 
ATOM     28  C   UNL A   1      45.950  29.216  27.360  1.00  0.00     0.049 A 
ATOM     29  C   UNL A   1      41.169  30.647  29.961  1.00  0.00     0.074 A 
ATOM     30  C   UNL A   1      46.928  30.190  27.286  1.00  0.00     0.029 A 
ATOM     31  N   UNL A   1      44.865  29.778  28.014  1.00  0.00    -0.354 N 
ATOM     32  N   UNL A   1      42.310  30.473  29.338  1.00  0.00    -0.248 NA
ATOM     33  C   UNL A   1      41.027  31.962  30.600  1.00  0.00     0.031 C 
ATOM     34  C   UNL A   1      46.436  31.342  27.906  1.00  0.00     0.029 A 
ATOM     35  C   UNL A   1      45.148  31.088  28.354  1.00  0.00     0.049 A 
ATOM     36  H   UNL A   1      44.019  29.314  28.206  1.00  0.00     0.167 HD
ATOM     37  C   UNL A   1      43.012  31.661  29.488  1.00  0.00     0.074 A 
ATOM     38  C   UNL A   1      42.160  32.557  30.245  1.00  0.00     0.031 C 
ATOM     39  C   UNL A   1      44.257  31.975  29.058  1.00  0.00     0.034 A 
BRANCH  26  40
ATOM     40  C   UNL A   1      47.224  27.410  26.135  1.00  0.00     0.023 A 
ATOM     41  C   UNL A   1      47.341  27.651  24.751  1.00  0.00     0.012 A 
ATOM     42  C   UNL A   1      48.272  26.768  26.821  1.00  0.00     0.148 A 
ATOM     43  C   UNL A   1      48.476  27.239  24.055  1.00  0.00     0.002 A 
ATOM     44  C   UNL A   1      49.415  26.388  26.127  1.00  0.00     0.091 A 
ATOM     45  F   UNL A   1      48.126  26.532  28.132  1.00  0.00    -0.205 F 
ATOM     46  C   UNL A   1      49.515  26.615  24.743  1.00  0.00     0.022 A 
BRANCH  44  47
ATOM     47  S   UNL A   1      50.827  25.618  26.924  1.00  0.00     0.127 S 
ATOM     48  O   UNL A   1      51.725  25.404  25.789  1.00  0.00    -0.237 OA
ATOM     49  O   UNL A   1      51.257  26.660  27.856  1.00  0.00    -0.237 OA
ATOM     50  O   UNL A   1      50.324  24.404  27.552  1.00  0.00    -0.744 OA
ENDBRANCH  44  47
ENDBRANCH  26  40
BRANCH  27  51
ATOM     51  C   UNL A   1      38.744  30.090  30.763  1.00  0.00     0.023 A 
ATOM     52  C   UNL A   1      38.561  29.784  32.125  1.00  0.00     0.012 A 
ATOM     53  C   UNL A   1      37.743  30.817  30.088  1.00  0.00     0.148 A 
ATOM     54  C   UNL A   1      37.402  30.182  32.795  1.00  0.00     0.002 A 
ATOM     55  C   UNL A   1      36.618  31.259  30.775  1.00  0.00     0.091 A 
ATOM     56  F   UNL A   1      37.915  31.082  28.785  1.00  0.00    -0.205 F 
ATOM     57  C   UNL A   1      36.438  30.932  32.126  1.00  0.00     0.022 A 
BRANCH  55  58
ATOM     58  S   UNL A   1      35.424  32.364  30.011  1.00  0.00     0.127 S 
ATOM     59  O   UNL A   1      34.417  32.495  31.059  1.00  0.00    -0.237 OA
ATOM     60  O   UNL A   1      36.225  33.564  29.767  1.00  0.00    -0.237 OA
ATOM     61  O   UNL A   1      35.004  31.681  28.793  1.00  0.00    -0.744 OA
ENDBRANCH  55  58
ENDBRANCH  27  51
BRANCH  39  62
ATOM     62  C   UNL A   1      44.783  33.345  29.375  1.00  0.00     0.023 A 
ATOM     63  C   UNL A   1      45.642  33.516  30.477  1.00  0.00     0.012 A 
ATOM     64  C   UNL A   1      44.539  34.425  28.507  1.00  0.00     0.148 A 
ATOM     65  C   UNL A   1      46.249  34.747  30.714  1.00  0.00     0.002 A 
ATOM     66  C   UNL A   1      45.180  35.638  28.723  1.00  0.00     0.091 A 
ATOM     67  F   UNL A   1      43.699  34.242  27.477  1.00  0.00    -0.205 F 
ATOM     68  C   UNL A   1      46.031  35.802  29.829  1.00  0.00     0.022 A 
BRANCH  66  69
ATOM     69  S   UNL A   1      45.039  37.012  27.577  1.00  0.00     0.127 S 
ATOM     70  O   UNL A   1      44.925  38.150  28.487  1.00  0.00    -0.237 OA
ATOM     71  O   UNL A   1      46.304  36.940  26.844  1.00  0.00    -0.237 OA
ATOM     72  O   UNL A   1      43.860  36.736  26.767  1.00  0.00    -0.744 OA
ENDBRANCH  66  69
ENDBRANCH  39  62
ENDBRANCH  13  14
ENDBRANCH   6   8
ENDBRANCH   5   6
ENDBRANCH   4   5
ENDBRANCH   3   4
ENDBRANCH   2   3
ENDBRANCH   1   2
BRANCH   1  73
ATOM     73  C   UNL A   1      35.299  23.395  25.689  1.00  0.00     0.188 C 
BRANCH  73  74
ATOM     74  O   UNL A   1      35.179  24.356  24.634  1.00  0.00    -0.376 OA
BRANCH  74  75
ATOM     75  C   UNL A   1      34.451  25.544  24.935  1.00  0.00     0.202 C 
BRANCH  75  76
ATOM     76  C   UNL A   1      33.462  26.032  23.869  1.00  0.00     0.261 C 
BRANCH  76  77
ATOM     77  O   UNL A   1      33.069  25.049  22.897  1.00  0.00    -0.460 OA
BRANCH  77  78
ATOM     78  C   UNL A   1      31.815  24.559  23.088  1.00  0.00     0.341 C 
ATOM     79  O   UNL A   1      30.782  24.967  22.588  1.00  0.00    -0.246 OA
BRANCH  78  80
ATOM     80  C   UNL A   1      31.841  23.434  24.023  1.00  0.00     0.096 A 
ATOM     81  C   UNL A   1      32.463  22.226  23.679  1.00  0.00     0.027 A 
ATOM     82  C   UNL A   1      31.059  23.531  25.167  1.00  0.00     0.137 A 
ATOM     83  C   UNL A   1      32.284  21.088  24.488  1.00  0.00    -0.017 A 
ATOM     84  C   UNL A   1      30.870  22.420  25.973  1.00  0.00     0.041 A 
ATOM     85  F   UNL A   1      30.461  24.688  25.489  1.00  0.00    -0.206 F 
ATOM     86  C   UNL A   1      31.481  21.208  25.638  1.00  0.00     0.012 A 
BRANCH  83  87
ATOM     87  C   UNL A   1      32.861  19.786  24.118  1.00  0.00    -0.018 A 
ATOM     88  C   UNL A   1      32.262  18.967  23.150  1.00  0.00     0.009 A 
ATOM     89  C   UNL A   1      34.048  19.334  24.719  1.00  0.00     0.009 A 
ATOM     90  C   UNL A   1      32.834  17.744  22.785  1.00  0.00     0.001 A 
ATOM     91  C   UNL A   1      34.618  18.109  24.362  1.00  0.00     0.001 A 
ATOM     92  C   UNL A   1      34.012  17.316  23.392  1.00  0.00     0.000 A 
ENDBRANCH  83  87
ENDBRANCH  78  80
ENDBRANCH  77  78
ENDBRANCH  76  77
ENDBRANCH  75  76
ENDBRANCH  74  75
ENDBRANCH  73  74
ENDBRANCH   1  73
TORSDOF 21
ENDMDL
