MODEL 1
REMARK VINA RESULT:      -9.3      0.000      0.000
REMARK SMILES C[C@H](O)C[C@@H](Cc1cccc(Br)c1)C(=O)OCCOCCOCCOC(=O)c1ccc(-c2c3nc(c(-c4cccc(S(=O)(=O)[O-])c4F)c4ccc([nH]4)c(-c4cccc(S(=O)(=O)[O-])c4F)c4nc(c(-c5cccc(S(=O)(=O)[O-])c5F)c5ccc2[nH]5)C=C4)C=C3)cc1
REMARK SMILES IDX 20 1 19 2 18 3 17 4 16 5 14 6 15 7 5 8 4 9 2 10 1 11 3 12
REMARK SMILES IDX 6 14 7 15 8 16 13 17 9 18 11 19 10 20 12 21 21 22 22 23
REMARK SMILES IDX 23 24 24 25 25 26 26 27 27 28 28 29 29 30 90 31 30 32 89 33
REMARK SMILES IDX 31 34 32 35 33 36 83 37 34 38 88 39 82 40 84 41 35 42 87 43
REMARK SMILES IDX 81 44 80 45 36 47 68 48 48 49 67 50 49 51 52 52 66 53 85 54
REMARK SMILES IDX 50 55 51 56 65 58 86 59 53 60 37 61 38 62 46 63 39 64 41 65
REMARK SMILES IDX 47 66 40 67 42 68 43 69 44 70 45 71 69 72 70 73 78 74 71 75
REMARK SMILES IDX 73 76 79 77 72 78 74 79 75 80 76 81 77 82 54 83 55 84 63 85
REMARK SMILES IDX 56 86 58 87 64 88 57 89 59 90 60 91 61 92 62 93
REMARK H PARENT 3 13 84 46 52 57
REMARK Flexibility Score: inf
ROOT
ATOM      1  C   UNL A   1      33.724  27.158  25.984  1.00  0.00     0.188 C 
ENDROOT
BRANCH   1   2
ATOM      2  O   UNL A   1      33.742  27.263  24.569  1.00  0.00    -0.376 OA
BRANCH   2   3
ATOM      3  C   UNL A   1      33.723  26.045  23.833  1.00  0.00     0.202 C 
BRANCH   3   4
ATOM      4  C   UNL A   1      34.751  24.975  24.216  1.00  0.00     0.261 C 
BRANCH   4   5
ATOM      5  O   UNL A   1      34.226  23.645  24.429  1.00  0.00    -0.463 OA
BRANCH   5   6
ATOM      6  C   UNL A   1      33.931  22.947  23.294  1.00  0.00     0.309 C 
ATOM      7  O   UNL A   1      34.329  23.252  22.174  1.00  0.00    -0.252 OA
BRANCH   6   8
ATOM      8  C   UNL A   1      32.942  21.807  23.496  1.00  0.00     0.106 C 
BRANCH   8   9
ATOM      9  C   UNL A   1      33.034  21.061  24.845  1.00  0.00     0.047 C 
BRANCH   9  10
ATOM     10  C   UNL A   1      32.979  19.529  24.693  1.00  0.00     0.112 C 
ATOM     11  C   UNL A   1      32.609  19.099  23.280  1.00  0.00     0.038 C 
BRANCH  10  12
ATOM     12  O   UNL A   1      32.014  19.020  25.608  1.00  0.00    -0.393 OA
ATOM     13  H   UNL A   1      32.113  18.058  25.680  1.00  0.00     0.210 HD
ENDBRANCH  10  12
ENDBRANCH   9  10
ENDBRANCH   8   9
BRANCH   8  14
ATOM     14  C   UNL A   1      31.542  22.365  23.153  1.00  0.00     0.051 C 
BRANCH  14  15
ATOM     15  C   UNL A   1      31.119  23.501  24.059  1.00  0.00    -0.046 A 
ATOM     16  C   UNL A   1      31.117  23.329  25.452  1.00  0.00     0.004 A 
ATOM     17  C   UNL A   1      30.621  24.695  23.522  1.00  0.00     0.019 A 
ATOM     18  C   UNL A   1      30.566  24.300  26.286  1.00  0.00     0.001 A 
ATOM     19  C   UNL A   1      30.074  25.663  24.362  1.00  0.00     0.018 A 
ATOM     20  C   UNL A   1      30.032  25.466  25.740  1.00  0.00     0.016 A 
ATOM     21  Br  UNL A   1      29.344  27.239  23.615  1.00  0.00    -0.051 Br
ENDBRANCH  14  15
ENDBRANCH   8  14
ENDBRANCH   6   8
ENDBRANCH   5   6
ENDBRANCH   4   5
ENDBRANCH   3   4
ENDBRANCH   2   3
ENDBRANCH   1   2
BRANCH   1  22
ATOM     22  C   UNL A   1      32.676  27.993  26.723  1.00  0.00     0.188 C 
BRANCH  22  23
ATOM     23  O   UNL A   1      31.613  28.527  25.947  1.00  0.00    -0.376 OA
BRANCH  23  24
ATOM     24  C   UNL A   1      31.639  29.948  25.771  1.00  0.00     0.202 C 
BRANCH  24  25
ATOM     25  C   UNL A   1      32.935  30.651  26.234  1.00  0.00     0.261 C 
BRANCH  25  26
ATOM     26  O   UNL A   1      32.887  31.260  27.545  1.00  0.00    -0.460 OA
BRANCH  26  27
ATOM     27  C   UNL A   1      33.758  32.263  27.808  1.00  0.00     0.338 C 
ATOM     28  O   UNL A   1      33.480  33.449  27.898  1.00  0.00    -0.246 OA
BRANCH  27  29
ATOM     29  C   UNL A   1      35.056  31.675  28.248  1.00  0.00     0.060 A 
ATOM     30  C   UNL A   1      35.087  30.310  28.572  1.00  0.00     0.016 A 
ATOM     31  C   UNL A   1      36.246  32.412  28.265  1.00  0.00     0.016 A 
ATOM     32  C   UNL A   1      36.285  29.694  28.954  1.00  0.00     0.010 A 
ATOM     33  C   UNL A   1      37.442  31.798  28.661  1.00  0.00     0.010 A 
ATOM     34  C   UNL A   1      37.467  30.444  29.042  1.00  0.00    -0.014 A 
BRANCH  34  35
ATOM     35  C   UNL A   1      38.673  29.875  29.705  1.00  0.00     0.031 A 
ATOM     36  C   UNL A   1      39.081  30.432  31.046  1.00  0.00     0.074 A 
ATOM     37  C   UNL A   1      39.415  28.901  29.143  1.00  0.00     0.049 A 
ATOM     38  N   UNL A   1      40.116  30.138  31.790  1.00  0.00    -0.248 NA
ATOM     39  C   UNL A   1      38.199  31.461  31.624  1.00  0.00     0.031 C 
ATOM     40  C   UNL A   1      39.144  28.258  27.860  1.00  0.00     0.029 A 
ATOM     41  N   UNL A   1      40.575  28.301  29.580  1.00  0.00    -0.354 N 
ATOM     42  C   UNL A   1      40.030  30.964  32.904  1.00  0.00     0.074 A 
ATOM     43  C   UNL A   1      38.843  31.775  32.738  1.00  0.00     0.031 C 
ATOM     44  C   UNL A   1      40.130  27.380  27.595  1.00  0.00     0.029 A 
ATOM     45  C   UNL A   1      41.115  27.414  28.677  1.00  0.00     0.049 A 
ATOM     46  H   UNL A   1      40.981  28.491  30.457  1.00  0.00     0.167 HD
ATOM     47  C   UNL A   1      40.851  31.037  33.978  1.00  0.00     0.034 A 
ATOM     48  C   UNL A   1      42.276  26.728  28.707  1.00  0.00     0.034 A 
ATOM     49  C   UNL A   1      42.021  30.224  34.167  1.00  0.00     0.049 A 
ATOM     50  C   UNL A   1      43.194  26.854  29.902  1.00  0.00     0.074 A 
ATOM     51  C   UNL A   1      42.880  30.199  35.252  1.00  0.00     0.029 A 
ATOM     52  N   UNL A   1      42.509  29.308  33.251  1.00  0.00    -0.354 N 
ATOM     53  N   UNL A   1      43.028  27.540  31.006  1.00  0.00    -0.248 NA
ATOM     54  C   UNL A   1      44.448  26.082  29.867  1.00  0.00     0.031 C 
ATOM     55  C   UNL A   1      43.905  29.288  34.979  1.00  0.00     0.029 A 
ATOM     56  C   UNL A   1      43.666  28.723  33.737  1.00  0.00     0.049 A 
ATOM     57  H   UNL A   1      42.094  29.103  32.381  1.00  0.00     0.167 HD
ATOM     58  C   UNL A   1      44.131  27.254  31.807  1.00  0.00     0.074 A 
ATOM     59  C   UNL A   1      44.950  26.314  31.072  1.00  0.00     0.031 C 
ATOM     60  C   UNL A   1      44.446  27.740  33.033  1.00  0.00     0.034 A 
BRANCH  47  61
ATOM     61  C   UNL A   1      40.501  32.022  35.060  1.00  0.00     0.023 A 
ATOM     62  C   UNL A   1      39.684  31.616  36.134  1.00  0.00     0.012 A 
ATOM     63  C   UNL A   1      41.045  33.322  35.052  1.00  0.00     0.148 A 
ATOM     64  C   UNL A   1      39.394  32.496  37.174  1.00  0.00     0.002 A 
ATOM     65  C   UNL A   1      40.786  34.179  36.114  1.00  0.00     0.091 A 
ATOM     66  F   UNL A   1      41.801  33.692  34.010  1.00  0.00    -0.205 F 
ATOM     67  C   UNL A   1      39.954  33.772  37.170  1.00  0.00     0.022 A 
BRANCH  65  68
ATOM     68  S   UNL A   1      41.520  35.813  36.243  1.00  0.00     0.127 S 
ATOM     69  O   UNL A   1      41.973  36.041  34.872  1.00  0.00    -0.237 OA
ATOM     70  O   UNL A   1      40.378  36.631  36.651  1.00  0.00    -0.237 OA
ATOM     71  O   UNL A   1      42.578  35.703  37.238  1.00  0.00    -0.744 OA
ENDBRANCH  65  68
ENDBRANCH  47  61
BRANCH  48  72
ATOM     72  C   UNL A   1      42.657  25.835  27.572  1.00  0.00     0.023 A 
ATOM     73  C   UNL A   1      43.429  26.349  26.510  1.00  0.00     0.012 A 
ATOM     74  C   UNL A   1      42.231  24.495  27.521  1.00  0.00     0.148 A 
ATOM     75  C   UNL A   1      43.736  25.556  25.404  1.00  0.00     0.002 A 
ATOM     76  C   UNL A   1      42.588  23.693  26.442  1.00  0.00     0.091 A 
ATOM     77  F   UNL A   1      41.473  24.030  28.525  1.00  0.00    -0.205 F 
ATOM     78  C   UNL A   1      43.325  24.227  25.373  1.00  0.00     0.022 A 
BRANCH  76  79
ATOM     79  S   UNL A   1      42.195  21.941  26.372  1.00  0.00     0.127 S 
ATOM     80  O   UNL A   1      42.593  21.492  27.703  1.00  0.00    -0.237 OA
ATOM     81  O   UNL A   1      40.751  21.964  26.136  1.00  0.00    -0.237 OA
ATOM     82  O   UNL A   1      42.976  21.410  25.263  1.00  0.00    -0.744 OA
ENDBRANCH  76  79
ENDBRANCH  48  72
BRANCH  60  83
ATOM     83  C   UNL A   1      45.706  27.240  33.697  1.00  0.00     0.023 A 
ATOM     84  C   UNL A   1      46.918  27.933  33.516  1.00  0.00     0.012 A 
ATOM     85  C   UNL A   1      45.670  26.131  34.568  1.00  0.00     0.148 A 
ATOM     86  C   UNL A   1      48.081  27.514  34.164  1.00  0.00     0.002 A 
ATOM     87  C   UNL A   1      46.821  25.748  35.248  1.00  0.00     0.091 A 
ATOM     88  F   UNL A   1      44.511  25.473  34.719  1.00  0.00    -0.205 F 
ATOM     89  C   UNL A   1      48.030  26.430  35.037  1.00  0.00     0.022 A 
BRANCH  87  90
ATOM     90  S   UNL A   1      46.828  24.426  36.466  1.00  0.00     0.127 S 
ATOM     91  O   UNL A   1      48.227  24.420  36.890  1.00  0.00    -0.237 OA
ATOM     92  O   UNL A   1      45.888  24.922  37.471  1.00  0.00    -0.237 OA
ATOM     93  O   UNL A   1      46.384  23.230  35.762  1.00  0.00    -0.744 OA
ENDBRANCH  87  90
ENDBRANCH  60  83
ENDBRANCH  34  35
ENDBRANCH  27  29
ENDBRANCH  26  27
ENDBRANCH  25  26
ENDBRANCH  24  25
ENDBRANCH  23  24
ENDBRANCH  22  23
ENDBRANCH   1  22
TORSDOF 25
ENDMDL
MODEL 2
REMARK VINA RESULT:      -9.2      1.880      8.145
REMARK SMILES C[C@H](O)C[C@@H](Cc1cccc(Br)c1)C(=O)OCCOCCOCCOC(=O)c1ccc(-c2c3nc(c(-c4cccc(S(=O)(=O)[O-])c4F)c4ccc([nH]4)c(-c4cccc(S(=O)(=O)[O-])c4F)c4nc(c(-c5cccc(S(=O)(=O)[O-])c5F)c5ccc2[nH]5)C=C4)C=C3)cc1
REMARK SMILES IDX 20 1 19 2 18 3 17 4 16 5 14 6 15 7 5 8 4 9 2 10 1 11 3 12
REMARK SMILES IDX 6 14 7 15 8 16 13 17 9 18 11 19 10 20 12 21 21 22 22 23
REMARK SMILES IDX 23 24 24 25 25 26 26 27 27 28 28 29 29 30 90 31 30 32 89 33
REMARK SMILES IDX 31 34 32 35 33 36 83 37 34 38 88 39 82 40 84 41 35 42 87 43
REMARK SMILES IDX 81 44 80 45 36 47 68 48 48 49 67 50 49 51 52 52 66 53 85 54
REMARK SMILES IDX 50 55 51 56 65 58 86 59 53 60 37 61 38 62 46 63 39 64 41 65
REMARK SMILES IDX 47 66 40 67 42 68 43 69 44 70 45 71 69 72 70 73 78 74 71 75
REMARK SMILES IDX 73 76 79 77 72 78 74 79 75 80 76 81 77 82 54 83 55 84 63 85
REMARK SMILES IDX 56 86 58 87 64 88 57 89 59 90 60 91 61 92 62 93
REMARK H PARENT 3 13 84 46 52 57
REMARK Flexibility Score: inf
ROOT
ATOM      1  C   UNL A   1      33.588  27.488  25.729  1.00  0.00     0.188 C 
ENDROOT
BRANCH   1   2
ATOM      2  O   UNL A   1      33.580  27.366  24.316  1.00  0.00    -0.376 OA
BRANCH   2   3
ATOM      3  C   UNL A   1      32.875  26.257  23.769  1.00  0.00     0.202 C 
BRANCH   3   4
ATOM      4  C   UNL A   1      33.696  25.203  23.017  1.00  0.00     0.261 C 
BRANCH   4   5
ATOM      5  O   UNL A   1      34.646  24.459  23.811  1.00  0.00    -0.463 OA
BRANCH   5   6
ATOM      6  C   UNL A   1      34.565  23.101  23.696  1.00  0.00     0.309 C 
ATOM      7  O   UNL A   1      34.989  22.464  22.737  1.00  0.00    -0.252 OA
BRANCH   6   8
ATOM      8  C   UNL A   1      33.776  22.422  24.807  1.00  0.00     0.106 C 
BRANCH   8   9
ATOM      9  C   UNL A   1      32.285  22.147  24.510  1.00  0.00     0.047 C 
BRANCH   9  10
ATOM     10  C   UNL A   1      31.334  22.837  25.506  1.00  0.00     0.112 C 
ATOM     11  C   UNL A   1      32.082  23.594  26.594  1.00  0.00     0.038 C 
BRANCH  10  12
ATOM     12  O   UNL A   1      30.511  21.842  26.105  1.00  0.00    -0.393 OA
ATOM     13  H   UNL A   1      30.251  22.130  26.994  1.00  0.00     0.210 HD
ENDBRANCH  10  12
ENDBRANCH   9  10
ENDBRANCH   8   9
BRANCH   8  14
ATOM     14  C   UNL A   1      34.594  21.184  25.242  1.00  0.00     0.051 C 
BRANCH  14  15
ATOM     15  C   UNL A   1      34.076  19.893  24.648  1.00  0.00    -0.046 A 
ATOM     16  C   UNL A   1      32.899  19.892  23.882  1.00  0.00     0.004 A 
ATOM     17  C   UNL A   1      34.695  18.673  24.941  1.00  0.00     0.019 A 
ATOM     18  C   UNL A   1      32.317  18.692  23.478  1.00  0.00     0.001 A 
ATOM     19  C   UNL A   1      34.109  17.476  24.532  1.00  0.00     0.018 A 
ATOM     20  C   UNL A   1      32.917  17.479  23.813  1.00  0.00     0.016 A 
ATOM     21  Br  UNL A   1      34.924  15.834  24.997  1.00  0.00    -0.051 Br
ENDBRANCH  14  15
ENDBRANCH   8  14
ENDBRANCH   6   8
ENDBRANCH   5   6
ENDBRANCH   4   5
ENDBRANCH   3   4
ENDBRANCH   2   3
ENDBRANCH   1   2
BRANCH   1  22
ATOM     22  C   UNL A   1      32.297  27.980  26.386  1.00  0.00     0.188 C 
BRANCH  22  23
ATOM     23  O   UNL A   1      31.225  28.327  25.519  1.00  0.00    -0.376 OA
BRANCH  23  24
ATOM     24  C   UNL A   1      31.169  29.707  25.142  1.00  0.00     0.202 C 
BRANCH  24  25
ATOM     25  C   UNL A   1      32.316  30.591  25.682  1.00  0.00     0.261 C 
BRANCH  25  26
ATOM     26  O   UNL A   1      32.073  31.227  26.958  1.00  0.00    -0.460 OA
BRANCH  26  27
ATOM     27  C   UNL A   1      32.774  32.349  27.249  1.00  0.00     0.338 C 
ATOM     28  O   UNL A   1      32.335  33.489  27.246  1.00  0.00    -0.246 OA
BRANCH  27  29
ATOM     29  C   UNL A   1      34.084  31.960  27.846  1.00  0.00     0.060 A 
ATOM     30  C   UNL A   1      34.284  30.613  28.183  1.00  0.00     0.016 A 
ATOM     31  C   UNL A   1      35.137  32.869  27.997  1.00  0.00     0.016 A 
ATOM     32  C   UNL A   1      35.507  30.183  28.710  1.00  0.00     0.010 A 
ATOM     33  C   UNL A   1      36.358  32.440  28.538  1.00  0.00     0.010 A 
ATOM     34  C   UNL A   1      36.542  31.102  28.932  1.00  0.00    -0.014 A 
BRANCH  34  35
ATOM     35  C   UNL A   1      37.733  30.717  29.738  1.00  0.00     0.031 A 
ATOM     36  C   UNL A   1      38.698  29.714  29.155  1.00  0.00     0.074 A 
ATOM     37  C   UNL A   1      37.967  31.218  30.967  1.00  0.00     0.049 A 
ATOM     38  N   UNL A   1      39.771  29.186  29.685  1.00  0.00    -0.248 NA
ATOM     39  C   UNL A   1      38.407  29.243  27.790  1.00  0.00     0.031 C 
ATOM     40  C   UNL A   1      37.134  32.199  31.658  1.00  0.00     0.029 A 
ATOM     41  N   UNL A   1      38.973  30.940  31.865  1.00  0.00    -0.354 N 
ATOM     42  C   UNL A   1      40.266  28.300  28.735  1.00  0.00     0.074 A 
ATOM     43  C   UNL A   1      39.374  28.358  27.598  1.00  0.00     0.031 C 
ATOM     44  C   UNL A   1      37.642  32.414  32.886  1.00  0.00     0.029 A 
ATOM     45  C   UNL A   1      38.822  31.570  33.079  1.00  0.00     0.049 A 
ATOM     46  H   UNL A   1      39.730  30.345  31.658  1.00  0.00     0.167 HD
ATOM     47  C   UNL A   1      41.370  27.518  28.792  1.00  0.00     0.034 A 
ATOM     48  C   UNL A   1      39.535  31.462  34.220  1.00  0.00     0.034 A 
ATOM     49  C   UNL A   1      42.277  27.466  29.905  1.00  0.00     0.049 A 
ATOM     50  C   UNL A   1      40.743  30.554  34.268  1.00  0.00     0.074 A 
ATOM     51  C   UNL A   1      43.449  26.738  30.022  1.00  0.00     0.029 A 
ATOM     52  N   UNL A   1      42.112  28.151  31.097  1.00  0.00    -0.354 N 
ATOM     53  N   UNL A   1      41.271  29.826  33.316  1.00  0.00    -0.248 NA
ATOM     54  C   UNL A   1      41.472  30.478  35.546  1.00  0.00     0.031 C 
ATOM     55  C   UNL A   1      43.977  26.959  31.297  1.00  0.00     0.029 A 
ATOM     56  C   UNL A   1      43.151  27.851  31.962  1.00  0.00     0.049 A 
ATOM     57  H   UNL A   1      41.366  28.761  31.300  1.00  0.00     0.167 HD
ATOM     58  C   UNL A   1      42.410  29.240  33.865  1.00  0.00     0.074 A 
ATOM     59  C   UNL A   1      42.508  29.714  35.228  1.00  0.00     0.031 C 
ATOM     60  C   UNL A   1      43.284  28.373  33.296  1.00  0.00     0.034 A 
BRANCH  47  61
ATOM     61  C   UNL A   1      41.680  26.661  27.595  1.00  0.00     0.023 A 
ATOM     62  C   UNL A   1      42.341  27.226  26.486  1.00  0.00     0.012 A 
ATOM     63  C   UNL A   1      41.389  25.282  27.603  1.00  0.00     0.148 A 
ATOM     64  C   UNL A   1      42.688  26.437  25.392  1.00  0.00     0.002 A 
ATOM     65  C   UNL A   1      41.776  24.494  26.526  1.00  0.00     0.091 A 
ATOM     66  F   UNL A   1      40.741  24.772  28.658  1.00  0.00    -0.205 F 
ATOM     67  C   UNL A   1      42.417  25.071  25.417  1.00  0.00     0.022 A 
BRANCH  65  68
ATOM     68  S   UNL A   1      41.543  22.713  26.495  1.00  0.00     0.127 S 
ATOM     69  O   UNL A   1      42.276  22.342  25.285  1.00  0.00    -0.237 OA
ATOM     70  O   UNL A   1      42.180  22.299  27.744  1.00  0.00    -0.237 OA
ATOM     71  O   UNL A   1      40.104  22.496  26.443  1.00  0.00    -0.744 OA
ENDBRANCH  65  68
ENDBRANCH  47  61
BRANCH  48  72
ATOM     72  C   UNL A   1      39.146  32.242  35.432  1.00  0.00     0.023 A 
ATOM     73  C   UNL A   1      38.222  31.695  36.346  1.00  0.00     0.012 A 
ATOM     74  C   UNL A   1      39.657  33.533  35.666  1.00  0.00     0.148 A 
ATOM     75  C   UNL A   1      37.787  32.433  37.447  1.00  0.00     0.002 A 
ATOM     76  C   UNL A   1      39.262  34.241  36.796  1.00  0.00     0.091 A 
ATOM     77  F   UNL A   1      40.512  34.050  34.772  1.00  0.00    -0.205 F 
ATOM     78  C   UNL A   1      38.314  33.701  37.678  1.00  0.00     0.022 A 
BRANCH  76  79
ATOM     79  S   UNL A   1      39.971  35.833  37.231  1.00  0.00     0.127 S 
ATOM     80  O   UNL A   1      41.382  35.497  37.401  1.00  0.00    -0.237 OA
ATOM     81  O   UNL A   1      39.669  36.634  36.044  1.00  0.00    -0.237 OA
ATOM     82  O   UNL A   1      39.270  36.257  38.435  1.00  0.00    -0.744 OA
ENDBRANCH  76  79
ENDBRANCH  48  72
BRANCH  60  83
ATOM     83  C   UNL A   1      44.460  27.904  34.117  1.00  0.00     0.023 A 
ATOM     84  C   UNL A   1      45.652  28.653  34.131  1.00  0.00     0.012 A 
ATOM     85  C   UNL A   1      44.353  26.764  34.942  1.00  0.00     0.148 A 
ATOM     86  C   UNL A   1      46.730  28.261  34.927  1.00  0.00     0.002 A 
ATOM     87  C   UNL A   1      45.413  26.406  35.768  1.00  0.00     0.091 A 
ATOM     88  F   UNL A   1      43.216  26.053  34.907  1.00  0.00    -0.205 F 
ATOM     89  C   UNL A   1      46.607  27.146  35.752  1.00  0.00     0.022 A 
BRANCH  87  90
ATOM     90  S   UNL A   1      45.310  25.044  36.935  1.00  0.00     0.127 S 
ATOM     91  O   UNL A   1      46.705  24.614  37.015  1.00  0.00    -0.237 OA
ATOM     92  O   UNL A   1      44.805  25.702  38.141  1.00  0.00    -0.237 OA
ATOM     93  O   UNL A   1      44.392  24.079  36.346  1.00  0.00    -0.744 OA
ENDBRANCH  87  90
ENDBRANCH  60  83
ENDBRANCH  34  35
ENDBRANCH  27  29
ENDBRANCH  26  27
ENDBRANCH  25  26
ENDBRANCH  24  25
ENDBRANCH  23  24
ENDBRANCH  22  23
ENDBRANCH   1  22
TORSDOF 25
ENDMDL
MODEL 3
REMARK VINA RESULT:      -9.2      1.845      2.688
REMARK SMILES C[C@H](O)C[C@@H](Cc1cccc(Br)c1)C(=O)OCCOCCOCCOC(=O)c1ccc(-c2c3nc(c(-c4cccc(S(=O)(=O)[O-])c4F)c4ccc([nH]4)c(-c4cccc(S(=O)(=O)[O-])c4F)c4nc(c(-c5cccc(S(=O)(=O)[O-])c5F)c5ccc2[nH]5)C=C4)C=C3)cc1
REMARK SMILES IDX 20 1 19 2 18 3 17 4 16 5 14 6 15 7 5 8 4 9 2 10 1 11 3 12
REMARK SMILES IDX 6 14 7 15 8 16 13 17 9 18 11 19 10 20 12 21 21 22 22 23
REMARK SMILES IDX 23 24 24 25 25 26 26 27 27 28 28 29 29 30 90 31 30 32 89 33
REMARK SMILES IDX 31 34 32 35 33 36 83 37 34 38 88 39 82 40 84 41 35 42 87 43
REMARK SMILES IDX 81 44 80 45 36 47 68 48 48 49 67 50 49 51 52 52 66 53 85 54
REMARK SMILES IDX 50 55 51 56 65 58 86 59 53 60 37 61 38 62 46 63 39 64 41 65
REMARK SMILES IDX 47 66 40 67 42 68 43 69 44 70 45 71 69 72 70 73 78 74 71 75
REMARK SMILES IDX 73 76 79 77 72 78 74 79 75 80 76 81 77 82 54 83 55 84 63 85
REMARK SMILES IDX 56 86 58 87 64 88 57 89 59 90 60 91 61 92 62 93
REMARK H PARENT 3 13 84 46 52 57
REMARK Flexibility Score: inf
ROOT
ATOM      1  C   UNL A   1      33.563  27.246  26.065  1.00  0.00     0.188 C 
ENDROOT
BRANCH   1   2
ATOM      2  O   UNL A   1      33.594  27.313  24.648  1.00  0.00    -0.376 OA
BRANCH   2   3
ATOM      3  C   UNL A   1      32.989  26.237  23.940  1.00  0.00     0.202 C 
BRANCH   3   4
ATOM      4  C   UNL A   1      33.895  25.074  23.517  1.00  0.00     0.261 C 
BRANCH   4   5
ATOM      5  O   UNL A   1      34.738  24.522  24.554  1.00  0.00    -0.463 OA
BRANCH   5   6
ATOM      6  C   UNL A   1      34.890  23.167  24.520  1.00  0.00     0.309 C 
ATOM      7  O   UNL A   1      35.548  22.567  23.675  1.00  0.00    -0.252 OA
BRANCH   6   8
ATOM      8  C   UNL A   1      34.061  22.415  25.553  1.00  0.00     0.106 C 
BRANCH   8   9
ATOM      9  C   UNL A   1      32.529  22.448  25.347  1.00  0.00     0.047 C 
BRANCH   9  10
ATOM     10  C   UNL A   1      31.746  22.577  26.667  1.00  0.00     0.112 C 
ATOM     11  C   UNL A   1      30.426  23.315  26.489  1.00  0.00     0.038 C 
BRANCH  10  12
ATOM     12  O   UNL A   1      32.556  23.279  27.605  1.00  0.00    -0.393 OA
ATOM     13  H   UNL A   1      33.007  24.012  27.156  1.00  0.00     0.210 HD
ENDBRANCH  10  12
ENDBRANCH   9  10
ENDBRANCH   8   9
BRANCH   8  14
ATOM     14  C   UNL A   1      34.672  21.000  25.671  1.00  0.00     0.051 C 
BRANCH  14  15
ATOM     15  C   UNL A   1      33.717  19.905  25.252  1.00  0.00    -0.046 A 
ATOM     16  C   UNL A   1      33.268  18.963  26.191  1.00  0.00     0.004 A 
ATOM     17  C   UNL A   1      33.355  19.749  23.909  1.00  0.00     0.019 A 
ATOM     18  C   UNL A   1      32.532  17.851  25.785  1.00  0.00     0.001 A 
ATOM     19  C   UNL A   1      32.617  18.636  23.509  1.00  0.00     0.018 A 
ATOM     20  C   UNL A   1      32.214  17.680  24.439  1.00  0.00     0.016 A 
ATOM     21  Br  UNL A   1      32.196  18.405  21.680  1.00  0.00    -0.051 Br
ENDBRANCH  14  15
ENDBRANCH   8  14
ENDBRANCH   6   8
ENDBRANCH   5   6
ENDBRANCH   4   5
ENDBRANCH   3   4
ENDBRANCH   2   3
ENDBRANCH   1   2
BRANCH   1  22
ATOM     22  C   UNL A   1      32.491  28.080  26.770  1.00  0.00     0.188 C 
BRANCH  22  23
ATOM     23  O   UNL A   1      31.530  28.724  25.946  1.00  0.00    -0.376 OA
BRANCH  23  24
ATOM     24  C   UNL A   1      31.741  30.126  25.742  1.00  0.00     0.202 C 
BRANCH  24  25
ATOM     25  C   UNL A   1      33.073  30.684  26.293  1.00  0.00     0.261 C 
BRANCH  25  26
ATOM     26  O   UNL A   1      32.990  31.375  27.560  1.00  0.00    -0.460 OA
BRANCH  26  27
ATOM     27  C   UNL A   1      33.890  32.357  27.806  1.00  0.00     0.338 C 
ATOM     28  O   UNL A   1      33.648  33.552  27.877  1.00  0.00    -0.246 OA
BRANCH  27  29
ATOM     29  C   UNL A   1      35.172  31.737  28.253  1.00  0.00     0.060 A 
ATOM     30  C   UNL A   1      35.175  30.365  28.546  1.00  0.00     0.016 A 
ATOM     31  C   UNL A   1      36.372  32.454  28.306  1.00  0.00     0.016 A 
ATOM     32  C   UNL A   1      36.357  29.721  28.933  1.00  0.00     0.010 A 
ATOM     33  C   UNL A   1      37.552  31.811  28.707  1.00  0.00     0.010 A 
ATOM     34  C   UNL A   1      37.548  30.448  29.057  1.00  0.00    -0.014 A 
BRANCH  34  35
ATOM     35  C   UNL A   1      38.734  29.845  29.726  1.00  0.00     0.031 A 
ATOM     36  C   UNL A   1      39.147  30.385  31.073  1.00  0.00     0.074 A 
ATOM     37  C   UNL A   1      39.453  28.852  29.166  1.00  0.00     0.049 A 
ATOM     38  N   UNL A   1      40.170  30.061  31.822  1.00  0.00    -0.248 NA
ATOM     39  C   UNL A   1      38.290  31.436  31.648  1.00  0.00     0.031 C 
ATOM     40  C   UNL A   1      39.174  28.222  27.878  1.00  0.00     0.029 A 
ATOM     41  N   UNL A   1      40.594  28.220  29.609  1.00  0.00    -0.354 N 
ATOM     42  C   UNL A   1      40.098  30.885  32.938  1.00  0.00     0.074 A 
ATOM     43  C   UNL A   1      38.935  31.729  32.767  1.00  0.00     0.031 C 
ATOM     44  C   UNL A   1      40.138  27.319  27.617  1.00  0.00     0.029 A 
ATOM     45  C   UNL A   1      41.115  27.322  28.706  1.00  0.00     0.049 A 
ATOM     46  H   UNL A   1      40.999  28.396  30.489  1.00  0.00     0.167 HD
ATOM     47  C   UNL A   1      40.913  30.932  34.018  1.00  0.00     0.034 A 
ATOM     48  C   UNL A   1      42.257  26.604  28.741  1.00  0.00     0.034 A 
ATOM     49  C   UNL A   1      42.060  30.087  34.212  1.00  0.00     0.049 A 
ATOM     50  C   UNL A   1      43.170  26.701  29.943  1.00  0.00     0.074 A 
ATOM     51  C   UNL A   1      42.910  30.034  35.303  1.00  0.00     0.029 A 
ATOM     52  N   UNL A   1      42.528  29.161  33.296  1.00  0.00    -0.354 N 
ATOM     53  N   UNL A   1      43.015  27.388  31.048  1.00  0.00    -0.248 NA
ATOM     54  C   UNL A   1      44.403  25.895  29.913  1.00  0.00     0.031 C 
ATOM     55  C   UNL A   1      43.912  29.097  35.034  1.00  0.00     0.029 A 
ATOM     56  C   UNL A   1      43.666  28.543  33.788  1.00  0.00     0.049 A 
ATOM     57  H   UNL A   1      42.114  28.971  32.423  1.00  0.00     0.167 HD
ATOM     58  C   UNL A   1      44.104  27.069  31.855  1.00  0.00     0.074 A 
ATOM     59  C   UNL A   1      44.902  26.110  31.123  1.00  0.00     0.031 C 
ATOM     60  C   UNL A   1      44.423  27.542  33.086  1.00  0.00     0.034 A 
BRANCH  47  61
ATOM     61  C   UNL A   1      40.583  31.923  35.101  1.00  0.00     0.023 A 
ATOM     62  C   UNL A   1      41.306  33.129  35.186  1.00  0.00     0.012 A 
ATOM     63  C   UNL A   1      39.507  31.693  35.981  1.00  0.00     0.148 A 
ATOM     64  C   UNL A   1      40.979  34.083  36.146  1.00  0.00     0.002 A 
ATOM     65  C   UNL A   1      39.160  32.669  36.908  1.00  0.00     0.091 A 
ATOM     66  F   UNL A   1      38.848  30.530  35.896  1.00  0.00    -0.205 F 
ATOM     67  C   UNL A   1      39.899  33.859  36.998  1.00  0.00     0.022 A 
BRANCH  65  68
ATOM     68  S   UNL A   1      37.740  32.511  37.996  1.00  0.00     0.127 S 
ATOM     69  O   UNL A   1      38.047  33.502  39.026  1.00  0.00    -0.237 OA
ATOM     70  O   UNL A   1      36.633  32.874  37.111  1.00  0.00    -0.237 OA
ATOM     71  O   UNL A   1      37.730  31.126  38.448  1.00  0.00    -0.744 OA
ENDBRANCH  65  68
ENDBRANCH  47  61
BRANCH  48  72
ATOM     72  C   UNL A   1      42.621  25.706  27.605  1.00  0.00     0.023 A 
ATOM     73  C   UNL A   1      43.440  26.193  26.566  1.00  0.00     0.012 A 
ATOM     74  C   UNL A   1      42.135  24.387  27.531  1.00  0.00     0.148 A 
ATOM     75  C   UNL A   1      43.735  25.397  25.459  1.00  0.00     0.002 A 
ATOM     76  C   UNL A   1      42.478  23.580  26.452  1.00  0.00     0.091 A 
ATOM     77  F   UNL A   1      41.334  23.949  28.513  1.00  0.00    -0.205 F 
ATOM     78  C   UNL A   1      43.263  24.089  25.405  1.00  0.00     0.022 A 
BRANCH  76  79
ATOM     79  S   UNL A   1      42.006  21.849  26.355  1.00  0.00     0.127 S 
ATOM     80  O   UNL A   1      42.814  21.381  25.233  1.00  0.00    -0.237 OA
ATOM     81  O   UNL A   1      42.423  21.347  27.666  1.00  0.00    -0.237 OA
ATOM     82  O   UNL A   1      40.565  21.849  26.144  1.00  0.00    -0.744 OA
ENDBRANCH  76  79
ENDBRANCH  48  72
BRANCH  60  83
ATOM     83  C   UNL A   1      45.665  27.006  33.756  1.00  0.00     0.023 A 
ATOM     84  C   UNL A   1      46.887  27.692  33.625  1.00  0.00     0.012 A 
ATOM     85  C   UNL A   1      45.600  25.866  34.586  1.00  0.00     0.148 A 
ATOM     86  C   UNL A   1      48.032  27.238  34.280  1.00  0.00     0.002 A 
ATOM     87  C   UNL A   1      46.734  25.447  35.274  1.00  0.00     0.091 A 
ATOM     88  F   UNL A   1      44.433  25.215  34.689  1.00  0.00    -0.205 F 
ATOM     89  C   UNL A   1      47.953  26.124  35.113  1.00  0.00     0.022 A 
BRANCH  87  90
ATOM     90  S   UNL A   1      46.704  24.083  36.443  1.00  0.00     0.127 S 
ATOM     91  O   UNL A   1      48.109  23.998  36.839  1.00  0.00    -0.237 OA
ATOM     92  O   UNL A   1      45.806  24.583  37.485  1.00  0.00    -0.237 OA
ATOM     93  O   UNL A   1      46.193  22.934  35.706  1.00  0.00    -0.744 OA
ENDBRANCH  87  90
ENDBRANCH  60  83
ENDBRANCH  34  35
ENDBRANCH  27  29
ENDBRANCH  26  27
ENDBRANCH  25  26
ENDBRANCH  24  25
ENDBRANCH  23  24
ENDBRANCH  22  23
ENDBRANCH   1  22
TORSDOF 25
ENDMDL
