MODEL 1
REMARK VINA RESULT:     -12.7      0.000      0.000
REMARK SMILES Cc1ccc(C(c2ccccc2)(c2ccccc2)n2cnc(C[C@H]([NH3+])C(=O)OCCOCCOCCOC(=O)c3ccc(-c4c5nc(c(-c6cccc(S(=O)(=O)[O-])c6F)c6ccc([nH]6)c(-c6cccc(S(=O)(=O)[O-])c6F)c6nc(c(-c7cccc(S(=O)(=O)[O-])c7F)c7ccc4[nH]7)C=C6)C=C5)cc3)c2)cc1
REMARK SMILES IDX 32 1 31 2 30 3 29 4 28 5 26 6 27 7 24 8 23 9 22 10 19 11
REMARK SMILES IDX 20 12 103 13 21 14 6 15 5 16 1 17 2 18 3 19 105 20 4 21
REMARK SMILES IDX 104 22 7 23 8 24 12 25 9 26 11 27 10 28 13 29 14 30 18 31
REMARK SMILES IDX 15 32 17 33 16 34 25 35 33 39 34 40 35 41 36 42 37 43 38 44
REMARK SMILES IDX 39 45 40 46 41 47 102 48 42 49 101 50 43 51 44 52 45 53
REMARK SMILES IDX 95 54 46 55 100 56 94 57 96 58 47 59 99 60 93 61 92 62 48 64
REMARK SMILES IDX 80 65 60 66 79 67 61 68 64 69 78 70 97 71 62 72 63 73 77 75
REMARK SMILES IDX 98 76 65 77 49 78 50 79 58 80 51 81 53 82 59 83 52 84 54 85
REMARK SMILES IDX 55 86 56 87 57 88 81 89 82 90 90 91 83 92 85 93 91 94 84 95
REMARK SMILES IDX 86 96 87 97 88 98 89 99 66 100 67 101 75 102 68 103 70 104
REMARK SMILES IDX 76 105 69 106 71 107 72 108 73 109 74 110
REMARK H PARENT 25 36 25 37 25 38 96 63 64 74
REMARK Flexibility Score: inf
ROOT
ATOM      1  C   UNL A   1      41.951  18.822  26.102  1.00  0.00     0.188 C 
ENDROOT
BRANCH   1   2
ATOM      2  O   UNL A   1      40.940  19.491  25.361  1.00  0.00    -0.376 OA
BRANCH   2   3
ATOM      3  C   UNL A   1      39.664  19.250  25.868  1.00  0.00     0.202 C 
BRANCH   3   4
ATOM      4  C   UNL A   1      38.675  20.134  25.170  1.00  0.00     0.261 C 
BRANCH   4   5
ATOM      5  O   UNL A   1      37.043  19.439  24.767  1.00  0.00    -0.459 OA
BRANCH   5   6
ATOM      6  C   UNL A   1      35.430  19.659  25.129  1.00  0.00     0.365 C 
ATOM      7  O   UNL A   1      35.256  20.660  25.823  1.00  0.00    -0.245 OA
BRANCH   6   8
ATOM      8  C   UNL A   1      33.928  18.860  24.611  1.00  0.00     0.297 C 
BRANCH   8   9
ATOM      9  C   UNL A   1      32.472  19.220  24.979  1.00  0.00     0.135 C 
BRANCH   9  10
ATOM     10  C   UNL A   1      32.153  20.636  24.953  1.00  0.00     0.065 A 
ATOM     11  N   UNL A   1      32.574  22.756  24.784  1.00  0.00    -0.319 N 
ATOM     12  C   UNL A   1      31.917  22.444  25.946  1.00  0.00     0.201 A 
ATOM     13  C   UNL A   1      32.598  21.586  24.063  1.00  0.00     0.112 A 
ATOM     14  N   UNL A   1      31.559  21.198  26.015  1.00  0.00    -0.241 NA
BRANCH  11  15
ATOM     15  C   UNL A   1      33.312  24.038  24.492  1.00  0.00     0.121 C 
BRANCH  15  16
ATOM     16  C   UNL A   1      32.907  24.437  22.979  1.00  0.00    -0.013 A 
ATOM     17  C   UNL A   1      31.963  25.486  17.902  1.00  0.00     0.044 C 
ATOM     18  C   UNL A   1      32.182  25.223  19.345  1.00  0.00    -0.051 A 
ATOM     19  C   UNL A   1      32.942  23.670  19.761  1.00  0.00     0.004 A 
ATOM     20  C   UNL A   1      31.804  26.319  20.687  1.00  0.00     0.004 A 
ATOM     21  C   UNL A   1      33.279  23.247  21.699  1.00  0.00     0.007 A 
ATOM     22  C   UNL A   1      32.150  25.930  22.418  1.00  0.00     0.007 A 
ENDBRANCH  15  16
BRANCH  15  23
ATOM     23  C   UNL A   1      32.755  25.134  25.538  1.00  0.00    -0.013 A 
ATOM     24  C   UNL A   1      31.375  25.234  25.879  1.00  0.00     0.007 A 
ATOM     25  C   UNL A   1      33.550  26.211  25.969  1.00  0.00     0.007 A 
ATOM     26  C   UNL A   1      30.836  26.324  26.577  1.00  0.00     0.000 A 
ATOM     27  C   UNL A   1      33.007  27.326  26.632  1.00  0.00     0.000 A 
ATOM     28  C   UNL A   1      31.653  27.379  26.943  1.00  0.00     0.000 A 
ENDBRANCH  15  23
BRANCH  15  29
ATOM     29  C   UNL A   1      34.843  23.669  24.718  1.00  0.00    -0.013 A 
ATOM     30  C   UNL A   1      35.489  23.989  25.928  1.00  0.00     0.007 A 
ATOM     31  C   UNL A   1      35.723  23.370  23.648  1.00  0.00     0.007 A 
ATOM     32  C   UNL A   1      36.881  23.981  26.083  1.00  0.00     0.000 A 
ATOM     33  C   UNL A   1      37.121  23.400  23.782  1.00  0.00     0.000 A 
ATOM     34  C   UNL A   1      37.701  23.697  25.004  1.00  0.00     0.000 A 
ENDBRANCH  15  29
ENDBRANCH  11  15
ENDBRANCH   9  10
ENDBRANCH   8   9
BRANCH   8  35
ATOM     35  N   UNL A   1      33.738  17.383  24.333  1.00  0.00    -0.346 N 
ATOM     36  H   UNL A   1      33.300  17.262  23.420  1.00  0.00     0.345 HD
ATOM     37  H   UNL A   1      33.140  16.976  25.053  1.00  0.00     0.345 HD
ATOM     38  H   UNL A   1      34.645  16.915  24.341  1.00  0.00     0.345 HD
ENDBRANCH   8  35
ENDBRANCH   6   8
ENDBRANCH   5   6
ENDBRANCH   4   5
ENDBRANCH   3   4
ENDBRANCH   2   3
ENDBRANCH   1   2
BRANCH   1  39
ATOM     39  C   UNL A   1      43.584  19.107  25.808  1.00  0.00     0.188 C 
BRANCH  39  40
ATOM     40  O   UNL A   1      44.170  18.218  24.930  1.00  0.00    -0.376 OA
BRANCH  40  41
ATOM     41  C   UNL A   1      44.793  19.118  24.055  1.00  0.00     0.202 C 
BRANCH  41  42
ATOM     42  C   UNL A   1      46.177  19.904  24.662  1.00  0.00     0.261 C 
BRANCH  42  43
ATOM     43  O   UNL A   1      46.234  21.451  25.506  1.00  0.00    -0.460 OA
BRANCH  43  44
ATOM     44  C   UNL A   1      45.631  22.614  26.215  1.00  0.00     0.338 C 
ATOM     45  O   UNL A   1      46.477  23.400  26.664  1.00  0.00    -0.246 OA
BRANCH  44  46
ATOM     46  C   UNL A   1      44.045  22.966  26.796  1.00  0.00     0.060 A 
ATOM     47  C   UNL A   1      43.409  23.878  26.018  1.00  0.00     0.016 A 
ATOM     48  C   UNL A   1      43.325  22.844  28.052  1.00  0.00     0.016 A 
ATOM     49  C   UNL A   1      42.645  24.887  26.668  1.00  0.00     0.010 A 
ATOM     50  C   UNL A   1      42.590  23.941  28.743  1.00  0.00     0.010 A 
ATOM     51  C   UNL A   1      42.342  25.145  28.104  1.00  0.00    -0.014 A 
BRANCH  51  52
ATOM     52  C   UNL A   1      42.145  26.711  29.037  1.00  0.00     0.031 A 
ATOM     53  C   UNL A   1      41.043  27.495  28.485  1.00  0.00     0.074 A 
ATOM     54  C   UNL A   1      42.854  27.398  30.224  1.00  0.00     0.049 A 
ATOM     55  N   UNL A   1      40.981  28.760  28.660  1.00  0.00    -0.248 NA
ATOM     56  C   UNL A   1      40.099  27.007  27.484  1.00  0.00     0.031 C 
ATOM     57  C   UNL A   1      42.295  28.031  31.499  1.00  0.00     0.029 A 
ATOM     58  N   UNL A   1      44.114  27.070  30.870  1.00  0.00    -0.354 N 
ATOM     59  C   UNL A   1      39.800  29.160  28.111  1.00  0.00     0.074 A 
ATOM     60  C   UNL A   1      39.470  28.139  27.161  1.00  0.00     0.031 C 
ATOM     61  C   UNL A   1      43.220  28.056  32.528  1.00  0.00     0.029 A 
ATOM     62  C   UNL A   1      44.519  27.535  32.081  1.00  0.00     0.049 A 
ATOM     63  H   UNL A   1      44.723  26.462  30.392  1.00  0.00     0.167 HD
ATOM     64  C   UNL A   1      39.111  30.122  28.770  1.00  0.00     0.034 A 
ATOM     65  C   UNL A   1      45.829  27.979  32.108  1.00  0.00     0.034 A 
ATOM     66  C   UNL A   1      39.862  30.527  30.001  1.00  0.00     0.049 A 
ATOM     67  C   UNL A   1      45.626  29.422  31.740  1.00  0.00     0.074 A 
ATOM     68  C   UNL A   1      39.659  30.313  31.356  1.00  0.00     0.029 A 
ATOM     69  N   UNL A   1      41.208  30.911  29.907  1.00  0.00    -0.354 N 
ATOM     70  N   UNL A   1      44.414  29.863  31.538  1.00  0.00    -0.248 NA
ATOM     71  C   UNL A   1      46.604  30.477  31.672  1.00  0.00     0.031 C 
ATOM     72  C   UNL A   1      40.840  30.720  32.063  1.00  0.00     0.029 A 
ATOM     73  C   UNL A   1      41.804  31.111  31.146  1.00  0.00     0.049 A 
ATOM     74  H   UNL A   1      41.682  31.027  29.051  1.00  0.00     0.167 HD
ATOM     75  C   UNL A   1      44.331  31.170  31.378  1.00  0.00     0.074 A 
ATOM     76  C   UNL A   1      45.778  31.516  31.422  1.00  0.00     0.031 C 
ATOM     77  C   UNL A   1      43.100  31.774  31.209  1.00  0.00     0.034 A 
BRANCH  64  78
ATOM     78  C   UNL A   1      37.650  30.462  28.509  1.00  0.00     0.023 A 
ATOM     79  C   UNL A   1      36.862  29.406  28.012  1.00  0.00     0.012 A 
ATOM     80  C   UNL A   1      36.973  31.702  28.687  1.00  0.00     0.148 A 
ATOM     81  C   UNL A   1      35.519  29.568  27.661  1.00  0.00     0.002 A 
ATOM     82  C   UNL A   1      35.632  31.871  28.326  1.00  0.00     0.091 A 
ATOM     83  F   UNL A   1      37.588  32.751  29.226  1.00  0.00    -0.205 F 
ATOM     84  C   UNL A   1      34.904  30.802  27.809  1.00  0.00     0.022 A 
BRANCH  82  85
ATOM     85  S   UNL A   1      34.763  33.451  28.468  1.00  0.00     0.127 S 
ATOM     86  O   UNL A   1      35.104  33.864  29.831  1.00  0.00    -0.237 OA
ATOM     87  O   UNL A   1      35.394  34.251  27.419  1.00  0.00    -0.237 OA
ATOM     88  O   UNL A   1      33.346  33.173  28.267  1.00  0.00    -0.744 OA
ENDBRANCH  82  85
ENDBRANCH  64  78
BRANCH  65  89
ATOM     89  C   UNL A   1      46.916  26.972  31.596  1.00  0.00     0.023 A 
ATOM     90  C   UNL A   1      47.154  27.046  30.197  1.00  0.00     0.012 A 
ATOM     91  C   UNL A   1      47.931  26.328  32.358  1.00  0.00     0.148 A 
ATOM     92  C   UNL A   1      48.420  26.807  29.636  1.00  0.00     0.002 A 
ATOM     93  C   UNL A   1      49.234  26.174  31.809  1.00  0.00     0.091 A 
ATOM     94  F   UNL A   1      47.685  26.007  33.637  1.00  0.00    -0.205 F 
ATOM     95  C   UNL A   1      49.480  26.456  30.457  1.00  0.00     0.022 A 
BRANCH  93  96
ATOM     96  S   UNL A   1      50.754  26.004  32.824  1.00  0.00     0.127 S 
ATOM     97  O   UNL A   1      50.398  26.753  34.028  1.00  0.00    -0.237 OA
ATOM     98  O   UNL A   1      50.842  24.552  33.033  1.00  0.00    -0.237 OA
ATOM     99  O   UNL A   1      51.853  26.578  32.061  1.00  0.00    -0.744 OA
ENDBRANCH  93  96
ENDBRANCH  65  89
BRANCH  77 100
ATOM    100  C   UNL A   1      43.094  33.214  30.854  1.00  0.00     0.023 A 
ATOM    101  C   UNL A   1      43.120  34.232  32.301  1.00  0.00     0.012 A 
ATOM    102  C   UNL A   1      43.914  33.641  29.327  1.00  0.00     0.148 A 
ATOM    103  C   UNL A   1      44.103  35.640  32.450  1.00  0.00     0.002 A 
ATOM    104  C   UNL A   1      44.944  35.118  29.294  1.00  0.00     0.091 A 
ATOM    105  F   UNL A   1      43.623  32.960  28.216  1.00  0.00    -0.205 F 
ATOM    106  C   UNL A   1      45.060  36.156  31.023  1.00  0.00     0.022 A 
BRANCH 104 107
ATOM    107  S   UNL A   1      45.278  35.420  27.311  1.00  0.00     0.127 S 
ATOM    108  O   UNL A   1      43.947  35.305  26.707  1.00  0.00    -0.237 OA
ATOM    109  O   UNL A   1      45.895  36.741  27.191  1.00  0.00    -0.237 OA
ATOM    110  O   UNL A   1      46.188  34.345  26.940  1.00  0.00    -0.744 OA
ENDBRANCH 104 107
ENDBRANCH  77 100
ENDBRANCH  51  52
ENDBRANCH  44  46
ENDBRANCH  43  44
ENDBRANCH  42  43
ENDBRANCH  41  42
ENDBRANCH  40  41
ENDBRANCH  39  40
ENDBRANCH   1  39
TORSDOF 27
ENDMDL
MODEL 2
REMARK VINA RESULT:     -12.4      7.649     15.149
REMARK SMILES Cc1ccc(C(c2ccccc2)(c2ccccc2)n2cnc(C[C@H]([NH3+])C(=O)OCCOCCOCCOC(=O)c3ccc(-c4c5nc(c(-c6cccc(S(=O)(=O)[O-])c6F)c6ccc([nH]6)c(-c6cccc(S(=O)(=O)[O-])c6F)c6nc(c(-c7cccc(S(=O)(=O)[O-])c7F)c7ccc4[nH]7)C=C6)C=C5)cc3)c2)cc1
REMARK SMILES IDX 32 1 31 2 30 3 29 4 28 5 26 6 27 7 24 8 23 9 22 10 19 11
REMARK SMILES IDX 20 12 103 13 21 14 6 15 5 16 1 17 2 18 3 19 105 20 4 21
REMARK SMILES IDX 104 22 7 23 8 24 12 25 9 26 11 27 10 28 13 29 14 30 18 31
REMARK SMILES IDX 15 32 17 33 16 34 25 35 33 39 34 40 35 41 36 42 37 43 38 44
REMARK SMILES IDX 39 45 40 46 41 47 102 48 42 49 101 50 43 51 44 52 45 53
REMARK SMILES IDX 95 54 46 55 100 56 94 57 96 58 47 59 99 60 93 61 92 62 48 64
REMARK SMILES IDX 80 65 60 66 79 67 61 68 64 69 78 70 97 71 62 72 63 73 77 75
REMARK SMILES IDX 98 76 65 77 49 78 50 79 58 80 51 81 53 82 59 83 52 84 54 85
REMARK SMILES IDX 55 86 56 87 57 88 81 89 82 90 90 91 83 92 85 93 91 94 84 95
REMARK SMILES IDX 86 96 87 97 88 98 89 99 66 100 67 101 75 102 68 103 70 104
REMARK SMILES IDX 76 105 69 106 71 107 72 108 73 109 74 110
REMARK H PARENT 25 36 25 37 25 38 96 63 64 74
REMARK Flexibility Score: inf
ROOT
ATOM      1  C   UNL A   1      43.680  25.900  34.996  1.00  0.00     0.188 C 
ENDROOT
BRANCH   1   2
ATOM      2  O   UNL A   1      42.854  25.221  35.931  1.00  0.00    -0.376 OA
BRANCH   2   3
ATOM      3  C   UNL A   1      42.441  23.974  35.466  1.00  0.00     0.202 C 
BRANCH   3   4
ATOM      4  C   UNL A   1      43.468  23.430  34.519  1.00  0.00     0.261 C 
BRANCH   4   5
ATOM      5  O   UNL A   1      44.633  22.181  35.147  1.00  0.00    -0.459 OA
BRANCH   5   6
ATOM      6  C   UNL A   1      45.500  21.813  36.523  1.00  0.00     0.365 C 
ATOM      7  O   UNL A   1      45.936  20.663  36.487  1.00  0.00    -0.245 OA
BRANCH   6   8
ATOM      8  C   UNL A   1      46.043  22.756  37.929  1.00  0.00     0.297 C 
BRANCH   8   9
ATOM      9  C   UNL A   1      45.363  22.903  39.308  1.00  0.00     0.135 C 
BRANCH   9  10
ATOM     10  C   UNL A   1      45.689  21.874  40.279  1.00  0.00     0.065 A 
ATOM     11  N   UNL A   1      46.131  19.863  40.956  1.00  0.00    -0.319 N 
ATOM     12  C   UNL A   1      45.080  20.422  41.633  1.00  0.00     0.201 A 
ATOM     13  C   UNL A   1      46.626  20.873  40.166  1.00  0.00     0.112 A 
ATOM     14  N   UNL A   1      44.870  21.665  41.319  1.00  0.00    -0.241 NA
BRANCH  11  15
ATOM     15  C   UNL A   1      46.491  18.399  40.917  1.00  0.00     0.121 C 
BRANCH  15  16
ATOM     16  C   UNL A   1      46.582  17.933  42.463  1.00  0.00    -0.013 A 
ATOM     17  C   UNL A   1      46.696  15.997  47.363  1.00  0.00     0.044 C 
ATOM     18  C   UNL A   1      46.687  16.592  46.004  1.00  0.00    -0.051 A 
ATOM     19  C   UNL A   1      46.897  15.465  44.644  1.00  0.00     0.004 A 
ATOM     20  C   UNL A   1      46.440  18.301  45.602  1.00  0.00     0.004 A 
ATOM     21  C   UNL A   1      46.886  16.199  42.770  1.00  0.00     0.007 A 
ATOM     22  C   UNL A   1      46.398  18.931  43.908  1.00  0.00     0.007 A 
ENDBRANCH  15  16
BRANCH  15  23
ATOM     23  C   UNL A   1      45.274  17.649  40.168  1.00  0.00    -0.013 A 
ATOM     24  C   UNL A   1      44.211  17.018  40.879  1.00  0.00     0.007 A 
ATOM     25  C   UNL A   1      45.326  17.351  38.795  1.00  0.00     0.007 A 
ATOM     26  C   UNL A   1      43.291  16.153  40.269  1.00  0.00     0.000 A 
ATOM     27  C   UNL A   1      44.432  16.451  38.188  1.00  0.00     0.000 A 
ATOM     28  C   UNL A   1      43.410  15.859  38.922  1.00  0.00     0.000 A 
ENDBRANCH  15  23
BRANCH  15  29
ATOM     29  C   UNL A   1      47.858  18.352  40.106  1.00  0.00    -0.013 A 
ATOM     30  C   UNL A   1      49.055  17.962  40.737  1.00  0.00     0.007 A 
ATOM     31  C   UNL A   1      48.042  19.033  38.877  1.00  0.00     0.007 A 
ATOM     32  C   UNL A   1      50.325  18.189  40.189  1.00  0.00     0.000 A 
ATOM     33  C   UNL A   1      49.311  19.304  38.339  1.00  0.00     0.000 A 
ATOM     34  C   UNL A   1      50.455  18.873  38.992  1.00  0.00     0.000 A 
ENDBRANCH  15  29
ENDBRANCH  11  15
ENDBRANCH   9  10
ENDBRANCH   8   9
BRANCH   8  35
ATOM     35  N   UNL A   1      46.796  24.071  37.902  1.00  0.00    -0.346 N 
ATOM     36  H   UNL A   1      46.134  24.840  37.806  1.00  0.00     0.345 HD
ATOM     37  H   UNL A   1      47.441  24.077  37.112  1.00  0.00     0.345 HD
ATOM     38  H   UNL A   1      47.322  24.181  38.770  1.00  0.00     0.345 HD
ENDBRANCH   8  35
ENDBRANCH   6   8
ENDBRANCH   5   6
ENDBRANCH   4   5
ENDBRANCH   3   4
ENDBRANCH   2   3
ENDBRANCH   1   2
BRANCH   1  39
ATOM     39  C   UNL A   1      43.093  27.184  34.079  1.00  0.00     0.188 C 
BRANCH  39  40
ATOM     40  O   UNL A   1      41.731  27.384  34.182  1.00  0.00    -0.376 OA
BRANCH  40  41
ATOM     41  C   UNL A   1      41.517  28.182  33.050  1.00  0.00     0.202 C 
BRANCH  41  42
ATOM     42  C   UNL A   1      39.900  28.623  32.750  1.00  0.00     0.261 C 
BRANCH  42  43
ATOM     43  O   UNL A   1      39.004  29.944  33.500  1.00  0.00    -0.460 OA
BRANCH  43  44
ATOM     44  C   UNL A   1      38.852  31.325  34.037  1.00  0.00     0.338 C 
ATOM     45  O   UNL A   1      37.923  31.430  34.850  1.00  0.00    -0.246 OA
BRANCH  44  46
ATOM     46  C   UNL A   1      39.487  32.862  33.577  1.00  0.00     0.060 A 
ATOM     47  C   UNL A   1      38.842  33.376  32.499  1.00  0.00     0.016 A 
ATOM     48  C   UNL A   1      40.719  33.604  33.779  1.00  0.00     0.016 A 
ATOM     49  C   UNL A   1      39.627  34.019  31.502  1.00  0.00     0.010 A 
ATOM     50  C   UNL A   1      41.557  34.208  32.704  1.00  0.00     0.010 A 
ATOM     51  C   UNL A   1      41.087  34.302  31.404  1.00  0.00    -0.014 A 
BRANCH  51  52
ATOM     52  C   UNL A   1      42.224  34.317  29.965  1.00  0.00     0.031 A 
ATOM     53  C   UNL A   1      42.536  32.951  29.553  1.00  0.00     0.074 A 
ATOM     54  C   UNL A   1      42.931  35.393  29.114  1.00  0.00     0.049 A 
ATOM     55  N   UNL A   1      43.598  32.689  28.890  1.00  0.00    -0.248 NA
ATOM     56  C   UNL A   1      41.871  31.757  30.066  1.00  0.00     0.031 C 
ATOM     57  C   UNL A   1      43.026  35.574  27.599  1.00  0.00     0.029 A 
ATOM     58  N   UNL A   1      43.073  36.820  29.351  1.00  0.00    -0.354 N 
ATOM     59  C   UNL A   1      43.537  31.362  28.586  1.00  0.00     0.074 A 
ATOM     60  C   UNL A   1      42.657  30.800  29.568  1.00  0.00     0.031 C 
ATOM     61  C   UNL A   1      43.269  36.888  27.235  1.00  0.00     0.029 A 
ATOM     62  C   UNL A   1      43.448  37.737  28.421  1.00  0.00     0.049 A 
ATOM     63  H   UNL A   1      42.882  37.150  30.260  1.00  0.00     0.167 HD
ATOM     64  C   UNL A   1      43.974  30.992  27.360  1.00  0.00     0.034 A 
ATOM     65  C   UNL A   1      44.402  38.635  28.863  1.00  0.00     0.034 A 
ATOM     66  C   UNL A   1      44.443  32.198  26.605  1.00  0.00     0.049 A 
ATOM     67  C   UNL A   1      45.655  37.895  28.486  1.00  0.00     0.074 A 
ATOM     68  C   UNL A   1      43.929  32.911  25.533  1.00  0.00     0.029 A 
ATOM     69  N   UNL A   1      45.381  33.066  27.183  1.00  0.00    -0.354 N 
ATOM     70  N   UNL A   1      45.556  36.743  27.881  1.00  0.00    -0.248 NA
ATOM     71  C   UNL A   1      47.023  38.330  28.601  1.00  0.00     0.031 C 
ATOM     72  C   UNL A   1      44.677  34.129  25.395  1.00  0.00     0.029 A 
ATOM     73  C   UNL A   1      45.599  34.211  26.428  1.00  0.00     0.049 A 
ATOM     74  H   UNL A   1      45.838  32.883  28.036  1.00  0.00     0.167 HD
ATOM     75  C   UNL A   1      46.704  36.253  27.453  1.00  0.00     0.074 A 
ATOM     76  C   UNL A   1      47.629  37.291  27.988  1.00  0.00     0.031 C 
ATOM     77  C   UNL A   1      46.736  35.066  26.749  1.00  0.00     0.034 A 
BRANCH  64  78
ATOM     78  C   UNL A   1      43.689  29.640  26.719  1.00  0.00     0.023 A 
ATOM     79  C   UNL A   1      42.338  29.389  26.412  1.00  0.00     0.012 A 
ATOM     80  C   UNL A   1      44.596  28.591  26.399  1.00  0.00     0.148 A 
ATOM     81  C   UNL A   1      41.899  28.174  25.878  1.00  0.00     0.002 A 
ATOM     82  C   UNL A   1      44.160  27.369  25.877  1.00  0.00     0.091 A 
ATOM     83  F   UNL A   1      45.908  28.740  26.566  1.00  0.00    -0.205 F 
ATOM     84  C   UNL A   1      42.807  27.159  25.619  1.00  0.00     0.022 A 
BRANCH  82  85
ATOM     85  S   UNL A   1      45.275  25.988  25.529  1.00  0.00     0.127 S 
ATOM     86  O   UNL A   1      45.819  25.695  26.857  1.00  0.00    -0.237 OA
ATOM     87  O   UNL A   1      44.362  24.969  25.013  1.00  0.00    -0.237 OA
ATOM     88  O   UNL A   1      46.265  26.474  24.575  1.00  0.00    -0.744 OA
ENDBRANCH  82  85
ENDBRANCH  64  78
BRANCH  65  89
ATOM     89  C   UNL A   1      44.071  39.407  30.186  1.00  0.00     0.023 A 
ATOM     90  C   UNL A   1      44.812  38.959  31.313  1.00  0.00     0.012 A 
ATOM     91  C   UNL A   1      43.475  40.693  30.316  1.00  0.00     0.148 A 
ATOM     92  C   UNL A   1      45.209  39.826  32.346  1.00  0.00     0.002 A 
ATOM     93  C   UNL A   1      43.950  41.595  31.309  1.00  0.00     0.091 A 
ATOM     94  F   UNL A   1      42.573  41.091  29.405  1.00  0.00    -0.205 F 
ATOM     95  C   UNL A   1      44.850  41.164  32.295  1.00  0.00     0.022 A 
BRANCH  93  96
ATOM     96  S   UNL A   1      43.790  43.419  31.189  1.00  0.00     0.127 S 
ATOM     97  O   UNL A   1      44.658  43.869  32.276  1.00  0.00    -0.237 OA
ATOM     98  O   UNL A   1      44.321  43.703  29.849  1.00  0.00    -0.237 OA
ATOM     99  O   UNL A   1      42.382  43.745  31.368  1.00  0.00    -0.744 OA
ENDBRANCH  93  96
ENDBRANCH  65  89
BRANCH  77 100
ATOM    100  C   UNL A   1      48.068  34.484  26.459  1.00  0.00     0.023 A 
ATOM    101  C   UNL A   1      48.832  35.285  25.079  1.00  0.00     0.012 A 
ATOM    102  C   UNL A   1      48.972  33.868  27.870  1.00  0.00     0.148 A 
ATOM    103  C   UNL A   1      50.496  35.732  25.045  1.00  0.00     0.002 A 
ATOM    104  C   UNL A   1      50.738  34.202  27.967  1.00  0.00     0.091 A 
ATOM    105  F   UNL A   1      48.362  33.046  28.728  1.00  0.00    -0.205 F 
ATOM    106  C   UNL A   1      51.525  35.258  26.436  1.00  0.00     0.022 A 
BRANCH 104 107
ATOM    107  S   UNL A   1      51.375  32.966  29.451  1.00  0.00     0.127 S 
ATOM    108  O   UNL A   1      51.017  31.626  28.973  1.00  0.00    -0.237 OA
ATOM    109  O   UNL A   1      52.811  33.203  29.600  1.00  0.00    -0.237 OA
ATOM    110  O   UNL A   1      50.616  33.397  30.617  1.00  0.00    -0.744 OA
ENDBRANCH 104 107
ENDBRANCH  77 100
ENDBRANCH  51  52
ENDBRANCH  44  46
ENDBRANCH  43  44
ENDBRANCH  42  43
ENDBRANCH  41  42
ENDBRANCH  40  41
ENDBRANCH  39  40
ENDBRANCH   1  39
TORSDOF 27
ENDMDL
MODEL 3
REMARK VINA RESULT:     -11.7      0.970      2.989
REMARK SMILES Cc1ccc(C(c2ccccc2)(c2ccccc2)n2cnc(C[C@H]([NH3+])C(=O)OCCOCCOCCOC(=O)c3ccc(-c4c5nc(c(-c6cccc(S(=O)(=O)[O-])c6F)c6ccc([nH]6)c(-c6cccc(S(=O)(=O)[O-])c6F)c6nc(c(-c7cccc(S(=O)(=O)[O-])c7F)c7ccc4[nH]7)C=C6)C=C5)cc3)c2)cc1
REMARK SMILES IDX 32 1 31 2 30 3 29 4 28 5 26 6 27 7 24 8 23 9 22 10 19 11
REMARK SMILES IDX 20 12 103 13 21 14 6 15 5 16 1 17 2 18 3 19 105 20 4 21
REMARK SMILES IDX 104 22 7 23 8 24 12 25 9 26 11 27 10 28 13 29 14 30 18 31
REMARK SMILES IDX 15 32 17 33 16 34 25 35 33 39 34 40 35 41 36 42 37 43 38 44
REMARK SMILES IDX 39 45 40 46 41 47 102 48 42 49 101 50 43 51 44 52 45 53
REMARK SMILES IDX 95 54 46 55 100 56 94 57 96 58 47 59 99 60 93 61 92 62 48 64
REMARK SMILES IDX 80 65 60 66 79 67 61 68 64 69 78 70 97 71 62 72 63 73 77 75
REMARK SMILES IDX 98 76 65 77 49 78 50 79 58 80 51 81 53 82 59 83 52 84 54 85
REMARK SMILES IDX 55 86 56 87 57 88 81 89 82 90 90 91 83 92 85 93 91 94 84 95
REMARK SMILES IDX 86 96 87 97 88 98 89 99 66 100 67 101 75 102 68 103 70 104
REMARK SMILES IDX 76 105 69 106 71 107 72 108 73 109 74 110
REMARK H PARENT 25 36 25 37 25 38 96 63 64 74
REMARK Flexibility Score: inf
ROOT
ATOM      1  C   UNL A   1      41.886  18.749  26.116  1.00  0.00     0.188 C 
ENDROOT
BRANCH   1   2
ATOM      2  O   UNL A   1      40.906  19.473  25.385  1.00  0.00    -0.376 OA
BRANCH   2   3
ATOM      3  C   UNL A   1      39.616  19.248  25.862  1.00  0.00     0.202 C 
BRANCH   3   4
ATOM      4  C   UNL A   1      38.675  20.233  25.238  1.00  0.00     0.261 C 
BRANCH   4   5
ATOM      5  O   UNL A   1      37.038  19.637  24.713  1.00  0.00    -0.459 OA
BRANCH   5   6
ATOM      6  C   UNL A   1      35.424  19.821  25.092  1.00  0.00     0.365 C 
ATOM      7  O   UNL A   1      35.236  20.813  25.795  1.00  0.00    -0.245 OA
BRANCH   6   8
ATOM      8  C   UNL A   1      33.935  18.993  24.583  1.00  0.00     0.297 C 
BRANCH   8   9
ATOM      9  C   UNL A   1      32.481  19.277  25.019  1.00  0.00     0.135 C 
BRANCH   9  10
ATOM     10  C   UNL A   1      32.014  20.633  24.788  1.00  0.00     0.065 A 
ATOM     11  N   UNL A   1      32.217  22.758  24.412  1.00  0.00    -0.319 N 
ATOM     12  C   UNL A   1      31.465  22.495  25.526  1.00  0.00     0.201 A 
ATOM     13  C   UNL A   1      32.456  21.530  23.843  1.00  0.00     0.112 A 
ATOM     14  N   UNL A   1      31.240  21.228  25.706  1.00  0.00    -0.241 NA
BRANCH  11  15
ATOM     15  C   UNL A   1      32.840  24.082  24.048  1.00  0.00     0.121 C 
BRANCH  15  16
ATOM     16  C   UNL A   1      34.395  23.962  24.474  1.00  0.00    -0.013 A 
ATOM     17  C   UNL A   1      39.383  23.924  26.175  1.00  0.00     0.044 C 
ATOM     18  C   UNL A   1      37.992  23.891  25.659  1.00  0.00    -0.051 A 
ATOM     19  C   UNL A   1      36.711  24.346  26.806  1.00  0.00     0.004 A 
ATOM     20  C   UNL A   1      37.489  23.490  24.007  1.00  0.00     0.004 A 
ATOM     21  C   UNL A   1      34.800  24.334  26.174  1.00  0.00     0.007 A 
ATOM     22  C   UNL A   1      35.768  23.523  23.454  1.00  0.00     0.007 A 
ENDBRANCH  15  16
BRANCH  15  23
ATOM     23  C   UNL A   1      32.700  24.228  22.446  1.00  0.00    -0.013 A 
ATOM     24  C   UNL A   1      33.135  23.214  21.545  1.00  0.00     0.007 A 
ATOM     25  C   UNL A   1      32.384  25.459  21.844  1.00  0.00     0.007 A 
ATOM     26  C   UNL A   1      33.258  23.419  20.163  1.00  0.00     0.000 A 
ATOM     27  C   UNL A   1      32.546  25.683  20.465  1.00  0.00     0.000 A 
ATOM     28  C   UNL A   1      32.975  24.663  19.624  1.00  0.00     0.000 A 
ENDBRANCH  15  23
BRANCH  15  29
ATOM     29  C   UNL A   1      31.988  25.153  24.858  1.00  0.00    -0.013 A 
ATOM     30  C   UNL A   1      32.571  25.891  25.906  1.00  0.00     0.007 A 
ATOM     31  C   UNL A   1      30.570  25.162  24.856  1.00  0.00     0.007 A 
ATOM     32  C   UNL A   1      31.824  26.609  26.851  1.00  0.00     0.000 A 
ATOM     33  C   UNL A   1      29.813  25.842  25.824  1.00  0.00     0.000 A 
ATOM     34  C   UNL A   1      30.441  26.575  26.817  1.00  0.00     0.000 A 
ENDBRANCH  15  29
ENDBRANCH  11  15
ENDBRANCH   9  10
ENDBRANCH   8   9
BRANCH   8  35
ATOM     35  N   UNL A   1      33.788  17.525  24.235  1.00  0.00    -0.346 N 
ATOM     36  H   UNL A   1      33.821  16.969  25.088  1.00  0.00     0.345 HD
ATOM     37  H   UNL A   1      34.550  17.245  23.617  1.00  0.00     0.345 HD
ATOM     38  H   UNL A   1      32.896  17.375  23.763  1.00  0.00     0.345 HD
ENDBRANCH   8  35
ENDBRANCH   6   8
ENDBRANCH   5   6
ENDBRANCH   4   5
ENDBRANCH   3   4
ENDBRANCH   2   3
ENDBRANCH   1   2
BRANCH   1  39
ATOM     39  C   UNL A   1      43.531  19.016  25.876  1.00  0.00     0.188 C 
BRANCH  39  40
ATOM     40  O   UNL A   1      44.107  18.208  24.916  1.00  0.00    -0.376 OA
BRANCH  40  41
ATOM     41  C   UNL A   1      44.742  19.180  24.132  1.00  0.00     0.202 C 
BRANCH  41  42
ATOM     42  C   UNL A   1      46.118  19.908  24.824  1.00  0.00     0.261 C 
BRANCH  42  43
ATOM     43  O   UNL A   1      46.205  21.492  25.594  1.00  0.00    -0.460 OA
BRANCH  43  44
ATOM     44  C   UNL A   1      45.622  22.725  26.193  1.00  0.00     0.338 C 
ATOM     45  O   UNL A   1      46.478  23.482  26.673  1.00  0.00    -0.246 OA
BRANCH  44  46
ATOM     46  C   UNL A   1      44.021  23.203  26.620  1.00  0.00     0.060 A 
ATOM     47  C   UNL A   1      43.608  24.287  25.916  1.00  0.00     0.016 A 
ATOM     48  C   UNL A   1      43.121  23.008  27.743  1.00  0.00     0.016 A 
ATOM     49  C   UNL A   1      42.879  25.292  26.612  1.00  0.00     0.010 A 
ATOM     50  C   UNL A   1      42.424  24.090  28.497  1.00  0.00     0.010 A 
ATOM     51  C   UNL A   1      42.408  25.392  28.022  1.00  0.00    -0.014 A 
BRANCH  51  52
ATOM     52  C   UNL A   1      42.259  26.829  29.151  1.00  0.00     0.031 A 
ATOM     53  C   UNL A   1      41.160  27.693  28.728  1.00  0.00     0.074 A 
ATOM     54  C   UNL A   1      43.006  27.349  30.398  1.00  0.00     0.049 A 
ATOM     55  N   UNL A   1      41.125  28.927  29.064  1.00  0.00    -0.248 NA
ATOM     56  C   UNL A   1      40.186  27.351  27.696  1.00  0.00     0.031 C 
ATOM     57  C   UNL A   1      42.486  27.822  31.755  1.00  0.00     0.029 A 
ATOM     58  N   UNL A   1      44.273  26.922  30.968  1.00  0.00    -0.354 N 
ATOM     59  C   UNL A   1      39.940  29.411  28.598  1.00  0.00     0.074 A 
ATOM     60  C   UNL A   1      39.571  28.525  27.534  1.00  0.00     0.031 C 
ATOM     61  C   UNL A   1      43.433  27.702  32.758  1.00  0.00     0.029 A 
ATOM     62  C   UNL A   1      44.712  27.223  32.218  1.00  0.00     0.049 A 
ATOM     63  H   UNL A   1      44.861  26.370  30.402  1.00  0.00     0.167 HD
ATOM     64  C   UNL A   1      39.283  30.292  29.390  1.00  0.00     0.034 A 
ATOM     65  C   UNL A   1      46.030  27.639  32.270  1.00  0.00     0.034 A 
ATOM     66  C   UNL A   1      40.068  30.526  30.644  1.00  0.00     0.049 A 
ATOM     67  C   UNL A   1      45.845  29.120  32.093  1.00  0.00     0.074 A 
ATOM     68  C   UNL A   1      39.890  30.145  31.965  1.00  0.00     0.029 A 
ATOM     69  N   UNL A   1      41.417  30.898  30.568  1.00  0.00    -0.354 N 
ATOM     70  N   UNL A   1      44.638  29.602  31.977  1.00  0.00    -0.248 NA
ATOM     71  C   UNL A   1      46.841  30.160  32.136  1.00  0.00     0.031 C 
ATOM     72  C   UNL A   1      41.092  30.441  32.691  1.00  0.00     0.029 A 
ATOM     73  C   UNL A   1      42.043  30.929  31.807  1.00  0.00     0.049 A 
ATOM     74  H   UNL A   1      41.875  31.114  29.723  1.00  0.00     0.167 HD
ATOM     75  C   UNL A   1      44.575  30.920  31.986  1.00  0.00     0.074 A 
ATOM     76  C   UNL A   1      46.029  31.235  32.039  1.00  0.00     0.031 C 
ATOM     77  C   UNL A   1      43.353  31.560  31.924  1.00  0.00     0.034 A 
BRANCH  64  78
ATOM     78  C   UNL A   1      37.823  30.685  29.208  1.00  0.00     0.023 A 
ATOM     79  C   UNL A   1      37.151  30.045  28.149  1.00  0.00     0.012 A 
ATOM     80  C   UNL A   1      37.047  31.618  29.953  1.00  0.00     0.148 A 
ATOM     81  C   UNL A   1      35.827  30.339  27.809  1.00  0.00     0.002 A 
ATOM     82  C   UNL A   1      35.726  31.924  29.609  1.00  0.00     0.091 A 
ATOM     83  F   UNL A   1      37.545  32.225  31.027  1.00  0.00    -0.205 F 
ATOM     84  C   UNL A   1      35.116  31.285  28.532  1.00  0.00     0.022 A 
BRANCH  82  85
ATOM     85  S   UNL A   1      34.737  33.158  30.486  1.00  0.00     0.127 S 
ATOM     86  O   UNL A   1      33.697  33.468  29.503  1.00  0.00    -0.237 OA
ATOM     87  O   UNL A   1      34.263  32.410  31.650  1.00  0.00    -0.237 OA
ATOM     88  O   UNL A   1      35.624  34.275  30.786  1.00  0.00    -0.744 OA
ENDBRANCH  82  85
ENDBRANCH  64  78
BRANCH  65  89
ATOM     89  C   UNL A   1      47.087  26.689  31.610  1.00  0.00     0.023 A 
ATOM     90  C   UNL A   1      46.573  25.919  30.532  1.00  0.00     0.012 A 
ATOM     91  C   UNL A   1      48.505  26.794  31.666  1.00  0.00     0.148 A 
ATOM     92  C   UNL A   1      47.357  25.559  29.422  1.00  0.00     0.002 A 
ATOM     93  C   UNL A   1      49.281  26.513  30.507  1.00  0.00     0.091 A 
ATOM     94  F   UNL A   1      49.080  27.298  32.769  1.00  0.00    -0.205 F 
ATOM     95  C   UNL A   1      48.691  25.934  29.374  1.00  0.00     0.022 A 
BRANCH  93  96
ATOM     96  S   UNL A   1      50.952  27.209  30.205  1.00  0.00     0.127 S 
ATOM     97  O   UNL A   1      51.461  27.372  31.567  1.00  0.00    -0.237 OA
ATOM     98  O   UNL A   1      51.616  26.140  29.448  1.00  0.00    -0.237 OA
ATOM     99  O   UNL A   1      50.778  28.456  29.474  1.00  0.00    -0.744 OA
ENDBRANCH  93  96
ENDBRANCH  65  89
BRANCH  77 100
ATOM    100  C   UNL A   1      43.365  33.032  31.754  1.00  0.00     0.023 A 
ATOM    101  C   UNL A   1      43.776  33.850  33.269  1.00  0.00     0.012 A 
ATOM    102  C   UNL A   1      43.857  33.626  30.144  1.00  0.00     0.148 A 
ATOM    103  C   UNL A   1      44.860  35.187  33.359  1.00  0.00     0.002 A 
ATOM    104  C   UNL A   1      44.951  35.053  30.056  1.00  0.00     0.091 A 
ATOM    105  F   UNL A   1      43.284  33.108  29.054  1.00  0.00    -0.205 F 
ATOM    106  C   UNL A   1      45.513  35.849  31.825  1.00  0.00     0.022 A 
BRANCH 104 107
ATOM    107  S   UNL A   1      44.861  35.600  28.099  1.00  0.00     0.127 S 
ATOM    108  O   UNL A   1      45.440  34.457  27.385  1.00  0.00    -0.237 OA
ATOM    109  O   UNL A   1      43.451  35.859  27.805  1.00  0.00    -0.237 OA
ATOM    110  O   UNL A   1      45.673  36.808  28.035  1.00  0.00    -0.744 OA
ENDBRANCH 104 107
ENDBRANCH  77 100
ENDBRANCH  51  52
ENDBRANCH  44  46
ENDBRANCH  43  44
ENDBRANCH  42  43
ENDBRANCH  41  42
ENDBRANCH  40  41
ENDBRANCH  39  40
ENDBRANCH   1  39
TORSDOF 27
ENDMDL
