MODEL 1
REMARK VINA RESULT:     -10.0      0.000      0.000
REMARK SMILES Cc1cc(Br)cc([N+](=O)[O-])c1OCCC(=O)OCCOCCOCCOC(=O)c1ccc(-c2c3nc(c(-c4cccc(S(=O)(=O)[O-])c4F)c4ccc([nH]4)c(-c4cccc(S(=O)(=O)[O-])c4F)c4nc(c(-c5cccc(S(=O)(=O)[O-])c5F)c5ccc2[nH]5)C=C4)C=C3)cc1
REMARK SMILES IDX 21 1 20 2 19 3 18 4 17 5 15 6 16 7 14 8 13 9 12 10 11 11
REMARK SMILES IDX 1 12 2 13 3 14 4 15 7 16 5 17 6 18 8 19 9 20 10 21 22 22
REMARK SMILES IDX 23 23 24 24 25 25 26 26 27 27 28 28 29 29 30 30 91 31 31 32
REMARK SMILES IDX 90 33 32 34 33 35 34 36 84 37 35 38 89 39 83 40 85 41 36 42
REMARK SMILES IDX 88 43 82 44 81 45 37 47 69 48 49 49 68 50 50 51 53 52 67 53
REMARK SMILES IDX 86 54 51 55 52 56 66 58 87 59 54 60 38 61 39 62 47 63 40 64
REMARK SMILES IDX 42 65 48 66 41 67 43 68 44 69 45 70 46 71 70 72 71 73 79 74
REMARK SMILES IDX 72 75 74 76 80 77 73 78 75 79 76 80 77 81 78 82 55 83 56 84
REMARK SMILES IDX 64 85 57 86 59 87 65 88 58 89 60 90 61 91 62 92 63 93
REMARK H PARENT 85 46 53 57
REMARK Flexibility Score: inf
ROOT
ATOM      1  C   UNL A   1      30.963  27.800  23.201  1.00  0.00     0.188 C 
ENDROOT
BRANCH   1   2
ATOM      2  O   UNL A   1      30.293  26.642  22.735  1.00  0.00    -0.376 OA
BRANCH   2   3
ATOM      3  C   UNL A   1      30.243  25.408  23.450  1.00  0.00     0.202 C 
BRANCH   3   4
ATOM      4  C   UNL A   1      31.523  24.550  23.664  1.00  0.00     0.261 C 
BRANCH   4   5
ATOM      5  O   UNL A   1      32.461  24.464  22.540  1.00  0.00    -0.463 OA
BRANCH   5   6
ATOM      6  C   UNL A   1      33.752  24.159  22.875  1.00  0.00     0.309 C 
ATOM      7  O   UNL A   1      34.325  23.180  22.398  1.00  0.00    -0.252 OA
BRANCH   6   8
ATOM      8  C   UNL A   1      34.423  24.942  24.031  1.00  0.00     0.164 C 
BRANCH   8   9
ATOM      9  C   UNL A   1      34.476  24.693  25.556  1.00  0.00     0.241 C 
BRANCH   9  10
ATOM     10  O   UNL A   1      35.265  23.637  26.124  1.00  0.00    -0.486 OA
BRANCH  10  11
ATOM     11  C   UNL A   1      34.863  22.341  26.086  1.00  0.00     0.200 A 
ATOM     12  C   UNL A   1      33.268  22.348  28.086  1.00  0.00     0.049 C 
ATOM     13  C   UNL A   1      33.756  21.851  26.745  1.00  0.00    -0.001 A 
ATOM     14  C   UNL A   1      33.128  20.739  26.146  1.00  0.00     0.023 A 
ATOM     15  C   UNL A   1      33.668  19.996  25.108  1.00  0.00     0.025 A 
ATOM     16  C   UNL A   1      35.528  21.467  25.193  1.00  0.00     0.312 A 
ATOM     17  Br  UNL A   1      32.697  18.559  24.363  1.00  0.00    -0.051 Br
ATOM     18  C   UNL A   1      34.935  20.296  24.690  1.00  0.00     0.105 A 
BRANCH  16  19
ATOM     19  N   UNL A   1      36.925  21.688  24.846  1.00  0.00     0.066 N 
ATOM     20  O   UNL A   1      37.766  20.952  25.386  1.00  0.00    -0.258 OA
ATOM     21  O   UNL A   1      37.198  22.652  24.118  1.00  0.00    -0.258 OA
ENDBRANCH  16  19
ENDBRANCH  10  11
ENDBRANCH   9  10
ENDBRANCH   8   9
ENDBRANCH   6   8
ENDBRANCH   5   6
ENDBRANCH   4   5
ENDBRANCH   3   4
ENDBRANCH   2   3
ENDBRANCH   1   2
BRANCH   1  22
ATOM     22  C   UNL A   1      30.650  28.337  24.606  1.00  0.00     0.188 C 
BRANCH  22  23
ATOM     23  O   UNL A   1      31.500  28.011  25.685  1.00  0.00    -0.376 OA
BRANCH  23  24
ATOM     24  C   UNL A   1      32.780  28.628  25.677  1.00  0.00     0.202 C 
BRANCH  24  25
ATOM     25  C   UNL A   1      32.769  30.164  25.744  1.00  0.00     0.261 C 
BRANCH  25  26
ATOM     26  O   UNL A   1      32.679  30.627  27.111  1.00  0.00    -0.460 OA
BRANCH  26  27
ATOM     27  C   UNL A   1      33.374  31.762  27.409  1.00  0.00     0.338 C 
ATOM     28  O   UNL A   1      32.921  32.875  27.571  1.00  0.00    -0.246 OA
BRANCH  27  29
ATOM     29  C   UNL A   1      34.766  31.396  27.766  1.00  0.00     0.060 A 
ATOM     30  C   UNL A   1      35.072  30.051  28.043  1.00  0.00     0.016 A 
ATOM     31  C   UNL A   1      35.743  32.379  27.884  1.00  0.00     0.016 A 
ATOM     32  C   UNL A   1      36.340  29.703  28.520  1.00  0.00     0.010 A 
ATOM     33  C   UNL A   1      37.003  32.032  28.370  1.00  0.00     0.010 A 
ATOM     34  C   UNL A   1      37.291  30.704  28.742  1.00  0.00    -0.014 A 
BRANCH  34  35
ATOM     35  C   UNL A   1      38.507  30.461  29.558  1.00  0.00     0.031 A 
ATOM     36  C   UNL A   1      39.522  29.479  29.032  1.00  0.00     0.074 A 
ATOM     37  C   UNL A   1      38.655  30.998  30.781  1.00  0.00     0.049 A 
ATOM     38  N   UNL A   1      40.542  28.932  29.636  1.00  0.00    -0.248 NA
ATOM     39  C   UNL A   1      39.341  29.043  27.637  1.00  0.00     0.031 C 
ATOM     40  C   UNL A   1      37.750  31.963  31.399  1.00  0.00     0.029 A 
ATOM     41  N   UNL A   1      39.603  30.754  31.746  1.00  0.00    -0.354 N 
ATOM     42  C   UNL A   1      41.093  28.045  28.717  1.00  0.00     0.074 A 
ATOM     43  C   UNL A   1      40.292  28.130  27.515  1.00  0.00     0.031 C 
ATOM     44  C   UNL A   1      38.156  32.193  32.659  1.00  0.00     0.029 A 
ATOM     45  C   UNL A   1      39.324  31.361  32.947  1.00  0.00     0.049 A 
ATOM     46  H   UNL A   1      40.401  30.199  31.592  1.00  0.00     0.167 HD
ATOM     47  C   UNL A   1      42.168  27.234  28.860  1.00  0.00     0.034 A 
ATOM     48  C   UNL A   1      39.917  31.225  34.152  1.00  0.00     0.034 A 
ATOM     49  C   UNL A   1      42.965  27.162  30.054  1.00  0.00     0.049 A 
ATOM     50  C   UNL A   1      41.097  30.297  34.297  1.00  0.00     0.074 A 
ATOM     51  C   UNL A   1      44.108  26.416  30.281  1.00  0.00     0.029 A 
ATOM     52  N   UNL A   1      42.693  27.845  31.228  1.00  0.00    -0.354 N 
ATOM     53  N   UNL A   1      41.675  29.544  33.391  1.00  0.00    -0.248 NA
ATOM     54  C   UNL A   1      41.725  30.223  35.625  1.00  0.00     0.031 C 
ATOM     55  C   UNL A   1      44.503  26.617  31.608  1.00  0.00     0.029 A 
ATOM     56  C   UNL A   1      43.635  27.527  32.191  1.00  0.00     0.049 A 
ATOM     57  H   UNL A   1      41.940  28.466  31.359  1.00  0.00     0.167 HD
ATOM     58  C   UNL A   1      42.756  28.940  34.027  1.00  0.00     0.074 A 
ATOM     59  C   UNL A   1      42.760  29.427  35.391  1.00  0.00     0.031 C 
ATOM     60  C   UNL A   1      43.658  28.056  33.532  1.00  0.00     0.034 A 
BRANCH  47  61
ATOM     61  C   UNL A   1      42.545  26.362  27.690  1.00  0.00     0.023 A 
ATOM     62  C   UNL A   1      43.422  26.852  26.700  1.00  0.00     0.012 A 
ATOM     63  C   UNL A   1      42.063  25.041  27.590  1.00  0.00     0.148 A 
ATOM     64  C   UNL A   1      43.778  26.059  25.609  1.00  0.00     0.002 A 
ATOM     65  C   UNL A   1      42.461  24.240  26.526  1.00  0.00     0.091 A 
ATOM     66  F   UNL A   1      41.214  24.598  28.528  1.00  0.00    -0.205 F 
ATOM     67  C   UNL A   1      43.307  24.752  25.528  1.00  0.00     0.022 A 
BRANCH  65  68
ATOM     68  S   UNL A   1      41.976  22.519  26.375  1.00  0.00     0.127 S 
ATOM     69  O   UNL A   1      42.512  21.951  27.612  1.00  0.00    -0.237 OA
ATOM     70  O   UNL A   1      40.516  22.615  26.331  1.00  0.00    -0.237 OA
ATOM     71  O   UNL A   1      42.589  22.031  25.148  1.00  0.00    -0.744 OA
ENDBRANCH  65  68
ENDBRANCH  47  61
BRANCH  48  72
ATOM     72  C   UNL A   1      39.418  32.007  35.319  1.00  0.00     0.023 A 
ATOM     73  C   UNL A   1      38.505  31.410  36.211  1.00  0.00     0.012 A 
ATOM     74  C   UNL A   1      39.850  33.326  35.561  1.00  0.00     0.148 A 
ATOM     75  C   UNL A   1      38.010  32.119  37.305  1.00  0.00     0.002 A 
ATOM     76  C   UNL A   1      39.395  34.009  36.683  1.00  0.00     0.091 A 
ATOM     77  F   UNL A   1      40.706  33.882  34.692  1.00  0.00    -0.205 F 
ATOM     78  C   UNL A   1      38.462  33.414  37.547  1.00  0.00     0.022 A 
BRANCH  76  79
ATOM     79  S   UNL A   1      40.012  35.631  37.146  1.00  0.00     0.127 S 
ATOM     80  O   UNL A   1      41.443  35.374  37.296  1.00  0.00    -0.237 OA
ATOM     81  O   UNL A   1      39.648  36.433  35.979  1.00  0.00    -0.237 OA
ATOM     82  O   UNL A   1      39.306  35.988  38.369  1.00  0.00    -0.744 OA
ENDBRANCH  76  79
ENDBRANCH  48  72
BRANCH  60  83
ATOM     83  C   UNL A   1      44.766  27.592  34.444  1.00  0.00     0.023 A 
ATOM     84  C   UNL A   1      45.989  28.291  34.487  1.00  0.00     0.012 A 
ATOM     85  C   UNL A   1      44.562  26.504  35.316  1.00  0.00     0.148 A 
ATOM     86  C   UNL A   1      47.003  27.891  35.358  1.00  0.00     0.002 A 
ATOM     87  C   UNL A   1      45.556  26.146  36.218  1.00  0.00     0.091 A 
ATOM     88  F   UNL A   1      43.397  25.842  35.250  1.00  0.00    -0.205 F 
ATOM     89  C   UNL A   1      46.783  26.828  36.231  1.00  0.00     0.022 A 
BRANCH  87  90
ATOM     90  S   UNL A   1      45.324  24.855  37.447  1.00  0.00     0.127 S 
ATOM     91  O   UNL A   1      46.497  25.043  38.301  1.00  0.00    -0.237 OA
ATOM     92  O   UNL A   1      44.054  25.240  38.063  1.00  0.00    -0.237 OA
ATOM     93  O   UNL A   1      45.284  23.599  36.710  1.00  0.00    -0.744 OA
ENDBRANCH  87  90
ENDBRANCH  60  83
ENDBRANCH  34  35
ENDBRANCH  27  29
ENDBRANCH  26  27
ENDBRANCH  25  26
ENDBRANCH  24  25
ENDBRANCH  23  24
ENDBRANCH  22  23
ENDBRANCH   1  22
TORSDOF 24
ENDMDL
MODEL 2
REMARK VINA RESULT:      -9.8      1.341      7.909
REMARK SMILES Cc1cc(Br)cc([N+](=O)[O-])c1OCCC(=O)OCCOCCOCCOC(=O)c1ccc(-c2c3nc(c(-c4cccc(S(=O)(=O)[O-])c4F)c4ccc([nH]4)c(-c4cccc(S(=O)(=O)[O-])c4F)c4nc(c(-c5cccc(S(=O)(=O)[O-])c5F)c5ccc2[nH]5)C=C4)C=C3)cc1
REMARK SMILES IDX 21 1 20 2 19 3 18 4 17 5 15 6 16 7 14 8 13 9 12 10 11 11
REMARK SMILES IDX 1 12 2 13 3 14 4 15 7 16 5 17 6 18 8 19 9 20 10 21 22 22
REMARK SMILES IDX 23 23 24 24 25 25 26 26 27 27 28 28 29 29 30 30 91 31 31 32
REMARK SMILES IDX 90 33 32 34 33 35 34 36 84 37 35 38 89 39 83 40 85 41 36 42
REMARK SMILES IDX 88 43 82 44 81 45 37 47 69 48 49 49 68 50 50 51 53 52 67 53
REMARK SMILES IDX 86 54 51 55 52 56 66 58 87 59 54 60 38 61 39 62 47 63 40 64
REMARK SMILES IDX 42 65 48 66 41 67 43 68 44 69 45 70 46 71 70 72 71 73 79 74
REMARK SMILES IDX 72 75 74 76 80 77 73 78 75 79 76 80 77 81 78 82 55 83 56 84
REMARK SMILES IDX 64 85 57 86 59 87 65 88 58 89 60 90 61 91 62 92 63 93
REMARK H PARENT 85 46 53 57
REMARK Flexibility Score: inf
ROOT
ATOM      1  C   UNL A   1      32.050  28.773  24.105  1.00  0.00     0.188 C 
ENDROOT
BRANCH   1   2
ATOM      2  O   UNL A   1      31.788  27.402  24.349  1.00  0.00    -0.376 OA
BRANCH   2   3
ATOM      3  C   UNL A   1      32.015  26.758  25.602  1.00  0.00     0.202 C 
BRANCH   3   4
ATOM      4  C   UNL A   1      31.429  25.348  25.900  1.00  0.00     0.261 C 
BRANCH   4   5
ATOM      5  O   UNL A   1      32.378  24.305  26.304  1.00  0.00    -0.463 OA
BRANCH   5   6
ATOM      6  C   UNL A   1      31.861  23.316  27.095  1.00  0.00     0.309 C 
ATOM      7  O   UNL A   1      30.687  23.334  27.462  1.00  0.00    -0.252 OA
BRANCH   6   8
ATOM      8  C   UNL A   1      32.829  22.271  27.703  1.00  0.00     0.164 C 
BRANCH   8   9
ATOM      9  C   UNL A   1      34.277  21.867  27.339  1.00  0.00     0.241 C 
BRANCH   9  10
ATOM     10  O   UNL A   1      34.585  21.171  26.123  1.00  0.00    -0.486 OA
BRANCH  10  11
ATOM     11  C   UNL A   1      34.337  21.712  24.903  1.00  0.00     0.200 A 
ATOM     12  C   UNL A   1      32.498  20.118  24.113  1.00  0.00     0.049 C 
ATOM     13  C   UNL A   1      33.213  21.450  24.151  1.00  0.00    -0.001 A 
ATOM     14  C   UNL A   1      32.797  22.486  23.288  1.00  0.00     0.023 A 
ATOM     15  C   UNL A   1      33.549  23.611  22.992  1.00  0.00     0.025 A 
ATOM     16  C   UNL A   1      35.208  22.728  24.440  1.00  0.00     0.312 A 
ATOM     17  Br  UNL A   1      32.850  24.949  21.859  1.00  0.00    -0.051 Br
ATOM     18  C   UNL A   1      34.820  23.689  23.491  1.00  0.00     0.105 A 
BRANCH  16  19
ATOM     19  N   UNL A   1      36.606  22.745  24.848  1.00  0.00     0.066 N 
ATOM     20  O   UNL A   1      36.923  23.537  25.749  1.00  0.00    -0.258 OA
ATOM     21  O   UNL A   1      37.406  22.048  24.210  1.00  0.00    -0.258 OA
ENDBRANCH  16  19
ENDBRANCH  10  11
ENDBRANCH   9  10
ENDBRANCH   8   9
ENDBRANCH   6   8
ENDBRANCH   5   6
ENDBRANCH   4   5
ENDBRANCH   3   4
ENDBRANCH   2   3
ENDBRANCH   1   2
BRANCH   1  22
ATOM     22  C   UNL A   1      31.086  29.833  24.658  1.00  0.00     0.188 C 
BRANCH  22  23
ATOM     23  O   UNL A   1      31.397  30.503  25.861  1.00  0.00    -0.376 OA
BRANCH  23  24
ATOM     24  C   UNL A   1      30.826  31.794  26.020  1.00  0.00     0.202 C 
BRANCH  24  25
ATOM     25  C   UNL A   1      31.714  32.821  26.741  1.00  0.00     0.261 C 
BRANCH  25  26
ATOM     26  O   UNL A   1      32.986  32.244  27.111  1.00  0.00    -0.460 OA
BRANCH  26  27
ATOM     27  C   UNL A   1      33.844  33.061  27.787  1.00  0.00     0.338 C 
ATOM     28  O   UNL A   1      33.607  34.163  28.232  1.00  0.00    -0.246 OA
BRANCH  27  29
ATOM     29  C   UNL A   1      35.066  32.294  28.134  1.00  0.00     0.060 A 
ATOM     30  C   UNL A   1      35.011  30.889  28.157  1.00  0.00     0.016 A 
ATOM     31  C   UNL A   1      36.235  32.960  28.491  1.00  0.00     0.016 A 
ATOM     32  C   UNL A   1      36.105  30.151  28.620  1.00  0.00     0.010 A 
ATOM     33  C   UNL A   1      37.321  32.223  28.962  1.00  0.00     0.010 A 
ATOM     34  C   UNL A   1      37.243  30.822  29.081  1.00  0.00    -0.014 A 
BRANCH  34  35
ATOM     35  C   UNL A   1      38.279  30.136  29.893  1.00  0.00     0.031 A 
ATOM     36  C   UNL A   1      38.463  30.582  31.320  1.00  0.00     0.074 A 
ATOM     37  C   UNL A   1      39.112  29.229  29.354  1.00  0.00     0.049 A 
ATOM     38  N   UNL A   1      39.423  30.307  32.161  1.00  0.00    -0.248 NA
ATOM     39  C   UNL A   1      37.429  31.482  31.859  1.00  0.00     0.031 C 
ATOM     40  C   UNL A   1      39.034  28.710  27.992  1.00  0.00     0.029 A 
ATOM     41  N   UNL A   1      40.229  28.629  29.884  1.00  0.00    -0.354 N 
ATOM     42  C   UNL A   1      39.142  31.041  33.309  1.00  0.00     0.074 A 
ATOM     43  C   UNL A   1      37.920  31.772  33.053  1.00  0.00     0.031 C 
ATOM     44  C   UNL A   1      40.088  27.906  27.773  1.00  0.00     0.029 A 
ATOM     45  C   UNL A   1      40.935  27.888  28.966  1.00  0.00     0.049 A 
ATOM     46  H   UNL A   1      40.497  28.721  30.827  1.00  0.00     0.167 HD
ATOM     47  C   UNL A   1      39.836  31.101  34.470  1.00  0.00     0.034 A 
ATOM     48  C   UNL A   1      42.146  27.301  29.064  1.00  0.00     0.034 A 
ATOM     49  C   UNL A   1      41.044  30.364  34.721  1.00  0.00     0.049 A 
ATOM     50  C   UNL A   1      42.915  27.401  30.358  1.00  0.00     0.074 A 
ATOM     51  C   UNL A   1      41.793  30.310  35.883  1.00  0.00     0.029 A 
ATOM     52  N   UNL A   1      41.692  29.568  33.790  1.00  0.00    -0.354 N 
ATOM     53  N   UNL A   1      42.587  28.010  31.472  1.00  0.00    -0.248 NA
ATOM     54  C   UNL A   1      44.211  26.707  30.415  1.00  0.00     0.031 C 
ATOM     55  C   UNL A   1      42.917  29.513  35.641  1.00  0.00     0.029 A 
ATOM     56  C   UNL A   1      42.841  29.031  34.343  1.00  0.00     0.049 A 
ATOM     57  H   UNL A   1      41.381  29.408  32.870  1.00  0.00     0.167 HD
ATOM     58  C   UNL A   1      43.612  27.740  32.374  1.00  0.00     0.074 A 
ATOM     59  C   UNL A   1      44.565  26.899  31.679  1.00  0.00     0.031 C 
ATOM     60  C   UNL A   1      43.757  28.155  33.657  1.00  0.00     0.034 A 
BRANCH  47  61
ATOM     61  C   UNL A   1      39.299  31.994  35.559  1.00  0.00     0.023 A 
ATOM     62  C   UNL A   1      38.309  31.511  36.442  1.00  0.00     0.012 A 
ATOM     63  C   UNL A   1      39.802  33.298  35.736  1.00  0.00     0.148 A 
ATOM     64  C   UNL A   1      37.800  32.325  37.453  1.00  0.00     0.002 A 
ATOM     65  C   UNL A   1      39.324  34.086  36.777  1.00  0.00     0.091 A 
ATOM     66  F   UNL A   1      40.725  33.749  34.876  1.00  0.00    -0.205 F 
ATOM     67  C   UNL A   1      38.314  33.607  37.627  1.00  0.00     0.022 A 
BRANCH  65  68
ATOM     68  S   UNL A   1      39.979  35.719  37.134  1.00  0.00     0.127 S 
ATOM     69  O   UNL A   1      41.395  35.427  37.354  1.00  0.00    -0.237 OA
ATOM     70  O   UNL A   1      39.691  36.443  35.895  1.00  0.00    -0.237 OA
ATOM     71  O   UNL A   1      39.252  36.200  38.301  1.00  0.00    -0.744 OA
ENDBRANCH  65  68
ENDBRANCH  47  61
BRANCH  48  72
ATOM     72  C   UNL A   1      42.702  26.544  27.906  1.00  0.00     0.023 A 
ATOM     73  C   UNL A   1      43.648  27.163  27.066  1.00  0.00     0.012 A 
ATOM     74  C   UNL A   1      42.313  25.216  27.641  1.00  0.00     0.148 A 
ATOM     75  C   UNL A   1      44.177  26.484  25.968  1.00  0.00     0.002 A 
ATOM     76  C   UNL A   1      42.884  24.526  26.578  1.00  0.00     0.091 A 
ATOM     77  F   UNL A   1      41.399  24.650  28.443  1.00  0.00    -0.205 F 
ATOM     78  C   UNL A   1      43.803  25.164  25.729  1.00  0.00     0.022 A 
BRANCH  76  79
ATOM     79  S   UNL A   1      42.560  22.788  26.264  1.00  0.00     0.127 S 
ATOM     80  O   UNL A   1      43.527  22.140  27.147  1.00  0.00    -0.237 OA
ATOM     81  O   UNL A   1      41.164  22.665  26.682  1.00  0.00    -0.237 OA
ATOM     82  O   UNL A   1      42.783  22.595  24.838  1.00  0.00    -0.744 OA
ENDBRANCH  76  79
ENDBRANCH  48  72
BRANCH  60  83
ATOM     83  C   UNL A   1      44.961  27.667  34.425  1.00  0.00     0.023 A 
ATOM     84  C   UNL A   1      46.121  28.462  34.504  1.00  0.00     0.012 A 
ATOM     85  C   UNL A   1      44.908  26.449  35.132  1.00  0.00     0.148 A 
ATOM     86  C   UNL A   1      47.223  28.034  35.246  1.00  0.00     0.002 A 
ATOM     87  C   UNL A   1      45.989  26.056  35.912  1.00  0.00     0.091 A 
ATOM     88  F   UNL A   1      43.801  25.698  35.033  1.00  0.00    -0.205 F 
ATOM     89  C   UNL A   1      47.153  26.839  35.959  1.00  0.00     0.022 A 
BRANCH  87  90
ATOM     90  S   UNL A   1      45.951  24.584  36.943  1.00  0.00     0.127 S 
ATOM     91  O   UNL A   1      45.903  23.520  35.940  1.00  0.00    -0.237 OA
ATOM     92  O   UNL A   1      47.218  24.681  37.667  1.00  0.00    -0.237 OA
ATOM     93  O   UNL A   1      44.764  24.708  37.778  1.00  0.00    -0.744 OA
ENDBRANCH  87  90
ENDBRANCH  60  83
ENDBRANCH  34  35
ENDBRANCH  27  29
ENDBRANCH  26  27
ENDBRANCH  25  26
ENDBRANCH  24  25
ENDBRANCH  23  24
ENDBRANCH  22  23
ENDBRANCH   1  22
TORSDOF 24
ENDMDL
MODEL 3
REMARK VINA RESULT:      -9.7      2.056      7.912
REMARK SMILES Cc1cc(Br)cc([N+](=O)[O-])c1OCCC(=O)OCCOCCOCCOC(=O)c1ccc(-c2c3nc(c(-c4cccc(S(=O)(=O)[O-])c4F)c4ccc([nH]4)c(-c4cccc(S(=O)(=O)[O-])c4F)c4nc(c(-c5cccc(S(=O)(=O)[O-])c5F)c5ccc2[nH]5)C=C4)C=C3)cc1
REMARK SMILES IDX 21 1 20 2 19 3 18 4 17 5 15 6 16 7 14 8 13 9 12 10 11 11
REMARK SMILES IDX 1 12 2 13 3 14 4 15 7 16 5 17 6 18 8 19 9 20 10 21 22 22
REMARK SMILES IDX 23 23 24 24 25 25 26 26 27 27 28 28 29 29 30 30 91 31 31 32
REMARK SMILES IDX 90 33 32 34 33 35 34 36 84 37 35 38 89 39 83 40 85 41 36 42
REMARK SMILES IDX 88 43 82 44 81 45 37 47 69 48 49 49 68 50 50 51 53 52 67 53
REMARK SMILES IDX 86 54 51 55 52 56 66 58 87 59 54 60 38 61 39 62 47 63 40 64
REMARK SMILES IDX 42 65 48 66 41 67 43 68 44 69 45 70 46 71 70 72 71 73 79 74
REMARK SMILES IDX 72 75 74 76 80 77 73 78 75 79 76 80 77 81 78 82 55 83 56 84
REMARK SMILES IDX 64 85 57 86 59 87 65 88 58 89 60 90 61 91 62 92 63 93
REMARK H PARENT 85 46 53 57
REMARK Flexibility Score: inf
ROOT
ATOM      1  C   UNL A   1      30.410  29.351  22.634  1.00  0.00     0.188 C 
ENDROOT
BRANCH   1   2
ATOM      2  O   UNL A   1      30.216  27.949  22.562  1.00  0.00    -0.376 OA
BRANCH   2   3
ATOM      3  C   UNL A   1      31.166  26.989  23.020  1.00  0.00     0.202 C 
BRANCH   3   4
ATOM      4  C   UNL A   1      31.887  26.033  22.025  1.00  0.00     0.261 C 
BRANCH   4   5
ATOM      5  O   UNL A   1      32.080  24.646  22.460  1.00  0.00    -0.463 OA
BRANCH   5   6
ATOM      6  C   UNL A   1      33.121  23.985  21.866  1.00  0.00     0.309 C 
ATOM      7  O   UNL A   1      33.310  24.042  20.652  1.00  0.00    -0.252 OA
BRANCH   6   8
ATOM      8  C   UNL A   1      33.945  22.985  22.715  1.00  0.00     0.164 C 
BRANCH   8   9
ATOM      9  C   UNL A   1      33.524  21.885  23.717  1.00  0.00     0.241 C 
BRANCH   9  10
ATOM     10  O   UNL A   1      33.439  22.136  25.126  1.00  0.00    -0.486 OA
BRANCH  10  11
ATOM     11  C   UNL A   1      33.589  23.382  25.644  1.00  0.00     0.200 A 
ATOM     12  C   UNL A   1      36.126  23.385  25.978  1.00  0.00     0.049 C 
ATOM     13  C   UNL A   1      34.792  24.050  25.726  1.00  0.00    -0.001 A 
ATOM     14  C   UNL A   1      34.716  25.457  25.676  1.00  0.00     0.023 A 
ATOM     15  C   UNL A   1      33.542  26.186  25.778  1.00  0.00     0.025 A 
ATOM     16  C   UNL A   1      32.419  24.105  25.979  1.00  0.00     0.312 A 
ATOM     17  Br  UNL A   1      33.576  28.068  25.643  1.00  0.00    -0.051 Br
ATOM     18  C   UNL A   1      32.382  25.509  26.039  1.00  0.00     0.105 A 
BRANCH  16  19
ATOM     19  N   UNL A   1      31.213  23.405  26.399  1.00  0.00     0.066 N 
ATOM     20  O   UNL A   1      30.390  23.115  25.518  1.00  0.00    -0.258 OA
ATOM     21  O   UNL A   1      31.035  23.231  27.613  1.00  0.00    -0.258 OA
ENDBRANCH  16  19
ENDBRANCH  10  11
ENDBRANCH   9  10
ENDBRANCH   8   9
ENDBRANCH   6   8
ENDBRANCH   5   6
ENDBRANCH   4   5
ENDBRANCH   3   4
ENDBRANCH   2   3
ENDBRANCH   1   2
BRANCH   1  22
ATOM     22  C   UNL A   1      30.018  30.101  23.916  1.00  0.00     0.188 C 
BRANCH  22  23
ATOM     23  O   UNL A   1      30.988  30.336  24.914  1.00  0.00    -0.376 OA
BRANCH  23  24
ATOM     24  C   UNL A   1      30.833  31.534  25.662  1.00  0.00     0.202 C 
BRANCH  24  25
ATOM     25  C   UNL A   1      31.620  31.590  26.982  1.00  0.00     0.261 C 
BRANCH  25  26
ATOM     26  O   UNL A   1      33.039  31.720  26.740  1.00  0.00    -0.460 OA
BRANCH  26  27
ATOM     27  C   UNL A   1      33.746  32.429  27.666  1.00  0.00     0.338 C 
ATOM     28  O   UNL A   1      33.365  33.390  28.297  1.00  0.00    -0.246 OA
BRANCH  27  29
ATOM     29  C   UNL A   1      34.992  31.691  27.989  1.00  0.00     0.060 A 
ATOM     30  C   UNL A   1      34.951  30.289  28.094  1.00  0.00     0.016 A 
ATOM     31  C   UNL A   1      36.172  32.383  28.244  1.00  0.00     0.016 A 
ATOM     32  C   UNL A   1      36.075  29.585  28.538  1.00  0.00     0.010 A 
ATOM     33  C   UNL A   1      37.289  31.681  28.696  1.00  0.00     0.010 A 
ATOM     34  C   UNL A   1      37.230  30.288  28.897  1.00  0.00    -0.014 A 
BRANCH  34  35
ATOM     35  C   UNL A   1      38.315  29.656  29.689  1.00  0.00     0.031 A 
ATOM     36  C   UNL A   1      38.605  30.217  31.057  1.00  0.00     0.074 A 
ATOM     37  C   UNL A   1      39.098  28.694  29.171  1.00  0.00     0.049 A 
ATOM     38  N   UNL A   1      39.620  29.997  31.849  1.00  0.00    -0.248 NA
ATOM     39  C   UNL A   1      37.620  31.174  31.590  1.00  0.00     0.031 C 
ATOM     40  C   UNL A   1      38.917  28.065  27.867  1.00  0.00     0.029 A 
ATOM     41  N   UNL A   1      40.244  28.123  29.670  1.00  0.00    -0.354 N 
ATOM     42  C   UNL A   1      39.428  30.829  32.948  1.00  0.00     0.074 A 
ATOM     43  C   UNL A   1      38.198  31.555  32.718  1.00  0.00     0.031 C 
ATOM     44  C   UNL A   1      39.946  27.229  27.643  1.00  0.00     0.029 A 
ATOM     45  C   UNL A   1      40.875  27.297  28.770  1.00  0.00     0.049 A 
ATOM     46  H   UNL A   1      40.580  28.289  30.581  1.00  0.00     0.167 HD
ATOM     47  C   UNL A   1      40.204  30.974  34.048  1.00  0.00     0.034 A 
ATOM     48  C   UNL A   1      42.085  26.701  28.831  1.00  0.00     0.034 A 
ATOM     49  C   UNL A   1      41.420  30.242  34.274  1.00  0.00     0.049 A 
ATOM     50  C   UNL A   1      42.945  26.896  30.055  1.00  0.00     0.074 A 
ATOM     51  C   UNL A   1      42.249  30.273  35.381  1.00  0.00     0.029 A 
ATOM     52  N   UNL A   1      41.992  29.361  33.370  1.00  0.00    -0.354 N 
ATOM     53  N   UNL A   1      42.703  27.602  31.134  1.00  0.00    -0.248 NA
ATOM     54  C   UNL A   1      44.235  26.189  30.080  1.00  0.00     0.031 C 
ATOM     55  C   UNL A   1      43.345  29.441  35.128  1.00  0.00     0.029 A 
ATOM     56  C   UNL A   1      43.172  28.854  33.885  1.00  0.00     0.049 A 
ATOM     57  H   UNL A   1      41.614  29.130  32.491  1.00  0.00     0.167 HD
ATOM     58  C   UNL A   1      43.788  27.391  31.982  1.00  0.00     0.074 A 
ATOM     59  C   UNL A   1      44.681  26.480  31.295  1.00  0.00     0.031 C 
ATOM     60  C   UNL A   1      44.028  27.909  33.212  1.00  0.00     0.034 A 
BRANCH  47  61
ATOM     61  C   UNL A   1      39.755  31.963  35.093  1.00  0.00     0.023 A 
ATOM     62  C   UNL A   1      40.136  33.318  34.990  1.00  0.00     0.012 A 
ATOM     63  C   UNL A   1      38.923  31.560  36.157  1.00  0.00     0.148 A 
ATOM     64  C   UNL A   1      39.732  34.244  35.951  1.00  0.00     0.002 A 
ATOM     65  C   UNL A   1      38.485  32.500  37.083  1.00  0.00     0.091 A 
ATOM     66  F   UNL A   1      38.589  30.266  36.252  1.00  0.00    -0.205 F 
ATOM     67  C   UNL A   1      38.899  33.838  36.990  1.00  0.00     0.022 A 
BRANCH  65  68
ATOM     68  S   UNL A   1      37.345  32.093  38.409  1.00  0.00     0.127 S 
ATOM     69  O   UNL A   1      38.051  32.618  39.577  1.00  0.00    -0.237 OA
ATOM     70  O   UNL A   1      36.150  32.848  38.029  1.00  0.00    -0.237 OA
ATOM     71  O   UNL A   1      37.185  30.646  38.375  1.00  0.00    -0.744 OA
ENDBRANCH  65  68
ENDBRANCH  47  61
BRANCH  48  72
ATOM     72  C   UNL A   1      42.549  25.841  27.706  1.00  0.00     0.023 A 
ATOM     73  C   UNL A   1      43.461  26.363  26.769  1.00  0.00     0.012 A 
ATOM     74  C   UNL A   1      42.106  24.511  27.565  1.00  0.00     0.148 A 
ATOM     75  C   UNL A   1      43.904  25.588  25.697  1.00  0.00     0.002 A 
ATOM     76  C   UNL A   1      42.593  23.725  26.527  1.00  0.00     0.091 A 
ATOM     77  F   UNL A   1      41.225  24.038  28.459  1.00  0.00    -0.205 F 
ATOM     78  C   UNL A   1      43.479  24.267  25.582  1.00  0.00     0.022 A 
BRANCH  76  79
ATOM     79  S   UNL A   1      42.200  21.980  26.367  1.00  0.00     0.127 S 
ATOM     80  O   UNL A   1      42.680  21.447  27.639  1.00  0.00    -0.237 OA
ATOM     81  O   UNL A   1      40.745  22.014  26.221  1.00  0.00    -0.237 OA
ATOM     82  O   UNL A   1      42.915  21.521  25.183  1.00  0.00    -0.744 OA
ENDBRANCH  76  79
ENDBRANCH  48  72
BRANCH  60  83
ATOM     83  C   UNL A   1      45.278  27.468  33.932  1.00  0.00     0.023 A 
ATOM     84  C   UNL A   1      46.458  28.232  33.838  1.00  0.00     0.012 A 
ATOM     85  C   UNL A   1      45.257  26.331  34.764  1.00  0.00     0.148 A 
ATOM     86  C   UNL A   1      47.607  27.851  34.533  1.00  0.00     0.002 A 
ATOM     87  C   UNL A   1      46.388  25.989  35.496  1.00  0.00     0.091 A 
ATOM     88  F   UNL A   1      44.130  25.607  34.830  1.00  0.00    -0.205 F 
ATOM     89  C   UNL A   1      47.569  26.739  35.371  1.00  0.00     0.022 A 
BRANCH  87  90
ATOM     90  S   UNL A   1      46.402  24.633  36.675  1.00  0.00     0.127 S 
ATOM     91  O   UNL A   1      47.788  24.657  37.140  1.00  0.00    -0.237 OA
ATOM     92  O   UNL A   1      45.419  25.074  37.665  1.00  0.00    -0.237 OA
ATOM     93  O   UNL A   1      46.015  23.444  35.926  1.00  0.00    -0.744 OA
ENDBRANCH  87  90
ENDBRANCH  60  83
ENDBRANCH  34  35
ENDBRANCH  27  29
ENDBRANCH  26  27
ENDBRANCH  25  26
ENDBRANCH  24  25
ENDBRANCH  23  24
ENDBRANCH  22  23
ENDBRANCH   1  22
TORSDOF 24
ENDMDL
