MODEL 1
REMARK VINA RESULT:     -10.6      0.000      0.000
REMARK SMILES O=C(OCCOCCOCCOC(=O)[C@H]1CCCC[N@@H+]1Cc1ccc(F)cc1Cl)c1ccc(-c2c3nc(c(-c4cccc(S(=O)(=O)[O-])c4F)c4ccc([nH]4)c(-c4cccc(S(=O)(=O)[O-])c4F)c4nc(c(-c5cccc(S(=O)(=O)[O-])c5F)c5ccc2[nH]5)C=C4)C=C3)cc1
REMARK SMILES IDX 7 1 6 2 5 3 4 4 3 5 2 6 1 7 30 8 31 9 92 10 32 11 91 12
REMARK SMILES IDX 33 13 34 14 35 15 85 16 36 17 90 18 84 19 86 20 37 21 89 22
REMARK SMILES IDX 83 23 82 24 38 26 70 27 50 28 69 29 51 30 54 31 68 32 87 33
REMARK SMILES IDX 52 34 53 35 67 37 88 38 55 39 39 40 40 41 48 42 41 43 43 44
REMARK SMILES IDX 49 45 42 46 44 47 45 48 46 49 47 50 71 51 72 52 80 53 73 54
REMARK SMILES IDX 75 55 81 56 74 57 76 58 77 59 78 60 79 61 56 62 57 63 65 64
REMARK SMILES IDX 58 65 60 66 66 67 59 68 61 69 62 70 63 71 64 72 8 73 9 74
REMARK SMILES IDX 10 75 11 76 12 77 13 78 14 79 15 80 16 81 20 82 17 83 19 84
REMARK SMILES IDX 18 86 21 87 22 88 23 89 28 90 24 91 27 92 29 93 25 94 26 95
REMARK H PARENT 86 25 54 36 20 85
REMARK Flexibility Score: inf
ROOT
ATOM      1  C   UNL A   1      31.276  29.410  24.081  1.00  0.00     0.188 C 
ENDROOT
BRANCH   1   2
ATOM      2  O   UNL A   1      31.364  30.142  25.299  1.00  0.00    -0.376 OA
BRANCH   2   3
ATOM      3  C   UNL A   1      30.613  31.344  25.361  1.00  0.00     0.202 C 
BRANCH   3   4
ATOM      4  C   UNL A   1      31.056  32.264  26.504  1.00  0.00     0.261 C 
BRANCH   4   5
ATOM      5  O   UNL A   1      32.413  31.950  26.904  1.00  0.00    -0.460 OA
BRANCH   5   6
ATOM      6  C   UNL A   1      33.341  32.611  27.634  1.00  0.00     0.338 C 
ATOM      7  O   UNL A   1      33.097  33.779  27.939  1.00  0.00    -0.246 OA
BRANCH   6   8
ATOM      8  C   UNL A   1      34.677  32.062  28.039  1.00  0.00     0.060 A 
ATOM      9  C   UNL A   1      34.955  30.721  28.244  1.00  0.00     0.016 A 
ATOM     10  C   UNL A   1      35.762  32.966  28.169  1.00  0.00     0.016 A 
ATOM     11  C   UNL A   1      36.231  30.322  28.646  1.00  0.00     0.010 A 
ATOM     12  C   UNL A   1      37.073  32.539  28.494  1.00  0.00     0.010 A 
ATOM     13  C   UNL A   1      37.319  31.191  28.748  1.00  0.00    -0.014 A 
BRANCH  13  14
ATOM     14  C   UNL A   1      38.541  30.644  29.415  1.00  0.00     0.031 A 
ATOM     15  C   UNL A   1      38.651  30.886  30.891  1.00  0.00     0.074 A 
ATOM     16  C   UNL A   1      39.398  29.771  28.840  1.00  0.00     0.049 A 
ATOM     17  N   UNL A   1      39.520  30.420  31.745  1.00  0.00    -0.248 NA
ATOM     18  C   UNL A   1      37.625  31.764  31.481  1.00  0.00     0.031 C 
ATOM     19  C   UNL A   1      39.386  29.382  27.442  1.00  0.00     0.029 A 
ATOM     20  N   UNL A   1      40.415  29.002  29.367  1.00  0.00    -0.354 N 
ATOM     21  C   UNL A   1      39.190  31.004  32.958  1.00  0.00     0.074 A 
ATOM     22  C   UNL A   1      38.008  31.809  32.744  1.00  0.00     0.031 C 
ATOM     23  C   UNL A   1      40.241  28.369  27.234  1.00  0.00     0.029 A 
ATOM     24  C   UNL A   1      40.973  28.111  28.468  1.00  0.00     0.049 A 
ATOM     25  H   UNL A   1      40.717  29.080  30.301  1.00  0.00     0.167 HD
ATOM     26  C   UNL A   1      39.833  30.911  34.141  1.00  0.00     0.034 A 
ATOM     27  C   UNL A   1      41.980  27.219  28.607  1.00  0.00     0.034 A 
ATOM     28  C   UNL A   1      41.008  30.120  34.361  1.00  0.00     0.049 A 
ATOM     29  C   UNL A   1      42.701  27.159  29.930  1.00  0.00     0.074 A 
ATOM     30  C   UNL A   1      41.778  30.030  35.505  1.00  0.00     0.029 A 
ATOM     31  N   UNL A   1      41.589  29.291  33.416  1.00  0.00    -0.354 N 
ATOM     32  N   UNL A   1      42.402  27.752  31.060  1.00  0.00    -0.248 NA
ATOM     33  C   UNL A   1      43.912  26.326  29.994  1.00  0.00     0.031 C 
ATOM     34  C   UNL A   1      42.846  29.167  35.241  1.00  0.00     0.029 A 
ATOM     35  C   UNL A   1      42.709  28.683  33.950  1.00  0.00     0.049 A 
ATOM     36  H   UNL A   1      41.253  29.154  32.500  1.00  0.00     0.167 HD
ATOM     37  C   UNL A   1      43.374  27.353  31.969  1.00  0.00     0.074 A 
ATOM     38  C   UNL A   1      44.252  26.438  31.271  1.00  0.00     0.031 C 
ATOM     39  C   UNL A   1      43.541  27.733  33.260  1.00  0.00     0.034 A 
BRANCH  26  40
ATOM     40  C   UNL A   1      39.323  31.789  35.244  1.00  0.00     0.023 A 
ATOM     41  C   UNL A   1      38.299  31.345  36.104  1.00  0.00     0.012 A 
ATOM     42  C   UNL A   1      39.839  33.091  35.383  1.00  0.00     0.148 A 
ATOM     43  C   UNL A   1      37.768  32.206  37.062  1.00  0.00     0.002 A 
ATOM     44  C   UNL A   1      39.341  33.922  36.374  1.00  0.00     0.091 A 
ATOM     45  F   UNL A   1      40.781  33.500  34.521  1.00  0.00    -0.205 F 
ATOM     46  C   UNL A   1      38.295  33.488  37.203  1.00  0.00     0.022 A 
BRANCH  44  47
ATOM     47  S   UNL A   1      40.006  35.560  36.673  1.00  0.00     0.127 S 
ATOM     48  O   UNL A   1      39.374  35.908  37.945  1.00  0.00    -0.237 OA
ATOM     49  O   UNL A   1      41.442  35.293  36.757  1.00  0.00    -0.237 OA
ATOM     50  O   UNL A   1      39.604  36.374  35.534  1.00  0.00    -0.744 OA
ENDBRANCH  44  47
ENDBRANCH  26  40
BRANCH  27  51
ATOM     51  C   UNL A   1      42.423  26.338  27.476  1.00  0.00     0.023 A 
ATOM     52  C   UNL A   1      43.261  26.853  26.465  1.00  0.00     0.012 A 
ATOM     53  C   UNL A   1      41.979  25.005  27.363  1.00  0.00     0.148 A 
ATOM     54  C   UNL A   1      43.612  26.078  25.354  1.00  0.00     0.002 A 
ATOM     55  C   UNL A   1      42.395  24.214  26.298  1.00  0.00     0.091 A 
ATOM     56  F   UNL A   1      41.141  24.534  28.298  1.00  0.00    -0.205 F 
ATOM     57  C   UNL A   1      43.190  24.754  25.277  1.00  0.00     0.022 A 
BRANCH  55  58
ATOM     58  S   UNL A   1      42.026  22.458  26.213  1.00  0.00     0.127 S 
ATOM     59  O   UNL A   1      42.726  22.061  24.996  1.00  0.00    -0.237 OA
ATOM     60  O   UNL A   1      42.619  21.965  27.457  1.00  0.00    -0.237 OA
ATOM     61  O   UNL A   1      40.572  22.369  26.171  1.00  0.00    -0.744 OA
ENDBRANCH  55  58
ENDBRANCH  27  51
BRANCH  39  62
ATOM     62  C   UNL A   1      44.681  27.123  34.029  1.00  0.00     0.023 A 
ATOM     63  C   UNL A   1      45.963  27.706  33.986  1.00  0.00     0.012 A 
ATOM     64  C   UNL A   1      44.451  26.013  34.866  1.00  0.00     0.148 A 
ATOM     65  C   UNL A   1      47.007  27.172  34.742  1.00  0.00     0.002 A 
ATOM     66  C   UNL A   1      45.482  25.522  35.656  1.00  0.00     0.091 A 
ATOM     67  F   UNL A   1      43.230  25.461  34.874  1.00  0.00    -0.205 F 
ATOM     68  C   UNL A   1      46.763  26.090  35.585  1.00  0.00     0.022 A 
BRANCH  66  69
ATOM     69  S   UNL A   1      45.225  24.202  36.846  1.00  0.00     0.127 S 
ATOM     70  O   UNL A   1      46.585  23.969  37.329  1.00  0.00    -0.237 OA
ATOM     71  O   UNL A   1      44.331  24.832  37.819  1.00  0.00    -0.237 OA
ATOM     72  O   UNL A   1      44.626  23.103  36.103  1.00  0.00    -0.744 OA
ENDBRANCH  66  69
ENDBRANCH  39  62
ENDBRANCH  13  14
ENDBRANCH   6   8
ENDBRANCH   5   6
ENDBRANCH   4   5
ENDBRANCH   3   4
ENDBRANCH   2   3
ENDBRANCH   1   2
BRANCH   1  73
ATOM     73  C   UNL A   1      30.363  28.174  24.067  1.00  0.00     0.188 C 
BRANCH  73  74
ATOM     74  O   UNL A   1      30.569  27.197  25.087  1.00  0.00    -0.376 OA
BRANCH  74  75
ATOM     75  C   UNL A   1      30.353  25.836  24.714  1.00  0.00     0.202 C 
BRANCH  75  76
ATOM     76  C   UNL A   1      30.264  24.864  25.891  1.00  0.00     0.261 C 
BRANCH  76  77
ATOM     77  O   UNL A   1      31.039  23.706  25.558  1.00  0.00    -0.459 OA
BRANCH  77  78
ATOM     78  C   UNL A   1      31.723  23.062  26.534  1.00  0.00     0.364 C 
ATOM     79  O   UNL A   1      31.317  22.949  27.676  1.00  0.00    -0.245 OA
BRANCH  78  80
ATOM     80  C   UNL A   1      33.090  22.526  26.014  1.00  0.00     0.295 C 
ATOM     81  C   UNL A   1      33.058  20.986  26.168  1.00  0.00     0.078 C 
ATOM     82  N   UNL A   1      33.363  22.988  24.617  1.00  0.00    -0.319 N 
ATOM     83  C   UNL A   1      32.188  20.351  25.092  1.00  0.00     0.013 C 
ATOM     84  C   UNL A   1      33.652  21.884  23.685  1.00  0.00     0.263 C 
ATOM     85  H   UNL A   1      32.482  23.409  24.324  1.00  0.00     0.349 HD
ATOM     86  C   UNL A   1      32.813  20.600  23.737  1.00  0.00     0.062 C 
BRANCH  82  87
ATOM     87  C   UNL A   1      34.403  24.082  24.515  1.00  0.00     0.301 C 
BRANCH  87  88
ATOM     88  C   UNL A   1      33.966  25.393  23.860  1.00  0.00     0.025 A 
ATOM     89  C   UNL A   1      33.389  25.431  22.592  1.00  0.00     0.014 A 
ATOM     90  C   UNL A   1      34.071  26.640  24.504  1.00  0.00     0.052 A 
ATOM     91  C   UNL A   1      33.261  26.639  21.896  1.00  0.00     0.040 A 
ATOM     92  C   UNL A   1      34.100  27.841  23.790  1.00  0.00     0.060 A 
ATOM     93  Cl  UNL A   1      33.603  26.795  26.168  1.00  0.00    -0.084 Cl
ATOM     94  C   UNL A   1      33.724  27.818  22.464  1.00  0.00     0.124 A 
ATOM     95  F   UNL A   1      33.707  28.954  21.755  1.00  0.00    -0.207 F 
ENDBRANCH  87  88
ENDBRANCH  82  87
ENDBRANCH  78  80
ENDBRANCH  77  78
ENDBRANCH  76  77
ENDBRANCH  75  76
ENDBRANCH  74  75
ENDBRANCH  73  74
ENDBRANCH   1  73
TORSDOF 22
ENDMDL
MODEL 2
REMARK VINA RESULT:     -10.4      4.983     10.172
REMARK SMILES O=C(OCCOCCOCCOC(=O)[C@H]1CCCC[N@@H+]1Cc1ccc(F)cc1Cl)c1ccc(-c2c3nc(c(-c4cccc(S(=O)(=O)[O-])c4F)c4ccc([nH]4)c(-c4cccc(S(=O)(=O)[O-])c4F)c4nc(c(-c5cccc(S(=O)(=O)[O-])c5F)c5ccc2[nH]5)C=C4)C=C3)cc1
REMARK SMILES IDX 7 1 6 2 5 3 4 4 3 5 2 6 1 7 30 8 31 9 92 10 32 11 91 12
REMARK SMILES IDX 33 13 34 14 35 15 85 16 36 17 90 18 84 19 86 20 37 21 89 22
REMARK SMILES IDX 83 23 82 24 38 26 70 27 50 28 69 29 51 30 54 31 68 32 87 33
REMARK SMILES IDX 52 34 53 35 67 37 88 38 55 39 39 40 40 41 48 42 41 43 43 44
REMARK SMILES IDX 49 45 42 46 44 47 45 48 46 49 47 50 71 51 72 52 80 53 73 54
REMARK SMILES IDX 75 55 81 56 74 57 76 58 77 59 78 60 79 61 56 62 57 63 65 64
REMARK SMILES IDX 58 65 60 66 66 67 59 68 61 69 62 70 63 71 64 72 8 73 9 74
REMARK SMILES IDX 10 75 11 76 12 77 13 78 14 79 15 80 16 81 20 82 17 83 19 84
REMARK SMILES IDX 18 86 21 87 22 88 23 89 28 90 24 91 27 92 29 93 25 94 26 95
REMARK H PARENT 86 25 54 36 20 85
REMARK Flexibility Score: inf
ROOT
ATOM      1  C   UNL A   1      34.752  21.096  24.671  1.00  0.00     0.188 C 
ENDROOT
BRANCH   1   2
ATOM      2  O   UNL A   1      35.274  19.804  24.967  1.00  0.00    -0.376 OA
BRANCH   2   3
ATOM      3  C   UNL A   1      36.660  19.621  24.728  1.00  0.00     0.202 C 
BRANCH   3   4
ATOM      4  C   UNL A   1      37.452  20.932  24.784  1.00  0.00     0.261 C 
BRANCH   4   5
ATOM      5  O   UNL A   1      38.257  20.981  25.987  1.00  0.00    -0.460 OA
BRANCH   5   6
ATOM      6  C   UNL A   1      39.527  21.378  26.237  1.00  0.00     0.338 C 
ATOM      7  O   UNL A   1      40.431  20.584  25.977  1.00  0.00    -0.246 OA
BRANCH   6   8
ATOM      8  C   UNL A   1      39.918  22.677  26.878  1.00  0.00     0.060 A 
ATOM      9  C   UNL A   1      39.280  23.888  26.671  1.00  0.00     0.016 A 
ATOM     10  C   UNL A   1      40.984  22.668  27.813  1.00  0.00     0.016 A 
ATOM     11  C   UNL A   1      39.745  25.044  27.300  1.00  0.00     0.010 A 
ATOM     12  C   UNL A   1      41.393  23.832  28.510  1.00  0.00     0.010 A 
ATOM     13  C   UNL A   1      40.772  25.051  28.247  1.00  0.00    -0.014 A 
BRANCH  13  14
ATOM     14  C   UNL A   1      41.298  26.395  28.640  1.00  0.00     0.031 A 
ATOM     15  C   UNL A   1      42.633  26.772  28.070  1.00  0.00     0.074 A 
ATOM     16  C   UNL A   1      40.567  27.352  29.254  1.00  0.00     0.049 A 
ATOM     17  N   UNL A   1      43.268  27.910  28.127  1.00  0.00    -0.248 NA
ATOM     18  C   UNL A   1      43.338  25.717  27.320  1.00  0.00     0.031 C 
ATOM     19  C   UNL A   1      39.236  27.166  29.803  1.00  0.00     0.029 A 
ATOM     20  N   UNL A   1      40.809  28.692  29.474  1.00  0.00    -0.354 N 
ATOM     21  C   UNL A   1      44.475  27.689  27.484  1.00  0.00     0.074 A 
ATOM     22  C   UNL A   1      44.461  26.330  26.993  1.00  0.00     0.031 C 
ATOM     23  C   UNL A   1      38.719  28.347  30.176  1.00  0.00     0.029 A 
ATOM     24  C   UNL A   1      39.737  29.378  30.015  1.00  0.00     0.049 A 
ATOM     25  H   UNL A   1      41.669  29.122  29.263  1.00  0.00     0.167 HD
ATOM     26  C   UNL A   1      45.522  28.529  27.345  1.00  0.00     0.034 A 
ATOM     27  C   UNL A   1      39.600  30.674  30.376  1.00  0.00     0.034 A 
ATOM     28  C   UNL A   1      45.546  29.877  27.833  1.00  0.00     0.049 A 
ATOM     29  C   UNL A   1      40.795  31.582  30.238  1.00  0.00     0.074 A 
ATOM     30  C   UNL A   1      46.595  30.777  27.812  1.00  0.00     0.029 A 
ATOM     31  N   UNL A   1      44.477  30.515  28.439  1.00  0.00    -0.354 N 
ATOM     32  N   UNL A   1      41.950  31.345  29.664  1.00  0.00    -0.248 NA
ATOM     33  C   UNL A   1      40.682  32.930  30.818  1.00  0.00     0.031 C 
ATOM     34  C   UNL A   1      46.169  31.953  28.436  1.00  0.00     0.029 A 
ATOM     35  C   UNL A   1      44.840  31.800  28.797  1.00  0.00     0.049 A 
ATOM     36  H   UNL A   1      43.591  30.114  28.591  1.00  0.00     0.167 HD
ATOM     37  C   UNL A   1      42.690  32.513  29.799  1.00  0.00     0.074 A 
ATOM     38  C   UNL A   1      41.843  33.472  30.476  1.00  0.00     0.031 C 
ATOM     39  C   UNL A   1      43.968  32.760  29.421  1.00  0.00     0.034 A 
BRANCH  26  40
ATOM     40  C   UNL A   1      46.761  27.949  26.732  1.00  0.00     0.023 A 
ATOM     41  C   UNL A   1      47.766  27.379  27.538  1.00  0.00     0.012 A 
ATOM     42  C   UNL A   1      46.941  28.026  25.339  1.00  0.00     0.148 A 
ATOM     43  C   UNL A   1      48.954  26.931  26.964  1.00  0.00     0.002 A 
ATOM     44  C   UNL A   1      48.104  27.529  24.771  1.00  0.00     0.091 A 
ATOM     45  F   UNL A   1      45.988  28.614  24.603  1.00  0.00    -0.205 F 
ATOM     46  C   UNL A   1      49.118  26.997  25.582  1.00  0.00     0.022 A 
BRANCH  44  47
ATOM     47  S   UNL A   1      48.370  27.508  22.998  1.00  0.00     0.127 S 
ATOM     48  O   UNL A   1      49.708  28.087  22.893  1.00  0.00    -0.237 OA
ATOM     49  O   UNL A   1      48.297  26.078  22.698  1.00  0.00    -0.237 OA
ATOM     50  O   UNL A   1      47.299  28.307  22.418  1.00  0.00    -0.744 OA
ENDBRANCH  44  47
ENDBRANCH  26  40
BRANCH  27  51
ATOM     51  C   UNL A   1      38.320  31.209  30.950  1.00  0.00     0.023 A 
ATOM     52  C   UNL A   1      38.072  31.112  32.335  1.00  0.00     0.012 A 
ATOM     53  C   UNL A   1      37.320  31.764  30.128  1.00  0.00     0.148 A 
ATOM     54  C   UNL A   1      36.849  31.520  32.880  1.00  0.00     0.002 A 
ATOM     55  C   UNL A   1      36.138  32.241  30.684  1.00  0.00     0.091 A 
ATOM     56  F   UNL A   1      37.535  31.807  28.806  1.00  0.00    -0.205 F 
ATOM     57  C   UNL A   1      35.887  32.097  32.057  1.00  0.00     0.022 A 
BRANCH  55  58
ATOM     58  S   UNL A   1      34.921  33.139  29.714  1.00  0.00     0.127 S 
ATOM     59  O   UNL A   1      33.981  33.577  30.741  1.00  0.00    -0.237 OA
ATOM     60  O   UNL A   1      35.734  34.204  29.125  1.00  0.00    -0.237 OA
ATOM     61  O   UNL A   1      34.409  32.177  28.748  1.00  0.00    -0.744 OA
ENDBRANCH  55  58
ENDBRANCH  27  51
BRANCH  39  62
ATOM     62  C   UNL A   1      44.521  34.136  29.674  1.00  0.00     0.023 A 
ATOM     63  C   UNL A   1      45.118  34.448  30.911  1.00  0.00     0.012 A 
ATOM     64  C   UNL A   1      44.521  35.095  28.642  1.00  0.00     0.148 A 
ATOM     65  C   UNL A   1      45.679  35.707  31.128  1.00  0.00     0.002 A 
ATOM     66  C   UNL A   1      45.130  36.326  28.847  1.00  0.00     0.091 A 
ATOM     67  F   UNL A   1      43.929  34.785  27.480  1.00  0.00    -0.205 F 
ATOM     68  C   UNL A   1      45.697  36.639  30.092  1.00  0.00     0.022 A 
BRANCH  66  69
ATOM     69  S   UNL A   1      45.291  37.541  27.534  1.00  0.00     0.127 S 
ATOM     70  O   UNL A   1      45.892  36.745  26.465  1.00  0.00    -0.237 OA
ATOM     71  O   UNL A   1      43.900  37.929  27.298  1.00  0.00    -0.237 OA
ATOM     72  O   UNL A   1      46.129  38.603  28.072  1.00  0.00    -0.744 OA
ENDBRANCH  66  69
ENDBRANCH  39  62
ENDBRANCH  13  14
ENDBRANCH   6   8
ENDBRANCH   5   6
ENDBRANCH   4   5
ENDBRANCH   3   4
ENDBRANCH   2   3
ENDBRANCH   1   2
BRANCH   1  73
ATOM     73  C   UNL A   1      33.850  21.748  25.729  1.00  0.00     0.188 C 
BRANCH  73  74
ATOM     74  O   UNL A   1      32.441  21.552  25.600  1.00  0.00    -0.376 OA
BRANCH  74  75
ATOM     75  C   UNL A   1      31.606  22.562  26.168  1.00  0.00     0.202 C 
BRANCH  75  76
ATOM     76  C   UNL A   1      32.352  23.603  27.004  1.00  0.00     0.261 C 
BRANCH  76  77
ATOM     77  O   UNL A   1      31.746  24.876  26.754  1.00  0.00    -0.459 OA
BRANCH  77  78
ATOM     78  C   UNL A   1      32.301  25.707  25.840  1.00  0.00     0.364 C 
ATOM     79  O   UNL A   1      33.410  25.540  25.366  1.00  0.00    -0.245 OA
BRANCH  78  80
ATOM     80  C   UNL A   1      31.358  26.903  25.510  1.00  0.00     0.295 C 
ATOM     81  C   UNL A   1      30.986  27.568  26.856  1.00  0.00     0.078 C 
ATOM     82  N   UNL A   1      31.985  27.839  24.525  1.00  0.00    -0.319 N 
ATOM     83  C   UNL A   1      32.149  28.392  27.393  1.00  0.00     0.013 C 
ATOM     84  C   UNL A   1      32.029  29.235  24.996  1.00  0.00     0.263 C 
ATOM     85  H   UNL A   1      32.949  27.511  24.458  1.00  0.00     0.349 HD
ATOM     86  C   UNL A   1      32.423  29.540  26.447  1.00  0.00     0.062 C 
BRANCH  82  87
ATOM     87  C   UNL A   1      31.416  27.746  23.127  1.00  0.00     0.301 C 
BRANCH  87  88
ATOM     88  C   UNL A   1      30.211  28.633  22.811  1.00  0.00     0.025 A 
ATOM     89  C   UNL A   1      30.268  29.648  21.857  1.00  0.00     0.014 A 
ATOM     90  C   UNL A   1      28.954  28.459  23.419  1.00  0.00     0.052 A 
ATOM     91  C   UNL A   1      29.265  30.622  21.783  1.00  0.00     0.040 A 
ATOM     92  C   UNL A   1      28.012  29.489  23.480  1.00  0.00     0.060 A 
ATOM     93  Cl  UNL A   1      28.297  26.863  23.604  1.00  0.00    -0.084 Cl
ATOM     94  C   UNL A   1      28.203  30.592  22.675  1.00  0.00     0.124 A 
ATOM     95  F   UNL A   1      27.305  31.586  22.680  1.00  0.00    -0.207 F 
ENDBRANCH  87  88
ENDBRANCH  82  87
ENDBRANCH  78  80
ENDBRANCH  77  78
ENDBRANCH  76  77
ENDBRANCH  75  76
ENDBRANCH  74  75
ENDBRANCH  73  74
ENDBRANCH   1  73
TORSDOF 22
ENDMDL
MODEL 3
REMARK VINA RESULT:     -10.3      1.743      2.992
REMARK SMILES O=C(OCCOCCOCCOC(=O)[C@H]1CCCC[N@@H+]1Cc1ccc(F)cc1Cl)c1ccc(-c2c3nc(c(-c4cccc(S(=O)(=O)[O-])c4F)c4ccc([nH]4)c(-c4cccc(S(=O)(=O)[O-])c4F)c4nc(c(-c5cccc(S(=O)(=O)[O-])c5F)c5ccc2[nH]5)C=C4)C=C3)cc1
REMARK SMILES IDX 7 1 6 2 5 3 4 4 3 5 2 6 1 7 30 8 31 9 92 10 32 11 91 12
REMARK SMILES IDX 33 13 34 14 35 15 85 16 36 17 90 18 84 19 86 20 37 21 89 22
REMARK SMILES IDX 83 23 82 24 38 26 70 27 50 28 69 29 51 30 54 31 68 32 87 33
REMARK SMILES IDX 52 34 53 35 67 37 88 38 55 39 39 40 40 41 48 42 41 43 43 44
REMARK SMILES IDX 49 45 42 46 44 47 45 48 46 49 47 50 71 51 72 52 80 53 73 54
REMARK SMILES IDX 75 55 81 56 74 57 76 58 77 59 78 60 79 61 56 62 57 63 65 64
REMARK SMILES IDX 58 65 60 66 66 67 59 68 61 69 62 70 63 71 64 72 8 73 9 74
REMARK SMILES IDX 10 75 11 76 12 77 13 78 14 79 15 80 16 81 20 82 17 83 19 84
REMARK SMILES IDX 18 86 21 87 22 88 23 89 28 90 24 91 27 92 29 93 25 94 26 95
REMARK H PARENT 86 25 54 36 20 85
REMARK Flexibility Score: inf
ROOT
ATOM      1  C   UNL A   1      31.671  29.315  24.313  1.00  0.00     0.188 C 
ENDROOT
BRANCH   1   2
ATOM      2  O   UNL A   1      31.579  30.093  25.502  1.00  0.00    -0.376 OA
BRANCH   2   3
ATOM      3  C   UNL A   1      30.738  31.234  25.438  1.00  0.00     0.202 C 
BRANCH   3   4
ATOM      4  C   UNL A   1      31.196  32.362  26.370  1.00  0.00     0.261 C 
BRANCH   4   5
ATOM      5  O   UNL A   1      32.404  31.977  27.069  1.00  0.00    -0.460 OA
BRANCH   5   6
ATOM      6  C   UNL A   1      33.391  32.681  27.673  1.00  0.00     0.338 C 
ATOM      7  O   UNL A   1      33.205  33.885  27.844  1.00  0.00    -0.246 OA
BRANCH   6   8
ATOM      8  C   UNL A   1      34.724  32.128  28.081  1.00  0.00     0.060 A 
ATOM      9  C   UNL A   1      35.002  30.784  28.271  1.00  0.00     0.016 A 
ATOM     10  C   UNL A   1      35.807  33.031  28.232  1.00  0.00     0.016 A 
ATOM     11  C   UNL A   1      36.275  30.381  28.679  1.00  0.00     0.010 A 
ATOM     12  C   UNL A   1      37.116  32.601  28.563  1.00  0.00     0.010 A 
ATOM     13  C   UNL A   1      37.361  31.250  28.802  1.00  0.00    -0.014 A 
BRANCH  13  14
ATOM     14  C   UNL A   1      38.578  30.695  29.472  1.00  0.00     0.031 A 
ATOM     15  C   UNL A   1      38.690  30.944  30.947  1.00  0.00     0.074 A 
ATOM     16  C   UNL A   1      39.427  29.811  28.902  1.00  0.00     0.049 A 
ATOM     17  N   UNL A   1      39.554  30.476  31.804  1.00  0.00    -0.248 NA
ATOM     18  C   UNL A   1      37.672  31.836  31.531  1.00  0.00     0.031 C 
ATOM     19  C   UNL A   1      39.411  29.414  27.506  1.00  0.00     0.029 A 
ATOM     20  N   UNL A   1      40.437  29.035  29.433  1.00  0.00    -0.354 N 
ATOM     21  C   UNL A   1      39.229  31.069  33.013  1.00  0.00     0.074 A 
ATOM     22  C   UNL A   1      38.056  31.884  32.794  1.00  0.00     0.031 C 
ATOM     23  C   UNL A   1      40.257  28.392  27.304  1.00  0.00     0.029 A 
ATOM     24  C   UNL A   1      40.987  28.135  28.539  1.00  0.00     0.049 A 
ATOM     25  H   UNL A   1      40.739  29.116  30.366  1.00  0.00     0.167 HD
ATOM     26  C   UNL A   1      39.872  30.978  34.196  1.00  0.00     0.034 A 
ATOM     27  C   UNL A   1      41.985  27.234  28.684  1.00  0.00     0.034 A 
ATOM     28  C   UNL A   1      41.040  30.177  34.421  1.00  0.00     0.049 A 
ATOM     29  C   UNL A   1      42.705  27.175  30.007  1.00  0.00     0.074 A 
ATOM     30  C   UNL A   1      41.809  30.086  35.565  1.00  0.00     0.029 A 
ATOM     31  N   UNL A   1      41.613  29.337  33.480  1.00  0.00    -0.354 N 
ATOM     32  N   UNL A   1      42.411  27.777  31.134  1.00  0.00    -0.248 NA
ATOM     33  C   UNL A   1      43.909  26.331  30.076  1.00  0.00     0.031 C 
ATOM     34  C   UNL A   1      42.869  29.212  35.307  1.00  0.00     0.029 A 
ATOM     35  C   UNL A   1      42.728  28.722  34.018  1.00  0.00     0.049 A 
ATOM     36  H   UNL A   1      41.276  29.198  32.566  1.00  0.00     0.167 HD
ATOM     37  C   UNL A   1      43.380  27.375  32.045  1.00  0.00     0.074 A 
ATOM     38  C   UNL A   1      44.250  26.448  31.352  1.00  0.00     0.031 C 
ATOM     39  C   UNL A   1      43.551  27.760  33.333  1.00  0.00     0.034 A 
BRANCH  26  40
ATOM     40  C   UNL A   1      39.370  31.866  35.294  1.00  0.00     0.023 A 
ATOM     41  C   UNL A   1      38.376  31.419  36.186  1.00  0.00     0.012 A 
ATOM     42  C   UNL A   1      39.863  33.181  35.396  1.00  0.00     0.148 A 
ATOM     43  C   UNL A   1      37.850  32.288  37.140  1.00  0.00     0.002 A 
ATOM     44  C   UNL A   1      39.372  34.020  36.383  1.00  0.00     0.091 A 
ATOM     45  F   UNL A   1      40.776  33.592  34.504  1.00  0.00    -0.205 F 
ATOM     46  C   UNL A   1      38.354  33.583  37.244  1.00  0.00     0.022 A 
BRANCH  44  47
ATOM     47  S   UNL A   1      40.010  35.677  36.635  1.00  0.00     0.127 S 
ATOM     48  O   UNL A   1      41.446  35.427  36.745  1.00  0.00    -0.237 OA
ATOM     49  O   UNL A   1      39.598  36.350  35.404  1.00  0.00    -0.237 OA
ATOM     50  O   UNL A   1      39.371  36.177  37.845  1.00  0.00    -0.744 OA
ENDBRANCH  44  47
ENDBRANCH  26  40
BRANCH  27  51
ATOM     51  C   UNL A   1      42.420  26.342  27.558  1.00  0.00     0.023 A 
ATOM     52  C   UNL A   1      43.272  26.841  26.551  1.00  0.00     0.012 A 
ATOM     53  C   UNL A   1      41.953  25.017  27.446  1.00  0.00     0.148 A 
ATOM     54  C   UNL A   1      43.617  26.056  25.444  1.00  0.00     0.002 A 
ATOM     55  C   UNL A   1      42.363  24.216  26.385  1.00  0.00     0.091 A 
ATOM     56  F   UNL A   1      41.102  24.563  28.375  1.00  0.00    -0.205 F 
ATOM     57  C   UNL A   1      43.173  24.739  25.367  1.00  0.00     0.022 A 
BRANCH  55  58
ATOM     58  S   UNL A   1      41.963  22.467  26.302  1.00  0.00     0.127 S 
ATOM     59  O   UNL A   1      40.503  22.492  26.277  1.00  0.00    -0.237 OA
ATOM     60  O   UNL A   1      42.596  22.073  25.043  1.00  0.00    -0.237 OA
ATOM     61  O   UNL A   1      42.570  21.873  27.486  1.00  0.00    -0.744 OA
ENDBRANCH  55  58
ENDBRANCH  27  51
BRANCH  39  62
ATOM     62  C   UNL A   1      44.685  27.144  34.107  1.00  0.00     0.023 A 
ATOM     63  C   UNL A   1      45.893  27.847  34.281  1.00  0.00     0.012 A 
ATOM     64  C   UNL A   1      44.512  25.894  34.733  1.00  0.00     0.148 A 
ATOM     65  C   UNL A   1      46.925  27.299  35.042  1.00  0.00     0.002 A 
ATOM     66  C   UNL A   1      45.523  25.381  35.534  1.00  0.00     0.091 A 
ATOM     67  F   UNL A   1      43.363  25.233  34.536  1.00  0.00    -0.205 F 
ATOM     68  C   UNL A   1      46.735  26.074  35.679  1.00  0.00     0.022 A 
BRANCH  66  69
ATOM     69  S   UNL A   1      45.318  23.864  36.474  1.00  0.00     0.127 S 
ATOM     70  O   UNL A   1      46.700  23.547  36.831  1.00  0.00    -0.237 OA
ATOM     71  O   UNL A   1      44.484  24.303  37.593  1.00  0.00    -0.237 OA
ATOM     72  O   UNL A   1      44.670  22.920  35.574  1.00  0.00    -0.744 OA
ENDBRANCH  66  69
ENDBRANCH  39  62
ENDBRANCH  13  14
ENDBRANCH   6   8
ENDBRANCH   5   6
ENDBRANCH   4   5
ENDBRANCH   3   4
ENDBRANCH   2   3
ENDBRANCH   1   2
BRANCH   1  73
ATOM     73  C   UNL A   1      30.695  28.139  24.163  1.00  0.00     0.188 C 
BRANCH  73  74
ATOM     74  O   UNL A   1      30.792  27.082  25.118  1.00  0.00    -0.376 OA
BRANCH  74  75
ATOM     75  C   UNL A   1      29.893  25.987  24.944  1.00  0.00     0.202 C 
BRANCH  75  76
ATOM     76  C   UNL A   1      30.220  24.759  25.795  1.00  0.00     0.261 C 
BRANCH  76  77
ATOM     77  O   UNL A   1      30.731  23.747  24.920  1.00  0.00    -0.459 OA
BRANCH  77  78
ATOM     78  C   UNL A   1      31.741  22.950  25.344  1.00  0.00     0.364 C 
ATOM     79  O   UNL A   1      31.669  22.243  26.332  1.00  0.00    -0.245 OA
BRANCH  78  80
ATOM     80  C   UNL A   1      32.997  23.087  24.432  1.00  0.00     0.295 C 
ATOM     81  C   UNL A   1      33.263  24.602  24.257  1.00  0.00     0.078 C 
ATOM     82  N   UNL A   1      34.161  22.329  24.986  1.00  0.00    -0.319 N 
ATOM     83  C   UNL A   1      33.883  25.192  25.516  1.00  0.00     0.013 C 
ATOM     84  C   UNL A   1      35.367  23.158  25.158  1.00  0.00     0.263 C 
ATOM     85  H   UNL A   1      33.850  22.051  25.917  1.00  0.00     0.349 HD
ATOM     86  C   UNL A   1      35.246  24.574  25.736  1.00  0.00     0.062 C 
BRANCH  82  87
ATOM     87  C   UNL A   1      34.475  21.044  24.252  1.00  0.00     0.301 C 
BRANCH  87  88
ATOM     88  C   UNL A   1      33.571  19.844  24.538  1.00  0.00     0.025 A 
ATOM     89  C   UNL A   1      33.358  19.370  25.831  1.00  0.00     0.014 A 
ATOM     90  C   UNL A   1      32.857  19.169  23.531  1.00  0.00     0.052 A 
ATOM     91  C   UNL A   1      32.771  18.117  26.050  1.00  0.00     0.040 A 
ATOM     92  C   UNL A   1      32.407  17.856  23.697  1.00  0.00     0.060 A 
ATOM     93  Cl  UNL A   1      32.023  20.073  22.307  1.00  0.00    -0.084 Cl
ATOM     94  C   UNL A   1      32.404  17.326  24.970  1.00  0.00     0.124 A 
ATOM     95  F   UNL A   1      31.950  16.083  25.174  1.00  0.00    -0.207 F 
ENDBRANCH  87  88
ENDBRANCH  82  87
ENDBRANCH  78  80
ENDBRANCH  77  78
ENDBRANCH  76  77
ENDBRANCH  75  76
ENDBRANCH  74  75
ENDBRANCH  73  74
ENDBRANCH   1  73
TORSDOF 22
ENDMDL
