MODEL 1
REMARK VINA RESULT:     -11.0      0.000      0.000
REMARK SMILES Cc1oc2c(C)c3oc(=O)c(CC(=O)N[C@@H](CC(C)C)C(=O)OCCOCCOCCOC(=O)c4ccc(-c5c6nc(c(-c7cccc(S(=O)(=O)[O-])c7F)c7ccc([nH]7)c(-c7cccc(S(=O)(=O)[O-])c7F)c7nc(c(-c8cccc(S(=O)(=O)[O-])c8F)c8ccc5[nH]8)C=C7)C=C6)cc4)c(C)c3cc2c1C
REMARK SMILES IDX 27 1 26 2 25 3 24 4 23 5 21 6 22 7 16 8 15 9 13 10 14 11
REMARK SMILES IDX 12 13 11 14 1 15 2 16 3 17 103 18 4 19 102 20 104 21 5 22
REMARK SMILES IDX 101 23 6 24 7 25 100 26 8 27 98 28 9 29 99 30 10 31 17 32
REMARK SMILES IDX 18 33 19 34 20 35 28 36 29 37 30 38 31 39 32 40 33 41 34 42
REMARK SMILES IDX 35 43 36 44 97 45 37 46 96 47 38 48 39 49 40 50 90 51 41 52
REMARK SMILES IDX 95 53 89 54 91 55 42 56 94 57 88 58 87 59 43 61 75 62 55 63
REMARK SMILES IDX 74 64 56 65 59 66 73 67 92 68 57 69 58 70 72 72 93 73 60 74
REMARK SMILES IDX 44 75 45 76 53 77 46 78 48 79 54 80 47 81 49 82 50 83 51 84
REMARK SMILES IDX 52 85 76 86 77 87 85 88 78 89 80 90 86 91 79 92 81 93 82 94
REMARK SMILES IDX 83 95 84 96 61 97 62 98 70 99 63 100 65 101 71 102 64 103
REMARK SMILES IDX 66 104 67 105 68 106 69 107
REMARK H PARENT 15 12 91 60 59 71
REMARK Flexibility Score: inf
ROOT
ATOM      1  C   UNL A   1      40.046  22.309  27.134  1.00  0.00     0.188 C 
ENDROOT
BRANCH   1   2
ATOM      2  O   UNL A   1      39.173  22.334  26.006  1.00  0.00    -0.376 OA
BRANCH   2   3
ATOM      3  C   UNL A   1      37.943  23.042  26.083  1.00  0.00     0.202 C 
BRANCH   3   4
ATOM      4  C   UNL A   1      36.770  22.437  25.316  1.00  0.00     0.261 C 
BRANCH   4   5
ATOM      5  O   UNL A   1      36.229  21.270  25.959  1.00  0.00    -0.462 OA
BRANCH   5   6
ATOM      6  C   UNL A   1      34.912  21.332  26.276  1.00  0.00     0.328 C 
ATOM      7  O   UNL A   1      34.481  21.629  27.385  1.00  0.00    -0.250 OA
BRANCH   6   8
ATOM      8  C   UNL A   1      33.985  20.915  25.114  1.00  0.00     0.192 C 
BRANCH   8   9
ATOM      9  N   UNL A   1      33.820  21.781  23.943  1.00  0.00    -0.342 N 
ATOM     10  C   UNL A   1      33.003  22.852  23.731  1.00  0.00     0.225 C 
ATOM     11  O   UNL A   1      32.979  23.334  22.597  1.00  0.00    -0.275 OA
ATOM     12  H   UNL A   1      34.398  21.550  23.179  1.00  0.00     0.164 HD
BRANCH  10  13
ATOM     13  C   UNL A   1      32.183  23.470  24.859  1.00  0.00     0.143 C 
BRANCH  13  14
ATOM     14  C   UNL A   1      31.988  24.952  24.676  1.00  0.00     0.051 A 
ATOM     15  C   UNL A   1      28.733  32.621  23.222  1.00  0.00     0.088 C 
ATOM     16  C   UNL A   1      29.154  31.227  23.468  1.00  0.00     0.105 A 
ATOM     17  O   UNL A   1      30.233  31.062  24.281  1.00  0.00    -0.461 OA
ATOM     18  C   UNL A   1      28.696  30.005  23.012  1.00  0.00    -0.002 A 
ATOM     19  C   UNL A   1      30.513  29.730  24.319  1.00  0.00     0.141 A 
ATOM     20  C   UNL A   1      29.593  29.035  23.548  1.00  0.00     0.025 A 
ATOM     21  C   UNL A   1      27.546  29.733  22.116  1.00  0.00     0.049 C 
ATOM     22  C   UNL A   1      31.574  29.143  25.012  1.00  0.00     0.036 A 
ATOM     23  C   UNL A   1      29.718  27.637  23.440  1.00  0.00     0.024 A 
ATOM     24  C   UNL A   1      32.523  29.939  25.852  1.00  0.00     0.052 C 
ATOM     25  C   UNL A   1      31.684  27.750  24.822  1.00  0.00     0.145 A 
ATOM     26  C   UNL A   1      30.791  26.982  24.064  1.00  0.00     0.022 A 
ATOM     27  O   UNL A   1      32.790  27.133  25.436  1.00  0.00    -0.422 OA
ATOM     28  C   UNL A   1      30.972  25.519  23.990  1.00  0.00    -0.029 A 
ATOM     29  C   UNL A   1      33.037  25.782  25.320  1.00  0.00     0.340 A 
ATOM     30  C   UNL A   1      29.986  24.724  23.167  1.00  0.00     0.046 C 
ATOM     31  O   UNL A   1      34.057  25.289  25.789  1.00  0.00    -0.246 OA
ENDBRANCH  13  14
ENDBRANCH  10  13
ENDBRANCH   8   9
BRANCH   8  32
ATOM     32  C   UNL A   1      34.356  19.494  24.654  1.00  0.00     0.040 C 
BRANCH  32  33
ATOM     33  C   UNL A   1      33.184  18.551  24.286  1.00  0.00    -0.015 C 
ATOM     34  C   UNL A   1      33.534  17.463  23.271  1.00  0.00     0.007 C 
ATOM     35  C   UNL A   1      32.652  17.899  25.565  1.00  0.00     0.007 C 
ENDBRANCH  32  33
ENDBRANCH   8  32
ENDBRANCH   6   8
ENDBRANCH   5   6
ENDBRANCH   4   5
ENDBRANCH   3   4
ENDBRANCH   2   3
ENDBRANCH   1   2
BRANCH   1  36
ATOM     36  C   UNL A   1      41.071  21.173  27.283  1.00  0.00     0.188 C 
BRANCH  36  37
ATOM     37  O   UNL A   1      41.906  20.983  26.156  1.00  0.00    -0.376 OA
BRANCH  37  38
ATOM     38  C   UNL A   1      42.552  19.719  26.087  1.00  0.00     0.202 C 
BRANCH  38  39
ATOM     39  C   UNL A   1      43.869  19.788  25.307  1.00  0.00     0.261 C 
BRANCH  39  40
ATOM     40  O   UNL A   1      44.185  21.108  24.829  1.00  0.00    -0.460 OA
BRANCH  40  41
ATOM     41  C   UNL A   1      45.394  21.580  25.220  1.00  0.00     0.338 C 
ATOM     42  O   UNL A   1      46.461  20.999  25.172  1.00  0.00    -0.246 OA
BRANCH  41  43
ATOM     43  C   UNL A   1      45.242  22.989  25.593  1.00  0.00     0.060 A 
ATOM     44  C   UNL A   1      45.650  23.425  26.859  1.00  0.00     0.016 A 
ATOM     45  C   UNL A   1      44.601  23.846  24.710  1.00  0.00     0.016 A 
ATOM     46  C   UNL A   1      45.421  24.747  27.246  1.00  0.00     0.010 A 
ATOM     47  C   UNL A   1      44.344  25.152  25.115  1.00  0.00     0.010 A 
ATOM     48  C   UNL A   1      44.751  25.617  26.382  1.00  0.00    -0.014 A 
BRANCH  48  49
ATOM     49  C   UNL A   1      44.418  26.998  26.826  1.00  0.00     0.031 A 
ATOM     50  C   UNL A   1      43.917  27.100  28.222  1.00  0.00     0.074 A 
ATOM     51  C   UNL A   1      45.125  28.056  26.358  1.00  0.00     0.049 A 
ATOM     52  N   UNL A   1      44.772  27.030  29.193  1.00  0.00    -0.248 NA
ATOM     53  C   UNL A   1      42.531  27.006  28.667  1.00  0.00     0.031 C 
ATOM     54  C   UNL A   1      46.375  27.919  25.594  1.00  0.00     0.029 A 
ATOM     55  N   UNL A   1      45.051  29.409  26.636  1.00  0.00    -0.354 N 
ATOM     56  C   UNL A   1      44.087  26.720  30.346  1.00  0.00     0.074 A 
ATOM     57  C   UNL A   1      42.688  26.797  29.991  1.00  0.00     0.031 C 
ATOM     58  C   UNL A   1      47.023  29.098  25.598  1.00  0.00     0.029 A 
ATOM     59  C   UNL A   1      46.183  30.113  26.223  1.00  0.00     0.049 A 
ATOM     60  H   UNL A   1      44.280  29.832  27.078  1.00  0.00     0.167 HD
ATOM     61  C   UNL A   1      44.766  26.403  31.484  1.00  0.00     0.034 A 
ATOM     62  C   UNL A   1      46.684  31.253  26.765  1.00  0.00     0.034 A 
ATOM     63  C   UNL A   1      46.218  26.400  31.408  1.00  0.00     0.049 A 
ATOM     64  C   UNL A   1      47.200  30.827  28.106  1.00  0.00     0.074 A 
ATOM     65  C   UNL A   1      47.282  25.671  31.902  1.00  0.00     0.029 A 
ATOM     66  N   UNL A   1      46.788  27.337  30.592  1.00  0.00    -0.354 N 
ATOM     67  N   UNL A   1      48.339  30.216  28.313  1.00  0.00    -0.248 NA
ATOM     68  C   UNL A   1      46.301  30.853  29.268  1.00  0.00     0.031 C 
ATOM     69  C   UNL A   1      48.492  26.278  31.411  1.00  0.00     0.029 A 
ATOM     70  C   UNL A   1      48.148  27.394  30.667  1.00  0.00     0.049 A 
ATOM     71  H   UNL A   1      46.260  27.921  30.000  1.00  0.00     0.167 HD
ATOM     72  C   UNL A   1      48.160  29.538  29.511  1.00  0.00     0.074 A 
ATOM     73  C   UNL A   1      46.976  30.099  30.129  1.00  0.00     0.031 C 
ATOM     74  C   UNL A   1      48.803  28.378  29.836  1.00  0.00     0.034 A 
BRANCH  61  75
ATOM     75  C   UNL A   1      44.115  26.319  32.814  1.00  0.00     0.023 A 
ATOM     76  C   UNL A   1      44.134  25.038  33.409  1.00  0.00     0.012 A 
ATOM     77  C   UNL A   1      43.377  27.348  33.417  1.00  0.00     0.148 A 
ATOM     78  C   UNL A   1      43.416  24.770  34.569  1.00  0.00     0.002 A 
ATOM     79  C   UNL A   1      42.658  27.073  34.582  1.00  0.00     0.091 A 
ATOM     80  F   UNL A   1      43.355  28.553  32.831  1.00  0.00    -0.205 F 
ATOM     81  C   UNL A   1      42.672  25.787  35.153  1.00  0.00     0.022 A 
BRANCH  79  82
ATOM     82  S   UNL A   1      41.645  28.294  35.428  1.00  0.00     0.127 S 
ATOM     83  O   UNL A   1      41.097  27.520  36.539  1.00  0.00    -0.237 OA
ATOM     84  O   UNL A   1      42.639  29.297  35.815  1.00  0.00    -0.237 OA
ATOM     85  O   UNL A   1      40.672  28.755  34.446  1.00  0.00    -0.744 OA
ENDBRANCH  79  82
ENDBRANCH  61  75
BRANCH  62  86
ATOM     86  C   UNL A   1      45.943  32.521  26.485  1.00  0.00     0.023 A 
ATOM     87  C   UNL A   1      44.673  32.395  25.868  1.00  0.00     0.012 A 
ATOM     88  C   UNL A   1      46.411  33.823  26.731  1.00  0.00     0.148 A 
ATOM     89  C   UNL A   1      43.870  33.504  25.592  1.00  0.00     0.002 A 
ATOM     90  C   UNL A   1      45.579  34.924  26.526  1.00  0.00     0.091 A 
ATOM     91  F   UNL A   1      47.670  33.999  27.142  1.00  0.00    -0.205 F 
ATOM     92  C   UNL A   1      44.311  34.770  25.951  1.00  0.00     0.022 A 
BRANCH  90  93
ATOM     93  S   UNL A   1      46.030  36.581  27.056  1.00  0.00     0.127 S 
ATOM     94  O   UNL A   1      46.874  36.312  28.219  1.00  0.00    -0.237 OA
ATOM     95  O   UNL A   1      46.742  37.075  25.878  1.00  0.00    -0.237 OA
ATOM     96  O   UNL A   1      44.776  37.261  27.348  1.00  0.00    -0.744 OA
ENDBRANCH  90  93
ENDBRANCH  62  86
BRANCH  74  97
ATOM     97  C   UNL A   1      50.128  28.139  29.194  1.00  0.00     0.023 A 
ATOM     98  C   UNL A   1      51.270  28.628  29.862  1.00  0.00     0.012 A 
ATOM     99  C   UNL A   1      50.290  27.407  28.005  1.00  0.00     0.148 A 
ATOM    100  C   UNL A   1      52.549  28.404  29.364  1.00  0.00     0.002 A 
ATOM    101  C   UNL A   1      51.574  27.168  27.520  1.00  0.00     0.091 A 
ATOM    102  F   UNL A   1      49.201  26.957  27.366  1.00  0.00    -0.205 F 
ATOM    103  C   UNL A   1      52.701  27.669  28.195  1.00  0.00     0.022 A 
BRANCH 101 104
ATOM    104  S   UNL A   1      51.903  26.196  26.047  1.00  0.00     0.127 S 
ATOM    105  O   UNL A   1      50.878  26.685  25.122  1.00  0.00    -0.237 OA
ATOM    106  O   UNL A   1      53.266  26.610  25.713  1.00  0.00    -0.237 OA
ATOM    107  O   UNL A   1      51.759  24.801  26.437  1.00  0.00    -0.744 OA
ENDBRANCH 101 104
ENDBRANCH  74  97
ENDBRANCH  48  49
ENDBRANCH  41  43
ENDBRANCH  40  41
ENDBRANCH  39  40
ENDBRANCH  38  39
ENDBRANCH  37  38
ENDBRANCH  36  37
ENDBRANCH   1  36
TORSDOF 25
ENDMDL
MODEL 2
REMARK VINA RESULT:     -11.0      0.984      2.137
REMARK SMILES Cc1oc2c(C)c3oc(=O)c(CC(=O)N[C@@H](CC(C)C)C(=O)OCCOCCOCCOC(=O)c4ccc(-c5c6nc(c(-c7cccc(S(=O)(=O)[O-])c7F)c7ccc([nH]7)c(-c7cccc(S(=O)(=O)[O-])c7F)c7nc(c(-c8cccc(S(=O)(=O)[O-])c8F)c8ccc5[nH]8)C=C7)C=C6)cc4)c(C)c3cc2c1C
REMARK SMILES IDX 27 1 26 2 25 3 24 4 23 5 21 6 22 7 16 8 15 9 13 10 14 11
REMARK SMILES IDX 12 13 11 14 1 15 2 16 3 17 103 18 4 19 102 20 104 21 5 22
REMARK SMILES IDX 101 23 6 24 7 25 100 26 8 27 98 28 9 29 99 30 10 31 17 32
REMARK SMILES IDX 18 33 19 34 20 35 28 36 29 37 30 38 31 39 32 40 33 41 34 42
REMARK SMILES IDX 35 43 36 44 97 45 37 46 96 47 38 48 39 49 40 50 90 51 41 52
REMARK SMILES IDX 95 53 89 54 91 55 42 56 94 57 88 58 87 59 43 61 75 62 55 63
REMARK SMILES IDX 74 64 56 65 59 66 73 67 92 68 57 69 58 70 72 72 93 73 60 74
REMARK SMILES IDX 44 75 45 76 53 77 46 78 48 79 54 80 47 81 49 82 50 83 51 84
REMARK SMILES IDX 52 85 76 86 77 87 85 88 78 89 80 90 86 91 79 92 81 93 82 94
REMARK SMILES IDX 83 95 84 96 61 97 62 98 70 99 63 100 65 101 71 102 64 103
REMARK SMILES IDX 66 104 67 105 68 106 69 107
REMARK H PARENT 15 12 91 60 59 71
REMARK Flexibility Score: inf
ROOT
ATOM      1  C   UNL A   1      40.095  22.402  26.880  1.00  0.00     0.188 C 
ENDROOT
BRANCH   1   2
ATOM      2  O   UNL A   1      39.105  22.539  25.864  1.00  0.00    -0.376 OA
BRANCH   2   3
ATOM      3  C   UNL A   1      37.874  23.183  26.161  1.00  0.00     0.202 C 
BRANCH   3   4
ATOM      4  C   UNL A   1      36.665  22.734  25.344  1.00  0.00     0.261 C 
BRANCH   4   5
ATOM      5  O   UNL A   1      36.156  21.456  25.762  1.00  0.00    -0.462 OA
BRANCH   5   6
ATOM      6  C   UNL A   1      34.839  21.425  26.084  1.00  0.00     0.328 C 
ATOM      7  O   UNL A   1      34.409  21.397  27.233  1.00  0.00    -0.250 OA
BRANCH   6   8
ATOM      8  C   UNL A   1      33.910  21.354  24.854  1.00  0.00     0.192 C 
BRANCH   8   9
ATOM      9  N   UNL A   1      34.021  22.341  23.775  1.00  0.00    -0.342 N 
ATOM     10  C   UNL A   1      33.159  23.314  23.363  1.00  0.00     0.225 C 
ATOM     11  O   UNL A   1      33.452  23.938  22.341  1.00  0.00    -0.275 OA
ATOM     12  H   UNL A   1      34.860  22.293  23.262  1.00  0.00     0.164 HD
BRANCH  10  13
ATOM     13  C   UNL A   1      31.903  23.660  24.155  1.00  0.00     0.143 C 
BRANCH  13  14
ATOM     14  C   UNL A   1      31.932  25.071  24.684  1.00  0.00     0.051 A 
ATOM     15  C   UNL A   1      34.313  32.490  27.970  1.00  0.00     0.088 C 
ATOM     16  C   UNL A   1      34.050  31.156  27.394  1.00  0.00     0.105 A 
ATOM     17  O   UNL A   1      32.994  31.070  26.539  1.00  0.00    -0.461 OA
ATOM     18  C   UNL A   1      34.642  29.918  27.564  1.00  0.00    -0.002 A 
ATOM     19  C   UNL A   1      32.865  29.762  26.184  1.00  0.00     0.141 A 
ATOM     20  C   UNL A   1      33.858  29.009  26.794  1.00  0.00     0.025 A 
ATOM     21  C   UNL A   1      35.817  29.571  28.399  1.00  0.00     0.049 C 
ATOM     22  C   UNL A   1      31.875  29.243  25.347  1.00  0.00     0.036 A 
ATOM     23  C   UNL A   1      33.890  27.620  26.569  1.00  0.00     0.024 A 
ATOM     24  C   UNL A   1      30.842  30.105  24.694  1.00  0.00     0.052 C 
ATOM     25  C   UNL A   1      31.922  27.841  25.204  1.00  0.00     0.145 A 
ATOM     26  C   UNL A   1      32.896  27.017  25.783  1.00  0.00     0.022 A 
ATOM     27  O   UNL A   1      30.890  27.268  24.435  1.00  0.00    -0.422 OA
ATOM     28  C   UNL A   1      32.880  25.567  25.509  1.00  0.00    -0.029 A 
ATOM     29  C   UNL A   1      30.796  25.910  24.226  1.00  0.00     0.340 A 
ATOM     30  C   UNL A   1      33.949  24.714  26.147  1.00  0.00     0.046 C 
ATOM     31  O   UNL A   1      29.836  25.432  23.631  1.00  0.00    -0.246 OA
ENDBRANCH  13  14
ENDBRANCH  10  13
ENDBRANCH   8   9
BRANCH   8  32
ATOM     32  C   UNL A   1      33.967  19.935  24.259  1.00  0.00     0.040 C 
BRANCH  32  33
ATOM     33  C   UNL A   1      32.666  19.098  24.327  1.00  0.00    -0.015 C 
ATOM     34  C   UNL A   1      32.394  18.238  23.092  1.00  0.00     0.007 C 
ATOM     35  C   UNL A   1      32.716  18.203  25.567  1.00  0.00     0.007 C 
ENDBRANCH  32  33
ENDBRANCH   8  32
ENDBRANCH   6   8
ENDBRANCH   5   6
ENDBRANCH   4   5
ENDBRANCH   3   4
ENDBRANCH   2   3
ENDBRANCH   1   2
BRANCH   1  36
ATOM     36  C   UNL A   1      40.893  21.093  27.000  1.00  0.00     0.188 C 
BRANCH  36  37
ATOM     37  O   UNL A   1      41.780  20.845  25.925  1.00  0.00    -0.376 OA
BRANCH  37  38
ATOM     38  C   UNL A   1      42.509  19.629  26.009  1.00  0.00     0.202 C 
BRANCH  38  39
ATOM     39  C   UNL A   1      43.891  19.739  25.357  1.00  0.00     0.261 C 
BRANCH  39  40
ATOM     40  O   UNL A   1      44.182  21.053  24.847  1.00  0.00    -0.460 OA
BRANCH  40  41
ATOM     41  C   UNL A   1      45.378  21.560  25.233  1.00  0.00     0.338 C 
ATOM     42  O   UNL A   1      46.456  21.000  25.209  1.00  0.00    -0.246 OA
BRANCH  41  43
ATOM     43  C   UNL A   1      45.194  22.976  25.563  1.00  0.00     0.060 A 
ATOM     44  C   UNL A   1      45.865  23.532  26.660  1.00  0.00     0.016 A 
ATOM     45  C   UNL A   1      44.275  23.717  24.834  1.00  0.00     0.016 A 
ATOM     46  C   UNL A   1      45.619  24.855  27.027  1.00  0.00     0.010 A 
ATOM     47  C   UNL A   1      44.008  25.025  25.226  1.00  0.00     0.010 A 
ATOM     48  C   UNL A   1      44.675  25.608  26.322  1.00  0.00    -0.014 A 
BRANCH  48  49
ATOM     49  C   UNL A   1      44.338  26.987  26.769  1.00  0.00     0.031 A 
ATOM     50  C   UNL A   1      43.851  27.087  28.171  1.00  0.00     0.074 A 
ATOM     51  C   UNL A   1      45.033  28.049  26.294  1.00  0.00     0.049 A 
ATOM     52  N   UNL A   1      44.716  27.022  29.133  1.00  0.00    -0.248 NA
ATOM     53  C   UNL A   1      42.470  26.983  28.630  1.00  0.00     0.031 C 
ATOM     54  C   UNL A   1      46.276  27.920  25.517  1.00  0.00     0.029 A 
ATOM     55  N   UNL A   1      44.952  29.402  26.571  1.00  0.00    -0.354 N 
ATOM     56  C   UNL A   1      44.046  26.709  30.293  1.00  0.00     0.074 A 
ATOM     57  C   UNL A   1      42.642  26.776  29.952  1.00  0.00     0.031 C 
ATOM     58  C   UNL A   1      46.916  29.103  25.513  1.00  0.00     0.029 A 
ATOM     59  C   UNL A   1      46.075  30.113  26.146  1.00  0.00     0.049 A 
ATOM     60  H   UNL A   1      44.183  29.820  27.021  1.00  0.00     0.167 HD
ATOM     61  C   UNL A   1      44.738  26.397  31.423  1.00  0.00     0.034 A 
ATOM     62  C   UNL A   1      46.575  31.257  26.683  1.00  0.00     0.034 A 
ATOM     63  C   UNL A   1      46.190  26.403  31.332  1.00  0.00     0.049 A 
ATOM     64  C   UNL A   1      47.107  30.835  28.018  1.00  0.00     0.074 A 
ATOM     65  C   UNL A   1      47.263  25.682  31.815  1.00  0.00     0.029 A 
ATOM     66  N   UNL A   1      46.744  27.344  30.510  1.00  0.00    -0.354 N 
ATOM     67  N   UNL A   1      48.252  30.231  28.213  1.00  0.00    -0.248 NA
ATOM     68  C   UNL A   1      46.220  30.856  29.190  1.00  0.00     0.031 C 
ATOM     69  C   UNL A   1      48.464  26.296  31.311  1.00  0.00     0.029 A 
ATOM     70  C   UNL A   1      48.105  27.410  30.571  1.00  0.00     0.049 A 
ATOM     71  H   UNL A   1      46.207  27.924  29.923  1.00  0.00     0.167 HD
ATOM     72  C   UNL A   1      48.090  29.553  29.414  1.00  0.00     0.074 A 
ATOM     73  C   UNL A   1      46.909  30.106  30.043  1.00  0.00     0.031 C 
ATOM     74  C   UNL A   1      48.745  28.398  29.732  1.00  0.00     0.034 A 
BRANCH  61  75
ATOM     75  C   UNL A   1      44.102  26.309  32.760  1.00  0.00     0.023 A 
ATOM     76  C   UNL A   1      44.100  25.021  33.338  1.00  0.00     0.012 A 
ATOM     77  C   UNL A   1      43.394  27.346  33.386  1.00  0.00     0.148 A 
ATOM     78  C   UNL A   1      43.390  24.753  34.503  1.00  0.00     0.002 A 
ATOM     79  C   UNL A   1      42.683  27.072  34.556  1.00  0.00     0.091 A 
ATOM     80  F   UNL A   1      43.392  28.559  32.816  1.00  0.00    -0.205 F 
ATOM     81  C   UNL A   1      42.676  25.778  35.110  1.00  0.00     0.022 A 
BRANCH  79  82
ATOM     82  S   UNL A   1      41.709  28.303  35.431  1.00  0.00     0.127 S 
ATOM     83  O   UNL A   1      42.710  29.322  35.740  1.00  0.00    -0.237 OA
ATOM     84  O   UNL A   1      40.733  28.697  34.413  1.00  0.00    -0.237 OA
ATOM     85  O   UNL A   1      41.138  27.617  36.581  1.00  0.00    -0.744 OA
ENDBRANCH  79  82
ENDBRANCH  61  75
BRANCH  62  86
ATOM     86  C   UNL A   1      45.822  32.519  26.409  1.00  0.00     0.023 A 
ATOM     87  C   UNL A   1      44.575  32.390  25.746  1.00  0.00     0.012 A 
ATOM     88  C   UNL A   1      46.260  33.822  26.704  1.00  0.00     0.148 A 
ATOM     89  C   UNL A   1      43.764  33.492  25.472  1.00  0.00     0.002 A 
ATOM     90  C   UNL A   1      45.417  34.914  26.499  1.00  0.00     0.091 A 
ATOM     91  F   UNL A   1      47.501  34.008  27.161  1.00  0.00    -0.205 F 
ATOM     92  C   UNL A   1      44.171  34.755  25.878  1.00  0.00     0.022 A 
BRANCH  90  93
ATOM     93  S   UNL A   1      45.823  36.565  27.085  1.00  0.00     0.127 S 
ATOM     94  O   UNL A   1      44.525  37.235  27.035  1.00  0.00    -0.237 OA
ATOM     95  O   UNL A   1      46.317  36.277  28.431  1.00  0.00    -0.237 OA
ATOM     96  O   UNL A   1      46.821  37.081  26.160  1.00  0.00    -0.744 OA
ENDBRANCH  90  93
ENDBRANCH  62  86
BRANCH  74  97
ATOM     97  C   UNL A   1      50.064  28.167  29.076  1.00  0.00     0.023 A 
ATOM     98  C   UNL A   1      51.202  28.726  29.695  1.00  0.00     0.012 A 
ATOM     99  C   UNL A   1      50.228  27.379  27.924  1.00  0.00     0.148 A 
ATOM    100  C   UNL A   1      52.479  28.517  29.183  1.00  0.00     0.002 A 
ATOM    101  C   UNL A   1      51.509  27.156  27.426  1.00  0.00     0.091 A 
ATOM    102  F   UNL A   1      49.142  26.862  27.332  1.00  0.00    -0.205 F 
ATOM    103  C   UNL A   1      52.632  27.726  28.051  1.00  0.00     0.022 A 
BRANCH 101 104
ATOM    104  S   UNL A   1      51.842  26.118  25.998  1.00  0.00     0.127 S 
ATOM    105  O   UNL A   1      51.570  24.779  26.524  1.00  0.00    -0.237 OA
ATOM    106  O   UNL A   1      50.849  26.604  25.038  1.00  0.00    -0.237 OA
ATOM    107  O   UNL A   1      53.228  26.362  25.629  1.00  0.00    -0.744 OA
ENDBRANCH 101 104
ENDBRANCH  74  97
ENDBRANCH  48  49
ENDBRANCH  41  43
ENDBRANCH  40  41
ENDBRANCH  39  40
ENDBRANCH  38  39
ENDBRANCH  37  38
ENDBRANCH  36  37
ENDBRANCH   1  36
TORSDOF 25
ENDMDL
MODEL 3
REMARK VINA RESULT:     -10.1      4.432      7.253
REMARK SMILES Cc1oc2c(C)c3oc(=O)c(CC(=O)N[C@@H](CC(C)C)C(=O)OCCOCCOCCOC(=O)c4ccc(-c5c6nc(c(-c7cccc(S(=O)(=O)[O-])c7F)c7ccc([nH]7)c(-c7cccc(S(=O)(=O)[O-])c7F)c7nc(c(-c8cccc(S(=O)(=O)[O-])c8F)c8ccc5[nH]8)C=C7)C=C6)cc4)c(C)c3cc2c1C
REMARK SMILES IDX 27 1 26 2 25 3 24 4 23 5 21 6 22 7 16 8 15 9 13 10 14 11
REMARK SMILES IDX 12 13 11 14 1 15 2 16 3 17 103 18 4 19 102 20 104 21 5 22
REMARK SMILES IDX 101 23 6 24 7 25 100 26 8 27 98 28 9 29 99 30 10 31 17 32
REMARK SMILES IDX 18 33 19 34 20 35 28 36 29 37 30 38 31 39 32 40 33 41 34 42
REMARK SMILES IDX 35 43 36 44 97 45 37 46 96 47 38 48 39 49 40 50 90 51 41 52
REMARK SMILES IDX 95 53 89 54 91 55 42 56 94 57 88 58 87 59 43 61 75 62 55 63
REMARK SMILES IDX 74 64 56 65 59 66 73 67 92 68 57 69 58 70 72 72 93 73 60 74
REMARK SMILES IDX 44 75 45 76 53 77 46 78 48 79 54 80 47 81 49 82 50 83 51 84
REMARK SMILES IDX 52 85 76 86 77 87 85 88 78 89 80 90 86 91 79 92 81 93 82 94
REMARK SMILES IDX 83 95 84 96 61 97 62 98 70 99 63 100 65 101 71 102 64 103
REMARK SMILES IDX 66 104 67 105 68 106 69 107
REMARK H PARENT 15 12 91 60 59 71
REMARK Flexibility Score: inf
ROOT
ATOM      1  C   UNL A   1      39.804  23.589  27.057  1.00  0.00     0.188 C 
ENDROOT
BRANCH   1   2
ATOM      2  O   UNL A   1      39.012  22.797  26.174  1.00  0.00    -0.376 OA
BRANCH   2   3
ATOM      3  C   UNL A   1      37.705  23.228  25.821  1.00  0.00     0.202 C 
BRANCH   3   4
ATOM      4  C   UNL A   1      36.891  22.271  24.954  1.00  0.00     0.261 C 
BRANCH   4   5
ATOM      5  O   UNL A   1      36.303  21.200  25.712  1.00  0.00    -0.462 OA
BRANCH   5   6
ATOM      6  C   UNL A   1      35.073  21.451  26.226  1.00  0.00     0.328 C 
ATOM      7  O   UNL A   1      34.870  21.856  27.366  1.00  0.00    -0.250 OA
BRANCH   6   8
ATOM      8  C   UNL A   1      33.923  21.105  25.256  1.00  0.00     0.192 C 
BRANCH   8   9
ATOM      9  N   UNL A   1      33.724  21.880  24.028  1.00  0.00    -0.342 N 
ATOM     10  C   UNL A   1      32.815  22.850  23.722  1.00  0.00     0.225 C 
ATOM     11  O   UNL A   1      32.790  23.260  22.560  1.00  0.00    -0.275 OA
ATOM     12  H   UNL A   1      34.351  21.663  23.301  1.00  0.00     0.164 HD
BRANCH  10  13
ATOM     13  C   UNL A   1      31.894  23.447  24.780  1.00  0.00     0.143 C 
BRANCH  13  14
ATOM     14  C   UNL A   1      31.759  24.942  24.641  1.00  0.00     0.051 A 
ATOM     15  C   UNL A   1      28.862  32.767  23.269  1.00  0.00     0.088 C 
ATOM     16  C   UNL A   1      29.220  31.351  23.489  1.00  0.00     0.105 A 
ATOM     17  O   UNL A   1      30.236  31.120  24.365  1.00  0.00    -0.461 OA
ATOM     18  C   UNL A   1      28.753  30.163  22.957  1.00  0.00    -0.002 A 
ATOM     19  C   UNL A   1      30.468  29.777  24.371  1.00  0.00     0.141 A 
ATOM     20  C   UNL A   1      29.580  29.143  23.514  1.00  0.00     0.025 A 
ATOM     21  C   UNL A   1      27.658  29.964  21.978  1.00  0.00     0.049 C 
ATOM     22  C   UNL A   1      31.460  29.130  25.109  1.00  0.00     0.036 A 
ATOM     23  C   UNL A   1      29.666  27.747  23.361  1.00  0.00     0.024 A 
ATOM     24  C   UNL A   1      32.377  29.860  26.039  1.00  0.00     0.052 C 
ATOM     25  C   UNL A   1      31.538  27.742  24.873  1.00  0.00     0.145 A 
ATOM     26  C   UNL A   1      30.673  27.032  24.029  1.00  0.00     0.022 A 
ATOM     27  O   UNL A   1      32.580  27.064  25.535  1.00  0.00    -0.422 OA
ATOM     28  C   UNL A   1      30.811  25.568  23.911  1.00  0.00    -0.029 A 
ATOM     29  C   UNL A   1      32.789  25.711  25.384  1.00  0.00     0.340 A 
ATOM     30  C   UNL A   1      29.857  24.838  22.995  1.00  0.00     0.046 C 
ATOM     31  O   UNL A   1      33.759  25.165  25.900  1.00  0.00    -0.246 OA
ENDBRANCH  13  14
ENDBRANCH  10  13
ENDBRANCH   8   9
BRANCH   8  32
ATOM     32  C   UNL A   1      33.985  19.605  24.913  1.00  0.00     0.040 C 
BRANCH  32  33
ATOM     33  C   UNL A   1      32.641  18.910  24.581  1.00  0.00    -0.015 C 
ATOM     34  C   UNL A   1      32.387  18.689  23.091  1.00  0.00     0.007 C 
ATOM     35  C   UNL A   1      32.585  17.565  25.310  1.00  0.00     0.007 C 
ENDBRANCH  32  33
ENDBRANCH   8  32
ENDBRANCH   6   8
ENDBRANCH   5   6
ENDBRANCH   4   5
ENDBRANCH   3   4
ENDBRANCH   2   3
ENDBRANCH   1   2
BRANCH   1  36
ATOM     36  C   UNL A   1      41.330  23.408  27.085  1.00  0.00     0.188 C 
BRANCH  36  37
ATOM     37  O   UNL A   1      42.066  24.610  26.950  1.00  0.00    -0.376 OA
BRANCH  37  38
ATOM     38  C   UNL A   1      43.401  24.454  26.489  1.00  0.00     0.202 C 
BRANCH  38  39
ATOM     39  C   UNL A   1      44.214  25.745  26.632  1.00  0.00     0.261 C 
BRANCH  39  40
ATOM     40  O   UNL A   1      43.462  26.934  26.329  1.00  0.00    -0.460 OA
BRANCH  40  41
ATOM     41  C   UNL A   1      44.214  28.032  26.074  1.00  0.00     0.338 C 
ATOM     42  O   UNL A   1      44.932  28.225  25.113  1.00  0.00    -0.246 OA
BRANCH  41  43
ATOM     43  C   UNL A   1      43.916  29.042  27.093  1.00  0.00     0.060 A 
ATOM     44  C   UNL A   1      44.662  30.226  27.144  1.00  0.00     0.016 A 
ATOM     45  C   UNL A   1      42.957  28.756  28.054  1.00  0.00     0.016 A 
ATOM     46  C   UNL A   1      44.437  31.146  28.170  1.00  0.00     0.010 A 
ATOM     47  C   UNL A   1      42.762  29.660  29.094  1.00  0.00     0.010 A 
ATOM     48  C   UNL A   1      43.496  30.862  29.164  1.00  0.00    -0.014 A 
BRANCH  48  49
ATOM     49  C   UNL A   1      43.321  31.792  30.313  1.00  0.00     0.031 A 
ATOM     50  C   UNL A   1      41.928  32.265  30.525  1.00  0.00     0.074 A 
ATOM     51  C   UNL A   1      44.091  31.662  31.420  1.00  0.00     0.049 A 
ATOM     52  N   UNL A   1      41.081  31.463  31.089  1.00  0.00    -0.248 NA
ATOM     53  C   UNL A   1      41.301  33.444  29.936  1.00  0.00     0.031 C 
ATOM     54  C   UNL A   1      44.960  30.500  31.670  1.00  0.00     0.029 A 
ATOM     55  N   UNL A   1      44.105  32.352  32.619  1.00  0.00    -0.354 N 
ATOM     56  C   UNL A   1      39.811  31.912  30.804  1.00  0.00     0.074 A 
ATOM     57  C   UNL A   1      39.994  33.192  30.157  1.00  0.00     0.031 C 
ATOM     58  C   UNL A   1      45.292  30.473  32.973  1.00  0.00     0.029 A 
ATOM     59  C   UNL A   1      44.799  31.681  33.626  1.00  0.00     0.049 A 
ATOM     60  H   UNL A   1      43.670  33.225  32.749  1.00  0.00     0.167 HD
ATOM     61  C   UNL A   1      38.727  31.149  31.119  1.00  0.00     0.034 A 
ATOM     62  C   UNL A   1      44.584  31.758  34.965  1.00  0.00     0.034 A 
ATOM     63  C   UNL A   1      38.983  29.863  31.746  1.00  0.00     0.049 A 
ATOM     64  C   UNL A   1      43.259  31.087  35.164  1.00  0.00     0.074 A 
ATOM     65  C   UNL A   1      38.483  28.576  31.717  1.00  0.00     0.029 A 
ATOM     66  N   UNL A   1      40.047  29.803  32.602  1.00  0.00    -0.354 N 
ATOM     67  N   UNL A   1      43.071  29.793  35.199  1.00  0.00    -0.248 NA
ATOM     68  C   UNL A   1      42.025  31.882  35.075  1.00  0.00     0.031 C 
ATOM     69  C   UNL A   1      39.242  27.792  32.656  1.00  0.00     0.029 A 
ATOM     70  C   UNL A   1      40.159  28.623  33.277  1.00  0.00     0.049 A 
ATOM     71  H   UNL A   1      40.680  30.548  32.720  1.00  0.00     0.167 HD
ATOM     72  C   UNL A   1      41.742  29.622  34.836  1.00  0.00     0.074 A 
ATOM     73  C   UNL A   1      41.115  30.923  34.943  1.00  0.00     0.031 C 
ATOM     74  C   UNL A   1      41.259  28.510  34.207  1.00  0.00     0.034 A 
BRANCH  61  75
ATOM     75  C   UNL A   1      37.338  31.670  31.088  1.00  0.00     0.023 A 
ATOM     76  C   UNL A   1      36.628  31.410  29.896  1.00  0.00     0.012 A 
ATOM     77  C   UNL A   1      36.768  32.504  32.061  1.00  0.00     0.148 A 
ATOM     78  C   UNL A   1      35.385  31.982  29.656  1.00  0.00     0.002 A 
ATOM     79  C   UNL A   1      35.519  33.077  31.815  1.00  0.00     0.091 A 
ATOM     80  F   UNL A   1      37.462  32.756  33.180  1.00  0.00    -0.205 F 
ATOM     81  C   UNL A   1      34.831  32.822  30.614  1.00  0.00     0.022 A 
BRANCH  79  82
ATOM     82  S   UNL A   1      34.700  34.190  32.965  1.00  0.00     0.127 S 
ATOM     83  O   UNL A   1      33.536  34.623  32.195  1.00  0.00    -0.237 OA
ATOM     84  O   UNL A   1      34.394  33.299  34.085  1.00  0.00    -0.237 OA
ATOM     85  O   UNL A   1      35.671  35.233  33.271  1.00  0.00    -0.744 OA
ENDBRANCH  79  82
ENDBRANCH  61  75
BRANCH  62  86
ATOM     86  C   UNL A   1      45.034  33.007  35.653  1.00  0.00     0.023 A 
ATOM     87  C   UNL A   1      45.776  33.933  34.877  1.00  0.00     0.012 A 
ATOM     88  C   UNL A   1      44.835  33.321  37.008  1.00  0.00     0.148 A 
ATOM     89  C   UNL A   1      46.217  35.151  35.398  1.00  0.00     0.002 A 
ATOM     90  C   UNL A   1      45.208  34.569  37.508  1.00  0.00     0.091 A 
ATOM     91  F   UNL A   1      44.303  32.404  37.821  1.00  0.00    -0.205 F 
ATOM     92  C   UNL A   1      45.905  35.484  36.708  1.00  0.00     0.022 A 
BRANCH  90  93
ATOM     93  S   UNL A   1      44.754  35.119  39.158  1.00  0.00     0.127 S 
ATOM     94  O   UNL A   1      45.396  36.429  39.232  1.00  0.00    -0.237 OA
ATOM     95  O   UNL A   1      43.296  35.150  39.058  1.00  0.00    -0.237 OA
ATOM     96  O   UNL A   1      45.287  34.118  40.072  1.00  0.00    -0.744 OA
ENDBRANCH  90  93
ENDBRANCH  62  86
BRANCH  74  97
ATOM     97  C   UNL A   1      41.997  27.233  34.433  1.00  0.00     0.023 A 
ATOM     98  C   UNL A   1      41.538  26.394  35.470  1.00  0.00     0.012 A 
ATOM     99  C   UNL A   1      43.070  26.808  33.631  1.00  0.00     0.148 A 
ATOM    100  C   UNL A   1      42.132  25.161  35.717  1.00  0.00     0.002 A 
ATOM    101  C   UNL A   1      43.649  25.564  33.869  1.00  0.00     0.091 A 
ATOM    102  F   UNL A   1      43.511  27.616  32.656  1.00  0.00    -0.205 F 
ATOM    103  C   UNL A   1      43.185  24.743  34.912  1.00  0.00     0.022 A 
BRANCH 101 104
ATOM    104  S   UNL A   1      44.984  24.895  32.871  1.00  0.00     0.127 S 
ATOM    105  O   UNL A   1      46.111  25.747  33.258  1.00  0.00    -0.237 OA
ATOM    106  O   UNL A   1      45.067  23.520  33.367  1.00  0.00    -0.237 OA
ATOM    107  O   UNL A   1      44.564  25.027  31.484  1.00  0.00    -0.744 OA
ENDBRANCH 101 104
ENDBRANCH  74  97
ENDBRANCH  48  49
ENDBRANCH  41  43
ENDBRANCH  40  41
ENDBRANCH  39  40
ENDBRANCH  38  39
ENDBRANCH  37  38
ENDBRANCH  36  37
ENDBRANCH   1  36
TORSDOF 25
ENDMDL
