MODEL 1
REMARK VINA RESULT:      -6.7      0.000      0.000
REMARK SMILES CC[NH2+]C[C@@H](C)C(=O)N1CCO[C@@H](CC(=O)OCCOCCOCCOC(=O)c2ccc(-c3c4nc(c(-c5cccc(S(=O)(=O)[O-])c5F)c5ccc([nH]5)c(-c5cccc(S(=O)(=O)[O-])c5F)c5nc(c(-c6cccc(S(=O)(=O)[O-])c6F)c6ccc3[nH]6)C=C5)C=C4)cc2)C1
REMARK SMILES IDX 20 1 19 2 18 3 17 4 15 5 16 6 14 7 13 8 9 9 10 10 92 11
REMARK SMILES IDX 11 12 12 13 7 14 8 15 5 16 6 17 4 18 3 19 2 22 1 23 21 24
REMARK SMILES IDX 22 25 23 26 24 27 25 28 26 29 27 30 28 31 29 32 30 33 91 34
REMARK SMILES IDX 31 35 90 36 32 37 33 38 34 39 84 40 35 41 89 42 83 43 85 44
REMARK SMILES IDX 36 45 88 46 82 47 81 48 37 50 69 51 49 52 68 53 50 54 53 55
REMARK SMILES IDX 67 56 86 57 51 58 52 59 66 61 87 62 54 63 38 64 39 65 47 66
REMARK SMILES IDX 40 67 42 68 48 69 41 70 43 71 44 72 45 73 46 74 70 75 71 76
REMARK SMILES IDX 79 77 72 78 74 79 80 80 73 81 75 82 76 83 77 84 78 85 55 86
REMARK SMILES IDX 56 87 64 88 57 89 59 90 65 91 58 92 60 93 61 94 62 95 63 96
REMARK H PARENT 3 20 3 21 85 49 53 60
REMARK Flexibility Score: inf
ROOT
ATOM      1  O   UNL A   1      36.321  30.064  28.516  1.00  0.00    -0.376 OA
ENDROOT
BRANCH   1   2
ATOM      2  C   UNL A   1      37.734  29.902  28.437  1.00  0.00     0.202 C 
BRANCH   2   3
ATOM      3  C   UNL A   1      38.316  28.748  29.262  1.00  0.00     0.261 C 
BRANCH   3   4
ATOM      4  O   UNL A   1      39.046  27.800  28.452  1.00  0.00    -0.463 OA
BRANCH   4   5
ATOM      5  C   UNL A   1      40.164  28.280  27.857  1.00  0.00     0.308 C 
ATOM      6  O   UNL A   1      40.269  28.502  26.656  1.00  0.00    -0.252 OA
BRANCH   5   7
ATOM      7  C   UNL A   1      41.276  28.631  28.810  1.00  0.00     0.156 C 
BRANCH   7   8
ATOM      8  C   UNL A   1      42.343  27.616  29.211  1.00  0.00     0.148 C 
ATOM      9  N   UNL A   1      44.220  26.154  28.536  1.00  0.00    -0.337 N 
ATOM     10  C   UNL A   1      45.142  27.022  29.255  1.00  0.00     0.148 C 
ATOM     11  C   UNL A   1      43.041  26.887  28.034  1.00  0.00     0.152 C 
ATOM     12  C   UNL A   1      44.428  27.667  30.432  1.00  0.00     0.182 C 
ATOM     13  O   UNL A   1      43.302  28.418  29.965  1.00  0.00    -0.374 OA
BRANCH   9  14
ATOM     14  C   UNL A   1      44.349  24.805  28.280  1.00  0.00     0.231 C 
ATOM     15  O   UNL A   1      45.273  24.397  27.563  1.00  0.00    -0.274 OA
BRANCH  14  16
ATOM     16  C   UNL A   1      43.250  23.794  28.682  1.00  0.00     0.130 C 
ATOM     17  C   UNL A   1      43.650  23.125  29.992  1.00  0.00     0.024 C 
BRANCH  16  18
ATOM     18  C   UNL A   1      42.761  22.778  27.644  1.00  0.00     0.273 C 
BRANCH  18  19
ATOM     19  N   UNL A   1      42.928  23.140  26.228  1.00  0.00    -0.346 N 
ATOM     20  H   UNL A   1      41.999  23.236  25.813  1.00  0.00     0.346 HD
ATOM     21  H   UNL A   1      43.464  24.007  26.212  1.00  0.00     0.346 HD
BRANCH  19  22
ATOM     22  C   UNL A   1      43.680  22.174  25.437  1.00  0.00     0.257 C 
ATOM     23  C   UNL A   1      44.144  22.844  24.152  1.00  0.00     0.071 C 
ENDBRANCH  19  22
ENDBRANCH  18  19
ENDBRANCH  16  18
ENDBRANCH  14  16
ENDBRANCH   9  14
ENDBRANCH   7   8
ENDBRANCH   5   7
ENDBRANCH   4   5
ENDBRANCH   3   4
ENDBRANCH   2   3
ENDBRANCH   1   2
BRANCH   1  24
ATOM     24  C   UNL A   1      35.739  31.026  27.644  1.00  0.00     0.188 C 
BRANCH  24  25
ATOM     25  C   UNL A   1      36.071  32.480  27.974  1.00  0.00     0.188 C 
BRANCH  25  26
ATOM     26  O   UNL A   1      35.100  33.463  27.673  1.00  0.00    -0.376 OA
BRANCH  26  27
ATOM     27  C   UNL A   1      34.081  33.780  28.627  1.00  0.00     0.202 C 
BRANCH  27  28
ATOM     28  C   UNL A   1      34.285  33.982  30.155  1.00  0.00     0.261 C 
BRANCH  28  29
ATOM     29  O   UNL A   1      34.105  32.863  31.028  1.00  0.00    -0.460 OA
BRANCH  29  30
ATOM     30  C   UNL A   1      34.488  33.022  32.312  1.00  0.00     0.338 C 
ATOM     31  O   UNL A   1      33.762  33.226  33.269  1.00  0.00    -0.246 OA
BRANCH  30  32
ATOM     32  C   UNL A   1      35.925  32.668  32.422  1.00  0.00     0.060 A 
ATOM     33  C   UNL A   1      36.714  33.400  33.320  1.00  0.00     0.016 A 
ATOM     34  C   UNL A   1      36.486  31.616  31.694  1.00  0.00     0.016 A 
ATOM     35  C   UNL A   1      38.069  33.106  33.474  1.00  0.00     0.010 A 
ATOM     36  C   UNL A   1      37.853  31.344  31.824  1.00  0.00     0.010 A 
ATOM     37  C   UNL A   1      38.658  32.109  32.689  1.00  0.00    -0.014 A 
BRANCH  37  38
ATOM     38  C   UNL A   1      40.137  32.011  32.603  1.00  0.00     0.031 A 
ATOM     39  C   UNL A   1      40.855  32.949  31.669  1.00  0.00     0.074 A 
ATOM     40  C   UNL A   1      40.837  31.113  33.320  1.00  0.00     0.049 A 
ATOM     41  N   UNL A   1      42.122  33.004  31.355  1.00  0.00    -0.248 NA
ATOM     42  C   UNL A   1      40.024  33.960  30.992  1.00  0.00     0.031 C 
ATOM     43  C   UNL A   1      40.272  30.166  34.277  1.00  0.00     0.029 A 
ATOM     44  N   UNL A   1      42.183  30.834  33.322  1.00  0.00    -0.354 N 
ATOM     45  C   UNL A   1      42.236  34.025  30.418  1.00  0.00     0.074 A 
ATOM     46  C   UNL A   1      40.908  34.560  30.211  1.00  0.00     0.031 C 
ATOM     47  C   UNL A   1      41.259  29.382  34.747  1.00  0.00     0.029 A 
ATOM     48  C   UNL A   1      42.517  29.750  34.100  1.00  0.00     0.049 A 
ATOM     49  H   UNL A   1      42.844  31.359  32.815  1.00  0.00     0.167 HD
ATOM     50  C   UNL A   1      43.343  34.481  29.788  1.00  0.00     0.034 A 
ATOM     51  C   UNL A   1      43.697  29.110  34.245  1.00  0.00     0.034 A 
ATOM     52  C   UNL A   1      44.665  33.959  30.001  1.00  0.00     0.049 A 
ATOM     53  C   UNL A   1      44.911  29.611  33.502  1.00  0.00     0.074 A 
ATOM     54  C   UNL A   1      45.857  34.384  29.442  1.00  0.00     0.029 A 
ATOM     55  N   UNL A   1      44.970  32.886  30.825  1.00  0.00    -0.354 N 
ATOM     56  N   UNL A   1      45.022  30.641  32.698  1.00  0.00    -0.248 NA
ATOM     57  C   UNL A   1      46.170  28.879  33.712  1.00  0.00     0.031 C 
ATOM     58  C   UNL A   1      46.877  33.543  29.897  1.00  0.00     0.029 A 
ATOM     59  C   UNL A   1      46.327  32.623  30.776  1.00  0.00     0.049 A 
ATOM     60  H   UNL A   1      44.316  32.384  31.363  1.00  0.00     0.167 HD
ATOM     61  C   UNL A   1      46.367  30.703  32.338  1.00  0.00     0.074 A 
ATOM     62  C   UNL A   1      47.033  29.618  33.028  1.00  0.00     0.031 C 
ATOM     63  C   UNL A   1      46.991  31.575  31.507  1.00  0.00     0.034 A 
BRANCH  50  64
ATOM     64  C   UNL A   1      43.173  35.613  28.809  1.00  0.00     0.023 A 
ATOM     65  C   UNL A   1      42.660  35.357  27.521  1.00  0.00     0.012 A 
ATOM     66  C   UNL A   1      43.477  36.937  29.183  1.00  0.00     0.148 A 
ATOM     67  C   UNL A   1      42.485  36.397  26.608  1.00  0.00     0.002 A 
ATOM     68  C   UNL A   1      43.253  37.973  28.285  1.00  0.00     0.091 A 
ATOM     69  F   UNL A   1      43.986  37.156  30.403  1.00  0.00    -0.205 F 
ATOM     70  C   UNL A   1      42.770  37.704  26.994  1.00  0.00     0.022 A 
BRANCH  68  71
ATOM     71  S   UNL A   1      43.513  39.698  28.712  1.00  0.00     0.127 S 
ATOM     72  O   UNL A   1      44.955  39.726  28.959  1.00  0.00    -0.237 OA
ATOM     73  O   UNL A   1      43.090  40.382  27.491  1.00  0.00    -0.237 OA
ATOM     74  O   UNL A   1      42.677  39.954  29.876  1.00  0.00    -0.744 OA
ENDBRANCH  68  71
ENDBRANCH  50  64
BRANCH  51  75
ATOM     75  C   UNL A   1      43.799  27.922  35.141  1.00  0.00     0.023 A 
ATOM     76  C   UNL A   1      44.048  28.104  36.515  1.00  0.00     0.012 A 
ATOM     77  C   UNL A   1      43.657  26.614  34.638  1.00  0.00     0.148 A 
ATOM     78  C   UNL A   1      44.185  27.006  37.367  1.00  0.00     0.002 A 
ATOM     79  C   UNL A   1      43.739  25.526  35.501  1.00  0.00     0.091 A 
ATOM     80  F   UNL A   1      43.441  26.459  33.324  1.00  0.00    -0.205 F 
ATOM     81  C   UNL A   1      44.021  25.719  36.862  1.00  0.00     0.022 A 
BRANCH  79  82
ATOM     82  S   UNL A   1      43.425  23.842  34.964  1.00  0.00     0.127 S 
ATOM     83  O   UNL A   1      44.181  23.068  35.946  1.00  0.00    -0.237 OA
ATOM     84  O   UNL A   1      41.970  23.752  35.095  1.00  0.00    -0.237 OA
ATOM     85  O   UNL A   1      43.912  23.768  33.593  1.00  0.00    -0.744 OA
ENDBRANCH  79  82
ENDBRANCH  51  75
BRANCH  63  86
ATOM     86  C   UNL A   1      48.483  31.438  31.329  1.00  0.00     0.023 A 
ATOM     87  C   UNL A   1      49.365  32.105  32.202  1.00  0.00     0.012 A 
ATOM     88  C   UNL A   1      49.008  30.579  30.341  1.00  0.00     0.148 A 
ATOM     89  C   UNL A   1      50.745  31.946  32.071  1.00  0.00     0.002 A 
ATOM     90  C   UNL A   1      50.381  30.386  30.251  1.00  0.00     0.091 A 
ATOM     91  F   UNL A   1      48.153  29.964  29.510  1.00  0.00    -0.205 F 
ATOM     92  C   UNL A   1      51.252  31.080  31.107  1.00  0.00     0.022 A 
BRANCH  90  93
ATOM     93  S   UNL A   1      51.118  29.213  29.107  1.00  0.00     0.127 S 
ATOM     94  O   UNL A   1      50.763  27.935  29.719  1.00  0.00    -0.237 OA
ATOM     95  O   UNL A   1      50.412  29.510  27.861  1.00  0.00    -0.237 OA
ATOM     96  O   UNL A   1      52.543  29.517  29.081  1.00  0.00    -0.744 OA
ENDBRANCH  90  93
ENDBRANCH  63  86
ENDBRANCH  37  38
ENDBRANCH  30  32
ENDBRANCH  29  30
ENDBRANCH  28  29
ENDBRANCH  27  28
ENDBRANCH  26  27
ENDBRANCH  25  26
ENDBRANCH  24  25
ENDBRANCH   1  24
TORSDOF 26
ENDMDL
MODEL 2
REMARK VINA RESULT:      -6.5      5.483      9.490
REMARK SMILES CC[NH2+]C[C@@H](C)C(=O)N1CCO[C@@H](CC(=O)OCCOCCOCCOC(=O)c2ccc(-c3c4nc(c(-c5cccc(S(=O)(=O)[O-])c5F)c5ccc([nH]5)c(-c5cccc(S(=O)(=O)[O-])c5F)c5nc(c(-c6cccc(S(=O)(=O)[O-])c6F)c6ccc3[nH]6)C=C5)C=C4)cc2)C1
REMARK SMILES IDX 20 1 19 2 18 3 17 4 15 5 16 6 14 7 13 8 9 9 10 10 92 11
REMARK SMILES IDX 11 12 12 13 7 14 8 15 5 16 6 17 4 18 3 19 2 22 1 23 21 24
REMARK SMILES IDX 22 25 23 26 24 27 25 28 26 29 27 30 28 31 29 32 30 33 91 34
REMARK SMILES IDX 31 35 90 36 32 37 33 38 34 39 84 40 35 41 89 42 83 43 85 44
REMARK SMILES IDX 36 45 88 46 82 47 81 48 37 50 69 51 49 52 68 53 50 54 53 55
REMARK SMILES IDX 67 56 86 57 51 58 52 59 66 61 87 62 54 63 38 64 39 65 47 66
REMARK SMILES IDX 40 67 42 68 48 69 41 70 43 71 44 72 45 73 46 74 70 75 71 76
REMARK SMILES IDX 79 77 72 78 74 79 80 80 73 81 75 82 76 83 77 84 78 85 55 86
REMARK SMILES IDX 56 87 64 88 57 89 59 90 65 91 58 92 60 93 61 94 62 95 63 96
REMARK H PARENT 3 20 3 21 85 49 53 60
REMARK Flexibility Score: inf
ROOT
ATOM      1  O   UNL A   1      40.299  23.264  26.329  1.00  0.00    -0.376 OA
ENDROOT
BRANCH   1   2
ATOM      2  C   UNL A   1      39.817  21.924  26.338  1.00  0.00     0.202 C 
BRANCH   2   3
ATOM      3  C   UNL A   1      38.430  21.713  25.721  1.00  0.00     0.261 C 
BRANCH   3   4
ATOM      4  O   UNL A   1      37.495  22.750  26.090  1.00  0.00    -0.463 OA
BRANCH   4   5
ATOM      5  C   UNL A   1      36.251  22.626  25.569  1.00  0.00     0.308 C 
ATOM      6  O   UNL A   1      35.439  21.773  25.910  1.00  0.00    -0.252 OA
BRANCH   5   7
ATOM      7  C   UNL A   1      35.877  23.700  24.581  1.00  0.00     0.156 C 
BRANCH   7   8
ATOM      8  C   UNL A   1      34.455  23.841  24.045  1.00  0.00     0.148 C 
ATOM      9  N   UNL A   1      32.656  25.318  23.208  1.00  0.00    -0.337 N 
ATOM     10  C   UNL A   1      32.827  24.757  21.876  1.00  0.00     0.148 C 
ATOM     11  C   UNL A   1      33.908  25.291  23.990  1.00  0.00     0.152 C 
ATOM     12  C   UNL A   1      33.308  23.318  21.983  1.00  0.00     0.182 C 
ATOM     13  O   UNL A   1      34.544  23.271  22.704  1.00  0.00    -0.374 OA
BRANCH   9  14
ATOM     14  C   UNL A   1      31.513  25.856  23.763  1.00  0.00     0.231 C 
ATOM     15  O   UNL A   1      30.568  26.186  23.032  1.00  0.00    -0.274 OA
BRANCH  14  16
ATOM     16  C   UNL A   1      31.449  26.265  25.252  1.00  0.00     0.130 C 
ATOM     17  C   UNL A   1      30.293  25.525  25.917  1.00  0.00     0.024 C 
BRANCH  16  18
ATOM     18  C   UNL A   1      31.462  27.754  25.615  1.00  0.00     0.273 C 
BRANCH  18  19
ATOM     19  N   UNL A   1      31.748  28.701  24.525  1.00  0.00    -0.346 N 
ATOM     20  H   UNL A   1      31.468  28.267  23.645  1.00  0.00     0.346 HD
ATOM     21  H   UNL A   1      31.226  29.552  24.736  1.00  0.00     0.346 HD
BRANCH  19  22
ATOM     22  C   UNL A   1      33.148  29.093  24.413  1.00  0.00     0.257 C 
ATOM     23  C   UNL A   1      33.580  28.961  22.959  1.00  0.00     0.071 C 
ENDBRANCH  19  22
ENDBRANCH  18  19
ENDBRANCH  16  18
ENDBRANCH  14  16
ENDBRANCH   9  14
ENDBRANCH   7   8
ENDBRANCH   5   7
ENDBRANCH   4   5
ENDBRANCH   3   4
ENDBRANCH   2   3
ENDBRANCH   1   2
BRANCH   1  24
ATOM     24  C   UNL A   1      41.688  23.446  26.576  1.00  0.00     0.188 C 
BRANCH  24  25
ATOM     25  C   UNL A   1      42.611  22.947  25.466  1.00  0.00     0.188 C 
BRANCH  25  26
ATOM     26  O   UNL A   1      43.603  23.833  24.985  1.00  0.00    -0.376 OA
BRANCH  26  27
ATOM     27  C   UNL A   1      44.591  24.357  25.879  1.00  0.00     0.202 C 
BRANCH  27  28
ATOM     28  C   UNL A   1      45.090  25.828  25.936  1.00  0.00     0.261 C 
BRANCH  28  29
ATOM     29  O   UNL A   1      44.280  26.853  25.353  1.00  0.00    -0.460 OA
BRANCH  29  30
ATOM     30  C   UNL A   1      43.033  27.002  25.848  1.00  0.00     0.338 C 
ATOM     31  O   UNL A   1      41.986  26.795  25.259  1.00  0.00    -0.246 OA
BRANCH  30  32
ATOM     32  C   UNL A   1      43.131  27.229  27.310  1.00  0.00     0.060 A 
ATOM     33  C   UNL A   1      44.245  27.933  27.792  1.00  0.00     0.016 A 
ATOM     34  C   UNL A   1      42.139  26.801  28.194  1.00  0.00     0.016 A 
ATOM     35  C   UNL A   1      44.386  28.186  29.156  1.00  0.00     0.010 A 
ATOM     36  C   UNL A   1      42.298  27.026  29.567  1.00  0.00     0.010 A 
ATOM     37  C   UNL A   1      43.439  27.689  30.058  1.00  0.00    -0.014 A 
BRANCH  37  38
ATOM     38  C   UNL A   1      43.741  27.664  31.511  1.00  0.00     0.031 A 
ATOM     39  C   UNL A   1      43.507  28.924  32.304  1.00  0.00     0.074 A 
ATOM     40  C   UNL A   1      44.221  26.566  32.123  1.00  0.00     0.049 A 
ATOM     41  N   UNL A   1      43.771  29.180  33.558  1.00  0.00    -0.248 NA
ATOM     42  C   UNL A   1      42.896  30.049  31.576  1.00  0.00     0.031 C 
ATOM     43  C   UNL A   1      44.469  25.278  31.481  1.00  0.00     0.029 A 
ATOM     44  N   UNL A   1      44.616  26.378  33.426  1.00  0.00    -0.354 N 
ATOM     45  C   UNL A   1      43.396  30.503  33.760  1.00  0.00     0.074 A 
ATOM     46  C   UNL A   1      42.890  30.998  32.499  1.00  0.00     0.031 C 
ATOM     47  C   UNL A   1      45.012  24.441  32.384  1.00  0.00     0.029 A 
ATOM     48  C   UNL A   1      45.179  25.143  33.655  1.00  0.00     0.049 A 
ATOM     49  H   UNL A   1      44.507  27.060  34.127  1.00  0.00     0.167 HD
ATOM     50  C   UNL A   1      43.461  31.241  34.893  1.00  0.00     0.034 A 
ATOM     51  C   UNL A   1      45.788  24.653  34.755  1.00  0.00     0.034 A 
ATOM     52  C   UNL A   1      43.953  30.747  36.150  1.00  0.00     0.049 A 
ATOM     53  C   UNL A   1      45.886  25.508  35.995  1.00  0.00     0.074 A 
ATOM     54  C   UNL A   1      44.019  31.406  37.365  1.00  0.00     0.029 A 
ATOM     55  N   UNL A   1      44.480  29.481  36.352  1.00  0.00    -0.354 N 
ATOM     56  N   UNL A   1      45.436  26.722  36.201  1.00  0.00    -0.248 NA
ATOM     57  C   UNL A   1      46.551  24.911  37.165  1.00  0.00     0.031 C 
ATOM     58  C   UNL A   1      44.622  30.551  38.292  1.00  0.00     0.029 A 
ATOM     59  C   UNL A   1      44.889  29.344  37.667  1.00  0.00     0.049 A 
ATOM     60  H   UNL A   1      44.554  28.783  35.661  1.00  0.00     0.167 HD
ATOM     61  C   UNL A   1      45.726  27.018  37.530  1.00  0.00     0.074 A 
ATOM     62  C   UNL A   1      46.375  25.849  38.085  1.00  0.00     0.031 C 
ATOM     63  C   UNL A   1      45.485  28.158  38.226  1.00  0.00     0.034 A 
BRANCH  50  64
ATOM     64  C   UNL A   1      42.981  32.667  34.826  1.00  0.00     0.023 A 
ATOM     65  C   UNL A   1      43.816  33.666  34.287  1.00  0.00     0.012 A 
ATOM     66  C   UNL A   1      41.681  33.006  35.253  1.00  0.00     0.148 A 
ATOM     67  C   UNL A   1      43.379  34.988  34.206  1.00  0.00     0.002 A 
ATOM     68  C   UNL A   1      41.236  34.316  35.124  1.00  0.00     0.091 A 
ATOM     69  F   UNL A   1      40.912  32.046  35.784  1.00  0.00    -0.205 F 
ATOM     70  C   UNL A   1      42.087  35.310  34.613  1.00  0.00     0.022 A 
BRANCH  68  71
ATOM     71  S   UNL A   1      39.564  34.816  35.544  1.00  0.00     0.127 S 
ATOM     72  O   UNL A   1      39.441  34.310  36.911  1.00  0.00    -0.237 OA
ATOM     73  O   UNL A   1      39.645  36.272  35.438  1.00  0.00    -0.237 OA
ATOM     74  O   UNL A   1      38.695  34.180  34.564  1.00  0.00    -0.744 OA
ENDBRANCH  68  71
ENDBRANCH  50  64
BRANCH  51  75
ATOM     75  C   UNL A   1      46.352  23.271  34.745  1.00  0.00     0.023 A 
ATOM     76  C   UNL A   1      45.486  22.164  34.835  1.00  0.00     0.012 A 
ATOM     77  C   UNL A   1      47.740  23.050  34.654  1.00  0.00     0.148 A 
ATOM     78  C   UNL A   1      45.993  20.864  34.865  1.00  0.00     0.002 A 
ATOM     79  C   UNL A   1      48.235  21.751  34.629  1.00  0.00     0.091 A 
ATOM     80  F   UNL A   1      48.550  24.116  34.590  1.00  0.00    -0.205 F 
ATOM     81  C   UNL A   1      47.365  20.657  34.753  1.00  0.00     0.022 A 
BRANCH  79  82
ATOM     82  S   UNL A   1      49.974  21.385  34.369  1.00  0.00     0.127 S 
ATOM     83  O   UNL A   1      50.275  22.186  33.185  1.00  0.00    -0.237 OA
ATOM     84  O   UNL A   1      50.571  21.873  35.612  1.00  0.00    -0.237 OA
ATOM     85  O   UNL A   1      50.050  19.941  34.189  1.00  0.00    -0.744 OA
ENDBRANCH  79  82
ENDBRANCH  51  75
BRANCH  63  86
ATOM     86  C   UNL A   1      45.869  28.192  39.685  1.00  0.00     0.023 A 
ATOM     87  C   UNL A   1      44.998  27.665  40.659  1.00  0.00     0.012 A 
ATOM     88  C   UNL A   1      47.134  28.674  40.078  1.00  0.00     0.148 A 
ATOM     89  C   UNL A   1      45.367  27.652  42.005  1.00  0.00     0.002 A 
ATOM     90  C   UNL A   1      47.515  28.609  41.413  1.00  0.00     0.091 A 
ATOM     91  F   UNL A   1      47.944  29.185  39.138  1.00  0.00    -0.205 F 
ATOM     92  C   UNL A   1      46.626  28.112  42.380  1.00  0.00     0.022 A 
BRANCH  90  93
ATOM     93  S   UNL A   1      49.154  29.084  41.974  1.00  0.00     0.127 S 
ATOM     94  O   UNL A   1      49.055  28.853  43.413  1.00  0.00    -0.237 OA
ATOM     95  O   UNL A   1      50.012  28.138  41.261  1.00  0.00    -0.237 OA
ATOM     96  O   UNL A   1      49.328  30.475  41.576  1.00  0.00    -0.744 OA
ENDBRANCH  90  93
ENDBRANCH  63  86
ENDBRANCH  37  38
ENDBRANCH  30  32
ENDBRANCH  29  30
ENDBRANCH  28  29
ENDBRANCH  27  28
ENDBRANCH  26  27
ENDBRANCH  25  26
ENDBRANCH  24  25
ENDBRANCH   1  24
TORSDOF 26
ENDMDL
MODEL 3
REMARK VINA RESULT:      -6.0      2.017      2.574
REMARK SMILES CC[NH2+]C[C@@H](C)C(=O)N1CCO[C@@H](CC(=O)OCCOCCOCCOC(=O)c2ccc(-c3c4nc(c(-c5cccc(S(=O)(=O)[O-])c5F)c5ccc([nH]5)c(-c5cccc(S(=O)(=O)[O-])c5F)c5nc(c(-c6cccc(S(=O)(=O)[O-])c6F)c6ccc3[nH]6)C=C5)C=C4)cc2)C1
REMARK SMILES IDX 20 1 19 2 18 3 17 4 15 5 16 6 14 7 13 8 9 9 10 10 92 11
REMARK SMILES IDX 11 12 12 13 7 14 8 15 5 16 6 17 4 18 3 19 2 22 1 23 21 24
REMARK SMILES IDX 22 25 23 26 24 27 25 28 26 29 27 30 28 31 29 32 30 33 91 34
REMARK SMILES IDX 31 35 90 36 32 37 33 38 34 39 84 40 35 41 89 42 83 43 85 44
REMARK SMILES IDX 36 45 88 46 82 47 81 48 37 50 69 51 49 52 68 53 50 54 53 55
REMARK SMILES IDX 67 56 86 57 51 58 52 59 66 61 87 62 54 63 38 64 39 65 47 66
REMARK SMILES IDX 40 67 42 68 48 69 41 70 43 71 44 72 45 73 46 74 70 75 71 76
REMARK SMILES IDX 79 77 72 78 74 79 80 80 73 81 75 82 76 83 77 84 78 85 55 86
REMARK SMILES IDX 56 87 64 88 57 89 59 90 65 91 58 92 60 93 61 94 62 95 63 96
REMARK H PARENT 3 20 3 21 85 49 53 60
REMARK Flexibility Score: inf
ROOT
ATOM      1  O   UNL A   1      36.914  29.993  29.035  1.00  0.00    -0.376 OA
ENDROOT
BRANCH   1   2
ATOM      2  C   UNL A   1      38.318  29.779  29.153  1.00  0.00     0.202 C 
BRANCH   2   3
ATOM      3  C   UNL A   1      38.734  28.512  29.909  1.00  0.00     0.261 C 
BRANCH   3   4
ATOM      4  O   UNL A   1      39.327  27.518  29.045  1.00  0.00    -0.463 OA
BRANCH   4   5
ATOM      5  C   UNL A   1      40.262  27.980  28.182  1.00  0.00     0.308 C 
ATOM      6  O   UNL A   1      40.064  28.186  26.989  1.00  0.00    -0.252 OA
BRANCH   5   7
ATOM      7  C   UNL A   1      41.581  28.333  28.819  1.00  0.00     0.156 C 
BRANCH   7   8
ATOM      8  C   UNL A   1      42.761  27.365  28.816  1.00  0.00     0.148 C 
ATOM      9  N   UNL A   1      43.994  25.550  27.674  1.00  0.00    -0.337 N 
ATOM     10  C   UNL A   1      45.084  26.475  27.400  1.00  0.00     0.148 C 
ATOM     11  C   UNL A   1      42.689  26.235  27.757  1.00  0.00     0.152 C 
ATOM     12  C   UNL A   1      45.151  27.529  28.495  1.00  0.00     0.182 C 
ATOM     13  O   UNL A   1      43.907  28.234  28.567  1.00  0.00    -0.374 OA
BRANCH   9  14
ATOM     14  C   UNL A   1      44.062  24.181  27.832  1.00  0.00     0.231 C 
ATOM     15  O   UNL A   1      44.917  23.530  27.217  1.00  0.00    -0.274 OA
BRANCH  14  16
ATOM     16  C   UNL A   1      42.965  23.396  28.589  1.00  0.00     0.130 C 
ATOM     17  C   UNL A   1      43.501  22.999  29.960  1.00  0.00     0.024 C 
BRANCH  16  18
ATOM     18  C   UNL A   1      42.269  22.228  27.884  1.00  0.00     0.273 C 
BRANCH  18  19
ATOM     19  N   UNL A   1      43.086  21.425  26.960  1.00  0.00    -0.346 N 
ATOM     20  H   UNL A   1      43.324  22.010  26.158  1.00  0.00     0.346 HD
ATOM     21  H   UNL A   1      43.903  21.118  27.488  1.00  0.00     0.346 HD
BRANCH  19  22
ATOM     22  C   UNL A   1      42.436  20.218  26.465  1.00  0.00     0.257 C 
ATOM     23  C   UNL A   1      43.373  19.519  25.490  1.00  0.00     0.071 C 
ENDBRANCH  19  22
ENDBRANCH  18  19
ENDBRANCH  16  18
ENDBRANCH  14  16
ENDBRANCH   9  14
ENDBRANCH   7   8
ENDBRANCH   5   7
ENDBRANCH   4   5
ENDBRANCH   3   4
ENDBRANCH   2   3
ENDBRANCH   1   2
BRANCH   1  24
ATOM     24  C   UNL A   1      36.500  31.069  28.201  1.00  0.00     0.188 C 
BRANCH  24  25
ATOM     25  C   UNL A   1      36.276  32.396  28.924  1.00  0.00     0.188 C 
BRANCH  25  26
ATOM     26  O   UNL A   1      35.019  32.609  29.536  1.00  0.00    -0.376 OA
BRANCH  26  27
ATOM     27  C   UNL A   1      34.865  32.416  30.945  1.00  0.00     0.202 C 
BRANCH  27  28
ATOM     28  C   UNL A   1      35.832  32.921  32.053  1.00  0.00     0.261 C 
BRANCH  28  29
ATOM     29  O   UNL A   1      35.983  32.141  33.243  1.00  0.00    -0.460 OA
BRANCH  29  30
ATOM     30  C   UNL A   1      36.835  32.612  34.178  1.00  0.00     0.338 C 
ATOM     31  O   UNL A   1      36.539  33.211  35.197  1.00  0.00    -0.246 OA
BRANCH  30  32
ATOM     32  C   UNL A   1      38.188  32.074  33.896  1.00  0.00     0.060 A 
ATOM     33  C   UNL A   1      39.293  32.801  34.364  1.00  0.00     0.016 A 
ATOM     34  C   UNL A   1      38.379  30.866  33.223  1.00  0.00     0.016 A 
ATOM     35  C   UNL A   1      40.590  32.339  34.138  1.00  0.00     0.010 A 
ATOM     36  C   UNL A   1      39.681  30.420  32.967  1.00  0.00     0.010 A 
ATOM     37  C   UNL A   1      40.794  31.172  33.393  1.00  0.00    -0.014 A 
BRANCH  37  38
ATOM     38  C   UNL A   1      42.146  30.852  32.871  1.00  0.00     0.031 A 
ATOM     39  C   UNL A   1      42.642  31.623  31.675  1.00  0.00     0.074 A 
ATOM     40  C   UNL A   1      42.920  29.901  33.424  1.00  0.00     0.049 A 
ATOM     41  N   UNL A   1      43.742  31.473  30.986  1.00  0.00    -0.248 NA
ATOM     42  C   UNL A   1      41.771  32.706  31.189  1.00  0.00     0.031 C 
ATOM     43  C   UNL A   1      42.574  29.101  34.596  1.00  0.00     0.029 A 
ATOM     44  N   UNL A   1      44.153  29.428  33.043  1.00  0.00    -0.354 N 
ATOM     45  C   UNL A   1      43.679  32.414  29.965  1.00  0.00     0.074 A 
ATOM     46  C   UNL A   1      42.430  33.127  30.121  1.00  0.00     0.031 C 
ATOM     47  C   UNL A   1      43.555  28.207  34.816  1.00  0.00     0.029 A 
ATOM     48  C   UNL A   1      44.580  28.350  33.784  1.00  0.00     0.049 A 
ATOM     49  H   UNL A   1      44.680  29.822  32.310  1.00  0.00     0.167 HD
ATOM     50  C   UNL A   1      44.579  32.668  28.986  1.00  0.00     0.034 A 
ATOM     51  C   UNL A   1      45.657  27.553  33.624  1.00  0.00     0.034 A 
ATOM     52  C   UNL A   1      45.826  31.969  28.836  1.00  0.00     0.049 A 
ATOM     53  C   UNL A   1      46.627  27.829  32.501  1.00  0.00     0.074 A 
ATOM     54  C   UNL A   1      46.823  32.182  27.901  1.00  0.00     0.029 A 
ATOM     55  N   UNL A   1      46.240  30.909  29.627  1.00  0.00    -0.354 N 
ATOM     56  N   UNL A   1      46.604  28.785  31.605  1.00  0.00    -0.248 NA
ATOM     57  C   UNL A   1      47.788  26.931  32.388  1.00  0.00     0.031 C 
ATOM     58  C   UNL A   1      47.823  31.227  28.103  1.00  0.00     0.029 A 
ATOM     59  C   UNL A   1      47.470  30.447  29.193  1.00  0.00     0.049 A 
ATOM     60  H   UNL A   1      45.733  30.538  30.386  1.00  0.00     0.167 HD
ATOM     61  C   UNL A   1      47.764  28.629  30.849  1.00  0.00     0.074 A 
ATOM     62  C   UNL A   1      48.474  27.497  31.405  1.00  0.00     0.031 C 
ATOM     63  C   UNL A   1      48.196  29.353  29.786  1.00  0.00     0.034 A 
BRANCH  50  64
ATOM     64  C   UNL A   1      44.249  33.757  27.999  1.00  0.00     0.023 A 
ATOM     65  C   UNL A   1      43.795  33.422  26.708  1.00  0.00     0.012 A 
ATOM     66  C   UNL A   1      44.343  35.113  28.371  1.00  0.00     0.148 A 
ATOM     67  C   UNL A   1      43.473  34.420  25.788  1.00  0.00     0.002 A 
ATOM     68  C   UNL A   1      43.973  36.100  27.466  1.00  0.00     0.091 A 
ATOM     69  F   UNL A   1      44.798  35.410  29.595  1.00  0.00    -0.205 F 
ATOM     70  C   UNL A   1      43.551  35.757  26.171  1.00  0.00     0.022 A 
BRANCH  68  71
ATOM     71  S   UNL A   1      43.962  37.845  27.888  1.00  0.00     0.127 S 
ATOM     72  O   UNL A   1      43.881  38.466  26.566  1.00  0.00    -0.237 OA
ATOM     73  O   UNL A   1      42.744  37.958  28.689  1.00  0.00    -0.237 OA
ATOM     74  O   UNL A   1      45.197  38.091  28.618  1.00  0.00    -0.744 OA
ENDBRANCH  68  71
ENDBRANCH  50  64
BRANCH  51  75
ATOM     75  C   UNL A   1      45.890  26.413  34.558  1.00  0.00     0.023 A 
ATOM     76  C   UNL A   1      46.649  26.613  35.727  1.00  0.00     0.012 A 
ATOM     77  C   UNL A   1      45.369  25.132  34.291  1.00  0.00     0.148 A 
ATOM     78  C   UNL A   1      46.912  25.553  36.597  1.00  0.00     0.002 A 
ATOM     79  C   UNL A   1      45.586  24.093  35.189  1.00  0.00     0.091 A 
ATOM     80  F   UNL A   1      44.666  24.955  33.163  1.00  0.00    -0.205 F 
ATOM     81  C   UNL A   1      46.373  24.297  36.333  1.00  0.00     0.022 A 
BRANCH  79  82
ATOM     82  S   UNL A   1      44.836  22.473  34.993  1.00  0.00     0.127 S 
ATOM     83  O   UNL A   1      45.342  21.765  36.166  1.00  0.00    -0.237 OA
ATOM     84  O   UNL A   1      43.410  22.798  35.036  1.00  0.00    -0.237 OA
ATOM     85  O   UNL A   1      45.302  21.976  33.705  1.00  0.00    -0.744 OA
ENDBRANCH  79  82
ENDBRANCH  51  75
BRANCH  63  86
ATOM     86  C   UNL A   1      49.527  28.989  29.175  1.00  0.00     0.023 A 
ATOM     87  C   UNL A   1      50.716  29.548  29.683  1.00  0.00     0.012 A 
ATOM     88  C   UNL A   1      49.601  28.026  28.148  1.00  0.00     0.148 A 
ATOM     89  C   UNL A   1      51.954  29.181  29.154  1.00  0.00     0.002 A 
ATOM     90  C   UNL A   1      50.840  27.627  27.663  1.00  0.00     0.091 A 
ATOM     91  F   UNL A   1      48.458  27.515  27.668  1.00  0.00    -0.205 F 
ATOM     92  C   UNL A   1      52.017  28.214  28.154  1.00  0.00     0.022 A 
BRANCH  90  93
ATOM     93  S   UNL A   1      51.025  26.316  26.448  1.00  0.00     0.127 S 
ATOM     94  O   UNL A   1      52.028  26.882  25.548  1.00  0.00    -0.237 OA
ATOM     95  O   UNL A   1      51.499  25.199  27.266  1.00  0.00    -0.237 OA
ATOM     96  O   UNL A   1      49.704  26.119  25.863  1.00  0.00    -0.744 OA
ENDBRANCH  90  93
ENDBRANCH  63  86
ENDBRANCH  37  38
ENDBRANCH  30  32
ENDBRANCH  29  30
ENDBRANCH  28  29
ENDBRANCH  27  28
ENDBRANCH  26  27
ENDBRANCH  25  26
ENDBRANCH  24  25
ENDBRANCH   1  24
TORSDOF 26
ENDMDL
