MODEL 1
REMARK VINA RESULT:      -9.8      0.000      0.000
REMARK SMILES COc1ccc(-c2noc(CC(=O)OCCOCCOCCOC(=O)c3ccc(-c4c5nc(c(-c6cccc(S(=O)(=O)[O-])c6F)c6ccc([nH]6)c(-c6cccc(S(=O)(=O)[O-])c6F)c6nc(c(-c7cccc(S(=O)(=O)[O-])c7F)c7ccc4[nH]7)C=C6)C=C5)cc3)c2-c2ccc(OC)cc2)cc1
REMARK SMILES IDX 18 1 17 2 16 3 15 4 14 5 12 6 13 7 11 8 10 9 7 10 8 11 89 12
REMARK SMILES IDX 9 13 6 14 3 15 4 16 99 17 5 18 98 19 2 20 1 21 90 22 91 23
REMARK SMILES IDX 97 24 92 25 96 26 93 27 94 28 95 29 19 30 20 31 21 32 22 33
REMARK SMILES IDX 23 34 24 35 25 36 26 37 27 38 88 39 28 40 87 41 29 42 30 43
REMARK SMILES IDX 31 44 81 45 32 46 86 47 80 48 82 49 33 50 85 51 79 52 78 53
REMARK SMILES IDX 34 55 66 56 46 57 65 58 47 59 50 60 64 61 83 62 48 63 49 64
REMARK SMILES IDX 63 66 84 67 51 68 35 69 36 70 44 71 37 72 39 73 45 74 38 75
REMARK SMILES IDX 40 76 41 77 42 78 43 79 67 80 68 81 76 82 69 83 71 84 77 85
REMARK SMILES IDX 70 86 72 87 73 88 74 89 75 90 52 91 53 92 61 93 54 94 56 95
REMARK SMILES IDX 62 96 55 97 57 98 58 99 59 100 60 101
REMARK H PARENT 82 54 50 65
REMARK Flexibility Score: inf
ROOT
ATOM      1  C   UNL A   1      32.918  28.645  26.443  1.00  0.00     0.188 C 
ENDROOT
BRANCH   1   2
ATOM      2  O   UNL A   1      32.660  27.622  25.493  1.00  0.00    -0.376 OA
BRANCH   2   3
ATOM      3  C   UNL A   1      31.478  27.742  24.705  1.00  0.00     0.202 C 
BRANCH   3   4
ATOM      4  C   UNL A   1      31.425  26.941  23.392  1.00  0.00     0.261 C 
BRANCH   4   5
ATOM      5  O   UNL A   1      32.524  27.222  22.493  1.00  0.00    -0.463 OA
BRANCH   5   6
ATOM      6  C   UNL A   1      33.150  26.134  21.963  1.00  0.00     0.313 C 
ATOM      7  O   UNL A   1      33.240  25.920  20.756  1.00  0.00    -0.252 OA
BRANCH   6   8
ATOM      8  C   UNL A   1      33.901  25.298  22.980  1.00  0.00     0.201 C 
BRANCH   8   9
ATOM      9  C   UNL A   1      33.402  23.911  23.164  1.00  0.00     0.156 A 
ATOM     10  C   UNL A   1      32.828  21.815  23.645  1.00  0.00     0.122 A 
ATOM     11  N   UNL A   1      31.755  22.381  23.077  1.00  0.00    -0.079 NA
ATOM     12  C   UNL A   1      33.895  22.757  23.734  1.00  0.00     0.053 A 
ATOM     13  O   UNL A   1      32.097  23.694  22.839  1.00  0.00    -0.359 OA
BRANCH  10  14
ATOM     14  C   UNL A   1      32.806  20.438  24.114  1.00  0.00     0.005 A 
ATOM     15  C   UNL A   1      32.581  17.799  25.055  1.00  0.00     0.118 A 
ATOM     16  C   UNL A   1      32.918  18.837  25.927  1.00  0.00     0.047 A 
ATOM     17  C   UNL A   1      32.378  18.080  23.703  1.00  0.00     0.047 A 
ATOM     18  C   UNL A   1      33.046  20.149  25.461  1.00  0.00     0.014 A 
ATOM     19  C   UNL A   1      32.489  19.394  23.236  1.00  0.00     0.014 A 
BRANCH  15  20
ATOM     20  O   UNL A   1      32.441  16.573  25.644  1.00  0.00    -0.497 OA
ATOM     21  C   UNL A   1      33.180  15.505  25.065  1.00  0.00     0.278 C 
ENDBRANCH  15  20
ENDBRANCH  10  14
BRANCH  12  22
ATOM     22  C   UNL A   1      35.174  22.664  24.391  1.00  0.00    -0.012 A 
ATOM     23  C   UNL A   1      35.986  21.539  24.251  1.00  0.00     0.013 A 
ATOM     24  C   UNL A   1      35.571  23.708  25.231  1.00  0.00     0.013 A 
ATOM     25  C   UNL A   1      37.207  21.483  24.930  1.00  0.00     0.047 A 
ATOM     26  C   UNL A   1      36.790  23.654  25.898  1.00  0.00     0.047 A 
ATOM     27  C   UNL A   1      37.620  22.545  25.741  1.00  0.00     0.118 A 
BRANCH  27  28
ATOM     28  O   UNL A   1      38.840  22.388  26.340  1.00  0.00    -0.497 OA
ATOM     29  C   UNL A   1      39.526  21.177  26.038  1.00  0.00     0.278 C 
ENDBRANCH  27  28
ENDBRANCH  12  22
ENDBRANCH   8   9
ENDBRANCH   6   8
ENDBRANCH   5   6
ENDBRANCH   4   5
ENDBRANCH   3   4
ENDBRANCH   2   3
ENDBRANCH   1   2
BRANCH   1  30
ATOM     30  C   UNL A   1      31.742  29.530  26.874  1.00  0.00     0.188 C 
BRANCH  30  31
ATOM     31  O   UNL A   1      31.937  30.919  26.681  1.00  0.00    -0.376 OA
BRANCH  31  32
ATOM     32  C   UNL A   1      33.112  31.478  27.255  1.00  0.00     0.202 C 
BRANCH  32  33
ATOM     33  C   UNL A   1      32.893  32.926  27.723  1.00  0.00     0.261 C 
BRANCH  33  34
ATOM     34  O   UNL A   1      33.733  33.339  28.821  1.00  0.00    -0.460 OA
BRANCH  34  35
ATOM     35  C   UNL A   1      34.820  34.081  28.499  1.00  0.00     0.338 C 
ATOM     36  O   UNL A   1      34.812  35.239  28.112  1.00  0.00    -0.246 OA
BRANCH  35  37
ATOM     37  C   UNL A   1      36.042  33.349  28.931  1.00  0.00     0.060 A 
ATOM     38  C   UNL A   1      35.915  32.003  29.305  1.00  0.00     0.016 A 
ATOM     39  C   UNL A   1      37.305  33.949  28.915  1.00  0.00     0.016 A 
ATOM     40  C   UNL A   1      37.035  31.280  29.731  1.00  0.00     0.010 A 
ATOM     41  C   UNL A   1      38.424  33.225  29.349  1.00  0.00     0.010 A 
ATOM     42  C   UNL A   1      38.290  31.900  29.803  1.00  0.00    -0.014 A 
BRANCH  42  43
ATOM     43  C   UNL A   1      39.409  31.229  30.526  1.00  0.00     0.031 A 
ATOM     44  C   UNL A   1      39.622  31.552  31.985  1.00  0.00     0.074 A 
ATOM     45  C   UNL A   1      40.219  30.338  29.922  1.00  0.00     0.049 A 
ATOM     46  N   UNL A   1      40.509  31.075  32.821  1.00  0.00    -0.248 NA
ATOM     47  C   UNL A   1      38.713  32.547  32.577  1.00  0.00     0.031 C 
ATOM     48  C   UNL A   1      40.143  29.936  28.520  1.00  0.00     0.029 A 
ATOM     49  N   UNL A   1      41.283  29.623  30.421  1.00  0.00    -0.354 N 
ATOM     50  C   UNL A   1      40.283  31.728  34.027  1.00  0.00     0.074 A 
ATOM     51  C   UNL A   1      39.188  32.648  33.810  1.00  0.00     0.031 C 
ATOM     52  C   UNL A   1      41.133  29.060  28.264  1.00  0.00     0.029 A 
ATOM     53  C   UNL A   1      41.922  28.851  29.478  1.00  0.00     0.049 A 
ATOM     54  H   UNL A   1      41.561  29.660  31.364  1.00  0.00     0.167 HD
ATOM     55  C   UNL A   1      40.910  31.568  35.218  1.00  0.00     0.034 A 
ATOM     56  C   UNL A   1      43.022  28.076  29.578  1.00  0.00     0.034 A 
ATOM     57  C   UNL A   1      41.989  30.645  35.452  1.00  0.00     0.049 A 
ATOM     58  C   UNL A   1      43.716  27.926  30.910  1.00  0.00     0.074 A 
ATOM     59  C   UNL A   1      42.648  30.378  36.640  1.00  0.00     0.029 A 
ATOM     60  N   UNL A   1      42.583  29.856  34.482  1.00  0.00    -0.354 N 
ATOM     61  N   UNL A   1      43.401  28.446  32.072  1.00  0.00    -0.248 NA
ATOM     62  C   UNL A   1      44.895  27.047  30.952  1.00  0.00     0.031 C 
ATOM     63  C   UNL A   1      43.665  29.453  36.379  1.00  0.00     0.029 A 
ATOM     64  C   UNL A   1      43.612  29.113  35.038  1.00  0.00     0.049 A 
ATOM     65  H   UNL A   1      42.315  29.827  33.534  1.00  0.00     0.167 HD
ATOM     66  C   UNL A   1      44.319  27.932  32.985  1.00  0.00     0.074 A 
ATOM     67  C   UNL A   1      45.183  27.035  32.246  1.00  0.00     0.031 C 
ATOM     68  C   UNL A   1      44.444  28.188  34.311  1.00  0.00     0.034 A 
BRANCH  55  69
ATOM     69  C   UNL A   1      40.425  32.400  36.377  1.00  0.00     0.023 A 
ATOM     70  C   UNL A   1      41.120  33.572  36.738  1.00  0.00     0.012 A 
ATOM     71  C   UNL A   1      39.251  32.051  37.074  1.00  0.00     0.148 A 
ATOM     72  C   UNL A   1      40.677  34.365  37.796  1.00  0.00     0.002 A 
ATOM     73  C   UNL A   1      38.789  32.871  38.096  1.00  0.00     0.091 A 
ATOM     74  F   UNL A   1      38.616  30.923  36.730  1.00  0.00    -0.205 F 
ATOM     75  C   UNL A   1      39.506  34.020  38.467  1.00  0.00     0.022 A 
BRANCH  73  76
ATOM     76  S   UNL A   1      37.247  32.561  38.964  1.00  0.00     0.127 S 
ATOM     77  O   UNL A   1      37.305  33.560  40.030  1.00  0.00    -0.237 OA
ATOM     78  O   UNL A   1      36.252  32.833  37.928  1.00  0.00    -0.237 OA
ATOM     79  O   UNL A   1      37.305  31.175  39.405  1.00  0.00    -0.744 OA
ENDBRANCH  73  76
ENDBRANCH  55  69
BRANCH  56  80
ATOM     80  C   UNL A   1      43.534  27.344  28.382  1.00  0.00     0.023 A 
ATOM     81  C   UNL A   1      44.414  27.989  27.491  1.00  0.00     0.012 A 
ATOM     82  C   UNL A   1      43.141  26.017  28.118  1.00  0.00     0.148 A 
ATOM     83  C   UNL A   1      44.866  27.338  26.341  1.00  0.00     0.002 A 
ATOM     84  C   UNL A   1      43.642  25.355  27.003  1.00  0.00     0.091 A 
ATOM     85  F   UNL A   1      42.286  25.429  28.966  1.00  0.00    -0.205 F 
ATOM     86  C   UNL A   1      44.489  26.020  26.103  1.00  0.00     0.022 A 
BRANCH  84  87
ATOM     87  S   UNL A   1      43.310  23.620  26.681  1.00  0.00     0.127 S 
ATOM     88  O   UNL A   1      43.924  22.978  27.841  1.00  0.00    -0.237 OA
ATOM     89  O   UNL A   1      41.847  23.594  26.664  1.00  0.00    -0.237 OA
ATOM     90  O   UNL A   1      43.934  23.331  25.397  1.00  0.00    -0.744 OA
ENDBRANCH  84  87
ENDBRANCH  56  80
BRANCH  68  91
ATOM     91  C   UNL A   1      45.531  27.463  35.069  1.00  0.00     0.023 A 
ATOM     92  C   UNL A   1      45.263  26.214  35.667  1.00  0.00     0.012 A 
ATOM     93  C   UNL A   1      46.832  27.999  35.153  1.00  0.00     0.148 A 
ATOM     94  C   UNL A   1      46.256  25.537  36.375  1.00  0.00     0.002 A 
ATOM     95  C   UNL A   1      47.830  27.293  35.815  1.00  0.00     0.091 A 
ATOM     96  F   UNL A   1      47.070  29.194  34.593  1.00  0.00    -0.205 F 
ATOM     97  C   UNL A   1      47.540  26.071  36.442  1.00  0.00     0.022 A 
BRANCH  95  98
ATOM     98  S   UNL A   1      49.536  27.858  35.868  1.00  0.00     0.127 S 
ATOM     99  O   UNL A   1      50.163  26.833  36.702  1.00  0.00    -0.237 OA
ATOM    100  O   UNL A   1      49.922  27.815  34.458  1.00  0.00    -0.237 OA
ATOM    101  O   UNL A   1      49.496  29.196  36.442  1.00  0.00    -0.744 OA
ENDBRANCH  95  98
ENDBRANCH  68  91
ENDBRANCH  42  43
ENDBRANCH  35  37
ENDBRANCH  34  35
ENDBRANCH  33  34
ENDBRANCH  32  33
ENDBRANCH  31  32
ENDBRANCH  30  31
ENDBRANCH   1  30
TORSDOF 25
ENDMDL
MODEL 2
REMARK VINA RESULT:      -9.7      2.907      4.428
REMARK SMILES COc1ccc(-c2noc(CC(=O)OCCOCCOCCOC(=O)c3ccc(-c4c5nc(c(-c6cccc(S(=O)(=O)[O-])c6F)c6ccc([nH]6)c(-c6cccc(S(=O)(=O)[O-])c6F)c6nc(c(-c7cccc(S(=O)(=O)[O-])c7F)c7ccc4[nH]7)C=C6)C=C5)cc3)c2-c2ccc(OC)cc2)cc1
REMARK SMILES IDX 18 1 17 2 16 3 15 4 14 5 12 6 13 7 11 8 10 9 7 10 8 11 89 12
REMARK SMILES IDX 9 13 6 14 3 15 4 16 99 17 5 18 98 19 2 20 1 21 90 22 91 23
REMARK SMILES IDX 97 24 92 25 96 26 93 27 94 28 95 29 19 30 20 31 21 32 22 33
REMARK SMILES IDX 23 34 24 35 25 36 26 37 27 38 88 39 28 40 87 41 29 42 30 43
REMARK SMILES IDX 31 44 81 45 32 46 86 47 80 48 82 49 33 50 85 51 79 52 78 53
REMARK SMILES IDX 34 55 66 56 46 57 65 58 47 59 50 60 64 61 83 62 48 63 49 64
REMARK SMILES IDX 63 66 84 67 51 68 35 69 36 70 44 71 37 72 39 73 45 74 38 75
REMARK SMILES IDX 40 76 41 77 42 78 43 79 67 80 68 81 76 82 69 83 71 84 77 85
REMARK SMILES IDX 70 86 72 87 73 88 74 89 75 90 52 91 53 92 61 93 54 94 56 95
REMARK SMILES IDX 62 96 55 97 57 98 58 99 59 100 60 101
REMARK H PARENT 82 54 50 65
REMARK Flexibility Score: inf
ROOT
ATOM      1  C   UNL A   1      34.119  30.360  27.763  1.00  0.00     0.188 C 
ENDROOT
BRANCH   1   2
ATOM      2  O   UNL A   1      33.692  29.172  27.116  1.00  0.00    -0.376 OA
BRANCH   2   3
ATOM      3  C   UNL A   1      32.294  29.021  26.875  1.00  0.00     0.202 C 
BRANCH   3   4
ATOM      4  C   UNL A   1      31.694  27.619  27.078  1.00  0.00     0.261 C 
BRANCH   4   5
ATOM      5  O   UNL A   1      31.000  27.107  25.916  1.00  0.00    -0.463 OA
BRANCH   5   6
ATOM      6  C   UNL A   1      30.737  25.770  25.924  1.00  0.00     0.313 C 
ATOM      7  O   UNL A   1      29.873  25.249  26.625  1.00  0.00    -0.252 OA
BRANCH   6   8
ATOM      8  C   UNL A   1      31.468  24.991  24.848  1.00  0.00     0.201 C 
BRANCH   8   9
ATOM      9  C   UNL A   1      32.918  24.770  25.090  1.00  0.00     0.156 A 
ATOM     10  C   UNL A   1      35.058  24.207  25.320  1.00  0.00     0.122 A 
ATOM     11  N   UNL A   1      35.013  25.545  25.350  1.00  0.00    -0.079 NA
ATOM     12  C   UNL A   1      33.748  23.671  25.142  1.00  0.00     0.053 A 
ATOM     13  O   UNL A   1      33.694  25.887  25.146  1.00  0.00    -0.359 OA
BRANCH  10  14
ATOM     14  C   UNL A   1      36.317  23.482  25.421  1.00  0.00     0.005 A 
ATOM     15  C   UNL A   1      38.673  21.988  25.759  1.00  0.00     0.118 A 
ATOM     16  C   UNL A   1      38.510  23.212  26.412  1.00  0.00     0.047 A 
ATOM     17  C   UNL A   1      37.663  21.522  24.917  1.00  0.00     0.047 A 
ATOM     18  C   UNL A   1      37.345  23.966  26.234  1.00  0.00     0.014 A 
ATOM     19  C   UNL A   1      36.490  22.265  24.750  1.00  0.00     0.014 A 
BRANCH  15  20
ATOM     20  O   UNL A   1      39.834  21.328  26.053  1.00  0.00    -0.497 OA
ATOM     21  C   UNL A   1      39.819  19.916  25.883  1.00  0.00     0.278 C 
ENDBRANCH  15  20
ENDBRANCH  10  14
BRANCH  12  22
ATOM     22  C   UNL A   1      33.314  22.319  24.903  1.00  0.00    -0.012 A 
ATOM     23  C   UNL A   1      33.289  21.368  25.923  1.00  0.00     0.013 A 
ATOM     24  C   UNL A   1      32.967  21.950  23.600  1.00  0.00     0.013 A 
ATOM     25  C   UNL A   1      32.886  20.061  25.636  1.00  0.00     0.047 A 
ATOM     26  C   UNL A   1      32.556  20.651  23.320  1.00  0.00     0.047 A 
ATOM     27  C   UNL A   1      32.503  19.702  24.340  1.00  0.00     0.118 A 
BRANCH  27  28
ATOM     28  O   UNL A   1      32.109  18.402  24.181  1.00  0.00    -0.497 OA
ATOM     29  C   UNL A   1      32.221  17.878  22.862  1.00  0.00     0.278 C 
ENDBRANCH  27  28
ENDBRANCH  12  22
ENDBRANCH   8   9
ENDBRANCH   6   8
ENDBRANCH   5   6
ENDBRANCH   4   5
ENDBRANCH   3   4
ENDBRANCH   2   3
ENDBRANCH   1   2
BRANCH   1  30
ATOM     30  C   UNL A   1      33.283  31.628  27.548  1.00  0.00     0.188 C 
BRANCH  30  31
ATOM     31  O   UNL A   1      33.930  32.837  27.900  1.00  0.00    -0.376 OA
BRANCH  31  32
ATOM     32  C   UNL A   1      33.087  33.959  28.136  1.00  0.00     0.202 C 
BRANCH  32  33
ATOM     33  C   UNL A   1      33.595  34.827  29.300  1.00  0.00     0.261 C 
BRANCH  33  34
ATOM     34  O   UNL A   1      32.911  34.617  30.552  1.00  0.00    -0.460 OA
BRANCH  34  35
ATOM     35  C   UNL A   1      33.394  35.294  31.622  1.00  0.00     0.338 C 
ATOM     36  O   UNL A   1      32.853  36.233  32.183  1.00  0.00    -0.246 OA
BRANCH  35  37
ATOM     37  C   UNL A   1      34.567  34.555  32.164  1.00  0.00     0.060 A 
ATOM     38  C   UNL A   1      35.833  35.155  32.071  1.00  0.00     0.016 A 
ATOM     39  C   UNL A   1      34.428  33.322  32.806  1.00  0.00     0.016 A 
ATOM     40  C   UNL A   1      36.965  34.490  32.555  1.00  0.00     0.010 A 
ATOM     41  C   UNL A   1      35.565  32.655  33.285  1.00  0.00     0.010 A 
ATOM     42  C   UNL A   1      36.847  33.212  33.122  1.00  0.00    -0.014 A 
BRANCH  42  43
ATOM     43  C   UNL A   1      38.067  32.392  33.364  1.00  0.00     0.031 A 
ATOM     44  C   UNL A   1      38.899  32.679  34.590  1.00  0.00     0.074 A 
ATOM     45  C   UNL A   1      38.438  31.397  32.535  1.00  0.00     0.049 A 
ATOM     46  N   UNL A   1      39.983  32.084  35.019  1.00  0.00    -0.248 NA
ATOM     47  C   UNL A   1      38.448  33.791  35.443  1.00  0.00     0.031 C 
ATOM     48  C   UNL A   1      37.743  31.010  31.309  1.00  0.00     0.029 A 
ATOM     49  N   UNL A   1      39.512  30.540  32.597  1.00  0.00    -0.354 N 
ATOM     50  C   UNL A   1      40.356  32.760  36.174  1.00  0.00     0.074 A 
ATOM     51  C   UNL A   1      39.395  33.824  36.369  1.00  0.00     0.031 C 
ATOM     52  C   UNL A   1      38.420  30.006  30.723  1.00  0.00     0.029 A 
ATOM     53  C   UNL A   1      39.605  29.687  31.521  1.00  0.00     0.049 A 
ATOM     54  H   UNL A   1      40.155  30.536  33.342  1.00  0.00     0.167 HD
ATOM     55  C   UNL A   1      41.390  32.513  37.015  1.00  0.00     0.034 A 
ATOM     56  C   UNL A   1      40.540  28.766  31.209  1.00  0.00     0.034 A 
ATOM     57  C   UNL A   1      42.343  31.449  36.841  1.00  0.00     0.049 A 
ATOM     58  C   UNL A   1      41.693  28.520  32.151  1.00  0.00     0.074 A 
ATOM     59  C   UNL A   1      43.392  31.091  37.673  1.00  0.00     0.029 A 
ATOM     60  N   UNL A   1      42.382  30.586  35.760  1.00  0.00    -0.354 N 
ATOM     61  N   UNL A   1      41.952  29.078  33.309  1.00  0.00    -0.248 NA
ATOM     62  C   UNL A   1      42.663  27.485  31.759  1.00  0.00     0.031 C 
ATOM     63  C   UNL A   1      44.085  30.034  37.073  1.00  0.00     0.029 A 
ATOM     64  C   UNL A   1      43.444  29.706  35.891  1.00  0.00     0.049 A 
ATOM     65  H   UNL A   1      41.747  30.595  35.006  1.00  0.00     0.167 HD
ATOM     66  C   UNL A   1      43.090  28.439  33.797  1.00  0.00     0.074 A 
ATOM     67  C   UNL A   1      43.453  27.433  32.823  1.00  0.00     0.031 C 
ATOM     68  C   UNL A   1      43.779  28.675  34.942  1.00  0.00     0.034 A 
BRANCH  55  69
ATOM     69  C   UNL A   1      41.534  33.403  38.222  1.00  0.00     0.023 A 
ATOM     70  C   UNL A   1      40.936  33.029  39.443  1.00  0.00     0.012 A 
ATOM     71  C   UNL A   1      42.305  34.580  38.164  1.00  0.00     0.148 A 
ATOM     72  C   UNL A   1      41.073  33.829  40.577  1.00  0.00     0.002 A 
ATOM     73  C   UNL A   1      42.477  35.348  39.308  1.00  0.00     0.091 A 
ATOM     74  F   UNL A   1      42.848  34.930  36.989  1.00  0.00    -0.205 F 
ATOM     75  C   UNL A   1      41.851  34.982  40.512  1.00  0.00     0.022 A 
BRANCH  73  76
ATOM     76  S   UNL A   1      43.528  36.804  39.350  1.00  0.00     0.127 S 
ATOM     77  O   UNL A   1      44.821  36.244  38.959  1.00  0.00    -0.237 OA
ATOM     78  O   UNL A   1      42.905  37.661  38.342  1.00  0.00    -0.237 OA
ATOM     79  O   UNL A   1      43.456  37.314  40.712  1.00  0.00    -0.744 OA
ENDBRANCH  73  76
ENDBRANCH  55  69
BRANCH  56  80
ATOM     80  C   UNL A   1      40.418  27.971  29.952  1.00  0.00     0.023 A 
ATOM     81  C   UNL A   1      39.461  26.941  29.866  1.00  0.00     0.012 A 
ATOM     82  C   UNL A   1      41.256  28.224  28.847  1.00  0.00     0.148 A 
ATOM     83  C   UNL A   1      39.364  26.154  28.716  1.00  0.00     0.002 A 
ATOM     84  C   UNL A   1      41.113  27.475  27.684  1.00  0.00     0.091 A 
ATOM     85  F   UNL A   1      42.174  29.194  28.957  1.00  0.00    -0.205 F 
ATOM     86  C   UNL A   1      40.181  26.427  27.624  1.00  0.00     0.022 A 
BRANCH  84  87
ATOM     87  S   UNL A   1      42.034  27.835  26.186  1.00  0.00     0.127 S 
ATOM     88  O   UNL A   1      43.412  27.627  26.624  1.00  0.00    -0.237 OA
ATOM     89  O   UNL A   1      41.519  26.819  25.268  1.00  0.00    -0.237 OA
ATOM     90  O   UNL A   1      41.686  29.203  25.828  1.00  0.00    -0.744 OA
ENDBRANCH  84  87
ENDBRANCH  56  80
BRANCH  68  91
ATOM     91  C   UNL A   1      44.979  27.805  35.233  1.00  0.00     0.023 A 
ATOM     92  C   UNL A   1      46.260  28.199  34.794  1.00  0.00     0.012 A 
ATOM     93  C   UNL A   1      44.845  26.616  35.980  1.00  0.00     0.148 A 
ATOM     94  C   UNL A   1      47.377  27.402  35.050  1.00  0.00     0.002 A 
ATOM     95  C   UNL A   1      45.969  25.855  36.277  1.00  0.00     0.091 A 
ATOM     96  F   UNL A   1      43.619  26.247  36.378  1.00  0.00    -0.205 F 
ATOM     97  C   UNL A   1      47.233  26.236  35.798  1.00  0.00     0.022 A 
BRANCH  95  98
ATOM     98  S   UNL A   1      45.893  24.390  37.316  1.00  0.00     0.127 S 
ATOM     99  O   UNL A   1      45.745  23.327  36.322  1.00  0.00    -0.237 OA
ATOM    100  O   UNL A   1      47.192  24.418  37.988  1.00  0.00    -0.237 OA
ATOM    101  O   UNL A   1      44.753  24.586  38.199  1.00  0.00    -0.744 OA
ENDBRANCH  95  98
ENDBRANCH  68  91
ENDBRANCH  42  43
ENDBRANCH  35  37
ENDBRANCH  34  35
ENDBRANCH  33  34
ENDBRANCH  32  33
ENDBRANCH  31  32
ENDBRANCH  30  31
ENDBRANCH   1  30
TORSDOF 25
ENDMDL
MODEL 3
REMARK VINA RESULT:      -9.5      6.081     10.280
REMARK SMILES COc1ccc(-c2noc(CC(=O)OCCOCCOCCOC(=O)c3ccc(-c4c5nc(c(-c6cccc(S(=O)(=O)[O-])c6F)c6ccc([nH]6)c(-c6cccc(S(=O)(=O)[O-])c6F)c6nc(c(-c7cccc(S(=O)(=O)[O-])c7F)c7ccc4[nH]7)C=C6)C=C5)cc3)c2-c2ccc(OC)cc2)cc1
REMARK SMILES IDX 18 1 17 2 16 3 15 4 14 5 12 6 13 7 11 8 10 9 7 10 8 11 89 12
REMARK SMILES IDX 9 13 6 14 3 15 4 16 99 17 5 18 98 19 2 20 1 21 90 22 91 23
REMARK SMILES IDX 97 24 92 25 96 26 93 27 94 28 95 29 19 30 20 31 21 32 22 33
REMARK SMILES IDX 23 34 24 35 25 36 26 37 27 38 88 39 28 40 87 41 29 42 30 43
REMARK SMILES IDX 31 44 81 45 32 46 86 47 80 48 82 49 33 50 85 51 79 52 78 53
REMARK SMILES IDX 34 55 66 56 46 57 65 58 47 59 50 60 64 61 83 62 48 63 49 64
REMARK SMILES IDX 63 66 84 67 51 68 35 69 36 70 44 71 37 72 39 73 45 74 38 75
REMARK SMILES IDX 40 76 41 77 42 78 43 79 67 80 68 81 76 82 69 83 71 84 77 85
REMARK SMILES IDX 70 86 72 87 73 88 74 89 75 90 52 91 53 92 61 93 54 94 56 95
REMARK SMILES IDX 62 96 55 97 57 98 58 99 59 100 60 101
REMARK H PARENT 82 54 50 65
REMARK Flexibility Score: inf
ROOT
ATOM      1  C   UNL A   1      34.707  35.071  32.790  1.00  0.00     0.188 C 
ENDROOT
BRANCH   1   2
ATOM      2  O   UNL A   1      33.747  36.068  32.478  1.00  0.00    -0.376 OA
BRANCH   2   3
ATOM      3  C   UNL A   1      33.205  36.067  31.158  1.00  0.00     0.202 C 
BRANCH   3   4
ATOM      4  C   UNL A   1      33.540  34.861  30.264  1.00  0.00     0.261 C 
BRANCH   4   5
ATOM      5  O   UNL A   1      34.098  35.224  28.978  1.00  0.00    -0.463 OA
BRANCH   5   6
ATOM      6  C   UNL A   1      34.647  34.205  28.260  1.00  0.00     0.313 C 
ATOM      7  O   UNL A   1      35.294  34.369  27.229  1.00  0.00    -0.252 OA
BRANCH   6   8
ATOM      8  C   UNL A   1      34.561  32.854  28.942  1.00  0.00     0.201 C 
BRANCH   8   9
ATOM      9  C   UNL A   1      35.664  31.907  28.632  1.00  0.00     0.156 A 
ATOM     10  C   UNL A   1      37.414  30.551  28.409  1.00  0.00     0.122 A 
ATOM     11  N   UNL A   1      36.438  30.037  27.650  1.00  0.00    -0.079 NA
ATOM     12  C   UNL A   1      36.961  31.735  29.064  1.00  0.00     0.053 A 
ATOM     13  O   UNL A   1      35.339  30.846  27.841  1.00  0.00    -0.359 OA
BRANCH  10  14
ATOM     14  C   UNL A   1      38.713  29.905  28.524  1.00  0.00     0.005 A 
ATOM     15  C   UNL A   1      41.130  28.492  28.768  1.00  0.00     0.118 A 
ATOM     16  C   UNL A   1      40.517  29.050  29.894  1.00  0.00     0.047 A 
ATOM     17  C   UNL A   1      40.543  28.662  27.515  1.00  0.00     0.047 A 
ATOM     18  C   UNL A   1      39.322  29.766  29.774  1.00  0.00     0.014 A 
ATOM     19  C   UNL A   1      39.339  29.364  27.393  1.00  0.00     0.014 A 
BRANCH  15  20
ATOM     20  O   UNL A   1      42.268  27.777  29.026  1.00  0.00    -0.497 OA
ATOM     21  C   UNL A   1      42.439  26.575  28.287  1.00  0.00     0.278 C 
ENDBRANCH  15  20
ENDBRANCH  10  14
BRANCH  12  22
ATOM     22  C   UNL A   1      37.588  32.541  30.079  1.00  0.00    -0.012 A 
ATOM     23  C   UNL A   1      37.363  32.313  31.436  1.00  0.00     0.013 A 
ATOM     24  C   UNL A   1      38.395  33.611  29.678  1.00  0.00     0.013 A 
ATOM     25  C   UNL A   1      37.973  33.140  32.383  1.00  0.00     0.047 A 
ATOM     26  C   UNL A   1      39.008  34.425  30.624  1.00  0.00     0.047 A 
ATOM     27  C   UNL A   1      38.810  34.186  31.983  1.00  0.00     0.118 A 
BRANCH  27  28
ATOM     28  O   UNL A   1      39.367  34.916  32.997  1.00  0.00    -0.497 OA
ATOM     29  C   UNL A   1      40.748  34.676  33.244  1.00  0.00     0.278 C 
ENDBRANCH  27  28
ENDBRANCH  12  22
ENDBRANCH   8   9
ENDBRANCH   6   8
ENDBRANCH   5   6
ENDBRANCH   4   5
ENDBRANCH   3   4
ENDBRANCH   2   3
ENDBRANCH   1   2
BRANCH   1  30
ATOM     30  C   UNL A   1      34.209  33.791  33.473  1.00  0.00     0.188 C 
BRANCH  30  31
ATOM     31  O   UNL A   1      35.116  33.214  34.396  1.00  0.00    -0.376 OA
BRANCH  31  32
ATOM     32  C   UNL A   1      36.056  34.098  34.995  1.00  0.00     0.202 C 
BRANCH  32  33
ATOM     33  C   UNL A   1      36.874  33.408  36.099  1.00  0.00     0.261 C 
BRANCH  33  34
ATOM     34  O   UNL A   1      38.304  33.526  35.952  1.00  0.00    -0.460 OA
BRANCH  34  35
ATOM     35  C   UNL A   1      39.054  32.615  36.621  1.00  0.00     0.338 C 
ATOM     36  O   UNL A   1      38.899  32.269  37.781  1.00  0.00    -0.246 OA
BRANCH  35  37
ATOM     37  C   UNL A   1      39.936  31.917  35.647  1.00  0.00     0.060 A 
ATOM     38  C   UNL A   1      41.325  32.065  35.781  1.00  0.00     0.016 A 
ATOM     39  C   UNL A   1      39.419  31.081  34.653  1.00  0.00     0.016 A 
ATOM     40  C   UNL A   1      42.191  31.437  34.879  1.00  0.00     0.010 A 
ATOM     41  C   UNL A   1      40.289  30.459  33.746  1.00  0.00     0.010 A 
ATOM     42  C   UNL A   1      41.678  30.669  33.824  1.00  0.00    -0.014 A 
BRANCH  42  43
ATOM     43  C   UNL A   1      42.573  30.250  32.707  1.00  0.00     0.031 A 
ATOM     44  C   UNL A   1      43.204  28.880  32.763  1.00  0.00     0.074 A 
ATOM     45  C   UNL A   1      42.819  31.047  31.650  1.00  0.00     0.049 A 
ATOM     46  N   UNL A   1      43.992  28.292  31.899  1.00  0.00    -0.248 NA
ATOM     47  C   UNL A   1      42.907  28.068  33.954  1.00  0.00     0.031 C 
ATOM     48  C   UNL A   1      42.292  32.396  31.463  1.00  0.00     0.029 A 
ATOM     49  N   UNL A   1      43.600  30.834  30.538  1.00  0.00    -0.354 N 
ATOM     50  C   UNL A   1      44.305  27.055  32.451  1.00  0.00     0.074 A 
ATOM     51  C   UNL A   1      43.638  26.985  33.734  1.00  0.00     0.031 C 
ATOM     52  C   UNL A   1      42.781  32.900  30.314  1.00  0.00     0.029 A 
ATOM     53  C   UNL A   1      43.667  31.916  29.691  1.00  0.00     0.049 A 
ATOM     54  H   UNL A   1      44.067  29.985  30.362  1.00  0.00     0.167 HD
ATOM     55  C   UNL A   1      45.060  26.054  31.938  1.00  0.00     0.034 A 
ATOM     56  C   UNL A   1      44.370  32.099  28.554  1.00  0.00     0.034 A 
ATOM     57  C   UNL A   1      45.716  26.105  30.658  1.00  0.00     0.049 A 
ATOM     58  C   UNL A   1      45.219  30.976  28.009  1.00  0.00     0.074 A 
ATOM     59  C   UNL A   1      46.457  25.116  30.033  1.00  0.00     0.029 A 
ATOM     60  N   UNL A   1      45.730  27.203  29.816  1.00  0.00    -0.354 N 
ATOM     61  N   UNL A   1      45.392  29.764  28.478  1.00  0.00    -0.248 NA
ATOM     62  C   UNL A   1      45.940  31.237  26.752  1.00  0.00     0.031 C 
ATOM     63  C   UNL A   1      46.950  25.631  28.830  1.00  0.00     0.029 A 
ATOM     64  C   UNL A   1      46.481  26.925  28.684  1.00  0.00     0.049 A 
ATOM     65  H   UNL A   1      45.275  28.059  29.995  1.00  0.00     0.167 HD
ATOM     66  C   UNL A   1      46.209  29.110  27.558  1.00  0.00     0.074 A 
ATOM     67  C   UNL A   1      46.473  30.051  26.491  1.00  0.00     0.031 C 
ATOM     68  C   UNL A   1      46.707  27.848  27.601  1.00  0.00     0.034 A 
BRANCH  55  69
ATOM     69  C   UNL A   1      45.201  24.797  32.757  1.00  0.00     0.023 A 
ATOM     70  C   UNL A   1      44.230  23.781  32.653  1.00  0.00     0.012 A 
ATOM     71  C   UNL A   1      46.322  24.599  33.587  1.00  0.00     0.148 A 
ATOM     72  C   UNL A   1      44.352  22.603  33.389  1.00  0.00     0.002 A 
ATOM     73  C   UNL A   1      46.461  23.403  34.281  1.00  0.00     0.091 A 
ATOM     74  F   UNL A   1      47.223  25.585  33.689  1.00  0.00    -0.205 F 
ATOM     75  C   UNL A   1      45.472  22.410  34.193  1.00  0.00     0.022 A 
BRANCH  73  76
ATOM     76  S   UNL A   1      47.907  23.023  35.276  1.00  0.00     0.127 S 
ATOM     77  O   UNL A   1      47.880  24.105  36.260  1.00  0.00    -0.237 OA
ATOM     78  O   UNL A   1      47.573  21.704  35.811  1.00  0.00    -0.237 OA
ATOM     79  O   UNL A   1      49.041  23.040  34.362  1.00  0.00    -0.744 OA
ENDBRANCH  73  76
ENDBRANCH  55  69
BRANCH  56  80
ATOM     80  C   UNL A   1      44.284  33.396  27.820  1.00  0.00     0.023 A 
ATOM     81  C   UNL A   1      43.453  33.505  26.688  1.00  0.00     0.012 A 
ATOM     82  C   UNL A   1      45.033  34.516  28.232  1.00  0.00     0.148 A 
ATOM     83  C   UNL A   1      43.395  34.695  25.959  1.00  0.00     0.002 A 
ATOM     84  C   UNL A   1      44.925  35.715  27.537  1.00  0.00     0.091 A 
ATOM     85  F   UNL A   1      45.834  34.386  29.299  1.00  0.00    -0.205 F 
ATOM     86  C   UNL A   1      44.122  35.801  26.389  1.00  0.00     0.022 A 
BRANCH  84  87
ATOM     87  S   UNL A   1      45.725  37.225  28.087  1.00  0.00     0.127 S 
ATOM     88  O   UNL A   1      47.137  36.856  28.025  1.00  0.00    -0.237 OA
ATOM     89  O   UNL A   1      45.292  38.181  27.067  1.00  0.00    -0.237 OA
ATOM     90  O   UNL A   1      45.200  37.487  29.420  1.00  0.00    -0.744 OA
ENDBRANCH  84  87
ENDBRANCH  56  80
BRANCH  68  91
ATOM     91  C   UNL A   1      47.560  27.388  26.443  1.00  0.00     0.023 A 
ATOM     92  C   UNL A   1      47.016  26.536  25.460  1.00  0.00     0.012 A 
ATOM     93  C   UNL A   1      48.890  27.836  26.303  1.00  0.00     0.148 A 
ATOM     94  C   UNL A   1      47.794  26.098  24.387  1.00  0.00     0.002 A 
ATOM     95  C   UNL A   1      49.642  27.439  25.204  1.00  0.00     0.091 A 
ATOM     96  F   UNL A   1      49.399  28.635  27.252  1.00  0.00    -0.205 F 
ATOM     97  C   UNL A   1      49.103  26.556  24.255  1.00  0.00     0.022 A 
BRANCH  95  98
ATOM     98  S   UNL A   1      51.303  28.055  24.900  1.00  0.00     0.127 S 
ATOM     99  O   UNL A   1      51.498  27.706  23.494  1.00  0.00    -0.237 OA
ATOM    100  O   UNL A   1      51.155  29.488  25.157  1.00  0.00    -0.237 OA
ATOM    101  O   UNL A   1      52.166  27.359  25.845  1.00  0.00    -0.744 OA
ENDBRANCH  95  98
ENDBRANCH  68  91
ENDBRANCH  42  43
ENDBRANCH  35  37
ENDBRANCH  34  35
ENDBRANCH  33  34
ENDBRANCH  32  33
ENDBRANCH  31  32
ENDBRANCH  30  31
ENDBRANCH   1  30
TORSDOF 25
ENDMDL
