MODEL 1
REMARK VINA RESULT:      -8.9      0.000      0.000
REMARK SMILES COc1cc(OC)cc(-c2cc3nc(C)c(CCC(=O)OCCOCCOCCOC(=O)c4ccc(-c5c6nc(c(-c7cccc(S(=O)(=O)[O-])c7F)c7ccc([nH]7)c(-c7cccc(S(=O)(=O)[O-])c7F)c7nc(c(-c8cccc(S(=O)(=O)[O-])c8F)c8ccc5[nH]8)C=C7)C=C6)cc4)c(C)n3n2)c1
REMARK SMILES IDX 25 1 24 2 23 3 22 4 21 5 19 6 20 7 18 8 17 9 16 10 10 11
REMARK SMILES IDX 11 12 99 13 12 14 98 15 13 16 96 17 14 18 97 19 15 20 9 21
REMARK SMILES IDX 3 22 4 23 100 24 5 25 8 26 2 27 1 28 6 29 7 30 26 31 27 32
REMARK SMILES IDX 28 33 29 34 30 35 31 36 32 37 33 38 34 39 95 40 35 41 94 42
REMARK SMILES IDX 36 43 37 44 38 45 88 46 39 47 93 48 87 49 89 50 40 51 92 52
REMARK SMILES IDX 86 53 85 54 41 56 73 57 53 58 72 59 54 60 57 61 71 62 90 63
REMARK SMILES IDX 55 64 56 65 70 67 91 68 58 69 42 70 43 71 51 72 44 73 46 74
REMARK SMILES IDX 52 75 45 76 47 77 48 78 49 79 50 80 74 81 75 82 83 83 76 84
REMARK SMILES IDX 78 85 84 86 77 87 79 88 80 89 81 90 82 91 59 92 60 93 68 94
REMARK SMILES IDX 61 95 63 96 69 97 62 98 64 99 65 100 66 101 67 102
REMARK H PARENT 89 55 57 66
REMARK Flexibility Score: inf
ROOT
ATOM      1  C   UNL A   1      31.713  27.176  24.753  1.00  0.00     0.188 C 
ENDROOT
BRANCH   1   2
ATOM      2  O   UNL A   1      31.761  27.909  23.537  1.00  0.00    -0.376 OA
BRANCH   2   3
ATOM      3  C   UNL A   1      31.949  27.146  22.354  1.00  0.00     0.202 C 
BRANCH   3   4
ATOM      4  C   UNL A   1      32.889  25.933  22.535  1.00  0.00     0.261 C 
BRANCH   4   5
ATOM      5  O   UNL A   1      32.318  24.676  22.075  1.00  0.00    -0.463 OA
BRANCH   5   6
ATOM      6  C   UNL A   1      31.755  23.822  22.959  1.00  0.00     0.306 C 
ATOM      7  O   UNL A   1      30.664  24.005  23.484  1.00  0.00    -0.252 OA
BRANCH   6   8
ATOM      8  C   UNL A   1      32.634  22.607  23.276  1.00  0.00     0.127 C 
BRANCH   8   9
ATOM      9  C   UNL A   1      32.987  22.235  24.741  1.00  0.00     0.051 C 
BRANCH   9  10
ATOM     10  C   UNL A   1      34.458  22.026  25.089  1.00  0.00    -0.005 A 
ATOM     11  C   UNL A   1      38.636  23.211  26.266  1.00  0.00     0.095 A 
ATOM     12  C   UNL A   1      38.543  21.829  25.954  1.00  0.00     0.080 A 
ATOM     13  N   UNL A   1      37.436  23.775  26.205  1.00  0.00    -0.166 NA
ATOM     14  C   UNL A   1      37.204  21.589  25.674  1.00  0.00     0.156 A 
ATOM     15  N   UNL A   1      36.609  22.825  25.749  1.00  0.00    -0.219 N 
ATOM     16  N   UNL A   1      36.474  20.499  25.293  1.00  0.00    -0.234 NA
ATOM     17  C   UNL A   1      35.293  23.040  25.391  1.00  0.00     0.046 A 
ATOM     18  C   UNL A   1      35.209  20.690  24.993  1.00  0.00     0.045 A 
ATOM     19  C   UNL A   1      34.995  24.483  25.318  1.00  0.00     0.067 C 
ATOM     20  C   UNL A   1      34.486  19.460  24.478  1.00  0.00     0.067 C 
BRANCH  11  21
ATOM     21  C   UNL A   1      39.736  24.105  26.599  1.00  0.00     0.009 A 
ATOM     22  C   UNL A   1      40.541  26.401  26.735  1.00  0.00     0.123 A 
ATOM     23  C   UNL A   1      41.842  25.914  26.830  1.00  0.00     0.092 A 
ATOM     24  C   UNL A   1      39.495  25.496  26.602  1.00  0.00     0.057 A 
ATOM     25  C   UNL A   1      42.101  24.538  26.804  1.00  0.00     0.123 A 
ATOM     26  C   UNL A   1      41.044  23.630  26.702  1.00  0.00     0.057 A 
BRANCH  22  27
ATOM     27  O   UNL A   1      40.418  27.764  26.722  1.00  0.00    -0.497 OA
ATOM     28  C   UNL A   1      41.473  28.490  27.344  1.00  0.00     0.278 C 
ENDBRANCH  22  27
BRANCH  25  29
ATOM     29  O   UNL A   1      43.427  24.205  26.882  1.00  0.00    -0.497 OA
ATOM     30  C   UNL A   1      43.841  23.571  28.086  1.00  0.00     0.278 C 
ENDBRANCH  25  29
ENDBRANCH  11  21
ENDBRANCH   9  10
ENDBRANCH   8   9
ENDBRANCH   6   8
ENDBRANCH   5   6
ENDBRANCH   4   5
ENDBRANCH   3   4
ENDBRANCH   2   3
ENDBRANCH   1   2
BRANCH   1  31
ATOM     31  C   UNL A   1      32.021  28.009  25.987  1.00  0.00     0.188 C 
BRANCH  31  32
ATOM     32  O   UNL A   1      33.399  28.278  26.269  1.00  0.00    -0.376 OA
BRANCH  32  33
ATOM     33  C   UNL A   1      33.653  29.220  27.325  1.00  0.00     0.202 C 
BRANCH  33  34
ATOM     34  C   UNL A   1      34.993  29.959  27.313  1.00  0.00     0.261 C 
BRANCH  34  35
ATOM     35  O   UNL A   1      35.899  29.349  28.196  1.00  0.00    -0.460 OA
BRANCH  35  36
ATOM     36  C   UNL A   1      37.077  29.996  28.331  1.00  0.00     0.338 C 
ATOM     37  O   UNL A   1      38.054  29.954  27.592  1.00  0.00    -0.246 OA
BRANCH  36  38
ATOM     38  C   UNL A   1      36.968  30.771  29.576  1.00  0.00     0.060 A 
ATOM     39  C   UNL A   1      37.732  31.930  29.607  1.00  0.00     0.016 A 
ATOM     40  C   UNL A   1      36.571  30.079  30.732  1.00  0.00     0.016 A 
ATOM     41  C   UNL A   1      38.513  32.085  30.716  1.00  0.00     0.010 A 
ATOM     42  C   UNL A   1      37.390  30.187  31.802  1.00  0.00     0.010 A 
ATOM     43  C   UNL A   1      38.428  31.100  31.701  1.00  0.00    -0.014 A 
BRANCH  43  44
ATOM     44  C   UNL A   1      39.459  31.021  32.689  1.00  0.00     0.031 A 
ATOM     45  C   UNL A   1      39.287  32.089  33.674  1.00  0.00     0.074 A 
ATOM     46  C   UNL A   1      40.329  30.002  32.710  1.00  0.00     0.049 A 
ATOM     47  N   UNL A   1      39.780  33.281  33.590  1.00  0.00    -0.248 NA
ATOM     48  C   UNL A   1      38.158  31.959  34.612  1.00  0.00     0.031 C 
ATOM     49  C   UNL A   1      40.305  28.751  31.943  1.00  0.00     0.029 A 
ATOM     50  N   UNL A   1      41.373  29.832  33.549  1.00  0.00    -0.354 N 
ATOM     51  C   UNL A   1      39.224  33.934  34.680  1.00  0.00     0.074 A 
ATOM     52  C   UNL A   1      37.999  33.241  34.942  1.00  0.00     0.031 C 
ATOM     53  C   UNL A   1      41.147  27.866  32.529  1.00  0.00     0.029 A 
ATOM     54  C   UNL A   1      41.843  28.532  33.618  1.00  0.00     0.049 A 
ATOM     55  H   UNL A   1      41.766  30.570  34.068  1.00  0.00     0.167 HD
ATOM     56  C   UNL A   1      40.023  34.627  35.539  1.00  0.00     0.034 A 
ATOM     57  C   UNL A   1      42.664  28.055  34.583  1.00  0.00     0.034 A 
ATOM     58  C   UNL A   1      41.336  34.813  34.948  1.00  0.00     0.049 A 
ATOM     59  C   UNL A   1      43.294  29.229  35.241  1.00  0.00     0.074 A 
ATOM     60  C   UNL A   1      41.835  35.437  33.823  1.00  0.00     0.029 A 
ATOM     61  N   UNL A   1      42.292  33.911  35.359  1.00  0.00    -0.354 N 
ATOM     62  N   UNL A   1      44.132  30.026  34.637  1.00  0.00    -0.248 NA
ATOM     63  C   UNL A   1      42.658  29.789  36.427  1.00  0.00     0.031 C 
ATOM     64  C   UNL A   1      42.955  34.655  33.415  1.00  0.00     0.029 A 
ATOM     65  C   UNL A   1      43.135  33.610  34.325  1.00  0.00     0.049 A 
ATOM     66  H   UNL A   1      42.359  33.535  36.267  1.00  0.00     0.167 HD
ATOM     67  C   UNL A   1      43.780  31.299  35.074  1.00  0.00     0.074 A 
ATOM     68  C   UNL A   1      42.990  31.076  36.280  1.00  0.00     0.031 C 
ATOM     69  C   UNL A   1      43.896  32.376  34.240  1.00  0.00     0.034 A 
BRANCH  56  70
ATOM     70  C   UNL A   1      39.841  34.677  37.053  1.00  0.00     0.023 A 
ATOM     71  C   UNL A   1      39.256  33.530  37.633  1.00  0.00     0.012 A 
ATOM     72  C   UNL A   1      39.930  35.820  37.887  1.00  0.00     0.148 A 
ATOM     73  C   UNL A   1      38.670  33.559  38.902  1.00  0.00     0.002 A 
ATOM     74  C   UNL A   1      39.357  35.847  39.150  1.00  0.00     0.091 A 
ATOM     75  F   UNL A   1      40.528  36.932  37.475  1.00  0.00    -0.205 F 
ATOM     76  C   UNL A   1      38.698  34.727  39.652  1.00  0.00     0.022 A 
BRANCH  74  77
ATOM     77  S   UNL A   1      39.361  37.341  40.160  1.00  0.00     0.127 S 
ATOM     78  O   UNL A   1      38.381  38.165  39.456  1.00  0.00    -0.237 OA
ATOM     79  O   UNL A   1      38.924  36.821  41.455  1.00  0.00    -0.237 OA
ATOM     80  O   UNL A   1      40.729  37.844  40.142  1.00  0.00    -0.744 OA
ENDBRANCH  74  77
ENDBRANCH  56  70
BRANCH  57  81
ATOM     81  C   UNL A   1      42.740  26.695  35.158  1.00  0.00     0.023 A 
ATOM     82  C   UNL A   1      41.556  25.982  35.423  1.00  0.00     0.012 A 
ATOM     83  C   UNL A   1      43.967  25.996  35.203  1.00  0.00     0.148 A 
ATOM     84  C   UNL A   1      41.589  24.610  35.697  1.00  0.00     0.002 A 
ATOM     85  C   UNL A   1      43.996  24.634  35.483  1.00  0.00     0.091 A 
ATOM     86  F   UNL A   1      45.093  26.648  34.883  1.00  0.00    -0.205 F 
ATOM     87  C   UNL A   1      42.807  23.934  35.719  1.00  0.00     0.022 A 
BRANCH  85  88
ATOM     88  S   UNL A   1      45.525  23.686  35.501  1.00  0.00     0.127 S 
ATOM     89  O   UNL A   1      46.289  24.370  36.544  1.00  0.00    -0.237 OA
ATOM     90  O   UNL A   1      45.049  22.354  35.866  1.00  0.00    -0.237 OA
ATOM     91  O   UNL A   1      46.088  23.807  34.164  1.00  0.00    -0.744 OA
ENDBRANCH  85  88
ENDBRANCH  57  81
BRANCH  69  92
ATOM     92  C   UNL A   1      44.728  32.195  32.994  1.00  0.00     0.023 A 
ATOM     93  C   UNL A   1      46.138  32.244  33.007  1.00  0.00     0.012 A 
ATOM     94  C   UNL A   1      44.071  31.814  31.813  1.00  0.00     0.148 A 
ATOM     95  C   UNL A   1      46.874  31.935  31.859  1.00  0.00     0.002 A 
ATOM     96  C   UNL A   1      44.807  31.460  30.690  1.00  0.00     0.091 A 
ATOM     97  F   UNL A   1      42.730  31.772  31.821  1.00  0.00    -0.205 F 
ATOM     98  C   UNL A   1      46.209  31.529  30.705  1.00  0.00     0.022 A 
BRANCH  96  99
ATOM     99  S   UNL A   1      44.012  30.803  29.223  1.00  0.00     0.127 S 
ATOM    100  O   UNL A   1      44.851  31.340  28.154  1.00  0.00    -0.237 OA
ATOM    101  O   UNL A   1      44.127  29.357  29.425  1.00  0.00    -0.237 OA
ATOM    102  O   UNL A   1      42.641  31.298  29.255  1.00  0.00    -0.744 OA
ENDBRANCH  96  99
ENDBRANCH  69  92
ENDBRANCH  43  44
ENDBRANCH  36  38
ENDBRANCH  35  36
ENDBRANCH  34  35
ENDBRANCH  33  34
ENDBRANCH  32  33
ENDBRANCH  31  32
ENDBRANCH   1  31
TORSDOF 25
ENDMDL
MODEL 2
REMARK VINA RESULT:      -8.4      4.786     14.539
REMARK SMILES COc1cc(OC)cc(-c2cc3nc(C)c(CCC(=O)OCCOCCOCCOC(=O)c4ccc(-c5c6nc(c(-c7cccc(S(=O)(=O)[O-])c7F)c7ccc([nH]7)c(-c7cccc(S(=O)(=O)[O-])c7F)c7nc(c(-c8cccc(S(=O)(=O)[O-])c8F)c8ccc5[nH]8)C=C7)C=C6)cc4)c(C)n3n2)c1
REMARK SMILES IDX 25 1 24 2 23 3 22 4 21 5 19 6 20 7 18 8 17 9 16 10 10 11
REMARK SMILES IDX 11 12 99 13 12 14 98 15 13 16 96 17 14 18 97 19 15 20 9 21
REMARK SMILES IDX 3 22 4 23 100 24 5 25 8 26 2 27 1 28 6 29 7 30 26 31 27 32
REMARK SMILES IDX 28 33 29 34 30 35 31 36 32 37 33 38 34 39 95 40 35 41 94 42
REMARK SMILES IDX 36 43 37 44 38 45 88 46 39 47 93 48 87 49 89 50 40 51 92 52
REMARK SMILES IDX 86 53 85 54 41 56 73 57 53 58 72 59 54 60 57 61 71 62 90 63
REMARK SMILES IDX 55 64 56 65 70 67 91 68 58 69 42 70 43 71 51 72 44 73 46 74
REMARK SMILES IDX 52 75 45 76 47 77 48 78 49 79 50 80 74 81 75 82 83 83 76 84
REMARK SMILES IDX 78 85 84 86 77 87 79 88 80 89 81 90 82 91 59 92 60 93 68 94
REMARK SMILES IDX 61 95 63 96 69 97 62 98 64 99 65 100 66 101 67 102
REMARK H PARENT 89 55 57 66
REMARK Flexibility Score: inf
ROOT
ATOM      1  C   UNL A   1      38.319  31.862  36.739  1.00  0.00     0.188 C 
ENDROOT
BRANCH   1   2
ATOM      2  O   UNL A   1      38.464  33.136  37.349  1.00  0.00    -0.376 OA
BRANCH   2   3
ATOM      3  C   UNL A   1      39.326  33.194  38.477  1.00  0.00     0.202 C 
BRANCH   3   4
ATOM      4  C   UNL A   1      40.661  33.926  38.207  1.00  0.00     0.261 C 
BRANCH   4   5
ATOM      5  O   UNL A   1      40.514  35.138  37.417  1.00  0.00    -0.463 OA
BRANCH   5   6
ATOM      6  C   UNL A   1      40.390  36.337  38.029  1.00  0.00     0.306 C 
ATOM      7  O   UNL A   1      39.319  36.905  38.205  1.00  0.00    -0.252 OA
BRANCH   6   8
ATOM      8  C   UNL A   1      41.730  36.945  38.455  1.00  0.00     0.127 C 
BRANCH   8   9
ATOM      9  C   UNL A   1      41.935  37.509  39.886  1.00  0.00     0.051 C 
BRANCH   9  10
ATOM     10  C   UNL A   1      41.958  39.025  40.059  1.00  0.00    -0.005 A 
ATOM     11  C   UNL A   1      40.320  43.097  41.052  1.00  0.00     0.095 A 
ATOM     12  C   UNL A   1      41.631  43.168  40.509  1.00  0.00     0.080 A 
ATOM     13  N   UNL A   1      39.956  41.829  41.200  1.00  0.00    -0.166 NA
ATOM     14  C   UNL A   1      42.034  41.855  40.311  1.00  0.00     0.156 A 
ATOM     15  N   UNL A   1      40.940  41.100  40.658  1.00  0.00    -0.219 N 
ATOM     16  N   UNL A   1      43.152  41.250  39.808  1.00  0.00    -0.234 NA
ATOM     17  C   UNL A   1      40.885  39.735  40.462  1.00  0.00     0.046 A 
ATOM     18  C   UNL A   1      43.121  39.945  39.661  1.00  0.00     0.045 A 
ATOM     19  C   UNL A   1      39.517  39.226  40.675  1.00  0.00     0.067 C 
ATOM     20  C   UNL A   1      44.352  39.351  39.000  1.00  0.00     0.067 C 
BRANCH  11  21
ATOM     21  C   UNL A   1      39.327  44.087  41.441  1.00  0.00     0.009 A 
ATOM     22  C   UNL A   1      38.833  46.434  41.877  1.00  0.00     0.123 A 
ATOM     23  C   UNL A   1      37.663  46.043  42.522  1.00  0.00     0.092 A 
ATOM     24  C   UNL A   1      39.669  45.454  41.354  1.00  0.00     0.057 A 
ATOM     25  C   UNL A   1      37.320  44.690  42.638  1.00  0.00     0.123 A 
ATOM     26  C   UNL A   1      38.147  43.710  42.083  1.00  0.00     0.057 A 
BRANCH  22  27
ATOM     27  O   UNL A   1      39.087  47.779  41.870  1.00  0.00    -0.497 OA
ATOM     28  C   UNL A   1      38.198  48.582  42.639  1.00  0.00     0.278 C 
ENDBRANCH  22  27
BRANCH  25  29
ATOM     29  O   UNL A   1      36.155  44.453  43.317  1.00  0.00    -0.497 OA
ATOM     30  C   UNL A   1      35.951  43.117  43.759  1.00  0.00     0.278 C 
ENDBRANCH  25  29
ENDBRANCH  11  21
ENDBRANCH   9  10
ENDBRANCH   8   9
ENDBRANCH   6   8
ENDBRANCH   5   6
ENDBRANCH   4   5
ENDBRANCH   3   4
ENDBRANCH   2   3
ENDBRANCH   1   2
BRANCH   1  31
ATOM     31  C   UNL A   1      38.251  31.910  35.221  1.00  0.00     0.188 C 
BRANCH  31  32
ATOM     32  O   UNL A   1      37.441  32.934  34.634  1.00  0.00    -0.376 OA
BRANCH  32  33
ATOM     33  C   UNL A   1      37.993  33.591  33.481  1.00  0.00     0.202 C 
BRANCH  33  34
ATOM     34  C   UNL A   1      37.043  33.937  32.334  1.00  0.00     0.261 C 
BRANCH  34  35
ATOM     35  O   UNL A   1      37.423  33.267  31.160  1.00  0.00    -0.460 OA
BRANCH  35  36
ATOM     36  C   UNL A   1      36.804  32.083  30.959  1.00  0.00     0.338 C 
ATOM     37  O   UNL A   1      35.882  31.593  31.601  1.00  0.00    -0.246 OA
BRANCH  36  38
ATOM     38  C   UNL A   1      37.473  31.470  29.803  1.00  0.00     0.060 A 
ATOM     39  C   UNL A   1      37.159  30.135  29.591  1.00  0.00     0.016 A 
ATOM     40  C   UNL A   1      38.673  32.057  29.368  1.00  0.00     0.016 A 
ATOM     41  C   UNL A   1      38.228  29.302  29.427  1.00  0.00     0.010 A 
ATOM     42  C   UNL A   1      39.741  31.234  29.276  1.00  0.00     0.010 A 
ATOM     43  C   UNL A   1      39.499  29.880  29.448  1.00  0.00    -0.014 A 
BRANCH  43  44
ATOM     44  C   UNL A   1      40.637  29.037  29.641  1.00  0.00     0.031 A 
ATOM     45  C   UNL A   1      40.872  28.837  31.072  1.00  0.00     0.074 A 
ATOM     46  C   UNL A   1      41.252  28.447  28.607  1.00  0.00     0.049 A 
ATOM     47  N   UNL A   1      41.594  29.594  31.832  1.00  0.00    -0.248 NA
ATOM     48  C   UNL A   1      39.915  27.981  31.794  1.00  0.00     0.031 C 
ATOM     49  C   UNL A   1      40.824  28.360  27.206  1.00  0.00     0.029 A 
ATOM     50  N   UNL A   1      42.358  27.674  28.643  1.00  0.00    -0.354 N 
ATOM     51  C   UNL A   1      41.386  29.066  33.097  1.00  0.00     0.074 A 
ATOM     52  C   UNL A   1      40.100  28.441  33.031  1.00  0.00     0.031 C 
ATOM     53  C   UNL A   1      41.537  27.384  26.594  1.00  0.00     0.029 A 
ATOM     54  C   UNL A   1      42.534  26.879  27.523  1.00  0.00     0.049 A 
ATOM     55  H   UNL A   1      42.985  27.675  29.402  1.00  0.00     0.167 HD
ATOM     56  C   UNL A   1      42.450  28.768  33.894  1.00  0.00     0.034 A 
ATOM     57  C   UNL A   1      43.380  25.824  27.447  1.00  0.00     0.034 A 
ATOM     58  C   UNL A   1      43.654  29.374  33.355  1.00  0.00     0.049 A 
ATOM     59  C   UNL A   1      44.354  25.963  28.561  1.00  0.00     0.074 A 
ATOM     60  C   UNL A   1      44.083  30.659  33.095  1.00  0.00     0.029 A 
ATOM     61  N   UNL A   1      44.443  28.532  32.603  1.00  0.00    -0.354 N 
ATOM     62  N   UNL A   1      45.234  26.925  28.629  1.00  0.00    -0.248 NA
ATOM     63  C   UNL A   1      44.065  25.303  29.828  1.00  0.00     0.031 C 
ATOM     64  C   UNL A   1      44.919  30.560  31.944  1.00  0.00     0.029 A 
ATOM     65  C   UNL A   1      45.013  29.218  31.566  1.00  0.00     0.049 A 
ATOM     66  H   UNL A   1      44.577  27.573  32.784  1.00  0.00     0.167 HD
ATOM     67  C   UNL A   1      45.250  27.290  29.971  1.00  0.00     0.074 A 
ATOM     68  C   UNL A   1      44.643  26.164  30.674  1.00  0.00     0.031 C 
ATOM     69  C   UNL A   1      45.459  28.591  30.334  1.00  0.00     0.034 A 
BRANCH  56  70
ATOM     70  C   UNL A   1      42.539  27.551  34.812  1.00  0.00     0.023 A 
ATOM     71  C   UNL A   1      42.409  27.820  36.192  1.00  0.00     0.012 A 
ATOM     72  C   UNL A   1      43.007  26.257  34.470  1.00  0.00     0.148 A 
ATOM     73  C   UNL A   1      42.849  26.918  37.166  1.00  0.00     0.002 A 
ATOM     74  C   UNL A   1      43.433  25.358  35.437  1.00  0.00     0.091 A 
ATOM     75  F   UNL A   1      43.097  25.866  33.204  1.00  0.00    -0.205 F 
ATOM     76  C   UNL A   1      43.385  25.696  36.788  1.00  0.00     0.022 A 
BRANCH  74  77
ATOM     77  S   UNL A   1      44.144  23.760  34.995  1.00  0.00     0.127 S 
ATOM     78  O   UNL A   1      43.061  23.171  34.212  1.00  0.00    -0.237 OA
ATOM     79  O   UNL A   1      45.321  24.165  34.229  1.00  0.00    -0.237 OA
ATOM     80  O   UNL A   1      44.445  23.085  36.252  1.00  0.00    -0.744 OA
ENDBRANCH  74  77
ENDBRANCH  56  70
BRANCH  57  81
ATOM     81  C   UNL A   1      43.250  24.576  26.666  1.00  0.00     0.023 A 
ATOM     82  C   UNL A   1      44.315  24.149  25.852  1.00  0.00     0.012 A 
ATOM     83  C   UNL A   1      42.194  23.672  26.918  1.00  0.00     0.148 A 
ATOM     84  C   UNL A   1      44.342  22.851  25.327  1.00  0.00     0.002 A 
ATOM     85  C   UNL A   1      42.221  22.386  26.388  1.00  0.00     0.091 A 
ATOM     86  F   UNL A   1      41.210  24.044  27.748  1.00  0.00    -0.205 F 
ATOM     87  C   UNL A   1      43.301  21.968  25.601  1.00  0.00     0.022 A 
BRANCH  85  88
ATOM     88  S   UNL A   1      40.929  21.179  26.718  1.00  0.00     0.127 S 
ATOM     89  O   UNL A   1      39.767  21.804  26.086  1.00  0.00    -0.237 OA
ATOM     90  O   UNL A   1      41.438  19.996  26.029  1.00  0.00    -0.237 OA
ATOM     91  O   UNL A   1      40.841  21.073  28.168  1.00  0.00    -0.744 OA
ENDBRANCH  85  88
ENDBRANCH  57  81
BRANCH  69  92
ATOM     92  C   UNL A   1      46.010  29.519  29.280  1.00  0.00     0.023 A 
ATOM     93  C   UNL A   1      47.370  29.521  28.903  1.00  0.00     0.012 A 
ATOM     94  C   UNL A   1      45.100  30.298  28.547  1.00  0.00     0.148 A 
ATOM     95  C   UNL A   1      47.812  30.298  27.829  1.00  0.00     0.002 A 
ATOM     96  C   UNL A   1      45.535  31.029  27.450  1.00  0.00     0.091 A 
ATOM     97  F   UNL A   1      43.811  30.282  28.920  1.00  0.00    -0.205 F 
ATOM     98  C   UNL A   1      46.892  31.041  27.093  1.00  0.00     0.022 A 
BRANCH  96  99
ATOM     99  S   UNL A   1      44.378  31.894  26.388  1.00  0.00     0.127 S 
ATOM    100  O   UNL A   1      43.369  30.869  26.133  1.00  0.00    -0.237 OA
ATOM    101  O   UNL A   1      43.929  32.996  27.243  1.00  0.00    -0.237 OA
ATOM    102  O   UNL A   1      45.147  32.324  25.225  1.00  0.00    -0.744 OA
ENDBRANCH  96  99
ENDBRANCH  69  92
ENDBRANCH  43  44
ENDBRANCH  36  38
ENDBRANCH  35  36
ENDBRANCH  34  35
ENDBRANCH  33  34
ENDBRANCH  32  33
ENDBRANCH  31  32
ENDBRANCH   1  31
TORSDOF 25
ENDMDL
MODEL 3
REMARK VINA RESULT:      -8.4      4.565      9.506
REMARK SMILES COc1cc(OC)cc(-c2cc3nc(C)c(CCC(=O)OCCOCCOCCOC(=O)c4ccc(-c5c6nc(c(-c7cccc(S(=O)(=O)[O-])c7F)c7ccc([nH]7)c(-c7cccc(S(=O)(=O)[O-])c7F)c7nc(c(-c8cccc(S(=O)(=O)[O-])c8F)c8ccc5[nH]8)C=C7)C=C6)cc4)c(C)n3n2)c1
REMARK SMILES IDX 25 1 24 2 23 3 22 4 21 5 19 6 20 7 18 8 17 9 16 10 10 11
REMARK SMILES IDX 11 12 99 13 12 14 98 15 13 16 96 17 14 18 97 19 15 20 9 21
REMARK SMILES IDX 3 22 4 23 100 24 5 25 8 26 2 27 1 28 6 29 7 30 26 31 27 32
REMARK SMILES IDX 28 33 29 34 30 35 31 36 32 37 33 38 34 39 95 40 35 41 94 42
REMARK SMILES IDX 36 43 37 44 38 45 88 46 39 47 93 48 87 49 89 50 40 51 92 52
REMARK SMILES IDX 86 53 85 54 41 56 73 57 53 58 72 59 54 60 57 61 71 62 90 63
REMARK SMILES IDX 55 64 56 65 70 67 91 68 58 69 42 70 43 71 51 72 44 73 46 74
REMARK SMILES IDX 52 75 45 76 47 77 48 78 49 79 50 80 74 81 75 82 83 83 76 84
REMARK SMILES IDX 78 85 84 86 77 87 79 88 80 89 81 90 82 91 59 92 60 93 68 94
REMARK SMILES IDX 61 95 63 96 69 97 62 98 64 99 65 100 66 101 67 102
REMARK H PARENT 89 55 57 66
REMARK Flexibility Score: inf
ROOT
ATOM      1  C   UNL A   1      42.424  20.799  26.514  1.00  0.00     0.188 C 
ENDROOT
BRANCH   1   2
ATOM      2  O   UNL A   1      41.231  20.746  25.746  1.00  0.00    -0.376 OA
BRANCH   2   3
ATOM      3  C   UNL A   1      40.123  21.471  26.261  1.00  0.00     0.202 C 
BRANCH   3   4
ATOM      4  C   UNL A   1      38.754  20.963  25.756  1.00  0.00     0.261 C 
BRANCH   4   5
ATOM      5  O   UNL A   1      37.977  21.974  25.055  1.00  0.00    -0.463 OA
BRANCH   5   6
ATOM      6  C   UNL A   1      36.805  22.409  25.569  1.00  0.00     0.306 C 
ATOM      7  O   UNL A   1      36.699  23.402  26.278  1.00  0.00    -0.252 OA
BRANCH   6   8
ATOM      8  C   UNL A   1      35.613  21.514  25.212  1.00  0.00     0.127 C 
BRANCH   8   9
ATOM      9  C   UNL A   1      34.696  21.847  24.005  1.00  0.00     0.051 C 
BRANCH   9  10
ATOM     10  C   UNL A   1      33.504  22.766  24.247  1.00  0.00    -0.005 A 
ATOM     11  C   UNL A   1      31.276  26.667  24.499  1.00  0.00     0.095 A 
ATOM     12  C   UNL A   1      30.491  25.576  24.957  1.00  0.00     0.080 A 
ATOM     13  N   UNL A   1      32.441  26.230  24.038  1.00  0.00    -0.166 NA
ATOM     14  C   UNL A   1      31.266  24.441  24.766  1.00  0.00     0.156 A 
ATOM     15  N   UNL A   1      32.467  24.917  24.298  1.00  0.00    -0.219 N 
ATOM     16  N   UNL A   1      31.108  23.106  25.014  1.00  0.00    -0.234 NA
ATOM     17  C   UNL A   1      33.570  24.106  24.121  1.00  0.00     0.046 A 
ATOM     18  C   UNL A   1      32.143  22.323  24.804  1.00  0.00     0.045 A 
ATOM     19  C   UNL A   1      34.781  24.911  23.867  1.00  0.00     0.067 C 
ATOM     20  C   UNL A   1      31.932  20.873  25.200  1.00  0.00     0.067 C 
BRANCH  11  21
ATOM     21  C   UNL A   1      31.083  28.110  24.458  1.00  0.00     0.009 A 
ATOM     22  C   UNL A   1      31.373  30.250  25.587  1.00  0.00     0.123 A 
ATOM     23  C   UNL A   1      30.457  30.814  24.703  1.00  0.00     0.092 A 
ATOM     24  C   UNL A   1      31.669  28.897  25.472  1.00  0.00     0.057 A 
ATOM     25  C   UNL A   1      29.847  30.042  23.706  1.00  0.00     0.123 A 
ATOM     26  C   UNL A   1      30.172  28.689  23.573  1.00  0.00     0.057 A 
BRANCH  22  27
ATOM     27  O   UNL A   1      31.864  31.090  26.549  1.00  0.00    -0.497 OA
ATOM     28  C   UNL A   1      31.335  32.412  26.549  1.00  0.00     0.278 C 
ENDBRANCH  22  27
BRANCH  25  29
ATOM     29  O   UNL A   1      28.951  30.722  22.926  1.00  0.00    -0.497 OA
ATOM     30  C   UNL A   1      29.052  30.504  21.524  1.00  0.00     0.278 C 
ENDBRANCH  25  29
ENDBRANCH  11  21
ENDBRANCH   9  10
ENDBRANCH   8   9
ENDBRANCH   6   8
ENDBRANCH   5   6
ENDBRANCH   4   5
ENDBRANCH   3   4
ENDBRANCH   2   3
ENDBRANCH   1   2
BRANCH   1  31
ATOM     31  C   UNL A   1      43.313  21.988  26.189  1.00  0.00     0.188 C 
BRANCH  31  32
ATOM     32  O   UNL A   1      43.145  22.602  24.907  1.00  0.00    -0.376 OA
BRANCH  32  33
ATOM     33  C   UNL A   1      44.293  23.290  24.382  1.00  0.00     0.202 C 
BRANCH  33  34
ATOM     34  C   UNL A   1      44.562  24.710  24.883  1.00  0.00     0.261 C 
BRANCH  34  35
ATOM     35  O   UNL A   1      45.669  24.726  25.747  1.00  0.00    -0.460 OA
BRANCH  35  36
ATOM     36  C   UNL A   1      46.667  25.555  25.371  1.00  0.00     0.338 C 
ATOM     37  O   UNL A   1      47.077  25.781  24.238  1.00  0.00    -0.246 OA
BRANCH  36  38
ATOM     38  C   UNL A   1      47.195  26.138  26.613  1.00  0.00     0.060 A 
ATOM     39  C   UNL A   1      46.572  25.697  27.772  1.00  0.00     0.016 A 
ATOM     40  C   UNL A   1      47.849  27.377  26.515  1.00  0.00     0.016 A 
ATOM     41  C   UNL A   1      46.159  26.679  28.625  1.00  0.00     0.010 A 
ATOM     42  C   UNL A   1      47.386  28.361  27.317  1.00  0.00     0.010 A 
ATOM     43  C   UNL A   1      46.442  27.998  28.265  1.00  0.00    -0.014 A 
BRANCH  43  44
ATOM     44  C   UNL A   1      45.737  29.057  28.918  1.00  0.00     0.031 A 
ATOM     45  C   UNL A   1      45.896  28.942  30.368  1.00  0.00     0.074 A 
ATOM     46  C   UNL A   1      45.162  30.046  28.220  1.00  0.00     0.049 A 
ATOM     47  N   UNL A   1      45.134  28.261  31.159  1.00  0.00    -0.248 NA
ATOM     48  C   UNL A   1      47.221  29.267  30.924  1.00  0.00     0.031 C 
ATOM     49  C   UNL A   1      45.285  30.362  26.792  1.00  0.00     0.029 A 
ATOM     50  N   UNL A   1      44.429  31.072  28.703  1.00  0.00    -0.354 N 
ATOM     51  C   UNL A   1      45.776  28.360  32.384  1.00  0.00     0.074 A 
ATOM     52  C   UNL A   1      47.155  28.578  32.064  1.00  0.00     0.031 C 
ATOM     53  C   UNL A   1      44.845  31.626  26.587  1.00  0.00     0.029 A 
ATOM     54  C   UNL A   1      44.307  32.143  27.835  1.00  0.00     0.049 A 
ATOM     55  H   UNL A   1      44.017  31.059  29.597  1.00  0.00     0.167 HD
ATOM     56  C   UNL A   1      45.078  28.741  33.490  1.00  0.00     0.034 A 
ATOM     57  C   UNL A   1      43.887  33.381  28.186  1.00  0.00     0.034 A 
ATOM     58  C   UNL A   1      43.653  28.672  33.220  1.00  0.00     0.049 A 
ATOM     59  C   UNL A   1      43.185  33.251  29.489  1.00  0.00     0.074 A 
ATOM     60  C   UNL A   1      42.759  27.681  32.875  1.00  0.00     0.029 A 
ATOM     61  N   UNL A   1      43.066  29.872  32.881  1.00  0.00    -0.354 N 
ATOM     62  N   UNL A   1      42.061  32.604  29.638  1.00  0.00    -0.248 NA
ATOM     63  C   UNL A   1      43.948  33.450  30.716  1.00  0.00     0.031 C 
ATOM     64  C   UNL A   1      41.786  28.311  32.045  1.00  0.00     0.029 A 
ATOM     65  C   UNL A   1      42.087  29.673  31.948  1.00  0.00     0.049 A 
ATOM     66  H   UNL A   1      43.317  30.747  33.256  1.00  0.00     0.167 HD
ATOM     67  C   UNL A   1      42.204  31.928  30.845  1.00  0.00     0.074 A 
ATOM     68  C   UNL A   1      43.300  32.608  31.529  1.00  0.00     0.031 C 
ATOM     69  C   UNL A   1      41.637  30.696  31.022  1.00  0.00     0.034 A 
BRANCH  56  70
ATOM     70  C   UNL A   1      45.615  29.652  34.591  1.00  0.00     0.023 A 
ATOM     71  C   UNL A   1      45.533  29.134  35.902  1.00  0.00     0.012 A 
ATOM     72  C   UNL A   1      45.918  31.032  34.484  1.00  0.00     0.148 A 
ATOM     73  C   UNL A   1      45.604  29.958  37.030  1.00  0.00     0.002 A 
ATOM     74  C   UNL A   1      45.999  31.849  35.603  1.00  0.00     0.091 A 
ATOM     75  F   UNL A   1      46.094  31.613  33.303  1.00  0.00    -0.205 F 
ATOM     76  C   UNL A   1      45.812  31.322  36.879  1.00  0.00     0.022 A 
BRANCH  74  77
ATOM     77  S   UNL A   1      46.260  33.628  35.459  1.00  0.00     0.127 S 
ATOM     78  O   UNL A   1      45.275  33.981  34.441  1.00  0.00    -0.237 OA
ATOM     79  O   UNL A   1      45.948  34.080  36.814  1.00  0.00    -0.237 OA
ATOM     80  O   UNL A   1      47.654  33.807  35.070  1.00  0.00    -0.744 OA
ENDBRANCH  74  77
ENDBRANCH  56  70
BRANCH  57  81
ATOM     81  C   UNL A   1      44.274  34.694  27.628  1.00  0.00     0.023 A 
ATOM     82  C   UNL A   1      43.279  35.624  27.276  1.00  0.00     0.012 A 
ATOM     83  C   UNL A   1      45.615  35.138  27.686  1.00  0.00     0.148 A 
ATOM     84  C   UNL A   1      43.603  36.961  27.015  1.00  0.00     0.002 A 
ATOM     85  C   UNL A   1      45.934  36.464  27.418  1.00  0.00     0.091 A 
ATOM     86  F   UNL A   1      46.561  34.279  28.088  1.00  0.00    -0.205 F 
ATOM     87  C   UNL A   1      44.928  37.383  27.094  1.00  0.00     0.022 A 
BRANCH  85  88
ATOM     88  S   UNL A   1      47.616  37.093  27.527  1.00  0.00     0.127 S 
ATOM     89  O   UNL A   1      47.941  36.837  28.930  1.00  0.00    -0.237 OA
ATOM     90  O   UNL A   1      48.319  36.240  26.571  1.00  0.00    -0.237 OA
ATOM     91  O   UNL A   1      47.541  38.503  27.173  1.00  0.00    -0.744 OA
ENDBRANCH  85  88
ENDBRANCH  57  81
BRANCH  69  92
ATOM     92  C   UNL A   1      40.586  30.273  30.025  1.00  0.00     0.023 A 
ATOM     93  C   UNL A   1      40.892  29.530  28.865  1.00  0.00     0.012 A 
ATOM     94  C   UNL A   1      39.240  30.502  30.351  1.00  0.00     0.148 A 
ATOM     95  C   UNL A   1      39.875  29.042  28.040  1.00  0.00     0.002 A 
ATOM     96  C   UNL A   1      38.232  29.974  29.556  1.00  0.00     0.091 A 
ATOM     97  F   UNL A   1      38.969  31.210  31.458  1.00  0.00    -0.205 F 
ATOM     98  C   UNL A   1      38.544  29.252  28.394  1.00  0.00     0.022 A 
BRANCH  96  99
ATOM     99  S   UNL A   1      36.507  30.096  30.033  1.00  0.00     0.127 S 
ATOM    100  O   UNL A   1      36.355  31.530  30.267  1.00  0.00    -0.237 OA
ATOM    101  O   UNL A   1      35.816  29.593  28.843  1.00  0.00    -0.237 OA
ATOM    102  O   UNL A   1      36.356  29.246  31.208  1.00  0.00    -0.744 OA
ENDBRANCH  96  99
ENDBRANCH  69  92
ENDBRANCH  43  44
ENDBRANCH  36  38
ENDBRANCH  35  36
ENDBRANCH  34  35
ENDBRANCH  33  34
ENDBRANCH  32  33
ENDBRANCH  31  32
ENDBRANCH   1  31
TORSDOF 25
ENDMDL
