MODEL 1
REMARK VINA RESULT:     -11.4      0.000      0.000
REMARK SMILES Cc1cc(C)c2c(c1)C=C(C(=O)OCCOCCOCCOC(=O)c1ccc(-c3c4nc(c(-c5cccc(S(=O)(=O)[O-])c5F)c5ccc([nH]5)c(-c5cccc(S(=O)(=O)[O-])c5F)c5nc(c(-c6cccc(S(=O)(=O)[O-])c6F)c6ccc3[nH]6)C=C5)C=C4)cc1)[C@@H](C(F)(F)F)O2
REMARK SMILES IDX 18 1 17 2 16 3 15 4 14 5 13 6 11 7 12 8 10 9 1 10 2 11 3 12
REMARK SMILES IDX 8 13 4 14 7 15 5 16 6 17 9 18 93 19 88 20 89 21 90 22 91 23
REMARK SMILES IDX 92 24 19 25 20 26 21 27 22 28 23 29 24 30 25 31 26 32 87 33
REMARK SMILES IDX 27 34 86 35 28 36 29 37 30 38 80 39 31 40 85 41 79 42 81 43
REMARK SMILES IDX 32 44 84 45 78 46 77 47 33 49 65 50 45 51 64 52 46 53 49 54
REMARK SMILES IDX 63 55 82 56 47 57 48 58 62 60 83 61 50 62 34 63 35 64 43 65
REMARK SMILES IDX 36 66 38 67 44 68 37 69 39 70 40 71 41 72 42 73 66 74 67 75
REMARK SMILES IDX 75 76 68 77 70 78 76 79 69 80 71 81 72 82 73 83 74 84 51 85
REMARK SMILES IDX 52 86 60 87 53 88 55 89 61 90 54 91 56 92 57 93 58 94 59 95
REMARK H PARENT 81 48 49 59
REMARK Flexibility Score: inf
ROOT
ATOM      1  C   UNL A   1      33.756  18.911  24.536  1.00  0.00     0.188 C 
ENDROOT
BRANCH   1   2
ATOM      2  C   UNL A   1      32.363  19.111  23.902  1.00  0.00     0.188 C 
BRANCH   2   3
ATOM      3  O   UNL A   1      32.438  19.681  22.609  1.00  0.00    -0.376 OA
BRANCH   3   4
ATOM      4  C   UNL A   1      31.807  20.929  22.399  1.00  0.00     0.202 C 
BRANCH   4   5
ATOM      5  C   UNL A   1      32.362  22.165  23.124  1.00  0.00     0.261 C 
BRANCH   5   6
ATOM      6  O   UNL A   1      31.475  23.289  23.222  1.00  0.00    -0.460 OA
BRANCH   6   7
ATOM      7  C   UNL A   1      31.036  23.627  24.452  1.00  0.00     0.338 C 
ATOM      8  O   UNL A   1      30.784  22.862  25.369  1.00  0.00    -0.246 OA
BRANCH   7   9
ATOM      9  C   UNL A   1      30.987  25.102  24.551  1.00  0.00     0.087 C 
ATOM     10  C   UNL A   1      28.210  30.074  22.175  1.00  0.00     0.044 C 
ATOM     11  C   UNL A   1      29.173  29.308  23.035  1.00  0.00    -0.050 A 
ATOM     12  C   UNL A   1      30.097  29.988  23.837  1.00  0.00     0.010 A 
ATOM     13  C   UNL A   1      29.144  27.908  23.065  1.00  0.00     0.015 A 
ATOM     14  C   UNL A   1      30.996  29.286  24.654  1.00  0.00    -0.008 A 
ATOM     15  C   UNL A   1      30.046  27.192  23.862  1.00  0.00     0.018 A 
ATOM     16  C   UNL A   1      32.000  30.041  25.480  1.00  0.00     0.048 C 
ATOM     17  C   UNL A   1      30.953  27.882  24.673  1.00  0.00     0.130 A 
ATOM     18  C   UNL A   1      30.077  25.739  23.803  1.00  0.00     0.027 C 
ATOM     19  O   UNL A   1      31.833  27.254  25.510  1.00  0.00    -0.475 OA
ATOM     20  C   UNL A   1      31.931  25.805  25.492  1.00  0.00     0.316 C 
BRANCH  20  21
ATOM     21  C   UNL A   1      33.399  25.438  25.237  1.00  0.00     0.430 C 
ATOM     22  F   UNL A   1      33.683  25.436  23.911  1.00  0.00    -0.167 F 
ATOM     23  F   UNL A   1      34.250  26.324  25.807  1.00  0.00    -0.167 F 
ATOM     24  F   UNL A   1      33.712  24.213  25.717  1.00  0.00    -0.167 F 
ENDBRANCH  20  21
ENDBRANCH   7   9
ENDBRANCH   6   7
ENDBRANCH   5   6
ENDBRANCH   4   5
ENDBRANCH   3   4
ENDBRANCH   2   3
ENDBRANCH   1   2
BRANCH   1  25
ATOM     25  O   UNL A   1      34.474  20.035  25.037  1.00  0.00    -0.376 OA
BRANCH  25  26
ATOM     26  C   UNL A   1      35.896  20.020  24.992  1.00  0.00     0.202 C 
BRANCH  26  27
ATOM     27  C   UNL A   1      36.678  21.160  25.662  1.00  0.00     0.261 C 
BRANCH  27  28
ATOM     28  O   UNL A   1      37.976  21.419  25.104  1.00  0.00    -0.460 OA
BRANCH  28  29
ATOM     29  C   UNL A   1      39.027  21.112  25.907  1.00  0.00     0.338 C 
ATOM     30  O   UNL A   1      39.560  20.024  26.040  1.00  0.00    -0.246 OA
BRANCH  29  31
ATOM     31  C   UNL A   1      39.584  22.352  26.484  1.00  0.00     0.060 A 
ATOM     32  C   UNL A   1      39.045  23.579  26.067  1.00  0.00     0.016 A 
ATOM     33  C   UNL A   1      40.647  22.316  27.388  1.00  0.00     0.016 A 
ATOM     34  C   UNL A   1      39.577  24.774  26.548  1.00  0.00     0.010 A 
ATOM     35  C   UNL A   1      41.197  23.517  27.845  1.00  0.00     0.010 A 
ATOM     36  C   UNL A   1      40.680  24.750  27.411  1.00  0.00    -0.014 A 
BRANCH  36  37
ATOM     37  C   UNL A   1      41.385  26.013  27.731  1.00  0.00     0.031 A 
ATOM     38  C   UNL A   1      40.645  27.082  28.486  1.00  0.00     0.074 A 
ATOM     39  C   UNL A   1      42.664  26.204  27.363  1.00  0.00     0.049 A 
ATOM     40  N   UNL A   1      41.060  28.261  28.868  1.00  0.00    -0.248 NA
ATOM     41  C   UNL A   1      39.254  26.780  28.865  1.00  0.00     0.031 C 
ATOM     42  C   UNL A   1      43.490  25.236  26.643  1.00  0.00     0.029 A 
ATOM     43  N   UNL A   1      43.488  27.289  27.534  1.00  0.00    -0.354 N 
ATOM     44  C   UNL A   1      39.982  28.846  29.522  1.00  0.00     0.074 A 
ATOM     45  C   UNL A   1      38.889  27.902  29.471  1.00  0.00     0.031 C 
ATOM     46  C   UNL A   1      44.698  25.780  26.413  1.00  0.00     0.029 A 
ATOM     47  C   UNL A   1      44.726  27.139  26.953  1.00  0.00     0.049 A 
ATOM     48  H   UNL A   1      43.219  28.099  28.025  1.00  0.00     0.167 HD
ATOM     49  C   UNL A   1      39.917  30.053  30.131  1.00  0.00     0.034 A 
ATOM     50  C   UNL A   1      45.756  28.005  26.858  1.00  0.00     0.034 A 
ATOM     51  C   UNL A   1      41.006  30.989  30.186  1.00  0.00     0.049 A 
ATOM     52  C   UNL A   1      45.637  29.366  27.497  1.00  0.00     0.074 A 
ATOM     53  C   UNL A   1      41.039  32.228  30.798  1.00  0.00     0.029 A 
ATOM     54  N   UNL A   1      42.247  30.795  29.600  1.00  0.00    -0.354 N 
ATOM     55  N   UNL A   1      44.652  29.861  28.207  1.00  0.00    -0.248 NA
ATOM     56  C   UNL A   1      46.782  30.278  27.347  1.00  0.00     0.031 C 
ATOM     57  C   UNL A   1      42.295  32.795  30.564  1.00  0.00     0.029 A 
ATOM     58  C   UNL A   1      43.052  31.897  29.828  1.00  0.00     0.049 A 
ATOM     59  H   UNL A   1      42.516  29.993  29.097  1.00  0.00     0.167 HD
ATOM     60  C   UNL A   1      45.071  31.123  28.618  1.00  0.00     0.074 A 
ATOM     61  C   UNL A   1      46.407  31.312  28.091  1.00  0.00     0.031 C 
ATOM     62  C   UNL A   1      44.403  32.048  29.352  1.00  0.00     0.034 A 
BRANCH  49  63
ATOM     63  C   UNL A   1      38.638  30.417  30.834  1.00  0.00     0.023 A 
ATOM     64  C   UNL A   1      38.488  30.098  32.200  1.00  0.00     0.012 A 
ATOM     65  C   UNL A   1      37.629  31.148  30.179  1.00  0.00     0.148 A 
ATOM     66  C   UNL A   1      37.347  30.486  32.898  1.00  0.00     0.002 A 
ATOM     67  C   UNL A   1      36.512  31.567  30.892  1.00  0.00     0.091 A 
ATOM     68  F   UNL A   1      37.782  31.421  28.875  1.00  0.00    -0.205 F 
ATOM     69  C   UNL A   1      36.366  31.230  32.248  1.00  0.00     0.022 A 
BRANCH  67  70
ATOM     70  S   UNL A   1      35.230  32.598  30.171  1.00  0.00     0.127 S 
ATOM     71  O   UNL A   1      34.734  31.740  29.095  1.00  0.00    -0.237 OA
ATOM     72  O   UNL A   1      34.304  32.765  31.292  1.00  0.00    -0.237 OA
ATOM     73  O   UNL A   1      35.891  33.820  29.738  1.00  0.00    -0.744 OA
ENDBRANCH  67  70
ENDBRANCH  49  63
BRANCH  50  74
ATOM     74  C   UNL A   1      47.017  27.589  26.179  1.00  0.00     0.023 A 
ATOM     75  C   UNL A   1      47.999  26.898  26.912  1.00  0.00     0.012 A 
ATOM     76  C   UNL A   1      47.237  27.846  24.811  1.00  0.00     0.148 A 
ATOM     77  C   UNL A   1      49.186  26.487  26.304  1.00  0.00     0.002 A 
ATOM     78  C   UNL A   1      48.397  27.386  24.198  1.00  0.00     0.091 A 
ATOM     79  F   UNL A   1      46.299  28.523  24.133  1.00  0.00    -0.205 F 
ATOM     80  C   UNL A   1      49.380  26.720  24.946  1.00  0.00     0.022 A 
BRANCH  78  81
ATOM     81  S   UNL A   1      48.676  27.529  22.428  1.00  0.00     0.127 S 
ATOM     82  O   UNL A   1      47.512  28.301  22.003  1.00  0.00    -0.237 OA
ATOM     83  O   UNL A   1      49.947  28.252  22.381  1.00  0.00    -0.237 OA
ATOM     84  O   UNL A   1      48.744  26.161  21.929  1.00  0.00    -0.744 OA
ENDBRANCH  78  81
ENDBRANCH  50  74
BRANCH  62  85
ATOM     85  C   UNL A   1      45.096  33.350  29.667  1.00  0.00     0.023 A 
ATOM     86  C   UNL A   1      45.851  33.467  30.850  1.00  0.00     0.012 A 
ATOM     87  C   UNL A   1      45.112  34.402  28.729  1.00  0.00     0.148 A 
ATOM     88  C   UNL A   1      46.600  34.616  31.102  1.00  0.00     0.002 A 
ATOM     89  C   UNL A   1      45.900  35.524  28.964  1.00  0.00     0.091 A 
ATOM     90  F   UNL A   1      44.375  34.277  27.616  1.00  0.00    -0.205 F 
ATOM     91  C   UNL A   1      46.636  35.636  30.154  1.00  0.00     0.022 A 
BRANCH  89  92
ATOM     92  S   UNL A   1      46.095  36.838  27.754  1.00  0.00     0.127 S 
ATOM     93  O   UNL A   1      46.100  36.089  26.498  1.00  0.00    -0.237 OA
ATOM     94  O   UNL A   1      44.897  37.646  27.978  1.00  0.00    -0.237 OA
ATOM     95  O   UNL A   1      47.347  37.507  28.085  1.00  0.00    -0.744 OA
ENDBRANCH  89  92
ENDBRANCH  62  85
ENDBRANCH  36  37
ENDBRANCH  29  31
ENDBRANCH  28  29
ENDBRANCH  27  28
ENDBRANCH  26  27
ENDBRANCH  25  26
ENDBRANCH   1  25
TORSDOF 21
ENDMDL
MODEL 2
REMARK VINA RESULT:     -11.2      1.423      7.560
REMARK SMILES Cc1cc(C)c2c(c1)C=C(C(=O)OCCOCCOCCOC(=O)c1ccc(-c3c4nc(c(-c5cccc(S(=O)(=O)[O-])c5F)c5ccc([nH]5)c(-c5cccc(S(=O)(=O)[O-])c5F)c5nc(c(-c6cccc(S(=O)(=O)[O-])c6F)c6ccc3[nH]6)C=C5)C=C4)cc1)[C@@H](C(F)(F)F)O2
REMARK SMILES IDX 18 1 17 2 16 3 15 4 14 5 13 6 11 7 12 8 10 9 1 10 2 11 3 12
REMARK SMILES IDX 8 13 4 14 7 15 5 16 6 17 9 18 93 19 88 20 89 21 90 22 91 23
REMARK SMILES IDX 92 24 19 25 20 26 21 27 22 28 23 29 24 30 25 31 26 32 87 33
REMARK SMILES IDX 27 34 86 35 28 36 29 37 30 38 80 39 31 40 85 41 79 42 81 43
REMARK SMILES IDX 32 44 84 45 78 46 77 47 33 49 65 50 45 51 64 52 46 53 49 54
REMARK SMILES IDX 63 55 82 56 47 57 48 58 62 60 83 61 50 62 34 63 35 64 43 65
REMARK SMILES IDX 36 66 38 67 44 68 37 69 39 70 40 71 41 72 42 73 66 74 67 75
REMARK SMILES IDX 75 76 68 77 70 78 76 79 69 80 71 81 72 82 73 83 74 84 51 85
REMARK SMILES IDX 52 86 60 87 53 88 55 89 61 90 54 91 56 92 57 93 58 94 59 95
REMARK H PARENT 81 48 49 59
REMARK Flexibility Score: inf
ROOT
ATOM      1  C   UNL A   1      33.972  19.316  24.680  1.00  0.00     0.188 C 
ENDROOT
BRANCH   1   2
ATOM      2  C   UNL A   1      32.855  19.754  25.651  1.00  0.00     0.188 C 
BRANCH   2   3
ATOM      3  O   UNL A   1      31.868  20.543  25.016  1.00  0.00    -0.376 OA
BRANCH   3   4
ATOM      4  C   UNL A   1      31.829  21.924  25.319  1.00  0.00     0.202 C 
BRANCH   4   5
ATOM      5  C   UNL A   1      31.427  22.910  24.211  1.00  0.00     0.261 C 
BRANCH   5   6
ATOM      6  O   UNL A   1      31.586  24.303  24.518  1.00  0.00    -0.460 OA
BRANCH   6   7
ATOM      7  C   UNL A   1      31.804  25.145  23.486  1.00  0.00     0.338 C 
ATOM      8  O   UNL A   1      32.153  24.836  22.359  1.00  0.00    -0.246 OA
BRANCH   7   9
ATOM      9  C   UNL A   1      31.466  26.519  23.915  1.00  0.00     0.087 C 
ATOM     10  C   UNL A   1      28.122  31.457  22.328  1.00  0.00     0.044 C 
ATOM     11  C   UNL A   1      29.096  30.649  23.135  1.00  0.00    -0.050 A 
ATOM     12  C   UNL A   1      29.767  31.230  24.218  1.00  0.00     0.010 A 
ATOM     13  C   UNL A   1      29.328  29.301  22.834  1.00  0.00     0.015 A 
ATOM     14  C   UNL A   1      30.672  30.486  24.989  1.00  0.00    -0.008 A 
ATOM     15  C   UNL A   1      30.242  28.549  23.583  1.00  0.00     0.018 A 
ATOM     16  C   UNL A   1      31.403  31.144  26.126  1.00  0.00     0.048 C 
ATOM     17  C   UNL A   1      30.892  29.135  24.673  1.00  0.00     0.130 A 
ATOM     18  C   UNL A   1      30.553  27.182  23.193  1.00  0.00     0.027 C 
ATOM     19  O   UNL A   1      31.763  28.452  25.477  1.00  0.00    -0.475 OA
ATOM     20  C   UNL A   1      32.134  27.089  25.139  1.00  0.00     0.316 C 
BRANCH  20  21
ATOM     21  C   UNL A   1      33.664  27.027  25.058  1.00  0.00     0.430 C 
ATOM     22  F   UNL A   1      34.155  26.000  25.796  1.00  0.00    -0.167 F 
ATOM     23  F   UNL A   1      34.099  26.827  23.791  1.00  0.00    -0.167 F 
ATOM     24  F   UNL A   1      34.248  28.161  25.510  1.00  0.00    -0.167 F 
ENDBRANCH  20  21
ENDBRANCH   7   9
ENDBRANCH   6   7
ENDBRANCH   5   6
ENDBRANCH   4   5
ENDBRANCH   3   4
ENDBRANCH   2   3
ENDBRANCH   1   2
BRANCH   1  25
ATOM     25  O   UNL A   1      35.204  20.031  24.650  1.00  0.00    -0.376 OA
BRANCH  25  26
ATOM     26  C   UNL A   1      36.404  19.351  24.999  1.00  0.00     0.202 C 
BRANCH  26  27
ATOM     27  C   UNL A   1      37.756  19.984  24.637  1.00  0.00     0.261 C 
BRANCH  27  28
ATOM     28  O   UNL A   1      38.143  21.102  25.450  1.00  0.00    -0.460 OA
BRANCH  28  29
ATOM     29  C   UNL A   1      39.330  20.971  26.095  1.00  0.00     0.338 C 
ATOM     30  O   UNL A   1      40.050  19.989  26.123  1.00  0.00    -0.246 OA
BRANCH  29  31
ATOM     31  C   UNL A   1      39.747  22.284  26.629  1.00  0.00     0.060 A 
ATOM     32  C   UNL A   1      39.189  23.439  26.062  1.00  0.00     0.016 A 
ATOM     33  C   UNL A   1      40.704  22.382  27.641  1.00  0.00     0.016 A 
ATOM     34  C   UNL A   1      39.595  24.699  26.501  1.00  0.00     0.010 A 
ATOM     35  C   UNL A   1      41.130  23.647  28.058  1.00  0.00     0.010 A 
ATOM     36  C   UNL A   1      40.595  24.809  27.475  1.00  0.00    -0.014 A 
BRANCH  36  37
ATOM     37  C   UNL A   1      41.186  26.135  27.769  1.00  0.00     0.031 A 
ATOM     38  C   UNL A   1      42.592  26.415  27.315  1.00  0.00     0.074 A 
ATOM     39  C   UNL A   1      40.484  27.077  28.425  1.00  0.00     0.049 A 
ATOM     40  N   UNL A   1      43.308  27.498  27.466  1.00  0.00    -0.248 NA
ATOM     41  C   UNL A   1      43.278  25.334  26.588  1.00  0.00     0.031 C 
ATOM     42  C   UNL A   1      39.111  26.928  28.901  1.00  0.00     0.029 A 
ATOM     43  N   UNL A   1      40.841  28.343  28.816  1.00  0.00    -0.354 N 
ATOM     44  C   UNL A   1      44.531  27.227  26.864  1.00  0.00     0.074 A 
ATOM     45  C   UNL A   1      44.468  25.874  26.361  1.00  0.00     0.031 C 
ATOM     46  C   UNL A   1      38.747  28.053  29.541  1.00  0.00     0.029 A 
ATOM     47  C   UNL A   1      39.867  28.994  29.536  1.00  0.00     0.049 A 
ATOM     48  H   UNL A   1      41.713  28.748  28.602  1.00  0.00     0.167 HD
ATOM     49  C   UNL A   1      45.603  28.042  26.724  1.00  0.00     0.034 A 
ATOM     50  C   UNL A   1      39.884  30.204  30.133  1.00  0.00     0.034 A 
ATOM     51  C   UNL A   1      45.662  29.389  27.220  1.00  0.00     0.049 A 
ATOM     52  C   UNL A   1      41.113  31.070  30.010  1.00  0.00     0.074 A 
ATOM     53  C   UNL A   1      46.699  30.297  27.108  1.00  0.00     0.029 A 
ATOM     54  N   UNL A   1      44.652  30.017  27.930  1.00  0.00    -0.354 N 
ATOM     55  N   UNL A   1      42.219  30.843  29.343  1.00  0.00    -0.248 NA
ATOM     56  C   UNL A   1      41.085  32.371  30.695  1.00  0.00     0.031 C 
ATOM     57  C   UNL A   1      46.324  31.470  27.770  1.00  0.00     0.029 A 
ATOM     58  C   UNL A   1      45.043  31.300  28.271  1.00  0.00     0.049 A 
ATOM     59  H   UNL A   1      43.784  29.611  28.158  1.00  0.00     0.167 HD
ATOM     60  C   UNL A   1      43.002  31.983  29.499  1.00  0.00     0.074 A 
ATOM     61  C   UNL A   1      42.236  32.908  30.310  1.00  0.00     0.031 C 
ATOM     62  C   UNL A   1      44.248  32.235  29.025  1.00  0.00     0.034 A 
BRANCH  49  63
ATOM     63  C   UNL A   1      46.788  27.518  25.959  1.00  0.00     0.023 A 
ATOM     64  C   UNL A   1      46.890  27.788  24.579  1.00  0.00     0.012 A 
ATOM     65  C   UNL A   1      47.837  26.845  26.614  1.00  0.00     0.148 A 
ATOM     66  C   UNL A   1      48.011  27.381  23.859  1.00  0.00     0.002 A 
ATOM     67  C   UNL A   1      48.970  26.477  25.896  1.00  0.00     0.091 A 
ATOM     68  F   UNL A   1      47.708  26.579  27.922  1.00  0.00    -0.205 F 
ATOM     69  C   UNL A   1      49.054  26.737  24.518  1.00  0.00     0.022 A 
BRANCH  67  70
ATOM     70  S   UNL A   1      50.403  25.717  26.667  1.00  0.00     0.127 S 
ATOM     71  O   UNL A   1      51.307  25.572  25.526  1.00  0.00    -0.237 OA
ATOM     72  O   UNL A   1      50.805  26.734  27.638  1.00  0.00    -0.237 OA
ATOM     73  O   UNL A   1      49.932  24.468  27.250  1.00  0.00    -0.744 OA
ENDBRANCH  67  70
ENDBRANCH  49  63
BRANCH  50  74
ATOM     74  C   UNL A   1      38.674  30.694  30.853  1.00  0.00     0.023 A 
ATOM     75  C   UNL A   1      38.602  30.556  32.253  1.00  0.00     0.012 A 
ATOM     76  C   UNL A   1      37.612  31.320  30.171  1.00  0.00     0.148 A 
ATOM     77  C   UNL A   1      37.488  31.014  32.958  1.00  0.00     0.002 A 
ATOM     78  C   UNL A   1      36.530  31.822  30.886  1.00  0.00     0.091 A 
ATOM     79  F   UNL A   1      37.689  31.425  28.837  1.00  0.00    -0.205 F 
ATOM     80  C   UNL A   1      36.458  31.656  32.277  1.00  0.00     0.022 A 
BRANCH  78  81
ATOM     81  S   UNL A   1      35.219  32.776  30.109  1.00  0.00     0.127 S 
ATOM     82  O   UNL A   1      34.779  31.873  29.049  1.00  0.00    -0.237 OA
ATOM     83  O   UNL A   1      34.272  32.939  31.213  1.00  0.00    -0.237 OA
ATOM     84  O   UNL A   1      35.843  34.015  29.666  1.00  0.00    -0.744 OA
ENDBRANCH  78  81
ENDBRANCH  50  74
BRANCH  62  85
ATOM     85  C   UNL A   1      44.877  33.570  29.336  1.00  0.00     0.023 A 
ATOM     86  C   UNL A   1      45.614  33.732  30.525  1.00  0.00     0.012 A 
ATOM     87  C   UNL A   1      44.852  34.614  28.389  1.00  0.00     0.148 A 
ATOM     88  C   UNL A   1      46.306  34.917  30.773  1.00  0.00     0.002 A 
ATOM     89  C   UNL A   1      45.584  35.773  28.621  1.00  0.00     0.091 A 
ATOM     90  F   UNL A   1      44.132  34.446  27.270  1.00  0.00    -0.205 F 
ATOM     91  C   UNL A   1      46.304  35.929  29.817  1.00  0.00     0.022 A 
BRANCH  89  92
ATOM     92  S   UNL A   1      45.730  37.086  27.402  1.00  0.00     0.127 S 
ATOM     93  O   UNL A   1      44.397  37.685  27.449  1.00  0.00    -0.237 OA
ATOM     94  O   UNL A   1      46.792  37.918  27.967  1.00  0.00    -0.237 OA
ATOM     95  O   UNL A   1      46.075  36.433  26.146  1.00  0.00    -0.744 OA
ENDBRANCH  89  92
ENDBRANCH  62  85
ENDBRANCH  36  37
ENDBRANCH  29  31
ENDBRANCH  28  29
ENDBRANCH  27  28
ENDBRANCH  26  27
ENDBRANCH  25  26
ENDBRANCH   1  25
TORSDOF 21
ENDMDL
MODEL 3
REMARK VINA RESULT:     -11.0      6.373     10.326
REMARK SMILES Cc1cc(C)c2c(c1)C=C(C(=O)OCCOCCOCCOC(=O)c1ccc(-c3c4nc(c(-c5cccc(S(=O)(=O)[O-])c5F)c5ccc([nH]5)c(-c5cccc(S(=O)(=O)[O-])c5F)c5nc(c(-c6cccc(S(=O)(=O)[O-])c6F)c6ccc3[nH]6)C=C5)C=C4)cc1)[C@@H](C(F)(F)F)O2
REMARK SMILES IDX 18 1 17 2 16 3 15 4 14 5 13 6 11 7 12 8 10 9 1 10 2 11 3 12
REMARK SMILES IDX 8 13 4 14 7 15 5 16 6 17 9 18 93 19 88 20 89 21 90 22 91 23
REMARK SMILES IDX 92 24 19 25 20 26 21 27 22 28 23 29 24 30 25 31 26 32 87 33
REMARK SMILES IDX 27 34 86 35 28 36 29 37 30 38 80 39 31 40 85 41 79 42 81 43
REMARK SMILES IDX 32 44 84 45 78 46 77 47 33 49 65 50 45 51 64 52 46 53 49 54
REMARK SMILES IDX 63 55 82 56 47 57 48 58 62 60 83 61 50 62 34 63 35 64 43 65
REMARK SMILES IDX 36 66 38 67 44 68 37 69 39 70 40 71 41 72 42 73 66 74 67 75
REMARK SMILES IDX 75 76 68 77 70 78 76 79 69 80 71 81 72 82 73 83 74 84 51 85
REMARK SMILES IDX 52 86 60 87 53 88 55 89 61 90 54 91 56 92 57 93 58 94 59 95
REMARK H PARENT 81 48 49 59
REMARK Flexibility Score: inf
ROOT
ATOM      1  C   UNL A   1      35.704  33.682  29.339  1.00  0.00     0.188 C 
ENDROOT
BRANCH   1   2
ATOM      2  C   UNL A   1      36.542  32.784  28.404  1.00  0.00     0.188 C 
BRANCH   2   3
ATOM      3  O   UNL A   1      35.735  31.974  27.571  1.00  0.00    -0.376 OA
BRANCH   3   4
ATOM      4  C   UNL A   1      35.029  30.905  28.171  1.00  0.00     0.202 C 
BRANCH   4   5
ATOM      5  C   UNL A   1      33.841  30.291  27.414  1.00  0.00     0.261 C 
BRANCH   5   6
ATOM      6  O   UNL A   1      33.709  28.865  27.501  1.00  0.00    -0.460 OA
BRANCH   6   7
ATOM      7  C   UNL A   1      32.515  28.332  27.167  1.00  0.00     0.338 C 
ATOM      8  O   UNL A   1      31.436  28.591  27.674  1.00  0.00    -0.246 OA
BRANCH   7   9
ATOM      9  C   UNL A   1      32.704  27.429  26.011  1.00  0.00     0.087 C 
ATOM     10  C   UNL A   1      36.159  22.735  23.984  1.00  0.00     0.044 C 
ATOM     11  C   UNL A   1      35.110  23.806  23.921  1.00  0.00    -0.050 A 
ATOM     12  C   UNL A   1      34.396  24.025  22.736  1.00  0.00     0.010 A 
ATOM     13  C   UNL A   1      34.813  24.582  25.048  1.00  0.00     0.015 A 
ATOM     14  C   UNL A   1      33.404  25.014  22.664  1.00  0.00    -0.008 A 
ATOM     15  C   UNL A   1      33.839  25.586  24.988  1.00  0.00     0.018 A 
ATOM     16  C   UNL A   1      32.676  25.249  21.371  1.00  0.00     0.048 C 
ATOM     17  C   UNL A   1      33.119  25.783  23.805  1.00  0.00     0.130 A 
ATOM     18  C   UNL A   1      33.616  26.456  26.132  1.00  0.00     0.027 C 
ATOM     19  O   UNL A   1      32.123  26.712  23.684  1.00  0.00    -0.475 OA
ATOM     20  C   UNL A   1      31.858  27.626  24.780  1.00  0.00     0.316 C 
BRANCH  20  21
ATOM     21  C   UNL A   1      31.943  29.056  24.229  1.00  0.00     0.430 C 
ATOM     22  F   UNL A   1      31.595  29.100  22.919  1.00  0.00    -0.167 F 
ATOM     23  F   UNL A   1      31.104  29.901  24.874  1.00  0.00    -0.167 F 
ATOM     24  F   UNL A   1      33.190  29.570  24.330  1.00  0.00    -0.167 F 
ENDBRANCH  20  21
ENDBRANCH   7   9
ENDBRANCH   6   7
ENDBRANCH   5   6
ENDBRANCH   4   5
ENDBRANCH   3   4
ENDBRANCH   2   3
ENDBRANCH   1   2
BRANCH   1  25
ATOM     25  O   UNL A   1      34.888  34.712  28.788  1.00  0.00    -0.376 OA
BRANCH  25  26
ATOM     26  C   UNL A   1      33.487  34.690  29.039  1.00  0.00     0.202 C 
BRANCH  26  27
ATOM     27  C   UNL A   1      32.801  35.960  29.563  1.00  0.00     0.261 C 
BRANCH  27  28
ATOM     28  O   UNL A   1      33.250  36.407  30.852  1.00  0.00    -0.460 OA
BRANCH  28  29
ATOM     29  C   UNL A   1      32.829  35.664  31.906  1.00  0.00     0.338 C 
ATOM     30  O   UNL A   1      31.678  35.444  32.241  1.00  0.00    -0.246 OA
BRANCH  29  31
ATOM     31  C   UNL A   1      33.985  34.975  32.517  1.00  0.00     0.060 A 
ATOM     32  C   UNL A   1      35.251  35.563  32.388  1.00  0.00     0.016 A 
ATOM     33  C   UNL A   1      33.835  33.750  33.168  1.00  0.00     0.016 A 
ATOM     34  C   UNL A   1      36.376  34.920  32.903  1.00  0.00     0.010 A 
ATOM     35  C   UNL A   1      34.968  33.093  33.657  1.00  0.00     0.010 A 
ATOM     36  C   UNL A   1      36.245  33.664  33.508  1.00  0.00    -0.014 A 
BRANCH  36  37
ATOM     37  C   UNL A   1      37.458  32.882  33.841  1.00  0.00     0.031 A 
ATOM     38  C   UNL A   1      38.253  33.268  35.057  1.00  0.00     0.074 A 
ATOM     39  C   UNL A   1      37.844  31.844  33.079  1.00  0.00     0.049 A 
ATOM     40  N   UNL A   1      39.345  32.731  35.534  1.00  0.00    -0.248 NA
ATOM     41  C   UNL A   1      37.748  34.405  35.844  1.00  0.00     0.031 C 
ATOM     42  C   UNL A   1      37.147  31.367  31.886  1.00  0.00     0.029 A 
ATOM     43  N   UNL A   1      38.931  31.012  33.190  1.00  0.00    -0.354 N 
ATOM     44  C   UNL A   1      39.664  33.469  36.668  1.00  0.00     0.074 A 
ATOM     45  C   UNL A   1      38.662  34.501  36.800  1.00  0.00     0.031 C 
ATOM     46  C   UNL A   1      37.836  30.338  31.361  1.00  0.00     0.029 A 
ATOM     47  C   UNL A   1      39.031  30.096  32.169  1.00  0.00     0.049 A 
ATOM     48  H   UNL A   1      39.578  31.066  33.930  1.00  0.00     0.167 HD
ATOM     49  C   UNL A   1      40.687  33.286  37.535  1.00  0.00     0.034 A 
ATOM     50  C   UNL A   1      39.986  29.178  31.911  1.00  0.00     0.034 A 
ATOM     51  C   UNL A   1      41.680  32.256  37.406  1.00  0.00     0.049 A 
ATOM     52  C   UNL A   1      41.147  29.034  32.863  1.00  0.00     0.074 A 
ATOM     53  C   UNL A   1      42.744  31.982  38.247  1.00  0.00     0.029 A 
ATOM     54  N   UNL A   1      41.740  31.339  36.369  1.00  0.00    -0.354 N 
ATOM     55  N   UNL A   1      41.374  29.664  33.990  1.00  0.00    -0.248 NA
ATOM     56  C   UNL A   1      42.169  28.031  32.524  1.00  0.00     0.031 C 
ATOM     57  C   UNL A   1      43.461  30.911  37.706  1.00  0.00     0.029 A 
ATOM     58  C   UNL A   1      42.828  30.502  36.542  1.00  0.00     0.049 A 
ATOM     59  H   UNL A   1      41.103  31.290  35.620  1.00  0.00     0.167 HD
ATOM     60  C   UNL A   1      42.540  29.112  34.511  1.00  0.00     0.074 A 
ATOM     61  C   UNL A   1      42.965  28.083  33.585  1.00  0.00     0.031 C 
ATOM     62  C   UNL A   1      43.207  29.439  35.646  1.00  0.00     0.034 A 
BRANCH  49  63
ATOM     63  C   UNL A   1      40.762  34.192  38.734  1.00  0.00     0.023 A 
ATOM     64  C   UNL A   1      41.650  35.287  38.714  1.00  0.00     0.012 A 
ATOM     65  C   UNL A   1      39.899  34.020  39.833  1.00  0.00     0.148 A 
ATOM     66  C   UNL A   1      41.691  36.186  39.777  1.00  0.00     0.002 A 
ATOM     67  C   UNL A   1      39.917  34.944  40.871  1.00  0.00     0.091 A 
ATOM     68  F   UNL A   1      39.079  32.959  39.840  1.00  0.00    -0.205 F 
ATOM     69  C   UNL A   1      40.817  36.022  40.849  1.00  0.00     0.022 A 
BRANCH  67  70
ATOM     70  S   UNL A   1      38.777  34.868  42.257  1.00  0.00     0.127 S 
ATOM     71  O   UNL A   1      37.486  35.015  41.585  1.00  0.00    -0.237 OA
ATOM     72  O   UNL A   1      39.036  33.533  42.795  1.00  0.00    -0.237 OA
ATOM     73  O   UNL A   1      39.145  35.965  43.142  1.00  0.00    -0.744 OA
ENDBRANCH  67  70
ENDBRANCH  49  63
BRANCH  50  74
ATOM     74  C   UNL A   1      39.854  28.281  30.728  1.00  0.00     0.023 A 
ATOM     75  C   UNL A   1      39.020  27.149  30.810  1.00  0.00     0.012 A 
ATOM     76  C   UNL A   1      40.520  28.553  29.517  1.00  0.00     0.148 A 
ATOM     77  C   UNL A   1      38.867  26.294  29.718  1.00  0.00     0.002 A 
ATOM     78  C   UNL A   1      40.322  27.728  28.415  1.00  0.00     0.091 A 
ATOM     79  F   UNL A   1      41.326  29.623  29.463  1.00  0.00    -0.205 F 
ATOM     80  C   UNL A   1      39.508  26.590  28.518  1.00  0.00     0.022 A 
BRANCH  78  81
ATOM     81  S   UNL A   1      41.004  28.099  26.795  1.00  0.00     0.127 S 
ATOM     82  O   UNL A   1      40.175  29.224  26.371  1.00  0.00    -0.237 OA
ATOM     83  O   UNL A   1      42.388  28.443  27.123  1.00  0.00    -0.237 OA
ATOM     84  O   UNL A   1      40.857  26.876  26.016  1.00  0.00    -0.744 OA
ENDBRANCH  78  81
ENDBRANCH  50  74
BRANCH  62  85
ATOM     85  C   UNL A   1      44.459  28.671  35.989  1.00  0.00     0.023 A 
ATOM     86  C   UNL A   1      45.711  29.161  35.572  1.00  0.00     0.012 A 
ATOM     87  C   UNL A   1      44.402  27.547  36.838  1.00  0.00     0.148 A 
ATOM     88  C   UNL A   1      46.888  28.535  35.982  1.00  0.00     0.002 A 
ATOM     89  C   UNL A   1      45.581  26.959  37.282  1.00  0.00     0.091 A 
ATOM     90  F   UNL A   1      43.199  27.088  37.213  1.00  0.00    -0.205 F 
ATOM     91  C   UNL A   1      46.824  27.446  36.847  1.00  0.00     0.022 A 
BRANCH  89  92
ATOM     92  S   UNL A   1      45.602  25.621  38.482  1.00  0.00     0.127 S 
ATOM     93  O   UNL A   1      44.736  26.151  39.534  1.00  0.00    -0.237 OA
ATOM     94  O   UNL A   1      45.028  24.512  37.721  1.00  0.00    -0.237 OA
ATOM     95  O   UNL A   1      46.998  25.439  38.859  1.00  0.00    -0.744 OA
ENDBRANCH  89  92
ENDBRANCH  62  85
ENDBRANCH  36  37
ENDBRANCH  29  31
ENDBRANCH  28  29
ENDBRANCH  27  28
ENDBRANCH  26  27
ENDBRANCH  25  26
ENDBRANCH   1  25
TORSDOF 21
ENDMDL
