MODEL 1
REMARK VINA RESULT:     -12.5      0.000      0.000
REMARK SMILES O=C(OCCOCCOCCOC(=O)c1ccc(-c2c3nc(c(-c4cccc(S(=O)(=O)[O-])c4F)c4ccc([nH]4)c(-c4cccc(S(=O)(=O)[O-])c4F)c4nc(c(-c5cccc(S(=O)(=O)[O-])c5F)c5ccc2[nH]5)C=C4)C=C3)cc1)C1=Cc2c(Cl)ccc(Cl)c2O[C@@H]1C(F)(F)F
REMARK SMILES IDX 8 1 7 2 6 3 5 4 4 5 3 6 2 7 1 8 78 9 79 10 89 11 80 12 88 13
REMARK SMILES IDX 81 14 87 15 82 16 83 17 85 18 84 19 86 20 90 21 91 22 92 23
REMARK SMILES IDX 93 24 9 25 10 26 11 27 12 28 13 29 14 30 15 31 16 32 77 33
REMARK SMILES IDX 17 34 76 35 18 36 19 37 20 38 70 39 21 40 75 41 69 42 71 43
REMARK SMILES IDX 22 44 74 45 68 46 67 47 23 49 55 50 35 51 54 52 36 53 39 54
REMARK SMILES IDX 53 55 72 56 37 57 38 58 52 60 73 61 40 62 24 63 25 64 33 65
REMARK SMILES IDX 26 66 28 67 34 68 27 69 29 70 30 71 31 72 32 73 56 74 57 75
REMARK SMILES IDX 65 76 58 77 60 78 66 79 59 80 61 81 62 82 63 83 64 84 41 85
REMARK SMILES IDX 42 86 50 87 43 88 45 89 51 90 44 91 46 92 47 93 48 94 49 95
REMARK H PARENT 71 48 39 59
REMARK Flexibility Score: inf
ROOT
ATOM      1  C   UNL A   1      34.526  33.242  28.120  1.00  0.00     0.188 C 
ENDROOT
BRANCH   1   2
ATOM      2  C   UNL A   1      34.550  31.741  27.776  1.00  0.00     0.188 C 
BRANCH   2   3
ATOM      3  O   UNL A   1      33.370  30.859  27.660  1.00  0.00    -0.376 OA
BRANCH   3   4
ATOM      4  C   UNL A   1      32.675  30.168  26.273  1.00  0.00     0.202 C 
BRANCH   4   5
ATOM      5  C   UNL A   1      31.423  28.399  26.207  1.00  0.00     0.261 C 
BRANCH   5   6
ATOM      6  O   UNL A   1      31.768  27.022  26.722  1.00  0.00    -0.460 OA
BRANCH   6   7
ATOM      7  C   UNL A   1      31.378  26.064  25.871  1.00  0.00     0.338 C 
ATOM      8  O   UNL A   1      30.302  25.522  25.820  1.00  0.00    -0.246 OA
BRANCH   7   9
ATOM      9  C   UNL A   1      32.704  25.621  25.458  1.00  0.00     0.087 C 
ATOM     10  C   UNL A   1      33.182  24.403  26.120  1.00  0.00     0.029 C 
ATOM     11  C   UNL A   1      32.256  25.731  23.598  1.00  0.00     0.316 C 
ATOM     12  C   UNL A   1      33.164  22.747  25.386  1.00  0.00     0.037 A 
ATOM     13  O   UNL A   1      32.070  23.959  22.809  1.00  0.00    -0.474 OA
ATOM     14  C   UNL A   1      33.491  21.639  26.129  1.00  0.00     0.052 A 
ATOM     15  C   UNL A   1      32.558  22.478  23.778  1.00  0.00     0.148 A 
ATOM     16  Cl  UNL A   1      33.996  21.707  27.765  1.00  0.00    -0.084 Cl
ATOM     17  C   UNL A   1      33.325  20.395  25.490  1.00  0.00     0.023 A 
ATOM     18  C   UNL A   1      32.404  21.224  23.248  1.00  0.00     0.083 A 
ATOM     19  C   UNL A   1      32.818  20.202  24.137  1.00  0.00     0.026 A 
ATOM     20  Cl  UNL A   1      31.705  20.841  21.751  1.00  0.00    -0.080 Cl
BRANCH  11  21
ATOM     21  C   UNL A   1      33.330  26.980  23.340  1.00  0.00     0.430 C 
ATOM     22  F   UNL A   1      34.223  26.908  22.355  1.00  0.00    -0.167 F 
ATOM     23  F   UNL A   1      32.581  28.082  23.041  1.00  0.00    -0.167 F 
ATOM     24  F   UNL A   1      34.024  27.335  24.457  1.00  0.00    -0.167 F 
ENDBRANCH  11  21
ENDBRANCH   7   9
ENDBRANCH   6   7
ENDBRANCH   5   6
ENDBRANCH   4   5
ENDBRANCH   3   4
ENDBRANCH   2   3
ENDBRANCH   1   2
BRANCH   1  25
ATOM     25  O   UNL A   1      35.088  33.714  29.314  1.00  0.00    -0.376 OA
BRANCH  25  26
ATOM     26  C   UNL A   1      34.191  34.296  30.243  1.00  0.00     0.202 C 
BRANCH  26  27
ATOM     27  C   UNL A   1      34.424  34.024  31.734  1.00  0.00     0.261 C 
BRANCH  27  28
ATOM     28  O   UNL A   1      34.665  32.638  32.047  1.00  0.00    -0.460 OA
BRANCH  28  29
ATOM     29  C   UNL A   1      35.723  32.370  32.852  1.00  0.00     0.338 C 
ATOM     30  O   UNL A   1      35.875  32.723  34.009  1.00  0.00    -0.246 OA
BRANCH  29  31
ATOM     31  C   UNL A   1      36.636  31.426  32.175  1.00  0.00     0.060 A 
ATOM     32  C   UNL A   1      37.766  30.965  32.868  1.00  0.00     0.016 A 
ATOM     33  C   UNL A   1      36.411  31.048  30.851  1.00  0.00     0.016 A 
ATOM     34  C   UNL A   1      38.684  30.132  32.233  1.00  0.00     0.010 A 
ATOM     35  C   UNL A   1      37.358  30.253  30.198  1.00  0.00     0.010 A 
ATOM     36  C   UNL A   1      38.516  29.832  30.877  1.00  0.00    -0.014 A 
BRANCH  36  37
ATOM     37  C   UNL A   1      39.698  29.372  30.113  1.00  0.00     0.031 A 
ATOM     38  C   UNL A   1      40.845  30.336  29.977  1.00  0.00     0.074 A 
ATOM     39  C   UNL A   1      39.776  28.134  29.594  1.00  0.00     0.049 A 
ATOM     40  N   UNL A   1      42.009  30.170  29.411  1.00  0.00    -0.248 NA
ATOM     41  C   UNL A   1      40.649  31.674  30.566  1.00  0.00     0.031 C 
ATOM     42  C   UNL A   1      38.740  27.109  29.686  1.00  0.00     0.029 A 
ATOM     43  N   UNL A   1      40.782  27.540  28.875  1.00  0.00    -0.354 N 
ATOM     44  C   UNL A   1      42.670  31.385  29.549  1.00  0.00     0.074 A 
ATOM     45  C   UNL A   1      41.776  32.284  30.240  1.00  0.00     0.031 C 
ATOM     46  C   UNL A   1      39.159  26.011  29.030  1.00  0.00     0.029 A 
ATOM     47  C   UNL A   1      40.480  26.266  28.455  1.00  0.00     0.049 A 
ATOM     48  H   UNL A   1      41.638  27.983  28.678  1.00  0.00     0.167 HD
ATOM     49  C   UNL A   1      43.914  31.723  29.139  1.00  0.00     0.034 A 
ATOM     50  C   UNL A   1      41.188  25.418  27.684  1.00  0.00     0.034 A 
ATOM     51  C   UNL A   1      44.792  30.829  28.437  1.00  0.00     0.049 A 
ATOM     52  C   UNL A   1      42.555  25.837  27.200  1.00  0.00     0.074 A 
ATOM     53  C   UNL A   1      46.086  31.055  28.010  1.00  0.00     0.029 A 
ATOM     54  N   UNL A   1      44.448  29.551  28.025  1.00  0.00    -0.354 N 
ATOM     55  N   UNL A   1      43.211  26.949  27.427  1.00  0.00    -0.248 NA
ATOM     56  C   UNL A   1      43.294  24.864  26.381  1.00  0.00     0.031 C 
ATOM     57  C   UNL A   1      46.502  29.939  27.279  1.00  0.00     0.029 A 
ATOM     58  C   UNL A   1      45.497  28.986  27.324  1.00  0.00     0.049 A 
ATOM     59  H   UNL A   1      43.587  29.111  28.206  1.00  0.00     0.167 HD
ATOM     60  C   UNL A   1      44.458  26.789  26.828  1.00  0.00     0.074 A 
ATOM     61  C   UNL A   1      44.465  25.467  26.238  1.00  0.00     0.031 C 
ATOM     62  C   UNL A   1      45.501  27.654  26.772  1.00  0.00     0.034 A 
BRANCH  49  63
ATOM     63  C   UNL A   1      44.378  33.130  29.410  1.00  0.00     0.023 A 
ATOM     64  C   UNL A   1      44.978  33.462  30.643  1.00  0.00     0.012 A 
ATOM     65  C   UNL A   1      44.235  34.122  28.421  1.00  0.00     0.148 A 
ATOM     66  C   UNL A   1      45.387  34.770  30.902  1.00  0.00     0.002 A 
ATOM     67  C   UNL A   1      44.697  35.408  28.665  1.00  0.00     0.091 A 
ATOM     68  F   UNL A   1      43.638  33.793  27.268  1.00  0.00    -0.205 F 
ATOM     69  C   UNL A   1      45.257  35.738  29.909  1.00  0.00     0.022 A 
BRANCH  67  70
ATOM     70  S   UNL A   1      44.650  36.702  27.423  1.00  0.00     0.127 S 
ATOM     71  O   UNL A   1      45.390  37.776  28.086  1.00  0.00    -0.237 OA
ATOM     72  O   UNL A   1      45.354  36.075  26.304  1.00  0.00    -0.237 OA
ATOM     73  O   UNL A   1      43.241  36.979  27.179  1.00  0.00    -0.744 OA
ENDBRANCH  67  70
ENDBRANCH  49  63
BRANCH  50  74
ATOM     74  C   UNL A   1      40.642  24.073  27.342  1.00  0.00     0.023 A 
ATOM     75  C   UNL A   1      41.337  22.913  27.735  1.00  0.00     0.012 A 
ATOM     76  C   UNL A   1      39.446  23.941  26.611  1.00  0.00     0.148 A 
ATOM     77  C   UNL A   1      40.874  21.647  27.371  1.00  0.00     0.002 A 
ATOM     78  C   UNL A   1      38.960  22.677  26.299  1.00  0.00     0.091 A 
ATOM     79  F   UNL A   1      38.806  25.057  26.236  1.00  0.00    -0.205 F 
ATOM     80  C   UNL A   1      39.682  21.529  26.661  1.00  0.00     0.022 A 
BRANCH  78  81
ATOM     81  S   UNL A   1      37.384  22.423  25.478  1.00  0.00     0.127 S 
ATOM     82  O   UNL A   1      36.479  23.203  26.319  1.00  0.00    -0.237 OA
ATOM     83  O   UNL A   1      37.640  22.993  24.155  1.00  0.00    -0.237 OA
ATOM     84  O   UNL A   1      37.159  20.984  25.484  1.00  0.00    -0.744 OA
ENDBRANCH  78  81
ENDBRANCH  50  74
BRANCH  62  85
ATOM     85  C   UNL A   1      46.774  27.177  26.116  1.00  0.00     0.023 A 
ATOM     86  C   UNL A   1      47.639  26.288  26.784  1.00  0.00     0.012 A 
ATOM     87  C   UNL A   1      47.079  27.580  24.801  1.00  0.00     0.148 A 
ATOM     88  C   UNL A   1      48.816  25.853  26.173  1.00  0.00     0.002 A 
ATOM     89  C   UNL A   1      48.219  27.092  24.175  1.00  0.00     0.091 A 
ATOM     90  F   UNL A   1      46.249  28.434  24.183  1.00  0.00    -0.205 F 
ATOM     91  C   UNL A   1      49.099  26.246  24.867  1.00  0.00     0.022 A 
BRANCH  89  92
ATOM     92  S   UNL A   1      48.607  27.460  22.461  1.00  0.00     0.127 S 
ATOM     93  O   UNL A   1      48.622  26.125  21.867  1.00  0.00    -0.237 OA
ATOM     94  O   UNL A   1      47.474  28.294  22.061  1.00  0.00    -0.237 OA
ATOM     95  O   UNL A   1      49.890  28.149  22.474  1.00  0.00    -0.744 OA
ENDBRANCH  89  92
ENDBRANCH  62  85
ENDBRANCH  36  37
ENDBRANCH  29  31
ENDBRANCH  28  29
ENDBRANCH  27  28
ENDBRANCH  26  27
ENDBRANCH  25  26
ENDBRANCH   1  25
TORSDOF 21
ENDMDL
MODEL 2
REMARK VINA RESULT:     -12.0      1.743      2.120
REMARK SMILES O=C(OCCOCCOCCOC(=O)c1ccc(-c2c3nc(c(-c4cccc(S(=O)(=O)[O-])c4F)c4ccc([nH]4)c(-c4cccc(S(=O)(=O)[O-])c4F)c4nc(c(-c5cccc(S(=O)(=O)[O-])c5F)c5ccc2[nH]5)C=C4)C=C3)cc1)C1=Cc2c(Cl)ccc(Cl)c2O[C@@H]1C(F)(F)F
REMARK SMILES IDX 8 1 7 2 6 3 5 4 4 5 3 6 2 7 1 8 78 9 79 10 89 11 80 12 88 13
REMARK SMILES IDX 81 14 87 15 82 16 83 17 85 18 84 19 86 20 90 21 91 22 92 23
REMARK SMILES IDX 93 24 9 25 10 26 11 27 12 28 13 29 14 30 15 31 16 32 77 33
REMARK SMILES IDX 17 34 76 35 18 36 19 37 20 38 70 39 21 40 75 41 69 42 71 43
REMARK SMILES IDX 22 44 74 45 68 46 67 47 23 49 55 50 35 51 54 52 36 53 39 54
REMARK SMILES IDX 53 55 72 56 37 57 38 58 52 60 73 61 40 62 24 63 25 64 33 65
REMARK SMILES IDX 26 66 28 67 34 68 27 69 29 70 30 71 31 72 32 73 56 74 57 75
REMARK SMILES IDX 65 76 58 77 60 78 66 79 59 80 61 81 62 82 63 83 64 84 41 85
REMARK SMILES IDX 42 86 50 87 43 88 45 89 51 90 44 91 46 92 47 93 48 94 49 95
REMARK H PARENT 71 48 39 59
REMARK Flexibility Score: inf
ROOT
ATOM      1  C   UNL A   1      34.461  33.356  28.177  1.00  0.00     0.188 C 
ENDROOT
BRANCH   1   2
ATOM      2  C   UNL A   1      34.334  31.876  27.773  1.00  0.00     0.188 C 
BRANCH   2   3
ATOM      3  O   UNL A   1      33.076  31.105  27.684  1.00  0.00    -0.376 OA
BRANCH   3   4
ATOM      4  C   UNL A   1      32.149  30.713  26.318  1.00  0.00     0.202 C 
BRANCH   4   5
ATOM      5  C   UNL A   1      31.376  28.752  25.806  1.00  0.00     0.261 C 
BRANCH   5   6
ATOM      6  O   UNL A   1      31.798  27.428  26.397  1.00  0.00    -0.460 OA
BRANCH   6   7
ATOM      7  C   UNL A   1      31.420  26.400  25.625  1.00  0.00     0.338 C 
ATOM      8  O   UNL A   1      30.335  25.876  25.582  1.00  0.00    -0.246 OA
BRANCH   7   9
ATOM      9  C   UNL A   1      32.750  25.895  25.310  1.00  0.00     0.087 C 
ATOM     10  C   UNL A   1      33.164  24.719  26.082  1.00  0.00     0.029 C 
ATOM     11  C   UNL A   1      32.392  25.876  23.428  1.00  0.00     0.316 C 
ATOM     12  C   UNL A   1      33.132  23.013  25.472  1.00  0.00     0.037 A 
ATOM     13  O   UNL A   1      32.193  24.055  22.763  1.00  0.00    -0.474 OA
ATOM     14  C   UNL A   1      33.394  21.956  26.309  1.00  0.00     0.052 A 
ATOM     15  C   UNL A   1      32.594  22.639  23.861  1.00  0.00     0.148 A 
ATOM     16  Cl  UNL A   1      33.824  22.134  27.958  1.00  0.00    -0.084 Cl
ATOM     17  C   UNL A   1      33.223  20.672  25.756  1.00  0.00     0.023 A 
ATOM     18  C   UNL A   1      32.430  21.353  23.418  1.00  0.00     0.083 A 
ATOM     19  C   UNL A   1      32.773  20.391  24.398  1.00  0.00     0.026 A 
ATOM     20  Cl  UNL A   1      31.789  20.876  21.922  1.00  0.00    -0.080 Cl
BRANCH  11  21
ATOM     21  C   UNL A   1      33.511  27.076  23.130  1.00  0.00     0.430 C 
ATOM     22  F   UNL A   1      33.920  27.875  24.112  1.00  0.00    -0.167 F 
ATOM     23  F   UNL A   1      34.648  26.450  22.705  1.00  0.00    -0.167 F 
ATOM     24  F   UNL A   1      33.166  27.891  22.095  1.00  0.00    -0.167 F 
ENDBRANCH  11  21
ENDBRANCH   7   9
ENDBRANCH   6   7
ENDBRANCH   5   6
ENDBRANCH   4   5
ENDBRANCH   3   4
ENDBRANCH   2   3
ENDBRANCH   1   2
BRANCH   1  25
ATOM     25  O   UNL A   1      35.035  33.719  29.403  1.00  0.00    -0.376 OA
BRANCH  25  26
ATOM     26  C   UNL A   1      34.164  34.305  30.354  1.00  0.00     0.202 C 
BRANCH  26  27
ATOM     27  C   UNL A   1      34.370  33.951  31.832  1.00  0.00     0.261 C 
BRANCH  27  28
ATOM     28  O   UNL A   1      34.698  32.567  32.063  1.00  0.00    -0.460 OA
BRANCH  28  29
ATOM     29  C   UNL A   1      35.779  32.320  32.845  1.00  0.00     0.338 C 
ATOM     30  O   UNL A   1      35.954  32.686  33.994  1.00  0.00    -0.246 OA
BRANCH  29  31
ATOM     31  C   UNL A   1      36.687  31.380  32.155  1.00  0.00     0.060 A 
ATOM     32  C   UNL A   1      37.811  30.899  32.844  1.00  0.00     0.016 A 
ATOM     33  C   UNL A   1      36.463  31.024  30.825  1.00  0.00     0.016 A 
ATOM     34  C   UNL A   1      38.726  30.071  32.198  1.00  0.00     0.010 A 
ATOM     35  C   UNL A   1      37.405  30.233  30.162  1.00  0.00     0.010 A 
ATOM     36  C   UNL A   1      38.559  29.793  30.837  1.00  0.00    -0.014 A 
BRANCH  36  37
ATOM     37  C   UNL A   1      39.739  29.336  30.069  1.00  0.00     0.031 A 
ATOM     38  C   UNL A   1      40.861  30.321  29.884  1.00  0.00     0.074 A 
ATOM     39  C   UNL A   1      39.838  28.085  29.588  1.00  0.00     0.049 A 
ATOM     40  N   UNL A   1      42.020  30.164  29.305  1.00  0.00    -0.248 NA
ATOM     41  C   UNL A   1      40.643  31.672  30.435  1.00  0.00     0.031 C 
ATOM     42  C   UNL A   1      38.828  27.040  29.727  1.00  0.00     0.029 A 
ATOM     43  N   UNL A   1      40.847  27.491  28.871  1.00  0.00    -0.354 N 
ATOM     44  C   UNL A   1      42.654  31.398  29.395  1.00  0.00     0.074 A 
ATOM     45  C   UNL A   1      41.750  32.297  30.072  1.00  0.00     0.031 C 
ATOM     46  C   UNL A   1      39.262  25.932  29.099  1.00  0.00     0.029 A 
ATOM     47  C   UNL A   1      40.567  26.198  28.496  1.00  0.00     0.049 A 
ATOM     48  H   UNL A   1      41.689  27.947  28.647  1.00  0.00     0.167 HD
ATOM     49  C   UNL A   1      43.884  31.751  28.955  1.00  0.00     0.034 A 
ATOM     50  C   UNL A   1      41.284  25.342  27.741  1.00  0.00     0.034 A 
ATOM     51  C   UNL A   1      44.771  30.856  28.267  1.00  0.00     0.049 A 
ATOM     52  C   UNL A   1      42.633  25.777  27.221  1.00  0.00     0.074 A 
ATOM     53  C   UNL A   1      46.053  31.098  27.813  1.00  0.00     0.029 A 
ATOM     54  N   UNL A   1      44.451  29.557  27.901  1.00  0.00    -0.354 N 
ATOM     55  N   UNL A   1      43.266  26.911  27.404  1.00  0.00    -0.248 NA
ATOM     56  C   UNL A   1      43.382  24.796  26.421  1.00  0.00     0.031 C 
ATOM     57  C   UNL A   1      46.484  29.969  27.110  1.00  0.00     0.029 A 
ATOM     58  C   UNL A   1      45.502  28.995  27.200  1.00  0.00     0.049 A 
ATOM     59  H   UNL A   1      43.603  29.104  28.109  1.00  0.00     0.167 HD
ATOM     60  C   UNL A   1      44.507  26.761  26.790  1.00  0.00     0.074 A 
ATOM     61  C   UNL A   1      44.536  25.421  26.241  1.00  0.00     0.031 C 
ATOM     62  C   UNL A   1      45.529  27.647  26.691  1.00  0.00     0.034 A 
BRANCH  49  63
ATOM     63  C   UNL A   1      44.319  33.176  29.174  1.00  0.00     0.023 A 
ATOM     64  C   UNL A   1      44.071  34.159  28.195  1.00  0.00     0.012 A 
ATOM     65  C   UNL A   1      44.959  33.541  30.374  1.00  0.00     0.148 A 
ATOM     66  C   UNL A   1      44.493  35.475  28.388  1.00  0.00     0.002 A 
ATOM     67  C   UNL A   1      45.325  34.864  30.584  1.00  0.00     0.091 A 
ATOM     68  F   UNL A   1      45.209  32.587  31.281  1.00  0.00    -0.205 F 
ATOM     69  C   UNL A   1      45.109  35.828  29.587  1.00  0.00     0.022 A 
BRANCH  67  70
ATOM     70  S   UNL A   1      46.047  35.432  32.125  1.00  0.00     0.127 S 
ATOM     71  O   UNL A   1      46.837  36.579  31.676  1.00  0.00    -0.237 OA
ATOM     72  O   UNL A   1      44.861  35.777  32.908  1.00  0.00    -0.237 OA
ATOM     73  O   UNL A   1      46.820  34.314  32.647  1.00  0.00    -0.744 OA
ENDBRANCH  67  70
ENDBRANCH  49  63
BRANCH  50  74
ATOM     74  C   UNL A   1      40.764  23.975  27.449  1.00  0.00     0.023 A 
ATOM     75  C   UNL A   1      41.392  22.850  28.017  1.00  0.00     0.012 A 
ATOM     76  C   UNL A   1      39.660  23.787  26.595  1.00  0.00     0.148 A 
ATOM     77  C   UNL A   1      40.959  21.560  27.706  1.00  0.00     0.002 A 
ATOM     78  C   UNL A   1      39.198  22.502  26.334  1.00  0.00     0.091 A 
ATOM     79  F   UNL A   1      39.084  24.869  26.056  1.00  0.00    -0.205 F 
ATOM     80  C   UNL A   1      39.857  21.387  26.874  1.00  0.00     0.022 A 
BRANCH  78  81
ATOM     81  S   UNL A   1      37.726  22.185  25.356  1.00  0.00     0.127 S 
ATOM     82  O   UNL A   1      38.021  20.870  24.791  1.00  0.00    -0.237 OA
ATOM     83  O   UNL A   1      36.679  22.195  26.378  1.00  0.00    -0.237 OA
ATOM     84  O   UNL A   1      37.645  23.275  24.394  1.00  0.00    -0.744 OA
ENDBRANCH  78  81
ENDBRANCH  50  74
BRANCH  62  85
ATOM     85  C   UNL A   1      46.802  27.179  26.030  1.00  0.00     0.023 A 
ATOM     86  C   UNL A   1      47.030  27.411  24.658  1.00  0.00     0.012 A 
ATOM     87  C   UNL A   1      47.802  26.549  26.798  1.00  0.00     0.148 A 
ATOM     88  C   UNL A   1      48.208  26.972  24.053  1.00  0.00     0.002 A 
ATOM     89  C   UNL A   1      48.999  26.173  26.202  1.00  0.00     0.091 A 
ATOM     90  F   UNL A   1      47.565  26.328  28.100  1.00  0.00    -0.205 F 
ATOM     91  C   UNL A   1      49.195  26.365  24.826  1.00  0.00     0.022 A 
BRANCH  89  92
ATOM     92  S   UNL A   1      50.365  25.483  27.141  1.00  0.00     0.127 S 
ATOM     93  O   UNL A   1      51.392  25.344  26.111  1.00  0.00    -0.237 OA
ATOM     94  O   UNL A   1      50.624  26.533  28.126  1.00  0.00    -0.237 OA
ATOM     95  O   UNL A   1      49.878  24.231  27.705  1.00  0.00    -0.744 OA
ENDBRANCH  89  92
ENDBRANCH  62  85
ENDBRANCH  36  37
ENDBRANCH  29  31
ENDBRANCH  28  29
ENDBRANCH  27  28
ENDBRANCH  26  27
ENDBRANCH  25  26
ENDBRANCH   1  25
TORSDOF 21
ENDMDL
MODEL 3
REMARK VINA RESULT:     -11.5      3.225      9.469
REMARK SMILES O=C(OCCOCCOCCOC(=O)c1ccc(-c2c3nc(c(-c4cccc(S(=O)(=O)[O-])c4F)c4ccc([nH]4)c(-c4cccc(S(=O)(=O)[O-])c4F)c4nc(c(-c5cccc(S(=O)(=O)[O-])c5F)c5ccc2[nH]5)C=C4)C=C3)cc1)C1=Cc2c(Cl)ccc(Cl)c2O[C@@H]1C(F)(F)F
REMARK SMILES IDX 8 1 7 2 6 3 5 4 4 5 3 6 2 7 1 8 78 9 79 10 89 11 80 12 88 13
REMARK SMILES IDX 81 14 87 15 82 16 83 17 85 18 84 19 86 20 90 21 91 22 92 23
REMARK SMILES IDX 93 24 9 25 10 26 11 27 12 28 13 29 14 30 15 31 16 32 77 33
REMARK SMILES IDX 17 34 76 35 18 36 19 37 20 38 70 39 21 40 75 41 69 42 71 43
REMARK SMILES IDX 22 44 74 45 68 46 67 47 23 49 55 50 35 51 54 52 36 53 39 54
REMARK SMILES IDX 53 55 72 56 37 57 38 58 52 60 73 61 40 62 24 63 25 64 33 65
REMARK SMILES IDX 26 66 28 67 34 68 27 69 29 70 30 71 31 72 32 73 56 74 57 75
REMARK SMILES IDX 65 76 58 77 60 78 66 79 59 80 61 81 62 82 63 83 64 84 41 85
REMARK SMILES IDX 42 86 50 87 43 88 45 89 51 90 44 91 46 92 47 93 48 94 49 95
REMARK H PARENT 71 48 39 59
REMARK Flexibility Score: inf
ROOT
ATOM      1  C   UNL A   1      42.308  19.392  27.366  1.00  0.00     0.188 C 
ENDROOT
BRANCH   1   2
ATOM      2  C   UNL A   1      40.927  19.943  26.966  1.00  0.00     0.188 C 
BRANCH   2   3
ATOM      3  O   UNL A   1      40.668  21.241  26.309  1.00  0.00    -0.376 OA
BRANCH   3   4
ATOM      4  C   UNL A   1      40.045  22.676  26.969  1.00  0.00     0.202 C 
BRANCH   4   5
ATOM      5  C   UNL A   1      38.209  23.671  26.384  1.00  0.00     0.261 C 
BRANCH   5   6
ATOM      6  O   UNL A   1      36.851  23.037  26.203  1.00  0.00    -0.460 OA
BRANCH   6   7
ATOM      7  C   UNL A   1      36.416  23.152  24.942  1.00  0.00     0.338 C 
ATOM      8  O   UNL A   1      37.071  23.406  23.961  1.00  0.00    -0.246 OA
BRANCH   7   9
ATOM      9  C   UNL A   1      35.004  23.357  25.241  1.00  0.00     0.087 C 
ATOM     10  C   UNL A   1      34.620  24.750  25.485  1.00  0.00     0.029 C 
ATOM     11  C   UNL A   1      34.445  22.335  23.719  1.00  0.00     0.316 C 
ATOM     12  C   UNL A   1      33.803  25.828  24.278  1.00  0.00     0.037 A 
ATOM     13  O   UNL A   1      33.703  23.483  22.330  1.00  0.00    -0.474 OA
ATOM     14  C   UNL A   1      33.613  27.164  24.536  1.00  0.00     0.052 A 
ATOM     15  C   UNL A   1      33.397  25.258  22.686  1.00  0.00     0.148 A 
ATOM     16  Cl  UNL A   1      34.060  27.921  26.007  1.00  0.00    -0.084 Cl
ATOM     17  C   UNL A   1      33.078  27.928  23.480  1.00  0.00     0.023 A 
ATOM     18  C   UNL A   1      32.905  26.084  21.710  1.00  0.00     0.083 A 
ATOM     19  C   UNL A   1      32.743  27.418  22.156  1.00  0.00     0.026 A 
ATOM     20  Cl  UNL A   1      32.601  25.666  20.095  1.00  0.00    -0.080 Cl
BRANCH  11  21
ATOM     21  C   UNL A   1      33.782  21.140  24.675  1.00  0.00     0.430 C 
ATOM     22  F   UNL A   1      32.715  21.395  25.430  1.00  0.00    -0.167 F 
ATOM     23  F   UNL A   1      33.372  20.149  23.830  1.00  0.00    -0.167 F 
ATOM     24  F   UNL A   1      34.690  20.536  25.491  1.00  0.00    -0.167 F 
ENDBRANCH  11  21
ENDBRANCH   7   9
ENDBRANCH   6   7
ENDBRANCH   5   6
ENDBRANCH   4   5
ENDBRANCH   3   4
ENDBRANCH   2   3
ENDBRANCH   1   2
BRANCH   1  25
ATOM     25  O   UNL A   1      42.788  18.193  26.821  1.00  0.00    -0.376 OA
BRANCH  25  26
ATOM     26  C   UNL A   1      43.770  18.314  25.807  1.00  0.00     0.202 C 
BRANCH  26  27
ATOM     27  C   UNL A   1      43.519  19.321  24.679  1.00  0.00     0.261 C 
BRANCH  27  28
ATOM     28  O   UNL A   1      44.678  19.597  23.869  1.00  0.00    -0.460 OA
BRANCH  28  29
ATOM     29  C   UNL A   1      45.729  20.186  24.492  1.00  0.00     0.338 C 
ATOM     30  O   UNL A   1      46.893  19.823  24.473  1.00  0.00    -0.246 OA
BRANCH  29  31
ATOM     31  C   UNL A   1      45.298  21.465  25.093  1.00  0.00     0.060 A 
ATOM     32  C   UNL A   1      44.946  22.525  24.243  1.00  0.00     0.016 A 
ATOM     33  C   UNL A   1      45.298  21.635  26.478  1.00  0.00     0.016 A 
ATOM     34  C   UNL A   1      44.606  23.766  24.777  1.00  0.00     0.010 A 
ATOM     35  C   UNL A   1      45.005  22.893  27.011  1.00  0.00     0.010 A 
ATOM     36  C   UNL A   1      44.702  23.970  26.157  1.00  0.00    -0.014 A 
BRANCH  36  37
ATOM     37  C   UNL A   1      44.809  25.361  26.651  1.00  0.00     0.031 A 
ATOM     38  C   UNL A   1      46.158  26.021  26.558  1.00  0.00     0.074 A 
ATOM     39  C   UNL A   1      43.747  26.035  27.125  1.00  0.00     0.049 A 
ATOM     40  N   UNL A   1      46.513  27.238  26.866  1.00  0.00    -0.248 NA
ATOM     41  C   UNL A   1      47.260  25.187  26.041  1.00  0.00     0.031 C 
ATOM     42  C   UNL A   1      42.390  25.508  27.238  1.00  0.00     0.029 A 
ATOM     43  N   UNL A   1      43.658  27.316  27.610  1.00  0.00    -0.354 N 
ATOM     44  C   UNL A   1      47.877  27.308  26.609  1.00  0.00     0.074 A 
ATOM     45  C   UNL A   1      48.292  26.009  26.132  1.00  0.00     0.031 C 
ATOM     46  C   UNL A   1      41.602  26.457  27.777  1.00  0.00     0.029 A 
ATOM     47  C   UNL A   1      42.404  27.645  28.066  1.00  0.00     0.049 A 
ATOM     48  H   UNL A   1      44.419  27.939  27.630  1.00  0.00     0.167 HD
ATOM     49  C   UNL A   1      48.713  28.361  26.754  1.00  0.00     0.034 A 
ATOM     50  C   UNL A   1      41.968  28.773  28.661  1.00  0.00     0.034 A 
ATOM     51  C   UNL A   1      48.298  29.645  27.246  1.00  0.00     0.049 A 
ATOM     52  C   UNL A   1      42.932  29.918  28.855  1.00  0.00     0.074 A 
ATOM     53  C   UNL A   1      49.053  30.793  27.396  1.00  0.00     0.029 A 
ATOM     54  N   UNL A   1      47.022  29.939  27.703  1.00  0.00    -0.354 N 
ATOM     55  N   UNL A   1      44.194  30.008  28.511  1.00  0.00    -0.248 NA
ATOM     56  C   UNL A   1      42.398  31.133  29.488  1.00  0.00     0.031 C 
ATOM     57  C   UNL A   1      48.252  31.760  28.009  1.00  0.00     0.029 A 
ATOM     58  C   UNL A   1      46.976  31.242  28.162  1.00  0.00     0.049 A 
ATOM     59  H   UNL A   1      46.263  29.313  27.700  1.00  0.00     0.167 HD
ATOM     60  C   UNL A   1      44.589  31.303  28.834  1.00  0.00     0.074 A 
ATOM     61  C   UNL A   1      43.427  31.962  29.391  1.00  0.00     0.031 C 
ATOM     62  C   UNL A   1      45.801  31.894  28.682  1.00  0.00     0.034 A 
BRANCH  49  63
ATOM     63  C   UNL A   1      50.164  28.151  26.412  1.00  0.00     0.023 A 
ATOM     64  C   UNL A   1      51.118  27.943  27.430  1.00  0.00     0.012 A 
ATOM     65  C   UNL A   1      50.577  28.139  25.066  1.00  0.00     0.148 A 
ATOM     66  C   UNL A   1      52.465  27.770  27.115  1.00  0.00     0.002 A 
ATOM     67  C   UNL A   1      51.910  27.909  24.757  1.00  0.00     0.091 A 
ATOM     68  F   UNL A   1      49.660  28.365  24.115  1.00  0.00    -0.205 F 
ATOM     69  C   UNL A   1      52.858  27.742  25.778  1.00  0.00     0.022 A 
BRANCH  67  70
ATOM     70  S   UNL A   1      52.500  27.772  23.067  1.00  0.00     0.127 S 
ATOM     71  O   UNL A   1      53.570  26.785  23.207  1.00  0.00    -0.237 OA
ATOM     72  O   UNL A   1      51.309  27.288  22.368  1.00  0.00    -0.237 OA
ATOM     73  O   UNL A   1      52.934  29.107  22.680  1.00  0.00    -0.744 OA
ENDBRANCH  67  70
ENDBRANCH  49  63
BRANCH  50  74
ATOM     74  C   UNL A   1      40.545  28.899  29.092  1.00  0.00     0.023 A 
ATOM     75  C   UNL A   1      39.544  29.161  28.137  1.00  0.00     0.012 A 
ATOM     76  C   UNL A   1      40.186  28.778  30.448  1.00  0.00     0.148 A 
ATOM     77  C   UNL A   1      38.216  29.343  28.529  1.00  0.00     0.002 A 
ATOM     78  C   UNL A   1      38.854  28.904  30.825  1.00  0.00     0.091 A 
ATOM     79  F   UNL A   1      41.155  28.540  31.342  1.00  0.00    -0.205 F 
ATOM     80  C   UNL A   1      37.870  29.206  29.870  1.00  0.00     0.022 A 
BRANCH  78  81
ATOM     81  S   UNL A   1      38.299  28.645  32.513  1.00  0.00     0.127 S 
ATOM     82  O   UNL A   1      37.028  29.366  32.524  1.00  0.00    -0.237 OA
ATOM     83  O   UNL A   1      38.179  27.187  32.568  1.00  0.00    -0.237 OA
ATOM     84  O   UNL A   1      39.341  29.200  33.365  1.00  0.00    -0.744 OA
ENDBRANCH  78  81
ENDBRANCH  50  74
BRANCH  62  85
ATOM     85  C   UNL A   1      45.921  33.353  29.051  1.00  0.00     0.023 A 
ATOM     86  C   UNL A   1      46.466  33.739  30.292  1.00  0.00     0.012 A 
ATOM     87  C   UNL A   1      45.535  34.344  28.127  1.00  0.00     0.148 A 
ATOM     88  C   UNL A   1      46.572  35.090  30.627  1.00  0.00     0.002 A 
ATOM     89  C   UNL A   1      45.702  35.686  28.443  1.00  0.00     0.091 A 
ATOM     90  F   UNL A   1      45.009  33.959  26.955  1.00  0.00    -0.205 F 
ATOM     91  C   UNL A   1      46.201  36.061  29.700  1.00  0.00     0.022 A 
BRANCH  89  92
ATOM     92  S   UNL A   1      45.352  37.001  27.272  1.00  0.00     0.127 S 
ATOM     93  O   UNL A   1      45.643  38.193  28.066  1.00  0.00    -0.237 OA
ATOM     94  O   UNL A   1      46.315  36.728  26.205  1.00  0.00    -0.237 OA
ATOM     95  O   UNL A   1      43.957  36.838  26.884  1.00  0.00    -0.744 OA
ENDBRANCH  89  92
ENDBRANCH  62  85
ENDBRANCH  36  37
ENDBRANCH  29  31
ENDBRANCH  28  29
ENDBRANCH  27  28
ENDBRANCH  26  27
ENDBRANCH  25  26
ENDBRANCH   1  25
TORSDOF 21
ENDMDL
