MODEL 1
REMARK VINA RESULT:     -10.6      0.000      0.000
REMARK SMILES C[NH+]1CCC([NH+]2CCC(Oc3ccc4ccccc4c3)(C(=O)OCCOCCOCCOC(=O)c3ccc(-c4c5nc(c(-c6cccc(S(=O)(=O)[O-])c6F)c6ccc([nH]6)c(-c6cccc(S(=O)(=O)[O-])c6F)c6nc(c(-c7cccc(S(=O)(=O)[O-])c7F)c7ccc4[nH]7)C=C6)C=C5)cc3)CC2)CC1
REMARK SMILES IDX 28 1 27 2 26 3 25 4 24 5 23 6 21 7 22 8 9 9 6 10 7 11 99 12
REMARK SMILES IDX 8 14 98 15 5 16 1 17 2 18 3 19 101 20 4 22 100 23 10 24
REMARK SMILES IDX 11 25 12 26 20 27 13 28 19 29 14 30 18 31 15 32 17 33 16 34
REMARK SMILES IDX 29 35 30 36 31 37 32 38 33 39 34 40 35 41 36 42 97 43 37 44
REMARK SMILES IDX 96 45 38 46 39 47 40 48 90 49 41 50 95 51 89 52 91 53 42 54
REMARK SMILES IDX 94 55 88 56 87 57 43 59 75 60 55 61 74 62 56 63 59 64 73 65
REMARK SMILES IDX 92 66 57 67 58 68 72 70 93 71 60 72 44 73 45 74 53 75 46 76
REMARK SMILES IDX 48 77 54 78 47 79 49 80 50 81 51 82 52 83 76 84 77 85 85 86
REMARK SMILES IDX 78 87 80 88 86 89 79 90 81 91 82 92 83 93 84 94 61 95 62 96
REMARK SMILES IDX 70 97 63 98 65 99 71 100 64 101 66 102 67 103 68 104 69 105
REMARK H PARENT 6 13 2 21 91 58 59 69
REMARK Flexibility Score: inf
ROOT
ATOM      1  C   UNL A   1      33.429  35.723  29.019  1.00  0.00     0.188 C 
ENDROOT
BRANCH   1   2
ATOM      2  C   UNL A   1      32.904  34.519  28.222  1.00  0.00     0.188 C 
BRANCH   2   3
ATOM      3  O   UNL A   1      33.825  33.535  27.803  1.00  0.00    -0.376 OA
BRANCH   3   4
ATOM      4  C   UNL A   1      33.524  32.173  28.062  1.00  0.00     0.202 C 
BRANCH   4   5
ATOM      5  C   UNL A   1      34.435  31.096  27.457  1.00  0.00     0.261 C 
BRANCH   5   6
ATOM      6  O   UNL A   1      33.787  30.248  26.475  1.00  0.00    -0.460 OA
BRANCH   6   7
ATOM      7  C   UNL A   1      33.598  28.937  26.823  1.00  0.00     0.351 C 
ATOM      8  O   UNL A   1      34.248  28.391  27.713  1.00  0.00    -0.247 OA
BRANCH   7   9
ATOM      9  C   UNL A   1      32.574  28.175  25.938  1.00  0.00     0.216 C 
ATOM     10  N   UNL A   1      33.085  25.345  24.991  1.00  0.00    -0.332 N 
ATOM     11  C   UNL A   1      32.432  25.558  26.288  1.00  0.00     0.267 C 
ATOM     12  C   UNL A   1      33.993  26.461  24.667  1.00  0.00     0.267 C 
ATOM     13  H   UNL A   1      32.337  25.322  24.298  1.00  0.00     0.348 HD
ATOM     14  C   UNL A   1      31.849  26.958  26.546  1.00  0.00     0.122 C 
ATOM     15  C   UNL A   1      33.248  27.801  24.599  1.00  0.00     0.122 C 
BRANCH  10  16
ATOM     16  C   UNL A   1      33.785  24.014  24.877  1.00  0.00     0.195 C 
ATOM     17  C   UNL A   1      36.811  20.906  24.855  1.00  0.00     0.332 C 
ATOM     18  N   UNL A   1      36.090  22.163  25.061  1.00  0.00    -0.337 N 
ATOM     19  C   UNL A   1      34.957  22.022  25.990  1.00  0.00     0.268 C 
ATOM     20  C   UNL A   1      35.619  22.666  23.773  1.00  0.00     0.268 C 
ATOM     21  H   UNL A   1      36.739  22.824  25.486  1.00  0.00     0.347 HD
ATOM     22  C   UNL A   1      34.210  23.366  26.214  1.00  0.00     0.126 C 
ATOM     23  C   UNL A   1      35.023  24.044  23.979  1.00  0.00     0.126 C 
ENDBRANCH  10  16
BRANCH   9  24
ATOM     24  O   UNL A   1      31.649  29.318  25.896  1.00  0.00    -0.475 OA
BRANCH  24  25
ATOM     25  C   UNL A   1      30.891  29.479  24.779  1.00  0.00     0.121 A 
ATOM     26  C   UNL A   1      30.474  28.382  24.038  1.00  0.00     0.047 A 
ATOM     27  C   UNL A   1      30.417  30.754  24.479  1.00  0.00     0.055 A 
ATOM     28  C   UNL A   1      29.681  28.562  22.911  1.00  0.00     0.012 A 
ATOM     29  C   UNL A   1      29.567  30.946  23.379  1.00  0.00    -0.015 A 
ATOM     30  C   UNL A   1      29.222  29.838  22.569  1.00  0.00    -0.018 A 
ATOM     31  C   UNL A   1      29.039  32.208  23.065  1.00  0.00     0.009 A 
ATOM     32  C   UNL A   1      28.401  30.021  21.451  1.00  0.00     0.009 A 
ATOM     33  C   UNL A   1      28.197  32.371  21.964  1.00  0.00     0.001 A 
ATOM     34  C   UNL A   1      27.888  31.282  21.151  1.00  0.00     0.001 A 
ENDBRANCH  24  25
ENDBRANCH   9  24
ENDBRANCH   7   9
ENDBRANCH   6   7
ENDBRANCH   5   6
ENDBRANCH   4   5
ENDBRANCH   3   4
ENDBRANCH   2   3
ENDBRANCH   1   2
BRANCH   1  35
ATOM     35  O   UNL A   1      32.863  36.090  30.260  1.00  0.00    -0.376 OA
BRANCH  35  36
ATOM     36  C   UNL A   1      33.329  35.379  31.399  1.00  0.00     0.202 C 
BRANCH  36  37
ATOM     37  C   UNL A   1      34.770  34.837  31.391  1.00  0.00     0.261 C 
BRANCH  37  38
ATOM     38  O   UNL A   1      34.867  33.420  31.128  1.00  0.00    -0.460 OA
BRANCH  38  39
ATOM     39  C   UNL A   1      35.612  32.740  32.036  1.00  0.00     0.338 C 
ATOM     40  O   UNL A   1      35.171  32.261  33.069  1.00  0.00    -0.246 OA
BRANCH  39  41
ATOM     41  C   UNL A   1      37.019  32.488  31.584  1.00  0.00     0.060 A 
ATOM     42  C   UNL A   1      37.446  32.675  30.270  1.00  0.00     0.016 A 
ATOM     43  C   UNL A   1      37.878  31.817  32.456  1.00  0.00     0.016 A 
ATOM     44  C   UNL A   1      38.590  32.037  29.782  1.00  0.00     0.010 A 
ATOM     45  C   UNL A   1      39.103  31.307  32.001  1.00  0.00     0.010 A 
ATOM     46  C   UNL A   1      39.455  31.362  30.643  1.00  0.00    -0.014 A 
BRANCH  46  47
ATOM     47  C   UNL A   1      40.713  30.727  30.148  1.00  0.00     0.031 A 
ATOM     48  C   UNL A   1      41.978  31.540  30.023  1.00  0.00     0.074 A 
ATOM     49  C   UNL A   1      40.726  29.433  29.764  1.00  0.00     0.049 A 
ATOM     50  N   UNL A   1      43.051  31.299  29.317  1.00  0.00    -0.248 NA
ATOM     51  C   UNL A   1      42.042  32.791  30.798  1.00  0.00     0.031 C 
ATOM     52  C   UNL A   1      39.622  28.483  29.911  1.00  0.00     0.029 A 
ATOM     53  N   UNL A   1      41.701  28.702  29.121  1.00  0.00    -0.354 N 
ATOM     54  C   UNL A   1      43.881  32.402  29.493  1.00  0.00     0.074 A 
ATOM     55  C   UNL A   1      43.207  33.295  30.409  1.00  0.00     0.031 C 
ATOM     56  C   UNL A   1      39.968  27.309  29.368  1.00  0.00     0.029 A 
ATOM     57  C   UNL A   1      41.256  27.465  28.710  1.00  0.00     0.049 A 
ATOM     58  H   UNL A   1      42.618  29.029  28.972  1.00  0.00     0.167 HD
ATOM     59  C   UNL A   1      45.084  32.652  28.921  1.00  0.00     0.034 A 
ATOM     60  C   UNL A   1      41.757  26.592  27.815  1.00  0.00     0.034 A 
ATOM     61  C   UNL A   1      45.755  31.739  28.031  1.00  0.00     0.049 A 
ATOM     62  C   UNL A   1      43.037  26.930  27.111  1.00  0.00     0.074 A 
ATOM     63  C   UNL A   1      46.974  31.895  27.394  1.00  0.00     0.029 A 
ATOM     64  N   UNL A   1      45.260  30.502  27.648  1.00  0.00    -0.354 N 
ATOM     65  N   UNL A   1      43.806  27.981  27.259  1.00  0.00    -0.248 NA
ATOM     66  C   UNL A   1      43.522  25.961  26.120  1.00  0.00     0.031 C 
ATOM     67  C   UNL A   1      47.197  30.769  26.596  1.00  0.00     0.029 A 
ATOM     68  C   UNL A   1      46.139  29.892  26.770  1.00  0.00     0.049 A 
ATOM     69  H   UNL A   1      44.409  30.115  27.954  1.00  0.00     0.167 HD
ATOM     70  C   UNL A   1      44.881  27.787  26.402  1.00  0.00     0.074 A 
ATOM     71  C   UNL A   1      44.672  26.508  25.754  1.00  0.00     0.031 C 
ATOM     72  C   UNL A   1      45.940  28.599  26.166  1.00  0.00     0.034 A 
BRANCH  59  73
ATOM     73  C   UNL A   1      45.745  33.979  29.201  1.00  0.00     0.023 A 
ATOM     74  C   UNL A   1      45.463  35.102  28.400  1.00  0.00     0.012 A 
ATOM     75  C   UNL A   1      46.598  34.124  30.315  1.00  0.00     0.148 A 
ATOM     76  C   UNL A   1      46.038  36.341  28.688  1.00  0.00     0.002 A 
ATOM     77  C   UNL A   1      47.134  35.369  30.621  1.00  0.00     0.091 A 
ATOM     78  F   UNL A   1      46.872  33.039  31.055  1.00  0.00    -0.205 F 
ATOM     79  C   UNL A   1      46.864  36.477  29.803  1.00  0.00     0.022 A 
BRANCH  77  80
ATOM     80  S   UNL A   1      48.146  35.659  32.077  1.00  0.00     0.127 S 
ATOM     81  O   UNL A   1      49.369  34.935  31.734  1.00  0.00    -0.237 OA
ATOM     82  O   UNL A   1      48.279  37.116  32.074  1.00  0.00    -0.237 OA
ATOM     83  O   UNL A   1      47.396  35.118  33.203  1.00  0.00    -0.744 OA
ENDBRANCH  77  80
ENDBRANCH  59  73
BRANCH  60  84
ATOM     84  C   UNL A   1      40.998  25.350  27.491  1.00  0.00     0.023 A 
ATOM     85  C   UNL A   1      39.726  25.446  26.899  1.00  0.00     0.012 A 
ATOM     86  C   UNL A   1      41.558  24.075  27.717  1.00  0.00     0.148 A 
ATOM     87  C   UNL A   1      39.019  24.295  26.550  1.00  0.00     0.002 A 
ATOM     88  C   UNL A   1      40.879  22.936  27.303  1.00  0.00     0.091 A 
ATOM     89  F   UNL A   1      42.761  24.003  28.306  1.00  0.00    -0.205 F 
ATOM     90  C   UNL A   1      39.602  23.042  26.736  1.00  0.00     0.022 A 
BRANCH  88  91
ATOM     91  S   UNL A   1      41.625  21.302  27.360  1.00  0.00     0.127 S 
ATOM     92  O   UNL A   1      42.683  21.490  28.347  1.00  0.00    -0.237 OA
ATOM     93  O   UNL A   1      40.504  20.474  27.806  1.00  0.00    -0.237 OA
ATOM     94  O   UNL A   1      42.067  21.026  26.000  1.00  0.00    -0.744 OA
ENDBRANCH  88  91
ENDBRANCH  60  84
BRANCH  72  95
ATOM     95  C   UNL A   1      46.985  28.108  25.202  1.00  0.00     0.023 A 
ATOM     96  C   UNL A   1      46.758  28.180  23.814  1.00  0.00     0.012 A 
ATOM     97  C   UNL A   1      48.218  27.623  25.679  1.00  0.00     0.148 A 
ATOM     98  C   UNL A   1      47.731  27.744  22.915  1.00  0.00     0.002 A 
ATOM     99  C   UNL A   1      49.202  27.240  24.777  1.00  0.00     0.091 A 
ATOM    100  F   UNL A   1      48.405  27.544  27.004  1.00  0.00    -0.205 F 
ATOM    101  C   UNL A   1      48.956  27.287  23.395  1.00  0.00     0.022 A 
BRANCH  99 102
ATOM    102  S   UNL A   1      50.842  26.729  25.301  1.00  0.00     0.127 S 
ATOM    103  O   UNL A   1      50.565  25.439  25.931  1.00  0.00    -0.237 OA
ATOM    104  O   UNL A   1      51.561  26.646  24.030  1.00  0.00    -0.237 OA
ATOM    105  O   UNL A   1      51.321  27.770  26.200  1.00  0.00    -0.744 OA
ENDBRANCH  99 102
ENDBRANCH  72  95
ENDBRANCH  46  47
ENDBRANCH  39  41
ENDBRANCH  38  39
ENDBRANCH  37  38
ENDBRANCH  36  37
ENDBRANCH  35  36
ENDBRANCH   1  35
TORSDOF 23
ENDMDL
MODEL 2
REMARK VINA RESULT:     -10.5      4.700     10.737
REMARK SMILES C[NH+]1CCC([NH+]2CCC(Oc3ccc4ccccc4c3)(C(=O)OCCOCCOCCOC(=O)c3ccc(-c4c5nc(c(-c6cccc(S(=O)(=O)[O-])c6F)c6ccc([nH]6)c(-c6cccc(S(=O)(=O)[O-])c6F)c6nc(c(-c7cccc(S(=O)(=O)[O-])c7F)c7ccc4[nH]7)C=C6)C=C5)cc3)CC2)CC1
REMARK SMILES IDX 28 1 27 2 26 3 25 4 24 5 23 6 21 7 22 8 9 9 6 10 7 11 99 12
REMARK SMILES IDX 8 14 98 15 5 16 1 17 2 18 3 19 101 20 4 22 100 23 10 24
REMARK SMILES IDX 11 25 12 26 20 27 13 28 19 29 14 30 18 31 15 32 17 33 16 34
REMARK SMILES IDX 29 35 30 36 31 37 32 38 33 39 34 40 35 41 36 42 97 43 37 44
REMARK SMILES IDX 96 45 38 46 39 47 40 48 90 49 41 50 95 51 89 52 91 53 42 54
REMARK SMILES IDX 94 55 88 56 87 57 43 59 75 60 55 61 74 62 56 63 59 64 73 65
REMARK SMILES IDX 92 66 57 67 58 68 72 70 93 71 60 72 44 73 45 74 53 75 46 76
REMARK SMILES IDX 48 77 54 78 47 79 49 80 50 81 51 82 52 83 76 84 77 85 85 86
REMARK SMILES IDX 78 87 80 88 86 89 79 90 81 91 82 92 83 93 84 94 61 95 62 96
REMARK SMILES IDX 70 97 63 98 65 99 71 100 64 101 66 102 67 103 68 104 69 105
REMARK H PARENT 6 13 2 21 91 58 59 69
REMARK Flexibility Score: inf
ROOT
ATOM      1  C   UNL A   1      38.174  21.093  25.658  1.00  0.00     0.188 C 
ENDROOT
BRANCH   1   2
ATOM      2  C   UNL A   1      36.723  21.520  25.390  1.00  0.00     0.188 C 
BRANCH   2   3
ATOM      3  O   UNL A   1      36.363  21.903  24.080  1.00  0.00    -0.376 OA
BRANCH   3   4
ATOM      4  C   UNL A   1      36.488  23.267  23.714  1.00  0.00     0.202 C 
BRANCH   4   5
ATOM      5  C   UNL A   1      35.344  24.226  24.069  1.00  0.00     0.261 C 
BRANCH   5   6
ATOM      6  O   UNL A   1      34.067  23.577  24.292  1.00  0.00    -0.460 OA
BRANCH   6   7
ATOM      7  C   UNL A   1      33.431  23.858  25.472  1.00  0.00     0.351 C 
ATOM      8  O   UNL A   1      34.043  24.090  26.512  1.00  0.00    -0.247 OA
BRANCH   7   9
ATOM      9  C   UNL A   1      31.881  23.761  25.408  1.00  0.00     0.216 C 
ATOM     10  N   UNL A   1      30.214  25.842  23.975  1.00  0.00    -0.332 N 
ATOM     11  C   UNL A   1      30.731  24.696  23.219  1.00  0.00     0.267 C 
ATOM     12  C   UNL A   1      31.111  26.185  25.094  1.00  0.00     0.267 C 
ATOM     13  H   UNL A   1      29.315  25.547  24.355  1.00  0.00     0.348 HD
ATOM     14  C   UNL A   1      31.223  23.492  24.040  1.00  0.00     0.122 C 
ATOM     15  C   UNL A   1      31.272  25.015  26.074  1.00  0.00     0.122 C 
BRANCH  10  16
ATOM     16  C   UNL A   1      29.917  27.047  23.118  1.00  0.00     0.195 C 
ATOM     17  C   UNL A   1      28.898  31.053  21.802  1.00  0.00     0.332 C 
ATOM     18  N   UNL A   1      29.293  29.898  22.609  1.00  0.00    -0.337 N 
ATOM     19  C   UNL A   1      30.600  29.348  22.214  1.00  0.00     0.268 C 
ATOM     20  C   UNL A   1      28.266  28.865  22.506  1.00  0.00     0.268 C 
ATOM     21  H   UNL A   1      29.386  30.213  23.574  1.00  0.00     0.347 HD
ATOM     22  C   UNL A   1      31.015  28.133  23.088  1.00  0.00     0.126 C 
ATOM     23  C   UNL A   1      28.603  27.747  23.474  1.00  0.00     0.126 C 
ENDBRANCH  10  16
BRANCH   9  24
ATOM     24  O   UNL A   1      31.853  22.528  26.209  1.00  0.00    -0.475 OA
BRANCH  24  25
ATOM     25  C   UNL A   1      32.446  21.421  25.689  1.00  0.00     0.121 A 
ATOM     26  C   UNL A   1      33.409  20.726  26.406  1.00  0.00     0.047 A 
ATOM     27  C   UNL A   1      31.959  20.912  24.486  1.00  0.00     0.055 A 
ATOM     28  C   UNL A   1      33.990  19.583  25.869  1.00  0.00     0.012 A 
ATOM     29  C   UNL A   1      32.492  19.727  23.958  1.00  0.00    -0.015 A 
ATOM     30  C   UNL A   1      33.543  19.074  24.646  1.00  0.00    -0.018 A 
ATOM     31  C   UNL A   1      32.004  19.163  22.768  1.00  0.00     0.009 A 
ATOM     32  C   UNL A   1      34.104  17.908  24.114  1.00  0.00     0.009 A 
ATOM     33  C   UNL A   1      32.555  17.984  22.265  1.00  0.00     0.001 A 
ATOM     34  C   UNL A   1      33.611  17.364  22.929  1.00  0.00     0.001 A 
ENDBRANCH  24  25
ENDBRANCH   9  24
ENDBRANCH   7   9
ENDBRANCH   6   7
ENDBRANCH   5   6
ENDBRANCH   4   5
ENDBRANCH   3   4
ENDBRANCH   2   3
ENDBRANCH   1   2
BRANCH   1  35
ATOM     35  O   UNL A   1      39.219  22.039  25.737  1.00  0.00    -0.376 OA
BRANCH  35  36
ATOM     36  C   UNL A   1      40.303  21.710  26.596  1.00  0.00     0.202 C 
BRANCH  36  37
ATOM     37  C   UNL A   1      41.510  20.959  26.005  1.00  0.00     0.261 C 
BRANCH  37  38
ATOM     38  O   UNL A   1      42.789  21.528  26.357  1.00  0.00    -0.460 OA
BRANCH  38  39
ATOM     39  C   UNL A   1      43.039  22.729  25.776  1.00  0.00     0.338 C 
ATOM     40  O   UNL A   1      43.055  22.921  24.570  1.00  0.00    -0.246 OA
BRANCH  39  41
ATOM     41  C   UNL A   1      43.145  23.856  26.758  1.00  0.00     0.060 A 
ATOM     42  C   UNL A   1      42.838  23.723  28.112  1.00  0.00     0.016 A 
ATOM     43  C   UNL A   1      43.331  25.146  26.259  1.00  0.00     0.016 A 
ATOM     44  C   UNL A   1      42.520  24.837  28.896  1.00  0.00     0.010 A 
ATOM     45  C   UNL A   1      43.161  26.265  27.089  1.00  0.00     0.010 A 
ATOM     46  C   UNL A   1      42.700  26.130  28.408  1.00  0.00    -0.014 A 
BRANCH  46  47
ATOM     47  C   UNL A   1      42.423  27.330  29.252  1.00  0.00     0.031 A 
ATOM     48  C   UNL A   1      43.324  27.667  30.415  1.00  0.00     0.074 A 
ATOM     49  C   UNL A   1      41.341  28.103  29.017  1.00  0.00     0.049 A 
ATOM     50  N   UNL A   1      43.089  28.425  31.453  1.00  0.00    -0.248 NA
ATOM     51  C   UNL A   1      44.670  27.069  30.406  1.00  0.00     0.031 C 
ATOM     52  C   UNL A   1      40.428  27.977  27.881  1.00  0.00     0.029 A 
ATOM     53  N   UNL A   1      40.799  29.130  29.759  1.00  0.00    -0.354 N 
ATOM     54  C   UNL A   1      44.217  28.331  32.261  1.00  0.00     0.074 A 
ATOM     55  C   UNL A   1      45.159  27.477  31.572  1.00  0.00     0.031 C 
ATOM     56  C   UNL A   1      39.438  28.871  28.002  1.00  0.00     0.029 A 
ATOM     57  C   UNL A   1      39.568  29.531  29.291  1.00  0.00     0.049 A 
ATOM     58  H   UNL A   1      41.245  29.533  30.539  1.00  0.00     0.167 HD
ATOM     59  C   UNL A   1      44.433  28.890  33.477  1.00  0.00     0.034 A 
ATOM     60  C   UNL A   1      38.590  30.255  29.871  1.00  0.00     0.034 A 
ATOM     61  C   UNL A   1      43.496  29.762  34.138  1.00  0.00     0.049 A 
ATOM     62  C   UNL A   1      38.801  30.780  31.259  1.00  0.00     0.074 A 
ATOM     63  C   UNL A   1      43.614  30.379  35.371  1.00  0.00     0.029 A 
ATOM     64  N   UNL A   1      42.265  30.135  33.621  1.00  0.00    -0.354 N 
ATOM     65  N   UNL A   1      39.856  30.669  32.029  1.00  0.00    -0.248 NA
ATOM     66  C   UNL A   1      37.691  31.532  31.857  1.00  0.00     0.031 C 
ATOM     67  C   UNL A   1      42.437  31.094  35.617  1.00  0.00     0.029 A 
ATOM     68  C   UNL A   1      41.605  30.958  34.517  1.00  0.00     0.049 A 
ATOM     69  H   UNL A   1      41.911  29.855  32.747  1.00  0.00     0.167 HD
ATOM     70  C   UNL A   1      39.549  31.362  33.192  1.00  0.00     0.074 A 
ATOM     71  C   UNL A   1      38.217  31.905  33.015  1.00  0.00     0.031 C 
ATOM     72  C   UNL A   1      40.298  31.526  34.310  1.00  0.00     0.034 A 
BRANCH  59  73
ATOM     73  C   UNL A   1      45.714  28.553  34.199  1.00  0.00     0.023 A 
ATOM     74  C   UNL A   1      46.854  29.365  34.050  1.00  0.00     0.012 A 
ATOM     75  C   UNL A   1      45.758  27.460  35.091  1.00  0.00     0.148 A 
ATOM     76  C   UNL A   1      48.025  29.081  34.755  1.00  0.00     0.002 A 
ATOM     77  C   UNL A   1      46.913  27.208  35.821  1.00  0.00     0.091 A 
ATOM     78  F   UNL A   1      44.669  26.686  35.205  1.00  0.00    -0.205 F 
ATOM     79  C   UNL A   1      48.051  28.010  35.648  1.00  0.00     0.022 A 
BRANCH  77  80
ATOM     80  S   UNL A   1      47.019  25.900  37.048  1.00  0.00     0.127 S 
ATOM     81  O   UNL A   1      45.607  25.597  37.279  1.00  0.00    -0.237 OA
ATOM     82  O   UNL A   1      47.755  24.861  36.329  1.00  0.00    -0.237 OA
ATOM     83  O   UNL A   1      47.728  26.472  38.186  1.00  0.00    -0.744 OA
ENDBRANCH  77  80
ENDBRANCH  59  73
BRANCH  60  84
ATOM     84  C   UNL A   1      37.298  30.456  29.153  1.00  0.00     0.023 A 
ATOM     85  C   UNL A   1      36.543  29.340  28.752  1.00  0.00     0.012 A 
ATOM     86  C   UNL A   1      36.790  31.751  28.919  1.00  0.00     0.148 A 
ATOM     87  C   UNL A   1      35.311  29.509  28.118  1.00  0.00     0.002 A 
ATOM     88  C   UNL A   1      35.532  31.911  28.351  1.00  0.00     0.091 A 
ATOM     89  F   UNL A   1      37.536  32.804  29.286  1.00  0.00    -0.205 F 
ATOM     90  C   UNL A   1      34.799  30.792  27.933  1.00  0.00     0.022 A 
BRANCH  88  91
ATOM     91  S   UNL A   1      34.734  33.516  28.225  1.00  0.00     0.127 S 
ATOM     92  O   UNL A   1      34.859  34.020  29.589  1.00  0.00    -0.237 OA
ATOM     93  O   UNL A   1      35.574  34.194  27.236  1.00  0.00    -0.237 OA
ATOM     94  O   UNL A   1      33.377  33.245  27.770  1.00  0.00    -0.744 OA
ENDBRANCH  88  91
ENDBRANCH  60  84
BRANCH  72  95
ATOM     95  C   UNL A   1      39.718  32.370  35.412  1.00  0.00     0.023 A 
ATOM     96  C   UNL A   1      38.834  31.799  36.350  1.00  0.00     0.012 A 
ATOM     97  C   UNL A   1      40.095  33.720  35.547  1.00  0.00     0.148 A 
ATOM     98  C   UNL A   1      38.309  32.571  37.386  1.00  0.00     0.002 A 
ATOM     99  C   UNL A   1      39.609  34.468  36.611  1.00  0.00     0.091 A 
ATOM    100  F   UNL A   1      40.921  34.247  34.631  1.00  0.00    -0.205 F 
ATOM    101  C   UNL A   1      38.705  33.899  37.523  1.00  0.00     0.022 A 
BRANCH  99 102
ATOM    102  S   UNL A   1      40.137  36.155  36.923  1.00  0.00     0.127 S 
ATOM    103  O   UNL A   1      39.789  36.814  35.665  1.00  0.00    -0.237 OA
ATOM    104  O   UNL A   1      39.302  36.535  38.062  1.00  0.00    -0.237 OA
ATOM    105  O   UNL A   1      41.563  36.084  37.214  1.00  0.00    -0.744 OA
ENDBRANCH  99 102
ENDBRANCH  72  95
ENDBRANCH  46  47
ENDBRANCH  39  41
ENDBRANCH  38  39
ENDBRANCH  37  38
ENDBRANCH  36  37
ENDBRANCH  35  36
ENDBRANCH   1  35
TORSDOF 23
ENDMDL
MODEL 3
REMARK VINA RESULT:     -10.4      4.287     10.578
REMARK SMILES C[NH+]1CCC([NH+]2CCC(Oc3ccc4ccccc4c3)(C(=O)OCCOCCOCCOC(=O)c3ccc(-c4c5nc(c(-c6cccc(S(=O)(=O)[O-])c6F)c6ccc([nH]6)c(-c6cccc(S(=O)(=O)[O-])c6F)c6nc(c(-c7cccc(S(=O)(=O)[O-])c7F)c7ccc4[nH]7)C=C6)C=C5)cc3)CC2)CC1
REMARK SMILES IDX 28 1 27 2 26 3 25 4 24 5 23 6 21 7 22 8 9 9 6 10 7 11 99 12
REMARK SMILES IDX 8 14 98 15 5 16 1 17 2 18 3 19 101 20 4 22 100 23 10 24
REMARK SMILES IDX 11 25 12 26 20 27 13 28 19 29 14 30 18 31 15 32 17 33 16 34
REMARK SMILES IDX 29 35 30 36 31 37 32 38 33 39 34 40 35 41 36 42 97 43 37 44
REMARK SMILES IDX 96 45 38 46 39 47 40 48 90 49 41 50 95 51 89 52 91 53 42 54
REMARK SMILES IDX 94 55 88 56 87 57 43 59 75 60 55 61 74 62 56 63 59 64 73 65
REMARK SMILES IDX 92 66 57 67 58 68 72 70 93 71 60 72 44 73 45 74 53 75 46 76
REMARK SMILES IDX 48 77 54 78 47 79 49 80 50 81 51 82 52 83 76 84 77 85 85 86
REMARK SMILES IDX 78 87 80 88 86 89 79 90 81 91 82 92 83 93 84 94 61 95 62 96
REMARK SMILES IDX 70 97 63 98 65 99 71 100 64 101 66 102 67 103 68 104 69 105
REMARK H PARENT 6 13 2 21 91 58 59 69
REMARK Flexibility Score: inf
ROOT
ATOM      1  C   UNL A   1      38.148  21.131  25.641  1.00  0.00     0.188 C 
ENDROOT
BRANCH   1   2
ATOM      2  C   UNL A   1      36.704  21.585  25.380  1.00  0.00     0.188 C 
BRANCH   2   3
ATOM      3  O   UNL A   1      36.329  21.917  24.060  1.00  0.00    -0.376 OA
BRANCH   3   4
ATOM      4  C   UNL A   1      36.429  23.270  23.648  1.00  0.00     0.202 C 
BRANCH   4   5
ATOM      5  C   UNL A   1      35.267  24.219  23.971  1.00  0.00     0.261 C 
BRANCH   5   6
ATOM      6  O   UNL A   1      34.010  23.552  24.249  1.00  0.00    -0.460 OA
BRANCH   6   7
ATOM      7  C   UNL A   1      33.400  23.859  25.437  1.00  0.00     0.351 C 
ATOM      8  O   UNL A   1      34.036  24.092  26.463  1.00  0.00    -0.247 OA
BRANCH   7   9
ATOM      9  C   UNL A   1      31.848  23.787  25.403  1.00  0.00     0.216 C 
ATOM     10  N   UNL A   1      30.190  25.887  23.986  1.00  0.00    -0.332 N 
ATOM     11  C   UNL A   1      30.673  24.726  23.228  1.00  0.00     0.267 C 
ATOM     12  C   UNL A   1      31.113  26.222  25.086  1.00  0.00     0.267 C 
ATOM     13  H   UNL A   1      29.293  25.610  24.385  1.00  0.00     0.348 HD
ATOM     14  C   UNL A   1      31.160  23.520  24.049  1.00  0.00     0.122 C 
ATOM     15  C   UNL A   1      31.273  25.055  26.071  1.00  0.00     0.122 C 
BRANCH  10  16
ATOM     16  C   UNL A   1      29.897  27.091  23.127  1.00  0.00     0.195 C 
ATOM     17  C   UNL A   1      28.880  31.094  21.800  1.00  0.00     0.332 C 
ATOM     18  N   UNL A   1      29.271  29.939  22.611  1.00  0.00    -0.337 N 
ATOM     19  C   UNL A   1      30.582  29.392  22.226  1.00  0.00     0.268 C 
ATOM     20  C   UNL A   1      28.247  28.904  22.501  1.00  0.00     0.268 C 
ATOM     21  H   UNL A   1      29.356  30.255  23.576  1.00  0.00     0.347 HD
ATOM     22  C   UNL A   1      30.993  28.179  23.104  1.00  0.00     0.126 C 
ATOM     23  C   UNL A   1      28.579  27.788  23.471  1.00  0.00     0.126 C 
ENDBRANCH  10  16
BRANCH   9  24
ATOM     24  O   UNL A   1      31.814  22.560  26.213  1.00  0.00    -0.475 OA
BRANCH  24  25
ATOM     25  C   UNL A   1      32.395  21.445  25.697  1.00  0.00     0.121 A 
ATOM     26  C   UNL A   1      33.331  20.726  26.430  1.00  0.00     0.047 A 
ATOM     27  C   UNL A   1      31.923  20.953  24.482  1.00  0.00     0.055 A 
ATOM     28  C   UNL A   1      33.899  19.575  25.897  1.00  0.00     0.012 A 
ATOM     29  C   UNL A   1      32.443  19.760  23.957  1.00  0.00    -0.015 A 
ATOM     30  C   UNL A   1      33.467  19.082  24.662  1.00  0.00    -0.018 A 
ATOM     31  C   UNL A   1      31.968  19.213  22.755  1.00  0.00     0.009 A 
ATOM     32  C   UNL A   1      34.015  17.908  24.134  1.00  0.00     0.009 A 
ATOM     33  C   UNL A   1      32.505  18.026  22.255  1.00  0.00     0.001 A 
ATOM     34  C   UNL A   1      33.535  17.381  22.936  1.00  0.00     0.001 A 
ENDBRANCH  24  25
ENDBRANCH   9  24
ENDBRANCH   7   9
ENDBRANCH   6   7
ENDBRANCH   5   6
ENDBRANCH   4   5
ENDBRANCH   3   4
ENDBRANCH   2   3
ENDBRANCH   1   2
BRANCH   1  35
ATOM     35  O   UNL A   1      39.208  22.059  25.737  1.00  0.00    -0.376 OA
BRANCH  35  36
ATOM     36  C   UNL A   1      40.268  21.716  26.618  1.00  0.00     0.202 C 
BRANCH  36  37
ATOM     37  C   UNL A   1      41.494  20.983  26.046  1.00  0.00     0.261 C 
BRANCH  37  38
ATOM     38  O   UNL A   1      42.759  21.593  26.383  1.00  0.00    -0.460 OA
BRANCH  38  39
ATOM     39  C   UNL A   1      42.986  22.775  25.755  1.00  0.00     0.338 C 
ATOM     40  O   UNL A   1      42.982  22.924  24.543  1.00  0.00    -0.246 OA
BRANCH  39  41
ATOM     41  C   UNL A   1      43.095  23.938  26.694  1.00  0.00     0.060 A 
ATOM     42  C   UNL A   1      42.803  23.853  28.054  1.00  0.00     0.016 A 
ATOM     43  C   UNL A   1      43.270  25.210  26.146  1.00  0.00     0.016 A 
ATOM     44  C   UNL A   1      42.486  24.993  28.800  1.00  0.00     0.010 A 
ATOM     45  C   UNL A   1      43.102  26.357  26.935  1.00  0.00     0.010 A 
ATOM     46  C   UNL A   1      42.654  26.269  28.263  1.00  0.00    -0.014 A 
BRANCH  46  47
ATOM     47  C   UNL A   1      42.379  27.497  29.065  1.00  0.00     0.031 A 
ATOM     48  C   UNL A   1      43.311  27.902  30.181  1.00  0.00     0.074 A 
ATOM     49  C   UNL A   1      41.273  28.236  28.837  1.00  0.00     0.049 A 
ATOM     50  N   UNL A   1      43.094  28.700  31.194  1.00  0.00    -0.248 NA
ATOM     51  C   UNL A   1      44.670  27.334  30.150  1.00  0.00     0.031 C 
ATOM     52  C   UNL A   1      40.324  28.042  27.739  1.00  0.00     0.029 A 
ATOM     53  N   UNL A   1      40.733  29.282  29.553  1.00  0.00    -0.354 N 
ATOM     54  C   UNL A   1      44.252  28.664  31.965  1.00  0.00     0.074 A 
ATOM     55  C   UNL A   1      45.188  27.801  31.280  1.00  0.00     0.031 C 
ATOM     56  C   UNL A   1      39.319  28.919  27.857  1.00  0.00     0.029 A 
ATOM     57  C   UNL A   1      39.477  29.637  29.113  1.00  0.00     0.049 A 
ATOM     58  H   UNL A   1      41.196  29.727  30.299  1.00  0.00     0.167 HD
ATOM     59  C   UNL A   1      44.496  29.279  33.148  1.00  0.00     0.034 A 
ATOM     60  C   UNL A   1      38.504  30.363  29.695  1.00  0.00     0.034 A 
ATOM     61  C   UNL A   1      43.562  30.158  33.804  1.00  0.00     0.049 A 
ATOM     62  C   UNL A   1      38.750  30.951  31.052  1.00  0.00     0.074 A 
ATOM     63  C   UNL A   1      43.708  30.829  35.006  1.00  0.00     0.029 A 
ATOM     64  N   UNL A   1      42.306  30.482  33.316  1.00  0.00    -0.354 N 
ATOM     65  N   UNL A   1      39.833  30.896  31.789  1.00  0.00    -0.248 NA
ATOM     66  C   UNL A   1      37.644  31.704  31.657  1.00  0.00     0.031 C 
ATOM     67  C   UNL A   1      42.525  31.529  35.262  1.00  0.00     0.029 A 
ATOM     68  C   UNL A   1      41.659  31.329  34.199  1.00  0.00     0.049 A 
ATOM     69  H   UNL A   1      41.929  30.158  32.467  1.00  0.00     0.167 HD
ATOM     70  C   UNL A   1      39.550  31.632  32.931  1.00  0.00     0.074 A 
ATOM     71  C   UNL A   1      38.200  32.138  32.779  1.00  0.00     0.031 C 
ATOM     72  C   UNL A   1      40.332  31.860  34.014  1.00  0.00     0.034 A 
BRANCH  59  73
ATOM     73  C   UNL A   1      45.808  29.000  33.839  1.00  0.00     0.023 A 
ATOM     74  C   UNL A   1      45.965  27.851  34.639  1.00  0.00     0.012 A 
ATOM     75  C   UNL A   1      46.914  29.851  33.630  1.00  0.00     0.148 A 
ATOM     76  C   UNL A   1      47.193  27.568  35.239  1.00  0.00     0.002 A 
ATOM     77  C   UNL A   1      48.144  29.541  34.197  1.00  0.00     0.091 A 
ATOM     78  F   UNL A   1      46.740  30.950  32.883  1.00  0.00    -0.205 F 
ATOM     79  C   UNL A   1      48.283  28.405  35.011  1.00  0.00     0.022 A 
BRANCH  77  80
ATOM     80  S   UNL A   1      49.623  30.516  33.899  1.00  0.00     0.127 S 
ATOM     81  O   UNL A   1      49.455  31.606  34.858  1.00  0.00    -0.237 OA
ATOM     82  O   UNL A   1      50.688  29.570  34.232  1.00  0.00    -0.237 OA
ATOM     83  O   UNL A   1      49.572  30.906  32.496  1.00  0.00    -0.744 OA
ENDBRANCH  77  80
ENDBRANCH  59  73
BRANCH  60  84
ATOM     84  C   UNL A   1      37.183  30.506  29.015  1.00  0.00     0.023 A 
ATOM     85  C   UNL A   1      36.469  29.357  28.632  1.00  0.00     0.012 A 
ATOM     86  C   UNL A   1      36.610  31.776  28.800  1.00  0.00     0.148 A 
ATOM     87  C   UNL A   1      35.214  29.470  28.034  1.00  0.00     0.002 A 
ATOM     88  C   UNL A   1      35.330  31.880  28.269  1.00  0.00     0.091 A 
ATOM     89  F   UNL A   1      37.317  32.862  29.150  1.00  0.00    -0.205 F 
ATOM     90  C   UNL A   1      34.637  30.729  27.868  1.00  0.00     0.022 A 
BRANCH  88  91
ATOM     91  S   UNL A   1      34.455  33.446  28.171  1.00  0.00     0.127 S 
ATOM     92  O   UNL A   1      33.191  33.045  27.563  1.00  0.00    -0.237 OA
ATOM     93  O   UNL A   1      34.368  33.831  29.580  1.00  0.00    -0.237 OA
ATOM     94  O   UNL A   1      35.300  34.317  27.365  1.00  0.00    -0.744 OA
ENDBRANCH  88  91
ENDBRANCH  60  84
BRANCH  72  95
ATOM     95  C   UNL A   1      39.771  32.737  35.100  1.00  0.00     0.023 A 
ATOM     96  C   UNL A   1      39.969  34.131  35.055  1.00  0.00     0.012 A 
ATOM     97  C   UNL A   1      38.999  32.178  36.136  1.00  0.00     0.148 A 
ATOM     98  C   UNL A   1      39.434  34.952  36.048  1.00  0.00     0.002 A 
ATOM     99  C   UNL A   1      38.427  33.007  37.092  1.00  0.00     0.091 A 
ATOM    100  F   UNL A   1      38.841  30.847  36.170  1.00  0.00    -0.205 F 
ATOM    101  C   UNL A   1      38.654  34.393  37.057  1.00  0.00     0.022 A 
BRANCH  99 102
ATOM    102  S   UNL A   1      37.330  32.388  38.372  1.00  0.00     0.127 S 
ATOM    103  O   UNL A   1      37.927  32.960  39.578  1.00  0.00    -0.237 OA
ATOM    104  O   UNL A   1      36.046  32.974  37.989  1.00  0.00    -0.237 OA
ATOM    105  O   UNL A   1      37.384  30.935  38.280  1.00  0.00    -0.744 OA
ENDBRANCH  99 102
ENDBRANCH  72  95
ENDBRANCH  46  47
ENDBRANCH  39  41
ENDBRANCH  38  39
ENDBRANCH  37  38
ENDBRANCH  36  37
ENDBRANCH  35  36
ENDBRANCH   1  35
TORSDOF 23
ENDMDL
