MODEL 1
REMARK VINA RESULT:      -9.5      0.000      0.000
REMARK SMILES O=C(CC1(NC(=O)c2ccc3cc[nH]c3c2)CCC1)OCCOCCOCCOC(=O)c1ccc(-c2c3nc(c(-c4cccc(S(=O)(=O)[O-])c4F)c4ccc([nH]4)c(-c4cccc(S(=O)(=O)[O-])c4F)c4nc(c(-c5cccc(S(=O)(=O)[O-])c5F)c5ccc2[nH]5)C=C4)C=C3)cc1
REMARK SMILES IDX 24 1 23 2 22 3 21 4 20 5 2 6 1 7 3 8 4 9 17 10 19 11 18 12
REMARK SMILES IDX 5 13 6 14 7 16 8 17 9 18 16 19 10 20 15 21 11 22 14 23 12 24
REMARK SMILES IDX 13 25 25 27 26 28 27 29 28 30 29 31 30 32 31 33 32 34 33 35
REMARK SMILES IDX 94 36 34 37 93 38 35 39 36 40 37 41 87 42 38 43 92 44 86 45
REMARK SMILES IDX 88 46 39 47 91 48 85 49 84 50 40 52 72 53 52 54 71 55 53 56
REMARK SMILES IDX 56 57 70 58 89 59 54 60 55 61 69 63 90 64 57 65 41 66 42 67
REMARK SMILES IDX 50 68 43 69 45 70 51 71 44 72 46 73 47 74 48 75 49 76 73 77
REMARK SMILES IDX 74 78 82 79 75 80 77 81 83 82 76 83 78 84 79 85 80 86 81 87
REMARK SMILES IDX 58 88 59 89 67 90 60 91 62 92 68 93 61 94 63 95 64 96 65 97
REMARK SMILES IDX 66 98
REMARK H PARENT 5 15 14 26 88 51 56 62
REMARK Flexibility Score: inf
ROOT
ATOM      1  C   UNL A   1      33.887  20.037  25.148  1.00  0.00     0.188 C 
ENDROOT
BRANCH   1   2
ATOM      2  O   UNL A   1      33.165  21.022  25.886  1.00  0.00    -0.376 OA
BRANCH   2   3
ATOM      3  C   UNL A   1      33.632  21.173  27.230  1.00  0.00     0.202 C 
BRANCH   3   4
ATOM      4  C   UNL A   1      34.166  22.564  27.562  1.00  0.00     0.261 C 
BRANCH   4   5
ATOM      5  O   UNL A   1      34.851  23.324  26.529  1.00  0.00    -0.463 OA
BRANCH   5   6
ATOM      6  C   UNL A   1      34.467  24.189  25.572  1.00  0.00     0.308 C 
ATOM      7  O   UNL A   1      35.342  24.826  24.981  1.00  0.00    -0.252 OA
BRANCH   6   8
ATOM      8  C   UNL A   1      33.026  24.537  25.362  1.00  0.00     0.151 C 
BRANCH   8   9
ATOM      9  C   UNL A   1      32.355  24.572  23.987  1.00  0.00     0.051 C 
ATOM     10  C   UNL A   1      32.072  23.201  23.287  1.00  0.00     0.029 C 
ATOM     11  C   UNL A   1      30.813  24.788  24.037  1.00  0.00     0.029 C 
ATOM     12  C   UNL A   1      30.588  23.556  23.168  1.00  0.00     0.005 C 
BRANCH   9  13
ATOM     13  N   UNL A   1      33.036  25.479  22.993  1.00  0.00    -0.346 N 
ATOM     14  C   UNL A   1      33.321  26.837  22.989  1.00  0.00     0.251 C 
ATOM     15  H   UNL A   1      33.341  25.012  22.183  1.00  0.00     0.164 HD
ATOM     16  O   UNL A   1      33.850  27.328  21.993  1.00  0.00    -0.269 OA
BRANCH  14  17
ATOM     17  C   UNL A   1      32.837  27.722  24.072  1.00  0.00     0.041 A 
ATOM     18  C   UNL A   1      31.611  28.376  24.030  1.00  0.00     0.014 A 
ATOM     19  C   UNL A   1      33.768  28.028  25.068  1.00  0.00     0.040 A 
ATOM     20  C   UNL A   1      31.353  29.455  24.898  1.00  0.00     0.011 A 
ATOM     21  C   UNL A   1      33.522  29.149  25.873  1.00  0.00     0.046 A 
ATOM     22  C   UNL A   1      32.349  29.891  25.794  1.00  0.00    -0.001 A 
ATOM     23  N   UNL A   1      34.310  29.752  26.828  1.00  0.00    -0.361 N 
ATOM     24  C   UNL A   1      32.482  30.978  26.706  1.00  0.00     0.028 A 
ATOM     25  C   UNL A   1      33.715  30.883  27.308  1.00  0.00     0.083 A 
ATOM     26  H   UNL A   1      35.185  29.413  27.124  1.00  0.00     0.166 HD
ENDBRANCH  14  17
ENDBRANCH   9  13
ENDBRANCH   8   9
ENDBRANCH   6   8
ENDBRANCH   5   6
ENDBRANCH   4   5
ENDBRANCH   3   4
ENDBRANCH   2   3
ENDBRANCH   1   2
BRANCH   1  27
ATOM     27  C   UNL A   1      35.206  20.611  24.626  1.00  0.00     0.188 C 
BRANCH  27  28
ATOM     28  O   UNL A   1      36.339  19.728  24.696  1.00  0.00    -0.376 OA
BRANCH  28  29
ATOM     29  C   UNL A   1      37.537  20.264  25.263  1.00  0.00     0.202 C 
BRANCH  29  30
ATOM     30  C   UNL A   1      37.653  21.766  24.892  1.00  0.00     0.261 C 
BRANCH  30  31
ATOM     31  O   UNL A   1      37.984  22.603  26.040  1.00  0.00    -0.460 OA
BRANCH  31  32
ATOM     32  C   UNL A   1      39.304  22.763  26.344  1.00  0.00     0.338 C 
ATOM     33  O   UNL A   1      40.193  21.966  26.063  1.00  0.00    -0.246 OA
BRANCH  32  34
ATOM     34  C   UNL A   1      39.605  24.122  26.894  1.00  0.00     0.060 A 
ATOM     35  C   UNL A   1      40.276  25.018  26.054  1.00  0.00     0.016 A 
ATOM     36  C   UNL A   1      39.263  24.545  28.183  1.00  0.00     0.016 A 
ATOM     37  C   UNL A   1      40.523  26.340  26.450  1.00  0.00     0.010 A 
ATOM     38  C   UNL A   1      39.594  25.855  28.616  1.00  0.00     0.010 A 
ATOM     39  C   UNL A   1      40.224  26.769  27.751  1.00  0.00    -0.014 A 
BRANCH  39  40
ATOM     40  C   UNL A   1      40.828  28.064  28.211  1.00  0.00     0.031 A 
ATOM     41  C   UNL A   1      39.877  29.143  28.672  1.00  0.00     0.074 A 
ATOM     42  C   UNL A   1      42.154  28.291  28.322  1.00  0.00     0.049 A 
ATOM     43  N   UNL A   1      40.130  30.295  29.240  1.00  0.00    -0.248 NA
ATOM     44  C   UNL A   1      38.442  28.868  28.485  1.00  0.00     0.031 C 
ATOM     45  C   UNL A   1      43.207  27.356  27.948  1.00  0.00     0.029 A 
ATOM     46  N   UNL A   1      42.847  29.390  28.790  1.00  0.00    -0.354 N 
ATOM     47  C   UNL A   1      38.891  30.866  29.500  1.00  0.00     0.074 A 
ATOM     48  C   UNL A   1      37.887  29.940  29.026  1.00  0.00     0.031 C 
ATOM     49  C   UNL A   1      44.408  27.914  28.190  1.00  0.00     0.029 A 
ATOM     50  C   UNL A   1      44.218  29.269  28.704  1.00  0.00     0.049 A 
ATOM     51  H   UNL A   1      42.401  30.189  29.153  1.00  0.00     0.167 HD
ATOM     52  C   UNL A   1      38.598  32.055  30.076  1.00  0.00     0.034 A 
ATOM     53  C   UNL A   1      45.205  30.153  28.978  1.00  0.00     0.034 A 
ATOM     54  C   UNL A   1      39.573  33.030  30.477  1.00  0.00     0.049 A 
ATOM     55  C   UNL A   1      44.850  31.518  29.530  1.00  0.00     0.074 A 
ATOM     56  C   UNL A   1      39.359  34.286  31.016  1.00  0.00     0.029 A 
ATOM     57  N   UNL A   1      40.943  32.877  30.349  1.00  0.00    -0.354 N 
ATOM     58  N   UNL A   1      43.675  32.000  29.856  1.00  0.00    -0.248 NA
ATOM     59  C   UNL A   1      45.961  32.452  29.778  1.00  0.00     0.031 C 
ATOM     60  C   UNL A   1      40.602  34.907  31.182  1.00  0.00     0.029 A 
ATOM     61  C   UNL A   1      41.589  34.019  30.789  1.00  0.00     0.049 A 
ATOM     62  H   UNL A   1      41.392  32.074  29.996  1.00  0.00     0.167 HD
ATOM     63  C   UNL A   1      43.909  33.273  30.370  1.00  0.00     0.074 A 
ATOM     64  C   UNL A   1      45.341  33.475  30.347  1.00  0.00     0.031 C 
ATOM     65  C   UNL A   1      43.019  34.200  30.804  1.00  0.00     0.034 A 
BRANCH  52  66
ATOM     66  C   UNL A   1      37.141  32.368  30.285  1.00  0.00     0.023 A 
ATOM     67  C   UNL A   1      36.474  31.847  31.412  1.00  0.00     0.012 A 
ATOM     68  C   UNL A   1      36.441  33.183  29.377  1.00  0.00     0.148 A 
ATOM     69  C   UNL A   1      35.120  32.108  31.616  1.00  0.00     0.002 A 
ATOM     70  C   UNL A   1      35.103  33.475  29.610  1.00  0.00     0.091 A 
ATOM     71  F   UNL A   1      37.091  33.644  28.299  1.00  0.00    -0.205 F 
ATOM     72  C   UNL A   1      34.438  32.928  30.721  1.00  0.00     0.022 A 
BRANCH  70  73
ATOM     73  S   UNL A   1      34.152  34.572  28.555  1.00  0.00     0.127 S 
ATOM     74  O   UNL A   1      34.396  33.994  27.233  1.00  0.00    -0.237 OA
ATOM     75  O   UNL A   1      32.794  34.380  29.062  1.00  0.00    -0.237 OA
ATOM     76  O   UNL A   1      34.700  35.905  28.757  1.00  0.00    -0.744 OA
ENDBRANCH  70  73
ENDBRANCH  52  66
BRANCH  53  77
ATOM     77  C   UNL A   1      46.641  29.813  28.717  1.00  0.00     0.023 A 
ATOM     78  C   UNL A   1      47.223  30.077  27.460  1.00  0.00     0.012 A 
ATOM     79  C   UNL A   1      47.420  29.166  29.700  1.00  0.00     0.148 A 
ATOM     80  C   UNL A   1      48.528  29.665  27.172  1.00  0.00     0.002 A 
ATOM     81  C   UNL A   1      48.739  28.819  29.430  1.00  0.00     0.091 A 
ATOM     82  F   UNL A   1      46.848  28.888  30.880  1.00  0.00    -0.205 F 
ATOM     83  C   UNL A   1      49.289  29.046  28.159  1.00  0.00     0.022 A 
BRANCH  81  84
ATOM     84  S   UNL A   1      49.831  28.139  30.683  1.00  0.00     0.127 S 
ATOM     85  O   UNL A   1      49.766  29.159  31.727  1.00  0.00    -0.237 OA
ATOM     86  O   UNL A   1      49.164  26.878  31.010  1.00  0.00    -0.237 OA
ATOM     87  O   UNL A   1      51.124  27.979  30.032  1.00  0.00    -0.744 OA
ENDBRANCH  81  84
ENDBRANCH  53  77
BRANCH  65  88
ATOM     88  C   UNL A   1      43.558  35.508  31.329  1.00  0.00     0.023 A 
ATOM     89  C   UNL A   1      43.939  35.625  32.681  1.00  0.00     0.012 A 
ATOM     90  C   UNL A   1      43.740  36.608  30.467  1.00  0.00     0.148 A 
ATOM     91  C   UNL A   1      44.445  36.827  33.177  1.00  0.00     0.002 A 
ATOM     92  C   UNL A   1      44.295  37.787  30.955  1.00  0.00     0.091 A 
ATOM     93  F   UNL A   1      43.361  36.488  29.187  1.00  0.00    -0.205 F 
ATOM     94  C   UNL A   1      44.632  37.903  32.313  1.00  0.00     0.022 A 
BRANCH  92  95
ATOM     95  S   UNL A   1      44.665  39.187  29.893  1.00  0.00     0.127 S 
ATOM     96  O   UNL A   1      45.034  40.212  30.870  1.00  0.00    -0.237 OA
ATOM     97  O   UNL A   1      45.779  38.683  29.089  1.00  0.00    -0.237 OA
ATOM     98  O   UNL A   1      43.447  39.451  29.139  1.00  0.00    -0.744 OA
ENDBRANCH  92  95
ENDBRANCH  65  88
ENDBRANCH  39  40
ENDBRANCH  32  34
ENDBRANCH  31  32
ENDBRANCH  30  31
ENDBRANCH  29  30
ENDBRANCH  28  29
ENDBRANCH  27  28
ENDBRANCH   1  27
TORSDOF 23
ENDMDL
MODEL 2
REMARK VINA RESULT:      -8.7      3.323      4.112
REMARK SMILES O=C(CC1(NC(=O)c2ccc3cc[nH]c3c2)CCC1)OCCOCCOCCOC(=O)c1ccc(-c2c3nc(c(-c4cccc(S(=O)(=O)[O-])c4F)c4ccc([nH]4)c(-c4cccc(S(=O)(=O)[O-])c4F)c4nc(c(-c5cccc(S(=O)(=O)[O-])c5F)c5ccc2[nH]5)C=C4)C=C3)cc1
REMARK SMILES IDX 24 1 23 2 22 3 21 4 20 5 2 6 1 7 3 8 4 9 17 10 19 11 18 12
REMARK SMILES IDX 5 13 6 14 7 16 8 17 9 18 16 19 10 20 15 21 11 22 14 23 12 24
REMARK SMILES IDX 13 25 25 27 26 28 27 29 28 30 29 31 30 32 31 33 32 34 33 35
REMARK SMILES IDX 94 36 34 37 93 38 35 39 36 40 37 41 87 42 38 43 92 44 86 45
REMARK SMILES IDX 88 46 39 47 91 48 85 49 84 50 40 52 72 53 52 54 71 55 53 56
REMARK SMILES IDX 56 57 70 58 89 59 54 60 55 61 69 63 90 64 57 65 41 66 42 67
REMARK SMILES IDX 50 68 43 69 45 70 51 71 44 72 46 73 47 74 48 75 49 76 73 77
REMARK SMILES IDX 74 78 82 79 75 80 77 81 83 82 76 83 78 84 79 85 80 86 81 87
REMARK SMILES IDX 58 88 59 89 67 90 60 91 62 92 68 93 61 94 63 95 64 96 65 97
REMARK SMILES IDX 66 98
REMARK H PARENT 5 15 14 26 88 51 56 62
REMARK Flexibility Score: inf
ROOT
ATOM      1  C   UNL A   1      33.850  19.618  24.943  1.00  0.00     0.188 C 
ENDROOT
BRANCH   1   2
ATOM      2  O   UNL A   1      32.823  19.642  23.952  1.00  0.00    -0.376 OA
BRANCH   2   3
ATOM      3  C   UNL A   1      32.196  20.921  23.822  1.00  0.00     0.202 C 
BRANCH   3   4
ATOM      4  C   UNL A   1      32.202  21.489  22.405  1.00  0.00     0.261 C 
BRANCH   4   5
ATOM      5  O   UNL A   1      32.735  22.822  22.179  1.00  0.00    -0.463 OA
BRANCH   5   6
ATOM      6  C   UNL A   1      32.917  23.915  22.943  1.00  0.00     0.308 C 
ATOM      7  O   UNL A   1      34.000  24.499  22.873  1.00  0.00    -0.252 OA
BRANCH   6   8
ATOM      8  C   UNL A   1      31.931  24.306  24.000  1.00  0.00     0.151 C 
BRANCH   8   9
ATOM      9  C   UNL A   1      31.695  25.750  24.447  1.00  0.00     0.051 C 
ATOM     10  C   UNL A   1      30.275  26.114  24.997  1.00  0.00     0.029 C 
ATOM     11  C   UNL A   1      32.254  26.077  25.864  1.00  0.00     0.029 C 
ATOM     12  C   UNL A   1      30.898  26.624  26.298  1.00  0.00     0.005 C 
BRANCH   9  13
ATOM     13  N   UNL A   1      32.083  26.782  23.419  1.00  0.00    -0.346 N 
ATOM     14  C   UNL A   1      32.567  28.080  23.512  1.00  0.00     0.251 C 
ATOM     15  H   UNL A   1      31.971  26.472  22.492  1.00  0.00     0.164 HD
ATOM     16  O   UNL A   1      32.747  28.721  22.478  1.00  0.00    -0.269 OA
BRANCH  14  17
ATOM     17  C   UNL A   1      32.691  28.756  24.823  1.00  0.00     0.041 A 
ATOM     18  C   UNL A   1      31.726  29.619  25.329  1.00  0.00     0.014 A 
ATOM     19  C   UNL A   1      33.931  28.634  25.454  1.00  0.00     0.040 A 
ATOM     20  C   UNL A   1      32.040  30.489  26.392  1.00  0.00     0.011 A 
ATOM     21  C   UNL A   1      34.248  29.556  26.462  1.00  0.00     0.046 A 
ATOM     22  C   UNL A   1      33.343  30.502  26.928  1.00  0.00    -0.001 A 
ATOM     23  N   UNL A   1      35.422  29.754  27.154  1.00  0.00    -0.361 N 
ATOM     24  C   UNL A   1      34.030  31.295  27.893  1.00  0.00     0.028 A 
ATOM     25  C   UNL A   1      35.320  30.828  27.990  1.00  0.00     0.083 A 
ATOM     26  H   UNL A   1      36.227  29.195  27.058  1.00  0.00     0.166 HD
ENDBRANCH  14  17
ENDBRANCH   9  13
ENDBRANCH   8   9
ENDBRANCH   6   8
ENDBRANCH   5   6
ENDBRANCH   4   5
ENDBRANCH   3   4
ENDBRANCH   2   3
ENDBRANCH   1   2
BRANCH   1  27
ATOM     27  C   UNL A   1      34.960  20.613  24.597  1.00  0.00     0.188 C 
BRANCH  27  28
ATOM     28  O   UNL A   1      34.900  21.874  25.285  1.00  0.00    -0.376 OA
BRANCH  28  29
ATOM     29  C   UNL A   1      36.116  22.343  25.875  1.00  0.00     0.202 C 
BRANCH  29  30
ATOM     30  C   UNL A   1      37.215  21.259  25.715  1.00  0.00     0.261 C 
BRANCH  30  31
ATOM     31  O   UNL A   1      38.540  21.831  25.498  1.00  0.00    -0.460 OA
BRANCH  31  32
ATOM     32  C   UNL A   1      39.497  21.574  26.435  1.00  0.00     0.338 C 
ATOM     33  O   UNL A   1      39.856  20.456  26.787  1.00  0.00    -0.246 OA
BRANCH  32  34
ATOM     34  C   UNL A   1      40.224  22.811  26.864  1.00  0.00     0.060 A 
ATOM     35  C   UNL A   1      40.045  23.961  26.085  1.00  0.00     0.016 A 
ATOM     36  C   UNL A   1      41.065  22.884  27.979  1.00  0.00     0.016 A 
ATOM     37  C   UNL A   1      40.616  25.186  26.458  1.00  0.00     0.010 A 
ATOM     38  C   UNL A   1      41.714  24.104  28.305  1.00  0.00     0.010 A 
ATOM     39  C   UNL A   1      41.492  25.270  27.549  1.00  0.00    -0.014 A 
BRANCH  39  40
ATOM     40  C   UNL A   1      42.328  26.510  27.674  1.00  0.00     0.031 A 
ATOM     41  C   UNL A   1      41.697  27.702  28.355  1.00  0.00     0.074 A 
ATOM     42  C   UNL A   1      43.623  26.599  27.301  1.00  0.00     0.049 A 
ATOM     43  N   UNL A   1      42.232  28.841  28.712  1.00  0.00    -0.248 NA
ATOM     44  C   UNL A   1      40.271  27.574  28.698  1.00  0.00     0.031 C 
ATOM     45  C   UNL A   1      44.391  25.544  26.656  1.00  0.00     0.029 A 
ATOM     46  N   UNL A   1      44.528  27.635  27.416  1.00  0.00    -0.354 N 
ATOM     47  C   UNL A   1      41.218  29.551  29.343  1.00  0.00     0.074 A 
ATOM     48  C   UNL A   1      40.036  28.720  29.317  1.00  0.00     0.031 C 
ATOM     49  C   UNL A   1      45.644  25.979  26.424  1.00  0.00     0.029 A 
ATOM     50  C   UNL A   1      45.765  27.366  26.869  1.00  0.00     0.049 A 
ATOM     51  H   UNL A   1      44.309  28.491  27.851  1.00  0.00     0.167 HD
ATOM     52  C   UNL A   1      41.251  30.787  29.895  1.00  0.00     0.034 A 
ATOM     53  C   UNL A   1      46.857  28.150  26.718  1.00  0.00     0.034 A 
ATOM     54  C   UNL A   1      42.384  31.666  29.860  1.00  0.00     0.049 A 
ATOM     55  C   UNL A   1      46.838  29.566  27.256  1.00  0.00     0.074 A 
ATOM     56  C   UNL A   1      42.483  32.959  30.345  1.00  0.00     0.029 A 
ATOM     57  N   UNL A   1      43.603  31.364  29.276  1.00  0.00    -0.354 N 
ATOM     58  N   UNL A   1      45.899  30.182  27.933  1.00  0.00    -0.248 NA
ATOM     59  C   UNL A   1      48.041  30.384  27.033  1.00  0.00     0.031 C 
ATOM     60  C   UNL A   1      43.753  33.450  30.023  1.00  0.00     0.029 A 
ATOM     61  C   UNL A   1      44.458  32.447  29.379  1.00  0.00     0.049 A 
ATOM     62  H   UNL A   1      43.827  30.505  28.851  1.00  0.00     0.167 HD
ATOM     63  C   UNL A   1      46.408  31.442  28.238  1.00  0.00     0.074 A 
ATOM     64  C   UNL A   1      47.752  31.490  27.705  1.00  0.00     0.031 C 
ATOM     65  C   UNL A   1      45.811  32.475  28.884  1.00  0.00     0.034 A 
BRANCH  52  66
ATOM     66  C   UNL A   1      39.994  31.261  30.572  1.00  0.00     0.023 A 
ATOM     67  C   UNL A   1      38.966  31.841  29.801  1.00  0.00     0.012 A 
ATOM     68  C   UNL A   1      39.826  31.122  31.962  1.00  0.00     0.148 A 
ATOM     69  C   UNL A   1      37.801  32.304  30.409  1.00  0.00     0.002 A 
ATOM     70  C   UNL A   1      38.644  31.546  32.555  1.00  0.00     0.091 A 
ATOM     71  F   UNL A   1      40.829  30.592  32.676  1.00  0.00    -0.205 F 
ATOM     72  C   UNL A   1      37.636  32.149  31.782  1.00  0.00     0.022 A 
BRANCH  70  73
ATOM     73  S   UNL A   1      38.306  31.333  34.305  1.00  0.00     0.127 S 
ATOM     74  O   UNL A   1      38.323  29.876  34.433  1.00  0.00    -0.237 OA
ATOM     75  O   UNL A   1      39.446  32.012  34.919  1.00  0.00    -0.237 OA
ATOM     76  O   UNL A   1      37.015  31.960  34.548  1.00  0.00    -0.744 OA
ENDBRANCH  70  73
ENDBRANCH  52  66
BRANCH  53  77
ATOM     77  C   UNL A   1      48.074  27.648  26.002  1.00  0.00     0.023 A 
ATOM     78  C   UNL A   1      49.168  27.129  26.725  1.00  0.00     0.012 A 
ATOM     79  C   UNL A   1      48.176  27.742  24.598  1.00  0.00     0.148 A 
ATOM     80  C   UNL A   1      50.348  26.759  26.074  1.00  0.00     0.002 A 
ATOM     81  C   UNL A   1      49.328  27.311  23.949  1.00  0.00     0.091 A 
ATOM     82  F   UNL A   1      47.146  28.270  23.922  1.00  0.00    -0.205 F 
ATOM     83  C   UNL A   1      50.425  26.840  24.687  1.00  0.00     0.022 A 
BRANCH  81  84
ATOM     84  S   UNL A   1      49.462  27.257  22.159  1.00  0.00     0.127 S 
ATOM     85  O   UNL A   1      48.458  26.255  21.811  1.00  0.00    -0.237 OA
ATOM     86  O   UNL A   1      49.117  28.630  21.791  1.00  0.00    -0.237 OA
ATOM     87  O   UNL A   1      50.844  26.892  21.880  1.00  0.00    -0.744 OA
ENDBRANCH  81  84
ENDBRANCH  53  77
BRANCH  65  88
ATOM     88  C   UNL A   1      46.612  33.738  29.091  1.00  0.00     0.023 A 
ATOM     89  C   UNL A   1      47.413  33.888  30.241  1.00  0.00     0.012 A 
ATOM     90  C   UNL A   1      46.613  34.756  28.116  1.00  0.00     0.148 A 
ATOM     91  C   UNL A   1      48.162  35.048  30.440  1.00  0.00     0.002 A 
ATOM     92  C   UNL A   1      47.403  35.886  28.295  1.00  0.00     0.091 A 
ATOM     93  F   UNL A   1      45.836  34.606  27.034  1.00  0.00    -0.205 F 
ATOM     94  C   UNL A   1      48.165  36.041  29.464  1.00  0.00     0.022 A 
BRANCH  92  95
ATOM     95  S   UNL A   1      47.547  37.167  27.045  1.00  0.00     0.127 S 
ATOM     96  O   UNL A   1      48.320  38.188  27.752  1.00  0.00    -0.237 OA
ATOM     97  O   UNL A   1      48.277  36.481  25.978  1.00  0.00    -0.237 OA
ATOM     98  O   UNL A   1      46.183  37.543  26.698  1.00  0.00    -0.744 OA
ENDBRANCH  92  95
ENDBRANCH  65  88
ENDBRANCH  39  40
ENDBRANCH  32  34
ENDBRANCH  31  32
ENDBRANCH  30  31
ENDBRANCH  29  30
ENDBRANCH  28  29
ENDBRANCH  27  28
ENDBRANCH   1  27
TORSDOF 23
ENDMDL
MODEL 3
REMARK VINA RESULT:      -8.3      2.989      4.262
REMARK SMILES O=C(CC1(NC(=O)c2ccc3cc[nH]c3c2)CCC1)OCCOCCOCCOC(=O)c1ccc(-c2c3nc(c(-c4cccc(S(=O)(=O)[O-])c4F)c4ccc([nH]4)c(-c4cccc(S(=O)(=O)[O-])c4F)c4nc(c(-c5cccc(S(=O)(=O)[O-])c5F)c5ccc2[nH]5)C=C4)C=C3)cc1
REMARK SMILES IDX 24 1 23 2 22 3 21 4 20 5 2 6 1 7 3 8 4 9 17 10 19 11 18 12
REMARK SMILES IDX 5 13 6 14 7 16 8 17 9 18 16 19 10 20 15 21 11 22 14 23 12 24
REMARK SMILES IDX 13 25 25 27 26 28 27 29 28 30 29 31 30 32 31 33 32 34 33 35
REMARK SMILES IDX 94 36 34 37 93 38 35 39 36 40 37 41 87 42 38 43 92 44 86 45
REMARK SMILES IDX 88 46 39 47 91 48 85 49 84 50 40 52 72 53 52 54 71 55 53 56
REMARK SMILES IDX 56 57 70 58 89 59 54 60 55 61 69 63 90 64 57 65 41 66 42 67
REMARK SMILES IDX 50 68 43 69 45 70 51 71 44 72 46 73 47 74 48 75 49 76 73 77
REMARK SMILES IDX 74 78 82 79 75 80 77 81 83 82 76 83 78 84 79 85 80 86 81 87
REMARK SMILES IDX 58 88 59 89 67 90 60 91 62 92 68 93 61 94 63 95 64 96 65 97
REMARK SMILES IDX 66 98
REMARK H PARENT 5 15 14 26 88 51 56 62
REMARK Flexibility Score: inf
ROOT
ATOM      1  C   UNL A   1      40.834  24.368  27.183  1.00  0.00     0.188 C 
ENDROOT
BRANCH   1   2
ATOM      2  O   UNL A   1      39.442  24.230  27.463  1.00  0.00    -0.376 OA
BRANCH   2   3
ATOM      3  C   UNL A   1      38.800  23.237  26.657  1.00  0.00     0.202 C 
BRANCH   3   4
ATOM      4  C   UNL A   1      37.479  23.682  26.035  1.00  0.00     0.261 C 
BRANCH   4   5
ATOM      5  O   UNL A   1      37.085  23.136  24.747  1.00  0.00    -0.463 OA
BRANCH   5   6
ATOM      6  C   UNL A   1      35.973  23.189  23.991  1.00  0.00     0.308 C 
ATOM      7  O   UNL A   1      36.104  23.245  22.767  1.00  0.00    -0.252 OA
BRANCH   6   8
ATOM      8  C   UNL A   1      34.619  23.388  24.600  1.00  0.00     0.151 C 
BRANCH   8   9
ATOM      9  C   UNL A   1      33.361  23.697  23.787  1.00  0.00     0.051 C 
ATOM     10  C   UNL A   1      32.488  22.485  23.317  1.00  0.00     0.029 C 
ATOM     11  C   UNL A   1      32.144  24.153  24.646  1.00  0.00     0.029 C 
ATOM     12  C   UNL A   1      31.261  23.088  24.005  1.00  0.00     0.005 C 
BRANCH   9  13
ATOM     13  N   UNL A   1      33.601  24.595  22.600  1.00  0.00    -0.346 N 
ATOM     14  C   UNL A   1      33.420  25.954  22.386  1.00  0.00     0.251 C 
ATOM     15  H   UNL A   1      33.961  24.120  21.817  1.00  0.00     0.164 HD
ATOM     16  O   UNL A   1      33.655  26.415  21.270  1.00  0.00    -0.269 OA
BRANCH  14  17
ATOM     17  C   UNL A   1      32.781  26.810  23.411  1.00  0.00     0.041 A 
ATOM     18  C   UNL A   1      31.432  27.144  23.390  1.00  0.00     0.014 A 
ATOM     19  C   UNL A   1      33.650  27.433  24.309  1.00  0.00     0.040 A 
ATOM     20  C   UNL A   1      30.955  28.218  24.168  1.00  0.00     0.011 A 
ATOM     21  C   UNL A   1      33.173  28.543  25.021  1.00  0.00     0.046 A 
ATOM     22  C   UNL A   1      31.853  28.971  24.950  1.00  0.00    -0.001 A 
ATOM     23  N   UNL A   1      33.829  29.415  25.860  1.00  0.00    -0.361 N 
ATOM     24  C   UNL A   1      31.754  30.151  25.746  1.00  0.00     0.028 A 
ATOM     25  C   UNL A   1      32.998  30.416  26.271  1.00  0.00     0.083 A 
ATOM     26  H   UNL A   1      34.773  29.328  26.128  1.00  0.00     0.166 HD
ENDBRANCH  14  17
ENDBRANCH   9  13
ENDBRANCH   8   9
ENDBRANCH   6   8
ENDBRANCH   5   6
ENDBRANCH   4   5
ENDBRANCH   3   4
ENDBRANCH   2   3
ENDBRANCH   1   2
BRANCH   1  27
ATOM     27  C   UNL A   1      41.281  23.339  26.142  1.00  0.00     0.188 C 
BRANCH  27  28
ATOM     28  O   UNL A   1      42.683  23.019  26.148  1.00  0.00    -0.376 OA
BRANCH  28  29
ATOM     29  C   UNL A   1      43.034  21.668  26.456  1.00  0.00     0.202 C 
BRANCH  29  30
ATOM     30  C   UNL A   1      44.113  21.177  25.455  1.00  0.00     0.261 C 
BRANCH  30  31
ATOM     31  O   UNL A   1      45.467  21.524  25.874  1.00  0.00    -0.460 OA
BRANCH  31  32
ATOM     32  C   UNL A   1      46.057  22.597  25.274  1.00  0.00     0.338 C 
ATOM     33  O   UNL A   1      46.607  22.576  24.178  1.00  0.00    -0.246 OA
BRANCH  32  34
ATOM     34  C   UNL A   1      45.797  23.877  26.004  1.00  0.00     0.060 A 
ATOM     35  C   UNL A   1      45.406  24.982  25.238  1.00  0.00     0.016 A 
ATOM     36  C   UNL A   1      45.923  24.035  27.388  1.00  0.00     0.016 A 
ATOM     37  C   UNL A   1      45.057  26.198  25.843  1.00  0.00     0.010 A 
ATOM     38  C   UNL A   1      45.656  25.292  27.990  1.00  0.00     0.010 A 
ATOM     39  C   UNL A   1      45.215  26.387  27.224  1.00  0.00    -0.014 A 
BRANCH  39  40
ATOM     40  C   UNL A   1      45.163  27.795  27.742  1.00  0.00     0.031 A 
ATOM     41  C   UNL A   1      43.834  28.288  28.264  1.00  0.00     0.074 A 
ATOM     42  C   UNL A   1      46.235  28.608  27.853  1.00  0.00     0.049 A 
ATOM     43  N   UNL A   1      43.541  29.402  28.885  1.00  0.00    -0.248 NA
ATOM     44  C   UNL A   1      42.686  27.386  28.076  1.00  0.00     0.031 C 
ATOM     45  C   UNL A   1      47.589  28.285  27.425  1.00  0.00     0.029 A 
ATOM     46  N   UNL A   1      46.353  29.883  28.369  1.00  0.00    -0.354 N 
ATOM     47  C   UNL A   1      42.186  29.321  29.184  1.00  0.00     0.074 A 
ATOM     48  C   UNL A   1      41.713  28.054  28.673  1.00  0.00     0.031 C 
ATOM     49  C   UNL A   1      48.402  29.328  27.684  1.00  0.00     0.029 A 
ATOM     50  C   UNL A   1      47.620  30.418  28.265  1.00  0.00     0.049 A 
ATOM     51  H   UNL A   1      45.598  30.368  28.774  1.00  0.00     0.167 HD
ATOM     52  C   UNL A   1      41.393  30.214  29.820  1.00  0.00     0.034 A 
ATOM     53  C   UNL A   1      48.091  31.647  28.575  1.00  0.00     0.034 A 
ATOM     54  C   UNL A   1      41.816  31.513  30.261  1.00  0.00     0.049 A 
ATOM     55  C   UNL A   1      47.160  32.667  29.196  1.00  0.00     0.074 A 
ATOM     56  C   UNL A   1      41.060  32.503  30.864  1.00  0.00     0.029 A 
ATOM     57  N   UNL A   1      43.096  32.020  30.114  1.00  0.00    -0.354 N 
ATOM     58  N   UNL A   1      45.906  32.534  29.555  1.00  0.00    -0.248 NA
ATOM     59  C   UNL A   1      47.718  34.000  29.481  1.00  0.00     0.031 C 
ATOM     60  C   UNL A   1      41.877  33.623  31.049  1.00  0.00     0.029 A 
ATOM     61  C   UNL A   1      43.151  33.313  30.605  1.00  0.00     0.049 A 
ATOM     62  H   UNL A   1      43.855  31.533  29.719  1.00  0.00     0.167 HD
ATOM     63  C   UNL A   1      45.538  33.748  30.130  1.00  0.00     0.074 A 
ATOM     64  C   UNL A   1      46.711  34.594  30.106  1.00  0.00     0.031 C 
ATOM     65  C   UNL A   1      44.333  34.137  30.617  1.00  0.00     0.034 A 
BRANCH  52  66
ATOM     66  C   UNL A   1      39.964  29.804  30.057  1.00  0.00     0.023 A 
ATOM     67  C   UNL A   1      39.628  29.103  31.232  1.00  0.00     0.012 A 
ATOM     68  C   UNL A   1      38.959  30.123  29.126  1.00  0.00     0.148 A 
ATOM     69  C   UNL A   1      38.315  28.698  31.464  1.00  0.00     0.002 A 
ATOM     70  C   UNL A   1      37.646  29.754  29.384  1.00  0.00     0.091 A 
ATOM     71  F   UNL A   1      39.309  30.767  28.003  1.00  0.00    -0.205 F 
ATOM     72  C   UNL A   1      37.324  29.030  30.545  1.00  0.00     0.022 A 
BRANCH  70  73
ATOM     73  S   UNL A   1      36.285  30.190  28.297  1.00  0.00     0.127 S 
ATOM     74  O   UNL A   1      35.223  29.312  28.788  1.00  0.00    -0.237 OA
ATOM     75  O   UNL A   1      36.094  31.608  28.601  1.00  0.00    -0.237 OA
ATOM     76  O   UNL A   1      36.741  29.910  26.943  1.00  0.00    -0.744 OA
ENDBRANCH  70  73
ENDBRANCH  52  66
BRANCH  53  77
ATOM     77  C   UNL A   1      49.513  32.024  28.286  1.00  0.00     0.023 A 
ATOM     78  C   UNL A   1      50.526  31.778  29.235  1.00  0.00     0.012 A 
ATOM     79  C   UNL A   1      49.855  32.687  27.088  1.00  0.00     0.148 A 
ATOM     80  C   UNL A   1      51.834  32.223  29.020  1.00  0.00     0.002 A 
ATOM     81  C   UNL A   1      51.171  33.067  26.851  1.00  0.00     0.091 A 
ATOM     82  F   UNL A   1      48.879  32.947  26.207  1.00  0.00    -0.205 F 
ATOM     83  C   UNL A   1      52.159  32.858  27.825  1.00  0.00     0.022 A 
BRANCH  81  84
ATOM     84  S   UNL A   1      51.703  33.771  25.286  1.00  0.00     0.127 S 
ATOM     85  O   UNL A   1      51.033  35.069  25.296  1.00  0.00    -0.237 OA
ATOM     86  O   UNL A   1      53.155  33.823  25.458  1.00  0.00    -0.237 OA
ATOM     87  O   UNL A   1      51.256  32.835  24.263  1.00  0.00    -0.744 OA
ENDBRANCH  81  84
ENDBRANCH  53  77
BRANCH  65  88
ATOM     88  C   UNL A   1      44.220  35.524  31.202  1.00  0.00     0.023 A 
ATOM     89  C   UNL A   1      44.400  35.726  32.585  1.00  0.00     0.012 A 
ATOM     90  C   UNL A   1      43.988  36.637  30.370  1.00  0.00     0.148 A 
ATOM     91  C   UNL A   1      44.304  37.004  33.136  1.00  0.00     0.002 A 
ATOM     92  C   UNL A   1      43.946  37.915  30.917  1.00  0.00     0.091 A 
ATOM     93  F   UNL A   1      43.804  36.429  29.058  1.00  0.00    -0.205 F 
ATOM     94  C   UNL A   1      44.087  38.098  32.302  1.00  0.00     0.022 A 
BRANCH  92  95
ATOM     95  S   UNL A   1      43.773  39.390  29.907  1.00  0.00     0.127 S 
ATOM     96  O   UNL A   1      43.174  40.330  30.854  1.00  0.00    -0.237 OA
ATOM     97  O   UNL A   1      45.160  39.687  29.549  1.00  0.00    -0.237 OA
ATOM     98  O   UNL A   1      42.928  39.009  28.784  1.00  0.00    -0.744 OA
ENDBRANCH  92  95
ENDBRANCH  65  88
ENDBRANCH  39  40
ENDBRANCH  32  34
ENDBRANCH  31  32
ENDBRANCH  30  31
ENDBRANCH  29  30
ENDBRANCH  28  29
ENDBRANCH  27  28
ENDBRANCH   1  27
TORSDOF 23
ENDMDL
