MODEL 1
REMARK VINA RESULT:      -8.4      0.000      0.000
REMARK SMILES CC[C@]1(C(=O)OCCOCCOCCOC(=O)c2ccc(-c3c4nc(c(-c5cccc(S(=O)(=O)[O-])c5F)c5ccc([nH]5)c(-c5cccc(S(=O)(=O)[O-])c5F)c5nc(c(-c6cccc(S(=O)(=O)[O-])c6F)c6ccc3[nH]6)C=C5)C=C4)cc2)CCN(C(=O)N(C)CCc2cccs2)C1
REMARK SMILES IDX 10 1 9 2 8 3 7 4 6 5 4 6 5 7 3 8 81 9 95 10 82 11 83 12 2 13
REMARK SMILES IDX 1 14 84 15 85 16 86 17 87 18 88 19 89 20 90 21 91 22 94 23
REMARK SMILES IDX 92 24 93 25 11 26 12 27 13 28 14 29 15 30 16 31 17 32 18 33
REMARK SMILES IDX 19 34 80 35 20 36 79 37 21 38 22 39 23 40 73 41 24 42 78 43
REMARK SMILES IDX 72 44 74 45 25 46 77 47 71 48 70 49 26 51 58 52 38 53 57 54
REMARK SMILES IDX 39 55 42 56 56 57 75 58 40 59 41 60 55 62 76 63 43 64 27 65
REMARK SMILES IDX 28 66 36 67 29 68 31 69 37 70 30 71 32 72 33 73 34 74 35 75
REMARK SMILES IDX 59 76 60 77 68 78 61 79 63 80 69 81 62 82 64 83 65 84 66 85
REMARK SMILES IDX 67 86 44 87 45 88 53 89 46 90 48 91 54 92 47 93 49 94 50 95
REMARK SMILES IDX 51 96 52 97
REMARK H PARENT 74 50 42 61
REMARK Flexibility Score: inf
ROOT
ATOM      1  C   UNL A   1      39.063  21.470  25.876  1.00  0.00     0.188 C 
ENDROOT
BRANCH   1   2
ATOM      2  O   UNL A   1      37.906  22.253  25.647  1.00  0.00    -0.376 OA
BRANCH   2   3
ATOM      3  C   UNL A   1      37.011  21.851  24.619  1.00  0.00     0.202 C 
BRANCH   3   4
ATOM      4  C   UNL A   1      36.250  22.905  23.791  1.00  0.00     0.261 C 
BRANCH   4   5
ATOM      5  O   UNL A   1      35.483  23.855  24.565  1.00  0.00    -0.463 OA
BRANCH   5   6
ATOM      6  C   UNL A   1      34.393  23.386  25.235  1.00  0.00     0.314 C 
ATOM      7  O   UNL A   1      34.464  22.802  26.311  1.00  0.00    -0.252 OA
BRANCH   6   8
ATOM      8  C   UNL A   1      33.054  23.633  24.511  1.00  0.00     0.087 C 
ATOM      9  C   UNL A   1      31.850  24.003  25.404  1.00  0.00     0.042 C 
ATOM     10  C   UNL A   1      33.259  24.955  23.740  1.00  0.00     0.140 C 
ATOM     11  C   UNL A   1      31.053  25.036  24.635  1.00  0.00     0.122 C 
ATOM     12  N   UNL A   1      32.012  25.710  23.798  1.00  0.00    -0.323 N 
BRANCH   8  13
ATOM     13  C   UNL A   1      32.679  22.493  23.517  1.00  0.00     0.017 C 
ATOM     14  C   UNL A   1      32.952  21.060  23.955  1.00  0.00     0.005 C 
ENDBRANCH   8  13
BRANCH  12  15
ATOM     15  C   UNL A   1      31.997  26.955  23.223  1.00  0.00     0.319 C 
ATOM     16  O   UNL A   1      31.411  27.122  22.148  1.00  0.00    -0.248 OA
BRANCH  15  17
ATOM     17  N   UNL A   1      32.740  27.980  23.774  1.00  0.00    -0.327 N 
ATOM     18  C   UNL A   1      33.722  28.813  23.102  1.00  0.00     0.148 C 
BRANCH  17  19
ATOM     19  C   UNL A   1      32.533  28.245  25.206  1.00  0.00     0.126 C 
BRANCH  19  20
ATOM     20  C   UNL A   1      33.780  27.966  26.071  1.00  0.00     0.068 C 
BRANCH  20  21
ATOM     21  C   UNL A   1      34.258  29.163  26.846  1.00  0.00     0.006 A 
ATOM     22  C   UNL A   1      35.500  29.378  27.414  1.00  0.00     0.015 A 
ATOM     23  S   UNL A   1      33.220  30.507  27.093  1.00  0.00    -0.149 S 
ATOM     24  C   UNL A   1      35.631  30.691  27.953  1.00  0.00     0.012 A 
ATOM     25  C   UNL A   1      34.465  31.413  27.835  1.00  0.00     0.065 A 
ENDBRANCH  20  21
ENDBRANCH  19  20
ENDBRANCH  17  19
ENDBRANCH  15  17
ENDBRANCH  12  15
ENDBRANCH   6   8
ENDBRANCH   5   6
ENDBRANCH   4   5
ENDBRANCH   3   4
ENDBRANCH   2   3
ENDBRANCH   1   2
BRANCH   1  26
ATOM     26  C   UNL A   1      40.330  22.164  26.388  1.00  0.00     0.188 C 
BRANCH  26  27
ATOM     27  O   UNL A   1      40.252  23.021  27.494  1.00  0.00    -0.376 OA
BRANCH  27  28
ATOM     28  C   UNL A   1      39.418  24.161  27.463  1.00  0.00     0.202 C 
BRANCH  28  29
ATOM     29  C   UNL A   1      39.859  25.589  27.080  1.00  0.00     0.261 C 
BRANCH  29  30
ATOM     30  O   UNL A   1      40.550  25.794  25.845  1.00  0.00    -0.460 OA
BRANCH  30  31
ATOM     31  C   UNL A   1      41.902  25.790  25.909  1.00  0.00     0.338 C 
ATOM     32  O   UNL A   1      42.656  24.991  25.368  1.00  0.00    -0.246 OA
BRANCH  31  33
ATOM     33  C   UNL A   1      42.354  27.045  26.549  1.00  0.00     0.060 A 
ATOM     34  C   UNL A   1      43.099  26.967  27.736  1.00  0.00     0.016 A 
ATOM     35  C   UNL A   1      42.027  28.287  26.004  1.00  0.00     0.016 A 
ATOM     36  C   UNL A   1      43.468  28.130  28.412  1.00  0.00     0.010 A 
ATOM     37  C   UNL A   1      42.380  29.452  26.694  1.00  0.00     0.010 A 
ATOM     38  C   UNL A   1      43.061  29.379  27.924  1.00  0.00    -0.014 A 
BRANCH  38  39
ATOM     39  C   UNL A   1      43.157  30.577  28.796  1.00  0.00     0.031 A 
ATOM     40  C   UNL A   1      44.447  31.358  28.804  1.00  0.00     0.074 A 
ATOM     41  C   UNL A   1      42.132  30.977  29.571  1.00  0.00     0.049 A 
ATOM     42  N   UNL A   1      44.779  32.407  29.508  1.00  0.00    -0.248 NA
ATOM     43  C   UNL A   1      45.506  30.881  27.899  1.00  0.00     0.031 C 
ATOM     44  C   UNL A   1      40.830  30.321  29.656  1.00  0.00     0.029 A 
ATOM     45  N   UNL A   1      42.045  32.021  30.459  1.00  0.00    -0.354 N 
ATOM     46  C   UNL A   1      46.096  32.694  29.163  1.00  0.00     0.074 A 
ATOM     47  C   UNL A   1      46.504  31.701  28.193  1.00  0.00     0.031 C 
ATOM     48  C   UNL A   1      40.083  30.957  30.577  1.00  0.00     0.029 A 
ATOM     49  C   UNL A   1      40.864  32.048  31.162  1.00  0.00     0.049 A 
ATOM     50  H   UNL A   1      42.760  32.687  30.581  1.00  0.00     0.167 HD
ATOM     51  C   UNL A   1      46.893  33.695  29.603  1.00  0.00     0.034 A 
ATOM     52  C   UNL A   1      40.468  32.840  32.180  1.00  0.00     0.034 A 
ATOM     53  C   UNL A   1      46.488  34.694  30.556  1.00  0.00     0.049 A 
ATOM     54  C   UNL A   1      41.380  33.939  32.667  1.00  0.00     0.074 A 
ATOM     55  C   UNL A   1      47.206  35.783  31.015  1.00  0.00     0.029 A 
ATOM     56  N   UNL A   1      45.268  34.715  31.211  1.00  0.00    -0.354 N 
ATOM     57  N   UNL A   1      42.575  34.272  32.243  1.00  0.00    -0.248 NA
ATOM     58  C   UNL A   1      40.871  34.795  33.750  1.00  0.00     0.031 C 
ATOM     59  C   UNL A   1      46.436  36.438  31.982  1.00  0.00     0.029 A 
ATOM     60  C   UNL A   1      45.219  35.786  32.087  1.00  0.00     0.049 A 
ATOM     61  H   UNL A   1      44.542  34.063  31.074  1.00  0.00     0.167 HD
ATOM     62  C   UNL A   1      42.943  35.397  32.978  1.00  0.00     0.074 A 
ATOM     63  C   UNL A   1      41.836  35.697  33.862  1.00  0.00     0.031 C 
ATOM     64  C   UNL A   1      44.096  36.110  32.930  1.00  0.00     0.034 A 
BRANCH  51  65
ATOM     65  C   UNL A   1      48.295  33.763  29.055  1.00  0.00     0.023 A 
ATOM     66  C   UNL A   1      49.333  33.045  29.682  1.00  0.00     0.012 A 
ATOM     67  C   UNL A   1      48.575  34.505  27.891  1.00  0.00     0.148 A 
ATOM     68  C   UNL A   1      50.635  33.095  29.183  1.00  0.00     0.002 A 
ATOM     69  C   UNL A   1      49.863  34.509  27.370  1.00  0.00     0.091 A 
ATOM     70  F   UNL A   1      47.579  35.199  27.321  1.00  0.00    -0.205 F 
ATOM     71  C   UNL A   1      50.896  33.818  28.022  1.00  0.00     0.022 A 
BRANCH  69  72
ATOM     72  S   UNL A   1      50.282  35.341  25.835  1.00  0.00     0.127 S 
ATOM     73  O   UNL A   1      50.102  36.745  26.202  1.00  0.00    -0.237 OA
ATOM     74  O   UNL A   1      51.674  34.936  25.637  1.00  0.00    -0.237 OA
ATOM     75  O   UNL A   1      49.354  34.833  24.835  1.00  0.00    -0.744 OA
ENDBRANCH  69  72
ENDBRANCH  51  65
BRANCH  52  76
ATOM     76  C   UNL A   1      39.129  32.637  32.802  1.00  0.00     0.023 A 
ATOM     77  C   UNL A   1      38.971  31.686  33.828  1.00  0.00     0.012 A 
ATOM     78  C   UNL A   1      38.015  33.388  32.384  1.00  0.00     0.148 A 
ATOM     79  C   UNL A   1      37.720  31.466  34.406  1.00  0.00     0.002 A 
ATOM     80  C   UNL A   1      36.785  33.205  33.002  1.00  0.00     0.091 A 
ATOM     81  F   UNL A   1      38.185  34.276  31.394  1.00  0.00    -0.205 F 
ATOM     82  C   UNL A   1      36.630  32.232  34.001  1.00  0.00     0.022 A 
BRANCH  80  83
ATOM     83  S   UNL A   1      35.355  34.228  32.633  1.00  0.00     0.127 S 
ATOM     84  O   UNL A   1      35.822  35.552  33.039  1.00  0.00    -0.237 OA
ATOM     85  O   UNL A   1      35.218  34.039  31.190  1.00  0.00    -0.237 OA
ATOM     86  O   UNL A   1      34.261  33.679  33.422  1.00  0.00    -0.744 OA
ENDBRANCH  80  83
ENDBRANCH  52  76
BRANCH  64  87
ATOM     87  C   UNL A   1      44.215  37.325  33.818  1.00  0.00     0.023 A 
ATOM     88  C   UNL A   1      44.824  37.224  35.085  1.00  0.00     0.012 A 
ATOM     89  C   UNL A   1      43.781  38.587  33.362  1.00  0.00     0.148 A 
ATOM     90  C   UNL A   1      44.962  38.348  35.898  1.00  0.00     0.002 A 
ATOM     91  C   UNL A   1      43.971  39.712  34.155  1.00  0.00     0.091 A 
ATOM     92  F   UNL A   1      43.189  38.664  32.162  1.00  0.00    -0.205 F 
ATOM     93  C   UNL A   1      44.547  39.593  35.429  1.00  0.00     0.022 A 
BRANCH  91  94
ATOM     94  S   UNL A   1      43.560  41.368  33.593  1.00  0.00     0.127 S 
ATOM     95  O   UNL A   1      43.971  42.182  34.737  1.00  0.00    -0.237 OA
ATOM     96  O   UNL A   1      44.406  41.512  32.408  1.00  0.00    -0.237 OA
ATOM     97  O   UNL A   1      42.130  41.356  33.316  1.00  0.00    -0.744 OA
ENDBRANCH  91  94
ENDBRANCH  64  87
ENDBRANCH  38  39
ENDBRANCH  31  33
ENDBRANCH  30  31
ENDBRANCH  29  30
ENDBRANCH  28  29
ENDBRANCH  27  28
ENDBRANCH  26  27
ENDBRANCH   1  26
TORSDOF 26
ENDMDL
MODEL 2
REMARK VINA RESULT:      -8.1      2.156      2.653
REMARK SMILES CC[C@]1(C(=O)OCCOCCOCCOC(=O)c2ccc(-c3c4nc(c(-c5cccc(S(=O)(=O)[O-])c5F)c5ccc([nH]5)c(-c5cccc(S(=O)(=O)[O-])c5F)c5nc(c(-c6cccc(S(=O)(=O)[O-])c6F)c6ccc3[nH]6)C=C5)C=C4)cc2)CCN(C(=O)N(C)CCc2cccs2)C1
REMARK SMILES IDX 10 1 9 2 8 3 7 4 6 5 4 6 5 7 3 8 81 9 95 10 82 11 83 12 2 13
REMARK SMILES IDX 1 14 84 15 85 16 86 17 87 18 88 19 89 20 90 21 91 22 94 23
REMARK SMILES IDX 92 24 93 25 11 26 12 27 13 28 14 29 15 30 16 31 17 32 18 33
REMARK SMILES IDX 19 34 80 35 20 36 79 37 21 38 22 39 23 40 73 41 24 42 78 43
REMARK SMILES IDX 72 44 74 45 25 46 77 47 71 48 70 49 26 51 58 52 38 53 57 54
REMARK SMILES IDX 39 55 42 56 56 57 75 58 40 59 41 60 55 62 76 63 43 64 27 65
REMARK SMILES IDX 28 66 36 67 29 68 31 69 37 70 30 71 32 72 33 73 34 74 35 75
REMARK SMILES IDX 59 76 60 77 68 78 61 79 63 80 69 81 62 82 64 83 65 84 66 85
REMARK SMILES IDX 67 86 44 87 45 88 53 89 46 90 48 91 54 92 47 93 49 94 50 95
REMARK SMILES IDX 51 96 52 97
REMARK H PARENT 74 50 42 61
REMARK Flexibility Score: inf
ROOT
ATOM      1  C   UNL A   1      36.682  22.617  25.084  1.00  0.00     0.188 C 
ENDROOT
BRANCH   1   2
ATOM      2  O   UNL A   1      35.917  21.976  26.089  1.00  0.00    -0.376 OA
BRANCH   2   3
ATOM      3  C   UNL A   1      34.918  22.731  26.761  1.00  0.00     0.202 C 
BRANCH   3   4
ATOM      4  C   UNL A   1      33.499  22.158  26.944  1.00  0.00     0.261 C 
BRANCH   4   5
ATOM      5  O   UNL A   1      32.424  23.065  26.612  1.00  0.00    -0.463 OA
BRANCH   5   6
ATOM      6  C   UNL A   1      31.954  23.043  25.333  1.00  0.00     0.314 C 
ATOM      7  O   UNL A   1      31.741  22.008  24.711  1.00  0.00    -0.252 OA
BRANCH   6   8
ATOM      8  C   UNL A   1      31.732  24.441  24.720  1.00  0.00     0.087 C 
ATOM      9  C   UNL A   1      30.271  24.937  24.659  1.00  0.00     0.042 C 
ATOM     10  C   UNL A   1      32.328  25.424  25.750  1.00  0.00     0.140 C 
ATOM     11  C   UNL A   1      30.314  26.422  24.960  1.00  0.00     0.122 C 
ATOM     12  N   UNL A   1      31.473  26.605  25.794  1.00  0.00    -0.323 N 
BRANCH   8  13
ATOM     13  C   UNL A   1      32.438  24.622  23.343  1.00  0.00     0.017 C 
ATOM     14  C   UNL A   1      33.931  24.330  23.275  1.00  0.00     0.005 C 
ENDBRANCH   8  13
BRANCH  12  15
ATOM     15  C   UNL A   1      31.793  27.587  26.699  1.00  0.00     0.319 C 
ATOM     16  O   UNL A   1      31.241  27.598  27.804  1.00  0.00    -0.248 OA
BRANCH  15  17
ATOM     17  N   UNL A   1      32.624  28.625  26.326  1.00  0.00    -0.327 N 
ATOM     18  C   UNL A   1      32.854  29.126  24.983  1.00  0.00     0.148 C 
BRANCH  17  19
ATOM     19  C   UNL A   1      33.376  29.283  27.404  1.00  0.00     0.126 C 
BRANCH  19  20
ATOM     20  C   UNL A   1      34.375  30.345  26.899  1.00  0.00     0.068 C 
BRANCH  20  21
ATOM     21  C   UNL A   1      35.395  30.753  27.926  1.00  0.00     0.006 A 
ATOM     22  C   UNL A   1      36.162  29.942  28.743  1.00  0.00     0.015 A 
ATOM     23  S   UNL A   1      35.755  32.411  28.180  1.00  0.00    -0.149 S 
ATOM     24  C   UNL A   1      37.121  30.681  29.495  1.00  0.00     0.012 A 
ATOM     25  C   UNL A   1      37.014  32.036  29.274  1.00  0.00     0.065 A 
ENDBRANCH  20  21
ENDBRANCH  19  20
ENDBRANCH  17  19
ENDBRANCH  15  17
ENDBRANCH  12  15
ENDBRANCH   6   8
ENDBRANCH   5   6
ENDBRANCH   4   5
ENDBRANCH   3   4
ENDBRANCH   2   3
ENDBRANCH   1   2
BRANCH   1  26
ATOM     26  C   UNL A   1      37.856  23.505  25.510  1.00  0.00     0.188 C 
BRANCH  26  27
ATOM     27  O   UNL A   1      38.835  22.993  26.372  1.00  0.00    -0.376 OA
BRANCH  27  28
ATOM     28  C   UNL A   1      39.616  23.859  27.170  1.00  0.00     0.202 C 
BRANCH  28  29
ATOM     29  C   UNL A   1      39.949  25.329  26.842  1.00  0.00     0.261 C 
BRANCH  29  30
ATOM     30  O   UNL A   1      40.708  25.623  25.666  1.00  0.00    -0.460 OA
BRANCH  30  31
ATOM     31  C   UNL A   1      42.055  25.607  25.804  1.00  0.00     0.338 C 
ATOM     32  O   UNL A   1      42.817  24.727  25.422  1.00  0.00    -0.246 OA
BRANCH  31  33
ATOM     33  C   UNL A   1      42.502  26.932  26.285  1.00  0.00     0.060 A 
ATOM     34  C   UNL A   1      43.429  26.990  27.338  1.00  0.00     0.016 A 
ATOM     35  C   UNL A   1      41.996  28.107  25.729  1.00  0.00     0.016 A 
ATOM     36  C   UNL A   1      43.808  28.221  27.874  1.00  0.00     0.010 A 
ATOM     37  C   UNL A   1      42.361  29.340  26.282  1.00  0.00     0.010 A 
ATOM     38  C   UNL A   1      43.232  29.400  27.386  1.00  0.00    -0.014 A 
BRANCH  38  39
ATOM     39  C   UNL A   1      43.370  30.662  28.158  1.00  0.00     0.031 A 
ATOM     40  C   UNL A   1      44.544  31.560  27.861  1.00  0.00     0.074 A 
ATOM     41  C   UNL A   1      42.483  31.016  29.106  1.00  0.00     0.049 A 
ATOM     42  N   UNL A   1      44.895  32.684  28.427  1.00  0.00    -0.248 NA
ATOM     43  C   UNL A   1      45.446  31.123  26.783  1.00  0.00     0.031 C 
ATOM     44  C   UNL A   1      41.302  30.247  29.490  1.00  0.00     0.029 A 
ATOM     45  N   UNL A   1      42.463  32.108  29.939  1.00  0.00    -0.354 N 
ATOM     46  C   UNL A   1      46.078  33.069  27.805  1.00  0.00     0.074 A 
ATOM     47  C   UNL A   1      46.388  32.053  26.823  1.00  0.00     0.031 C 
ATOM     48  C   UNL A   1      40.691  30.873  30.511  1.00  0.00     0.029 A 
ATOM     49  C   UNL A   1      41.450  32.073  30.868  1.00  0.00     0.049 A 
ATOM     50  H   UNL A   1      43.112  32.846  29.877  1.00  0.00     0.167 HD
ATOM     51  C   UNL A   1      46.834  34.171  28.020  1.00  0.00     0.034 A 
ATOM     52  C   UNL A   1      41.183  32.894  31.903  1.00  0.00     0.034 A 
ATOM     53  C   UNL A   1      46.521  35.192  28.984  1.00  0.00     0.049 A 
ATOM     54  C   UNL A   1      42.049  34.107  32.137  1.00  0.00     0.074 A 
ATOM     55  C   UNL A   1      47.195  36.375  29.231  1.00  0.00     0.029 A 
ATOM     56  N   UNL A   1      45.462  35.143  29.875  1.00  0.00    -0.354 N 
ATOM     57  N   UNL A   1      43.093  34.521  31.460  1.00  0.00    -0.248 NA
ATOM     58  C   UNL A   1      41.677  34.985  33.257  1.00  0.00     0.031 C 
ATOM     59  C   UNL A   1      46.568  37.021  30.301  1.00  0.00     0.029 A 
ATOM     60  C   UNL A   1      45.473  36.265  30.686  1.00  0.00     0.049 A 
ATOM     61  H   UNL A   1      44.798  34.418  29.923  1.00  0.00     0.167 HD
ATOM     62  C   UNL A   1      43.477  35.725  32.046  1.00  0.00     0.074 A 
ATOM     63  C   UNL A   1      42.543  35.982  33.121  1.00  0.00     0.031 C 
ATOM     64  C   UNL A   1      44.513  36.540  31.725  1.00  0.00     0.034 A 
BRANCH  51  65
ATOM     65  C   UNL A   1      48.083  34.333  27.193  1.00  0.00     0.023 A 
ATOM     66  C   UNL A   1      48.009  34.910  25.909  1.00  0.00     0.012 A 
ATOM     67  C   UNL A   1      49.337  33.951  27.707  1.00  0.00     0.148 A 
ATOM     68  C   UNL A   1      49.158  35.069  25.134  1.00  0.00     0.002 A 
ATOM     69  C   UNL A   1      50.484  34.160  26.950  1.00  0.00     0.091 A 
ATOM     70  F   UNL A   1      49.385  33.383  28.921  1.00  0.00    -0.205 F 
ATOM     71  C   UNL A   1      50.394  34.704  25.660  1.00  0.00     0.022 A 
BRANCH  69  72
ATOM     72  S   UNL A   1      52.130  33.800  27.571  1.00  0.00     0.127 S 
ATOM     73  O   UNL A   1      52.936  33.924  26.357  1.00  0.00    -0.237 OA
ATOM     74  O   UNL A   1      52.330  34.872  28.547  1.00  0.00    -0.237 OA
ATOM     75  O   UNL A   1      52.062  32.463  28.142  1.00  0.00    -0.744 OA
ENDBRANCH  69  72
ENDBRANCH  51  65
BRANCH  52  76
ATOM     76  C   UNL A   1      40.024  32.609  32.798  1.00  0.00     0.023 A 
ATOM     77  C   UNL A   1      38.722  32.951  32.387  1.00  0.00     0.012 A 
ATOM     78  C   UNL A   1      40.211  31.995  34.050  1.00  0.00     0.148 A 
ATOM     79  C   UNL A   1      37.629  32.713  33.221  1.00  0.00     0.002 A 
ATOM     80  C   UNL A   1      39.113  31.709  34.851  1.00  0.00     0.091 A 
ATOM     81  F   UNL A   1      41.461  31.694  34.429  1.00  0.00    -0.205 F 
ATOM     82  C   UNL A   1      37.822  32.083  34.447  1.00  0.00     0.022 A 
BRANCH  80  83
ATOM     83  S   UNL A   1      39.251  30.792  36.389  1.00  0.00     0.127 S 
ATOM     84  O   UNL A   1      40.046  31.703  37.210  1.00  0.00    -0.237 OA
ATOM     85  O   UNL A   1      37.851  30.665  36.788  1.00  0.00    -0.237 OA
ATOM     86  O   UNL A   1      39.897  29.533  36.042  1.00  0.00    -0.744 OA
ENDBRANCH  80  83
ENDBRANCH  52  76
BRANCH  64  87
ATOM     87  C   UNL A   1      44.675  37.821  32.507  1.00  0.00     0.023 A 
ATOM     88  C   UNL A   1      45.531  37.869  33.625  1.00  0.00     0.012 A 
ATOM     89  C   UNL A   1      44.026  39.000  32.087  1.00  0.00     0.148 A 
ATOM     90  C   UNL A   1      45.706  39.056  34.335  1.00  0.00     0.002 A 
ATOM     91  C   UNL A   1      44.248  40.192  32.766  1.00  0.00     0.091 A 
ATOM     92  F   UNL A   1      43.203  38.935  31.031  1.00  0.00    -0.205 F 
ATOM     93  C   UNL A   1      45.076  40.219  33.899  1.00  0.00     0.022 A 
BRANCH  91  94
ATOM     94  S   UNL A   1      43.558  41.757  32.217  1.00  0.00     0.127 S 
ATOM     95  O   UNL A   1      42.138  41.581  32.522  1.00  0.00    -0.237 OA
ATOM     96  O   UNL A   1      44.251  42.719  33.074  1.00  0.00    -0.237 OA
ATOM     97  O   UNL A   1      43.883  41.866  30.801  1.00  0.00    -0.744 OA
ENDBRANCH  91  94
ENDBRANCH  64  87
ENDBRANCH  38  39
ENDBRANCH  31  33
ENDBRANCH  30  31
ENDBRANCH  29  30
ENDBRANCH  28  29
ENDBRANCH  27  28
ENDBRANCH  26  27
ENDBRANCH   1  26
TORSDOF 26
ENDMDL
MODEL 3
REMARK VINA RESULT:      -8.0      1.739      7.603
REMARK SMILES CC[C@]1(C(=O)OCCOCCOCCOC(=O)c2ccc(-c3c4nc(c(-c5cccc(S(=O)(=O)[O-])c5F)c5ccc([nH]5)c(-c5cccc(S(=O)(=O)[O-])c5F)c5nc(c(-c6cccc(S(=O)(=O)[O-])c6F)c6ccc3[nH]6)C=C5)C=C4)cc2)CCN(C(=O)N(C)CCc2cccs2)C1
REMARK SMILES IDX 10 1 9 2 8 3 7 4 6 5 4 6 5 7 3 8 81 9 95 10 82 11 83 12 2 13
REMARK SMILES IDX 1 14 84 15 85 16 86 17 87 18 88 19 89 20 90 21 91 22 94 23
REMARK SMILES IDX 92 24 93 25 11 26 12 27 13 28 14 29 15 30 16 31 17 32 18 33
REMARK SMILES IDX 19 34 80 35 20 36 79 37 21 38 22 39 23 40 73 41 24 42 78 43
REMARK SMILES IDX 72 44 74 45 25 46 77 47 71 48 70 49 26 51 58 52 38 53 57 54
REMARK SMILES IDX 39 55 42 56 56 57 75 58 40 59 41 60 55 62 76 63 43 64 27 65
REMARK SMILES IDX 28 66 36 67 29 68 31 69 37 70 30 71 32 72 33 73 34 74 35 75
REMARK SMILES IDX 59 76 60 77 68 78 61 79 63 80 69 81 62 82 64 83 65 84 66 85
REMARK SMILES IDX 67 86 44 87 45 88 53 89 46 90 48 91 54 92 47 93 49 94 50 95
REMARK SMILES IDX 51 96 52 97
REMARK H PARENT 74 50 42 61
REMARK Flexibility Score: inf
ROOT
ATOM      1  C   UNL A   1      38.150  22.420  26.176  1.00  0.00     0.188 C 
ENDROOT
BRANCH   1   2
ATOM      2  O   UNL A   1      37.064  21.823  25.491  1.00  0.00    -0.376 OA
BRANCH   2   3
ATOM      3  C   UNL A   1      37.156  21.673  24.081  1.00  0.00     0.202 C 
BRANCH   3   4
ATOM      4  C   UNL A   1      36.600  22.763  23.143  1.00  0.00     0.261 C 
BRANCH   4   5
ATOM      5  O   UNL A   1      35.570  23.598  23.717  1.00  0.00    -0.463 OA
BRANCH   5   6
ATOM      6  C   UNL A   1      34.282  23.348  23.352  1.00  0.00     0.314 C 
ATOM      7  O   UNL A   1      33.867  23.484  22.207  1.00  0.00    -0.252 OA
BRANCH   6   8
ATOM      8  C   UNL A   1      33.374  22.898  24.516  1.00  0.00     0.087 C 
ATOM      9  C   UNL A   1      33.896  23.183  25.941  1.00  0.00     0.042 C 
ATOM     10  C   UNL A   1      32.158  23.848  24.459  1.00  0.00     0.140 C 
ATOM     11  C   UNL A   1      32.687  23.575  26.766  1.00  0.00     0.122 C 
ATOM     12  N   UNL A   1      31.761  24.157  25.828  1.00  0.00    -0.323 N 
BRANCH   8  13
ATOM     13  C   UNL A   1      32.899  21.421  24.383  1.00  0.00     0.017 C 
ATOM     14  C   UNL A   1      33.787  20.340  24.987  1.00  0.00     0.005 C 
ENDBRANCH   8  13
BRANCH  12  15
ATOM     15  C   UNL A   1      30.728  25.042  26.005  1.00  0.00     0.319 C 
ATOM     16  O   UNL A   1      29.795  24.745  26.758  1.00  0.00    -0.248 OA
BRANCH  15  17
ATOM     17  N   UNL A   1      30.670  26.196  25.248  1.00  0.00    -0.327 N 
ATOM     18  C   UNL A   1      30.148  26.335  23.900  1.00  0.00     0.148 C 
BRANCH  17  19
ATOM     19  C   UNL A   1      31.216  27.414  25.864  1.00  0.00     0.126 C 
BRANCH  19  20
ATOM     20  C   UNL A   1      32.754  27.404  25.989  1.00  0.00     0.068 C 
BRANCH  20  21
ATOM     21  C   UNL A   1      33.314  28.631  26.656  1.00  0.00     0.006 A 
ATOM     22  C   UNL A   1      34.589  28.832  27.152  1.00  0.00     0.015 A 
ATOM     23  S   UNL A   1      32.341  30.030  26.853  1.00  0.00    -0.149 S 
ATOM     24  C   UNL A   1      34.795  30.172  27.591  1.00  0.00     0.012 A 
ATOM     25  C   UNL A   1      33.654  30.933  27.475  1.00  0.00     0.065 A 
ENDBRANCH  20  21
ENDBRANCH  19  20
ENDBRANCH  17  19
ENDBRANCH  15  17
ENDBRANCH  12  15
ENDBRANCH   6   8
ENDBRANCH   5   6
ENDBRANCH   4   5
ENDBRANCH   3   4
ENDBRANCH   2   3
ENDBRANCH   1   2
BRANCH   1  26
ATOM     26  C   UNL A   1      38.229  23.949  26.238  1.00  0.00     0.188 C 
BRANCH  26  27
ATOM     27  O   UNL A   1      39.432  24.566  26.607  1.00  0.00    -0.376 OA
BRANCH  27  28
ATOM     28  C   UNL A   1      39.438  25.641  27.525  1.00  0.00     0.202 C 
BRANCH  28  29
ATOM     29  C   UNL A   1      40.557  26.692  27.673  1.00  0.00     0.261 C 
BRANCH  29  30
ATOM     30  O   UNL A   1      41.352  27.024  26.531  1.00  0.00    -0.460 OA
BRANCH  30  31
ATOM     31  C   UNL A   1      42.694  26.946  26.695  1.00  0.00     0.338 C 
ATOM     32  O   UNL A   1      43.427  26.048  26.297  1.00  0.00    -0.246 OA
BRANCH  31  33
ATOM     33  C   UNL A   1      43.187  28.233  27.231  1.00  0.00     0.060 A 
ATOM     34  C   UNL A   1      44.072  28.215  28.321  1.00  0.00     0.016 A 
ATOM     35  C   UNL A   1      42.761  29.447  26.690  1.00  0.00     0.016 A 
ATOM     36  C   UNL A   1      44.489  29.411  28.907  1.00  0.00     0.010 A 
ATOM     37  C   UNL A   1      43.165  30.644  27.292  1.00  0.00     0.010 A 
ATOM     38  C   UNL A   1      43.992  30.631  28.431  1.00  0.00    -0.014 A 
BRANCH  38  39
ATOM     39  C   UNL A   1      44.161  31.863  29.244  1.00  0.00     0.031 A 
ATOM     40  C   UNL A   1      43.162  32.146  30.336  1.00  0.00     0.074 A 
ATOM     41  C   UNL A   1      45.175  32.722  29.029  1.00  0.00     0.049 A 
ATOM     42  N   UNL A   1      43.081  33.169  31.144  1.00  0.00    -0.248 NA
ATOM     43  C   UNL A   1      42.107  31.137  30.535  1.00  0.00     0.031 C 
ATOM     44  C   UNL A   1      46.213  32.569  28.013  1.00  0.00     0.029 A 
ATOM     45  N   UNL A   1      45.471  33.915  29.642  1.00  0.00    -0.354 N 
ATOM     46  C   UNL A   1      41.947  32.951  31.920  1.00  0.00     0.074 A 
ATOM     47  C   UNL A   1      41.368  31.701  31.479  1.00  0.00     0.031 C 
ATOM     48  C   UNL A   1      47.015  33.649  28.047  1.00  0.00     0.029 A 
ATOM     49  C   UNL A   1      46.532  34.578  29.069  1.00  0.00     0.049 A 
ATOM     50  H   UNL A   1      44.973  34.262  30.417  1.00  0.00     0.167 HD
ATOM     51  C   UNL A   1      41.437  33.713  32.915  1.00  0.00     0.034 A 
ATOM     52  C   UNL A   1      47.035  35.804  29.320  1.00  0.00     0.034 A 
ATOM     53  C   UNL A   1      42.017  34.949  33.368  1.00  0.00     0.049 A 
ATOM     54  C   UNL A   1      46.440  36.645  30.422  1.00  0.00     0.074 A 
ATOM     55  C   UNL A   1      41.605  35.759  34.411  1.00  0.00     0.029 A 
ATOM     56  N   UNL A   1      43.117  35.565  32.794  1.00  0.00    -0.354 N 
ATOM     57  N   UNL A   1      45.443  36.367  31.228  1.00  0.00    -0.248 NA
ATOM     58  C   UNL A   1      47.064  37.953  30.672  1.00  0.00     0.031 C 
ATOM     59  C   UNL A   1      42.430  36.889  34.440  1.00  0.00     0.029 A 
ATOM     60  C   UNL A   1      43.387  36.756  33.447  1.00  0.00     0.049 A 
ATOM     61  H   UNL A   1      43.631  35.209  32.034  1.00  0.00     0.167 HD
ATOM     62  C   UNL A   1      45.347  37.446  32.103  1.00  0.00     0.074 A 
ATOM     63  C   UNL A   1      46.398  38.373  31.739  1.00  0.00     0.031 C 
ATOM     64  C   UNL A   1      44.464  37.653  33.111  1.00  0.00     0.034 A 
BRANCH  51  65
ATOM     65  C   UNL A   1      40.179  33.230  33.589  1.00  0.00     0.023 A 
ATOM     66  C   UNL A   1      40.261  32.400  34.726  1.00  0.00     0.012 A 
ATOM     67  C   UNL A   1      38.914  33.634  33.120  1.00  0.00     0.148 A 
ATOM     68  C   UNL A   1      39.105  31.948  35.361  1.00  0.00     0.002 A 
ATOM     69  C   UNL A   1      37.767  33.222  33.789  1.00  0.00     0.091 A 
ATOM     70  F   UNL A   1      38.854  34.405  32.025  1.00  0.00    -0.205 F 
ATOM     71  C   UNL A   1      37.860  32.368  34.899  1.00  0.00     0.022 A 
BRANCH  69  72
ATOM     72  S   UNL A   1      36.124  33.776  33.322  1.00  0.00     0.127 S 
ATOM     73  O   UNL A   1      35.304  33.190  34.381  1.00  0.00    -0.237 OA
ATOM     74  O   UNL A   1      36.261  35.232  33.391  1.00  0.00    -0.237 OA
ATOM     75  O   UNL A   1      35.887  33.252  31.985  1.00  0.00    -0.744 OA
ENDBRANCH  69  72
ENDBRANCH  51  65
BRANCH  52  76
ATOM     76  C   UNL A   1      48.187  36.311  28.520  1.00  0.00     0.023 A 
ATOM     77  C   UNL A   1      47.951  37.048  27.344  1.00  0.00     0.012 A 
ATOM     78  C   UNL A   1      49.513  36.070  28.926  1.00  0.00     0.148 A 
ATOM     79  C   UNL A   1      49.016  37.511  26.570  1.00  0.00     0.002 A 
ATOM     80  C   UNL A   1      50.569  36.581  28.183  1.00  0.00     0.091 A 
ATOM     81  F   UNL A   1      49.714  35.351  30.039  1.00  0.00    -0.205 F 
ATOM     82  C   UNL A   1      50.324  37.287  26.994  1.00  0.00     0.022 A 
BRANCH  80  83
ATOM     83  S   UNL A   1      52.279  36.449  28.714  1.00  0.00     0.127 S 
ATOM     84  O   UNL A   1      52.497  35.005  28.664  1.00  0.00    -0.237 OA
ATOM     85  O   UNL A   1      52.973  37.214  27.680  1.00  0.00    -0.237 OA
ATOM     86  O   UNL A   1      52.327  37.046  30.042  1.00  0.00    -0.744 OA
ENDBRANCH  80  83
ENDBRANCH  52  76
BRANCH  64  87
ATOM     87  C   UNL A   1      44.615  38.905  33.941  1.00  0.00     0.023 A 
ATOM     88  C   UNL A   1      45.540  38.947  35.004  1.00  0.00     0.012 A 
ATOM     89  C   UNL A   1      43.884  40.067  33.620  1.00  0.00     0.148 A 
ATOM     90  C   UNL A   1      45.704  40.109  35.757  1.00  0.00     0.002 A 
ATOM     91  C   UNL A   1      44.093  41.238  34.339  1.00  0.00     0.091 A 
ATOM     92  F   UNL A   1      42.997  40.006  32.616  1.00  0.00    -0.205 F 
ATOM     93  C   UNL A   1      44.991  41.257  35.417  1.00  0.00     0.022 A 
BRANCH  91  94
ATOM     94  S   UNL A   1      43.293  42.788  33.910  1.00  0.00     0.127 S 
ATOM     95  O   UNL A   1      43.975  43.140  32.664  1.00  0.00    -0.237 OA
ATOM     96  O   UNL A   1      41.898  42.382  33.747  1.00  0.00    -0.237 OA
ATOM     97  O   UNL A   1      43.534  43.689  35.029  1.00  0.00    -0.744 OA
ENDBRANCH  91  94
ENDBRANCH  64  87
ENDBRANCH  38  39
ENDBRANCH  31  33
ENDBRANCH  30  31
ENDBRANCH  29  30
ENDBRANCH  28  29
ENDBRANCH  27  28
ENDBRANCH  26  27
ENDBRANCH   1  26
TORSDOF 26
ENDMDL
