MODEL 1
REMARK VINA RESULT:     -10.6      0.000      0.000
REMARK SMILES C[C@H]1[C@@H](C(=O)OCCOCCOCCOC(=O)c2ccc(-c3c4nc(c(-c5cccc(S(=O)(=O)[O-])c5F)c5ccc([nH]5)c(-c5cccc(S(=O)(=O)[O-])c5F)c5nc(c(-c6cccc(S(=O)(=O)[O-])c6F)c6ccc3[nH]6)C=C5)C=C4)cc2)CCN1C(=O)N[C@@H]1CC[N@@H+]2CCCC[C@H]12
REMARK SMILES IDX 11 1 10 2 9 3 8 4 7 5 6 6 4 7 5 8 3 9 1 10 2 11 83 12 81 13
REMARK SMILES IDX 82 14 84 15 85 16 86 17 87 19 88 20 95 21 89 22 90 23 94 24
REMARK SMILES IDX 91 25 93 27 92 28 12 29 13 30 14 31 15 32 16 33 17 34 18 35
REMARK SMILES IDX 19 36 80 37 20 38 79 39 21 40 22 41 23 42 73 43 24 44 78 45
REMARK SMILES IDX 72 46 74 47 25 48 77 49 71 50 70 51 26 53 58 54 38 55 57 56
REMARK SMILES IDX 39 57 42 58 56 59 75 60 40 61 41 62 55 64 76 65 43 66 27 67
REMARK SMILES IDX 28 68 36 69 29 70 31 71 37 72 30 73 32 74 33 75 34 76 35 77
REMARK SMILES IDX 59 78 60 79 68 80 61 81 63 82 69 83 62 84 64 85 65 86 66 87
REMARK SMILES IDX 67 88 44 89 45 90 53 91 46 92 48 93 54 94 47 95 49 96 50 97
REMARK SMILES IDX 51 98 52 99
REMARK H PARENT 86 18 90 26 74 52 42 63
REMARK Flexibility Score: inf
ROOT
ATOM      1  C   UNL A   1      34.164  31.724  28.300  1.00  0.00     0.188 C 
ENDROOT
BRANCH   1   2
ATOM      2  C   UNL A   1      34.675  30.643  27.326  1.00  0.00     0.188 C 
BRANCH   2   3
ATOM      3  O   UNL A   1      33.772  29.550  27.177  1.00  0.00    -0.376 OA
BRANCH   3   4
ATOM      4  C   UNL A   1      32.396  29.916  27.205  1.00  0.00     0.202 C 
BRANCH   4   5
ATOM      5  C   UNL A   1      31.924  30.337  25.817  1.00  0.00     0.261 C 
BRANCH   5   6
ATOM      6  O   UNL A   1      31.537  29.214  25.004  1.00  0.00    -0.463 OA
BRANCH   6   7
ATOM      7  C   UNL A   1      30.798  29.467  23.891  1.00  0.00     0.311 C 
ATOM      8  O   UNL A   1      29.760  30.108  23.881  1.00  0.00    -0.252 OA
BRANCH   7   9
ATOM      9  C   UNL A   1      31.426  28.769  22.696  1.00  0.00     0.123 C 
ATOM     10  C   UNL A   1      30.305  26.574  23.559  1.00  0.00     0.032 C 
ATOM     11  C   UNL A   1      31.182  27.247  22.506  1.00  0.00     0.098 C 
ATOM     12  N   UNL A   1      32.522  26.649  22.491  1.00  0.00    -0.321 N 
ATOM     13  C   UNL A   1      32.948  28.929  22.759  1.00  0.00     0.039 C 
ATOM     14  C   UNL A   1      33.439  27.554  23.161  1.00  0.00     0.122 C 
BRANCH  12  15
ATOM     15  C   UNL A   1      32.993  25.445  22.074  1.00  0.00     0.318 C 
ATOM     16  O   UNL A   1      33.187  25.226  20.873  1.00  0.00    -0.249 OA
ATOM     17  N   UNL A   1      33.267  24.407  22.877  1.00  0.00    -0.329 N 
ATOM     18  H   UNL A   1      33.650  23.663  22.359  1.00  0.00     0.165 HD
BRANCH  17  19
ATOM     19  C   UNL A   1      33.167  24.051  24.286  1.00  0.00     0.147 C 
ATOM     20  C   UNL A   1      34.522  24.022  24.962  1.00  0.00     0.092 C 
ATOM     21  C   UNL A   1      32.636  22.618  24.609  1.00  0.00     0.207 C 
ATOM     22  C   UNL A   1      34.226  23.270  26.246  1.00  0.00     0.264 C 
ATOM     23  N   UNL A   1      33.339  22.168  25.847  1.00  0.00    -0.331 N 
ATOM     24  C   UNL A   1      32.732  21.603  23.460  1.00  0.00     0.067 C 
ATOM     25  C   UNL A   1      34.132  20.939  25.682  1.00  0.00     0.262 C 
ATOM     26  H   UNL A   1      32.636  21.940  26.550  1.00  0.00     0.348 HD
ATOM     27  C   UNL A   1      32.389  20.209  23.970  1.00  0.00     0.012 C 
ATOM     28  C   UNL A   1      33.335  19.778  25.086  1.00  0.00     0.062 C 
ENDBRANCH  17  19
ENDBRANCH  12  15
ENDBRANCH   7   9
ENDBRANCH   6   7
ENDBRANCH   5   6
ENDBRANCH   4   5
ENDBRANCH   3   4
ENDBRANCH   2   3
ENDBRANCH   1   2
BRANCH   1  29
ATOM     29  O   UNL A   1      34.249  33.088  27.900  1.00  0.00    -0.376 OA
BRANCH  29  30
ATOM     30  C   UNL A   1      33.142  33.928  28.215  1.00  0.00     0.202 C 
BRANCH  30  31
ATOM     31  C   UNL A   1      33.412  35.012  29.261  1.00  0.00     0.261 C 
BRANCH  31  32
ATOM     32  O   UNL A   1      32.538  34.881  30.395  1.00  0.00    -0.460 OA
BRANCH  32  33
ATOM     33  C   UNL A   1      32.833  35.684  31.444  1.00  0.00     0.338 C 
ATOM     34  O   UNL A   1      32.360  36.780  31.680  1.00  0.00    -0.246 OA
BRANCH  33  35
ATOM     35  C   UNL A   1      33.848  35.037  32.302  1.00  0.00     0.060 A 
ATOM     36  C   UNL A   1      35.109  35.605  32.469  1.00  0.00     0.016 A 
ATOM     37  C   UNL A   1      33.583  33.776  32.835  1.00  0.00     0.016 A 
ATOM     38  C   UNL A   1      36.115  34.891  33.119  1.00  0.00     0.010 A 
ATOM     39  C   UNL A   1      34.599  33.065  33.488  1.00  0.00     0.010 A 
ATOM     40  C   UNL A   1      35.898  33.590  33.581  1.00  0.00    -0.014 A 
BRANCH  40  41
ATOM     41  C   UNL A   1      37.054  32.723  33.958  1.00  0.00     0.031 A 
ATOM     42  C   UNL A   1      37.725  32.950  35.292  1.00  0.00     0.074 A 
ATOM     43  C   UNL A   1      37.466  31.677  33.213  1.00  0.00     0.049 A 
ATOM     44  N   UNL A   1      38.874  32.509  35.729  1.00  0.00    -0.248 NA
ATOM     45  C   UNL A   1      36.988  33.773  36.268  1.00  0.00     0.031 C 
ATOM     46  C   UNL A   1      36.831  31.199  31.987  1.00  0.00     0.029 A 
ATOM     47  N   UNL A   1      38.533  30.824  33.388  1.00  0.00    -0.354 N 
ATOM     48  C   UNL A   1      39.042  33.077  36.987  1.00  0.00     0.074 A 
ATOM     49  C   UNL A   1      37.855  33.853  37.266  1.00  0.00     0.031 C 
ATOM     50  C   UNL A   1      37.512  30.137  31.524  1.00  0.00     0.029 A 
ATOM     51  C   UNL A   1      38.698  29.933  32.353  1.00  0.00     0.049 A 
ATOM     52  H   UNL A   1      39.121  30.851  34.178  1.00  0.00     0.167 HD
ATOM     53  C   UNL A   1      40.096  32.973  37.828  1.00  0.00     0.034 A 
ATOM     54  C   UNL A   1      39.721  29.102  32.058  1.00  0.00     0.034 A 
ATOM     55  C   UNL A   1      41.247  32.148  37.587  1.00  0.00     0.049 A 
ATOM     56  C   UNL A   1      40.937  29.077  32.947  1.00  0.00     0.074 A 
ATOM     57  C   UNL A   1      42.387  32.016  38.359  1.00  0.00     0.029 A 
ATOM     58  N   UNL A   1      41.395  31.302  36.502  1.00  0.00    -0.354 N 
ATOM     59  N   UNL A   1      41.134  29.681  34.093  1.00  0.00    -0.248 NA
ATOM     60  C   UNL A   1      42.081  28.268  32.494  1.00  0.00     0.031 C 
ATOM     61  C   UNL A   1      43.233  31.095  37.733  1.00  0.00     0.029 A 
ATOM     62  C   UNL A   1      42.609  30.643  36.581  1.00  0.00     0.049 A 
ATOM     63  H   UNL A   1      40.736  31.186  35.781  1.00  0.00     0.167 HD
ATOM     64  C   UNL A   1      42.410  29.309  34.508  1.00  0.00     0.074 A 
ATOM     65  C   UNL A   1      42.934  28.412  33.500  1.00  0.00     0.031 C 
ATOM     66  C   UNL A   1      43.094  29.698  35.611  1.00  0.00     0.034 A 
BRANCH  53  67
ATOM     67  C   UNL A   1      40.075  33.804  39.078  1.00  0.00     0.023 A 
ATOM     68  C   UNL A   1      39.622  33.253  40.291  1.00  0.00     0.012 A 
ATOM     69  C   UNL A   1      40.562  35.126  39.052  1.00  0.00     0.148 A 
ATOM     70  C   UNL A   1      39.636  34.016  41.459  1.00  0.00     0.002 A 
ATOM     71  C   UNL A   1      40.608  35.866  40.226  1.00  0.00     0.091 A 
ATOM     72  F   UNL A   1      40.957  35.638  37.878  1.00  0.00    -0.205 F 
ATOM     73  C   UNL A   1      40.140  35.315  41.429  1.00  0.00     0.022 A 
BRANCH  71  74
ATOM     74  S   UNL A   1      41.305  37.520  40.288  1.00  0.00     0.127 S 
ATOM     75  O   UNL A   1      41.512  37.700  41.724  1.00  0.00    -0.237 OA
ATOM     76  O   UNL A   1      42.533  37.369  39.508  1.00  0.00    -0.237 OA
ATOM     77  O   UNL A   1      40.309  38.393  39.682  1.00  0.00    -0.744 OA
ENDBRANCH  71  74
ENDBRANCH  53  67
BRANCH  54  78
ATOM     78  C   UNL A   1      39.672  28.266  30.821  1.00  0.00     0.023 A 
ATOM     79  C   UNL A   1      38.964  27.049  30.823  1.00  0.00     0.012 A 
ATOM     80  C   UNL A   1      40.316  28.679  29.638  1.00  0.00     0.148 A 
ATOM     81  C   UNL A   1      38.910  26.257  29.675  1.00  0.00     0.002 A 
ATOM     82  C   UNL A   1      40.199  27.922  28.480  1.00  0.00     0.091 A 
ATOM     83  F   UNL A   1      41.030  29.814  29.663  1.00  0.00    -0.205 F 
ATOM     84  C   UNL A   1      39.511  26.700  28.499  1.00  0.00     0.022 A 
BRANCH  82  85
ATOM     85  S   UNL A   1      40.811  28.513  26.898  1.00  0.00     0.127 S 
ATOM     86  O   UNL A   1      42.050  29.181  27.286  1.00  0.00    -0.237 OA
ATOM     87  O   UNL A   1      40.988  27.268  26.150  1.00  0.00    -0.237 OA
ATOM     88  O   UNL A   1      39.756  29.374  26.377  1.00  0.00    -0.744 OA
ENDBRANCH  82  85
ENDBRANCH  54  78
BRANCH  66  89
ATOM     89  C   UNL A   1      44.472  29.135  35.831  1.00  0.00     0.023 A 
ATOM     90  C   UNL A   1      45.598  29.848  35.378  1.00  0.00     0.012 A 
ATOM     91  C   UNL A   1      44.653  27.967  36.600  1.00  0.00     0.148 A 
ATOM     92  C   UNL A   1      46.885  29.402  35.675  1.00  0.00     0.002 A 
ATOM     93  C   UNL A   1      45.938  27.552  36.928  1.00  0.00     0.091 A 
ATOM     94  F   UNL A   1      43.565  27.297  37.008  1.00  0.00    -0.205 F 
ATOM     95  C   UNL A   1      47.055  28.264  36.461  1.00  0.00     0.022 A 
BRANCH  93  96
ATOM     96  S   UNL A   1      46.253  26.154  38.013  1.00  0.00     0.127 S 
ATOM     97  O   UNL A   1      47.697  25.979  37.860  1.00  0.00    -0.237 OA
ATOM     98  O   UNL A   1      45.835  26.671  39.315  1.00  0.00    -0.237 OA
ATOM     99  O   UNL A   1      45.437  25.059  37.504  1.00  0.00    -0.744 OA
ENDBRANCH  93  96
ENDBRANCH  66  89
ENDBRANCH  40  41
ENDBRANCH  33  35
ENDBRANCH  32  33
ENDBRANCH  31  32
ENDBRANCH  30  31
ENDBRANCH  29  30
ENDBRANCH   1  29
TORSDOF 22
ENDMDL
MODEL 2
REMARK VINA RESULT:     -10.0      5.289      8.145
REMARK SMILES C[C@H]1[C@@H](C(=O)OCCOCCOCCOC(=O)c2ccc(-c3c4nc(c(-c5cccc(S(=O)(=O)[O-])c5F)c5ccc([nH]5)c(-c5cccc(S(=O)(=O)[O-])c5F)c5nc(c(-c6cccc(S(=O)(=O)[O-])c6F)c6ccc3[nH]6)C=C5)C=C4)cc2)CCN1C(=O)N[C@@H]1CC[N@@H+]2CCCC[C@H]12
REMARK SMILES IDX 11 1 10 2 9 3 8 4 7 5 6 6 4 7 5 8 3 9 1 10 2 11 83 12 81 13
REMARK SMILES IDX 82 14 84 15 85 16 86 17 87 19 88 20 95 21 89 22 90 23 94 24
REMARK SMILES IDX 91 25 93 27 92 28 12 29 13 30 14 31 15 32 16 33 17 34 18 35
REMARK SMILES IDX 19 36 80 37 20 38 79 39 21 40 22 41 23 42 73 43 24 44 78 45
REMARK SMILES IDX 72 46 74 47 25 48 77 49 71 50 70 51 26 53 58 54 38 55 57 56
REMARK SMILES IDX 39 57 42 58 56 59 75 60 40 61 41 62 55 64 76 65 43 66 27 67
REMARK SMILES IDX 28 68 36 69 29 70 31 71 37 72 30 73 32 74 33 75 34 76 35 77
REMARK SMILES IDX 59 78 60 79 68 80 61 81 63 82 69 83 62 84 64 85 65 86 66 87
REMARK SMILES IDX 67 88 44 89 45 90 53 91 46 92 48 93 54 94 47 95 49 96 50 97
REMARK SMILES IDX 51 98 52 99
REMARK H PARENT 86 18 90 26 74 52 42 63
REMARK Flexibility Score: inf
ROOT
ATOM      1  C   UNL A   1      34.531  33.884  29.896  1.00  0.00     0.188 C 
ENDROOT
BRANCH   1   2
ATOM      2  C   UNL A   1      34.184  33.586  28.423  1.00  0.00     0.188 C 
BRANCH   2   3
ATOM      3  O   UNL A   1      34.634  32.306  27.989  1.00  0.00    -0.376 OA
BRANCH   3   4
ATOM      4  C   UNL A   1      33.594  31.425  27.577  1.00  0.00     0.202 C 
BRANCH   4   5
ATOM      5  C   UNL A   1      34.158  30.051  27.232  1.00  0.00     0.261 C 
BRANCH   5   6
ATOM      6  O   UNL A   1      33.529  29.473  26.073  1.00  0.00    -0.463 OA
BRANCH   6   7
ATOM      7  C   UNL A   1      32.278  28.963  26.225  1.00  0.00     0.311 C 
ATOM      8  O   UNL A   1      31.586  29.112  27.219  1.00  0.00    -0.252 OA
BRANCH   7   9
ATOM      9  C   UNL A   1      31.919  28.127  25.007  1.00  0.00     0.123 C 
ATOM     10  C   UNL A   1      33.391  26.233  26.039  1.00  0.00     0.032 C 
ATOM     11  C   UNL A   1      32.498  26.691  24.889  1.00  0.00     0.098 C 
ATOM     12  N   UNL A   1      33.241  26.687  23.625  1.00  0.00    -0.321 N 
ATOM     13  C   UNL A   1      32.382  28.854  23.741  1.00  0.00     0.039 C 
ATOM     14  C   UNL A   1      33.586  28.057  23.287  1.00  0.00     0.122 C 
BRANCH  12  15
ATOM     15  C   UNL A   1      33.708  25.690  22.829  1.00  0.00     0.318 C 
ATOM     16  O   UNL A   1      33.670  25.796  21.597  1.00  0.00    -0.249 OA
ATOM     17  N   UNL A   1      34.217  24.530  23.268  1.00  0.00    -0.329 N 
ATOM     18  H   UNL A   1      34.542  23.988  22.513  1.00  0.00     0.165 HD
BRANCH  17  19
ATOM     19  C   UNL A   1      34.432  23.832  24.528  1.00  0.00     0.147 C 
ATOM     20  C   UNL A   1      35.839  23.282  24.640  1.00  0.00     0.092 C 
ATOM     21  C   UNL A   1      33.583  22.542  24.767  1.00  0.00     0.207 C 
ATOM     22  C   UNL A   1      35.712  22.299  25.788  1.00  0.00     0.264 C 
ATOM     23  N   UNL A   1      34.436  21.606  25.558  1.00  0.00    -0.331 N 
ATOM     24  C   UNL A   1      32.993  21.896  23.504  1.00  0.00     0.067 C 
ATOM     25  C   UNL A   1      34.695  20.316  24.898  1.00  0.00     0.262 C 
ATOM     26  H   UNL A   1      33.942  21.372  26.419  1.00  0.00     0.348 HD
ATOM     27  C   UNL A   1      32.381  20.545  23.851  1.00  0.00     0.012 C 
ATOM     28  C   UNL A   1      33.422  19.601  24.445  1.00  0.00     0.062 C 
ENDBRANCH  17  19
ENDBRANCH  12  15
ENDBRANCH   7   9
ENDBRANCH   6   7
ENDBRANCH   5   6
ENDBRANCH   4   5
ENDBRANCH   3   4
ENDBRANCH   2   3
ENDBRANCH   1   2
BRANCH   1  29
ATOM     29  O   UNL A   1      34.029  33.006  30.899  1.00  0.00    -0.376 OA
BRANCH  29  30
ATOM     30  C   UNL A   1      34.851  32.789  32.042  1.00  0.00     0.202 C 
BRANCH  30  31
ATOM     31  C   UNL A   1      35.212  34.041  32.844  1.00  0.00     0.261 C 
BRANCH  31  32
ATOM     32  O   UNL A   1      36.439  34.630  32.382  1.00  0.00    -0.460 OA
BRANCH  32  33
ATOM     33  C   UNL A   1      37.550  34.246  33.054  1.00  0.00     0.338 C 
ATOM     34  O   UNL A   1      37.957  34.697  34.108  1.00  0.00    -0.246 OA
BRANCH  33  35
ATOM     35  C   UNL A   1      38.237  33.167  32.314  1.00  0.00     0.060 A 
ATOM     36  C   UNL A   1      38.780  32.074  32.987  1.00  0.00     0.016 A 
ATOM     37  C   UNL A   1      38.463  33.317  30.946  1.00  0.00     0.016 A 
ATOM     38  C   UNL A   1      39.590  31.167  32.304  1.00  0.00     0.010 A 
ATOM     39  C   UNL A   1      39.278  32.400  30.267  1.00  0.00     0.010 A 
ATOM     40  C   UNL A   1      39.903  31.348  30.956  1.00  0.00    -0.014 A 
BRANCH  40  41
ATOM     41  C   UNL A   1      41.024  30.581  30.334  1.00  0.00     0.031 A 
ATOM     42  C   UNL A   1      42.415  31.167  30.379  1.00  0.00     0.074 A 
ATOM     43  C   UNL A   1      40.876  29.342  29.822  1.00  0.00     0.049 A 
ATOM     44  N   UNL A   1      43.483  30.826  29.708  1.00  0.00    -0.248 NA
ATOM     45  C   UNL A   1      42.631  32.278  31.324  1.00  0.00     0.031 C 
ATOM     46  C   UNL A   1      39.651  28.547  29.849  1.00  0.00     0.029 A 
ATOM     47  N   UNL A   1      41.782  28.533  29.172  1.00  0.00    -0.354 N 
ATOM     48  C   UNL A   1      44.466  31.737  30.075  1.00  0.00     0.074 A 
ATOM     49  C   UNL A   1      43.886  32.615  31.067  1.00  0.00     0.031 C 
ATOM     50  C   UNL A   1      39.880  27.366  29.251  1.00  0.00     0.029 A 
ATOM     51  C   UNL A   1      41.231  27.365  28.696  1.00  0.00     0.049 A 
ATOM     52  H   UNL A   1      42.732  28.768  29.059  1.00  0.00     0.167 HD
ATOM     53  C   UNL A   1      45.735  31.842  29.618  1.00  0.00     0.034 A 
ATOM     54  C   UNL A   1      41.724  26.438  27.847  1.00  0.00     0.034 A 
ATOM     55  C   UNL A   1      46.339  30.931  28.686  1.00  0.00     0.049 A 
ATOM     56  C   UNL A   1      43.100  26.626  27.261  1.00  0.00     0.074 A 
ATOM     57  C   UNL A   1      47.603  30.984  28.128  1.00  0.00     0.029 A 
ATOM     58  N   UNL A   1      45.728  29.792  28.192  1.00  0.00    -0.354 N 
ATOM     59  N   UNL A   1      44.000  27.536  27.542  1.00  0.00    -0.248 NA
ATOM     60  C   UNL A   1      43.523  25.667  26.228  1.00  0.00     0.031 C 
ATOM     61  C   UNL A   1      47.753  29.880  27.283  1.00  0.00     0.029 A 
ATOM     62  C   UNL A   1      46.588  29.132  27.332  1.00  0.00     0.049 A 
ATOM     63  H   UNL A   1      44.818  29.495  28.417  1.00  0.00     0.167 HD
ATOM     64  C   UNL A   1      45.100  27.248  26.738  1.00  0.00     0.074 A 
ATOM     65  C   UNL A   1      44.762  26.067  25.973  1.00  0.00     0.031 C 
ATOM     66  C   UNL A   1      46.272  27.918  26.627  1.00  0.00     0.034 A 
BRANCH  53  67
ATOM     67  C   UNL A   1      46.552  33.010  30.090  1.00  0.00     0.023 A 
ATOM     68  C   UNL A   1      47.325  32.911  31.262  1.00  0.00     0.012 A 
ATOM     69  C   UNL A   1      46.589  34.196  29.329  1.00  0.00     0.148 A 
ATOM     70  C   UNL A   1      48.111  33.985  31.680  1.00  0.00     0.002 A 
ATOM     71  C   UNL A   1      47.403  35.246  29.732  1.00  0.00     0.091 A 
ATOM     72  F   UNL A   1      45.818  34.276  28.235  1.00  0.00    -0.205 F 
ATOM     73  C   UNL A   1      48.159  35.145  30.909  1.00  0.00     0.022 A 
BRANCH  71  74
ATOM     74  S   UNL A   1      47.575  36.747  28.761  1.00  0.00     0.127 S 
ATOM     75  O   UNL A   1      46.209  37.266  28.774  1.00  0.00    -0.237 OA
ATOM     76  O   UNL A   1      48.531  37.521  29.554  1.00  0.00    -0.237 OA
ATOM     77  O   UNL A   1      48.075  36.323  27.459  1.00  0.00    -0.744 OA
ENDBRANCH  71  74
ENDBRANCH  53  67
BRANCH  54  78
ATOM     78  C   UNL A   1      40.883  25.273  27.442  1.00  0.00     0.023 A 
ATOM     79  C   UNL A   1      39.629  25.488  26.840  1.00  0.00     0.012 A 
ATOM     80  C   UNL A   1      41.326  23.951  27.643  1.00  0.00     0.148 A 
ATOM     81  C   UNL A   1      38.830  24.408  26.457  1.00  0.00     0.002 A 
ATOM     82  C   UNL A   1      40.560  22.883  27.195  1.00  0.00     0.091 A 
ATOM     83  F   UNL A   1      42.499  23.759  28.264  1.00  0.00    -0.205 F 
ATOM     84  C   UNL A   1      39.302  23.107  26.618  1.00  0.00     0.022 A 
BRANCH  82  85
ATOM     85  S   UNL A   1      41.179  21.197  27.226  1.00  0.00     0.127 S 
ATOM     86  O   UNL A   1      40.820  20.769  28.575  1.00  0.00    -0.237 OA
ATOM     87  O   UNL A   1      40.410  20.566  26.152  1.00  0.00    -0.237 OA
ATOM     88  O   UNL A   1      42.606  21.308  26.948  1.00  0.00    -0.744 OA
ENDBRANCH  82  85
ENDBRANCH  54  78
BRANCH  66  89
ATOM     89  C   UNL A   1      47.312  27.384  25.680  1.00  0.00     0.023 A 
ATOM     90  C   UNL A   1      48.110  26.290  26.065  1.00  0.00     0.012 A 
ATOM     91  C   UNL A   1      47.407  27.884  24.366  1.00  0.00     0.148 A 
ATOM     92  C   UNL A   1      48.997  25.708  25.160  1.00  0.00     0.002 A 
ATOM     93  C   UNL A   1      48.261  27.272  23.457  1.00  0.00     0.091 A 
ATOM     94  F   UNL A   1      46.647  28.936  24.027  1.00  0.00    -0.205 F 
ATOM     95  C   UNL A   1      49.062  26.188  23.854  1.00  0.00     0.022 A 
BRANCH  93  96
ATOM     96  S   UNL A   1      48.343  27.760  21.729  1.00  0.00     0.127 S 
ATOM     97  O   UNL A   1      48.687  26.497  21.079  1.00  0.00    -0.237 OA
ATOM     98  O   UNL A   1      46.981  28.228  21.474  1.00  0.00    -0.237 OA
ATOM     99  O   UNL A   1      49.364  28.797  21.653  1.00  0.00    -0.744 OA
ENDBRANCH  93  96
ENDBRANCH  66  89
ENDBRANCH  40  41
ENDBRANCH  33  35
ENDBRANCH  32  33
ENDBRANCH  31  32
ENDBRANCH  30  31
ENDBRANCH  29  30
ENDBRANCH   1  29
TORSDOF 22
ENDMDL
MODEL 3
REMARK VINA RESULT:      -9.8      5.152     11.229
REMARK SMILES C[C@H]1[C@@H](C(=O)OCCOCCOCCOC(=O)c2ccc(-c3c4nc(c(-c5cccc(S(=O)(=O)[O-])c5F)c5ccc([nH]5)c(-c5cccc(S(=O)(=O)[O-])c5F)c5nc(c(-c6cccc(S(=O)(=O)[O-])c6F)c6ccc3[nH]6)C=C5)C=C4)cc2)CCN1C(=O)N[C@@H]1CC[N@@H+]2CCCC[C@H]12
REMARK SMILES IDX 11 1 10 2 9 3 8 4 7 5 6 6 4 7 5 8 3 9 1 10 2 11 83 12 81 13
REMARK SMILES IDX 82 14 84 15 85 16 86 17 87 19 88 20 95 21 89 22 90 23 94 24
REMARK SMILES IDX 91 25 93 27 92 28 12 29 13 30 14 31 15 32 16 33 17 34 18 35
REMARK SMILES IDX 19 36 80 37 20 38 79 39 21 40 22 41 23 42 73 43 24 44 78 45
REMARK SMILES IDX 72 46 74 47 25 48 77 49 71 50 70 51 26 53 58 54 38 55 57 56
REMARK SMILES IDX 39 57 42 58 56 59 75 60 40 61 41 62 55 64 76 65 43 66 27 67
REMARK SMILES IDX 28 68 36 69 29 70 31 71 37 72 30 73 32 74 33 75 34 76 35 77
REMARK SMILES IDX 59 78 60 79 68 80 61 81 63 82 69 83 62 84 64 85 65 86 66 87
REMARK SMILES IDX 67 88 44 89 45 90 53 91 46 92 48 93 54 94 47 95 49 96 50 97
REMARK SMILES IDX 51 98 52 99
REMARK H PARENT 86 18 90 26 74 52 42 63
REMARK Flexibility Score: inf
ROOT
ATOM      1  C   UNL A   1      43.412  22.528  26.549  1.00  0.00     0.188 C 
ENDROOT
BRANCH   1   2
ATOM      2  C   UNL A   1      42.495  23.534  25.824  1.00  0.00     0.188 C 
BRANCH   2   3
ATOM      3  O   UNL A   1      41.898  24.483  26.702  1.00  0.00    -0.376 OA
BRANCH   3   4
ATOM      4  C   UNL A   1      40.678  25.041  26.224  1.00  0.00     0.202 C 
BRANCH   4   5
ATOM      5  C   UNL A   1      39.617  25.031  27.320  1.00  0.00     0.261 C 
BRANCH   5   6
ATOM      6  O   UNL A   1      39.255  26.357  27.747  1.00  0.00    -0.463 OA
BRANCH   6   7
ATOM      7  C   UNL A   1      39.834  26.833  28.882  1.00  0.00     0.311 C 
ATOM      8  O   UNL A   1      40.922  26.477  29.305  1.00  0.00    -0.252 OA
BRANCH   7   9
ATOM      9  C   UNL A   1      38.888  27.806  29.566  1.00  0.00     0.123 C 
ATOM     10  C   UNL A   1      40.271  29.723  28.458  1.00  0.00     0.032 C 
ATOM     11  C   UNL A   1      39.104  29.330  29.359  1.00  0.00     0.098 C 
ATOM     12  N   UNL A   1      39.288  29.872  30.709  1.00  0.00    -0.321 N 
ATOM     13  C   UNL A   1      38.951  27.592  31.081  1.00  0.00     0.039 C 
ATOM     14  C   UNL A   1      39.720  28.796  31.584  1.00  0.00     0.122 C 
BRANCH  12  15
ATOM     15  C   UNL A   1      39.221  31.129  31.219  1.00  0.00     0.318 C 
ATOM     16  O   UNL A   1      40.209  31.645  31.755  1.00  0.00    -0.249 OA
ATOM     17  N   UNL A   1      38.126  31.903  31.216  1.00  0.00    -0.329 N 
ATOM     18  H   UNL A   1      38.332  32.791  31.586  1.00  0.00     0.165 HD
BRANCH  17  19
ATOM     19  C   UNL A   1      36.725  31.822  30.828  1.00  0.00     0.147 C 
ATOM     20  C   UNL A   1      36.381  32.807  29.730  1.00  0.00     0.092 C 
ATOM     21  C   UNL A   1      35.675  32.206  31.919  1.00  0.00     0.207 C 
ATOM     22  C   UNL A   1      34.865  32.826  29.776  1.00  0.00     0.264 C 
ATOM     23  N   UNL A   1      34.526  32.841  31.207  1.00  0.00    -0.331 N 
ATOM     24  C   UNL A   1      36.209  33.060  33.079  1.00  0.00     0.067 C 
ATOM     25  C   UNL A   1      34.242  34.223  31.625  1.00  0.00     0.262 C 
ATOM     26  H   UNL A   1      33.681  32.314  31.427  1.00  0.00     0.348 HD
ATOM     27  C   UNL A   1      35.051  33.540  33.945  1.00  0.00     0.012 C 
ATOM     28  C   UNL A   1      34.062  34.374  33.136  1.00  0.00     0.062 C 
ENDBRANCH  17  19
ENDBRANCH  12  15
ENDBRANCH   7   9
ENDBRANCH   6   7
ENDBRANCH   5   6
ENDBRANCH   4   5
ENDBRANCH   3   4
ENDBRANCH   2   3
ENDBRANCH   1   2
BRANCH   1  29
ATOM     29  O   UNL A   1      44.821  22.727  26.478  1.00  0.00    -0.376 OA
BRANCH  29  30
ATOM     30  C   UNL A   1      45.514  22.091  25.407  1.00  0.00     0.202 C 
BRANCH  30  31
ATOM     31  C   UNL A   1      46.166  23.031  24.392  1.00  0.00     0.261 C 
BRANCH  31  32
ATOM     32  O   UNL A   1      45.708  24.384  24.554  1.00  0.00    -0.460 OA
BRANCH  32  33
ATOM     33  C   UNL A   1      46.672  25.286  24.853  1.00  0.00     0.338 C 
ATOM     34  O   UNL A   1      47.842  25.240  24.522  1.00  0.00    -0.246 OA
BRANCH  33  35
ATOM     35  C   UNL A   1      46.101  26.380  25.668  1.00  0.00     0.060 A 
ATOM     36  C   UNL A   1      46.925  27.209  26.426  1.00  0.00     0.016 A 
ATOM     37  C   UNL A   1      44.716  26.490  25.783  1.00  0.00     0.016 A 
ATOM     38  C   UNL A   1      46.365  28.105  27.335  1.00  0.00     0.010 A 
ATOM     39  C   UNL A   1      44.161  27.394  26.699  1.00  0.00     0.010 A 
ATOM     40  C   UNL A   1      44.984  28.168  27.533  1.00  0.00    -0.014 A 
BRANCH  40  41
ATOM     41  C   UNL A   1      44.425  28.868  28.729  1.00  0.00     0.031 A 
ATOM     42  C   UNL A   1      44.085  30.336  28.615  1.00  0.00     0.074 A 
ATOM     43  C   UNL A   1      44.112  28.233  29.876  1.00  0.00     0.049 A 
ATOM     44  N   UNL A   1      43.833  31.205  29.557  1.00  0.00    -0.248 NA
ATOM     45  C   UNL A   1      44.005  30.889  27.252  1.00  0.00     0.031 C 
ATOM     46  C   UNL A   1      44.205  26.794  30.109  1.00  0.00     0.029 A 
ATOM     47  N   UNL A   1      43.649  28.734  31.073  1.00  0.00    -0.354 N 
ATOM     48  C   UNL A   1      43.659  32.423  28.911  1.00  0.00     0.074 A 
ATOM     49  C   UNL A   1      43.784  32.173  27.492  1.00  0.00     0.031 C 
ATOM     50  C   UNL A   1      43.806  26.526  31.364  1.00  0.00     0.029 A 
ATOM     51  C   UNL A   1      43.542  27.782  32.061  1.00  0.00     0.049 A 
ATOM     52  H   UNL A   1      43.416  29.681  31.208  1.00  0.00     0.167 HD
ATOM     53  C   UNL A   1      43.430  33.642  29.449  1.00  0.00     0.034 A 
ATOM     54  C   UNL A   1      43.334  27.907  33.389  1.00  0.00     0.034 A 
ATOM     55  C   UNL A   1      43.235  33.885  30.852  1.00  0.00     0.049 A 
ATOM     56  C   UNL A   1      43.189  29.281  33.991  1.00  0.00     0.074 A 
ATOM     57  C   UNL A   1      43.045  35.093  31.497  1.00  0.00     0.029 A 
ATOM     58  N   UNL A   1      43.186  32.898  31.821  1.00  0.00    -0.354 N 
ATOM     59  N   UNL A   1      43.112  30.442  33.389  1.00  0.00    -0.248 NA
ATOM     60  C   UNL A   1      43.118  29.364  35.459  1.00  0.00     0.031 C 
ATOM     61  C   UNL A   1      42.893  34.838  32.863  1.00  0.00     0.029 A 
ATOM     62  C   UNL A   1      42.970  33.470  33.063  1.00  0.00     0.049 A 
ATOM     63  H   UNL A   1      43.290  31.935  31.653  1.00  0.00     0.167 HD
ATOM     64  C   UNL A   1      42.963  31.389  34.400  1.00  0.00     0.074 A 
ATOM     65  C   UNL A   1      42.940  30.664  35.652  1.00  0.00     0.031 C 
ATOM     66  C   UNL A   1      42.878  32.737  34.298  1.00  0.00     0.034 A 
BRANCH  53  67
ATOM     67  C   UNL A   1      43.415  34.823  28.522  1.00  0.00     0.023 A 
ATOM     68  C   UNL A   1      42.195  35.349  28.060  1.00  0.00     0.012 A 
ATOM     69  C   UNL A   1      44.626  35.442  28.153  1.00  0.00     0.148 A 
ATOM     70  C   UNL A   1      42.181  36.468  27.226  1.00  0.00     0.002 A 
ATOM     71  C   UNL A   1      44.602  36.578  27.354  1.00  0.00     0.091 A 
ATOM     72  F   UNL A   1      45.776  34.902  28.580  1.00  0.00    -0.205 F 
ATOM     73  C   UNL A   1      43.382  37.088  26.885  1.00  0.00     0.022 A 
BRANCH  71  74
ATOM     74  S   UNL A   1      46.096  37.477  26.925  1.00  0.00     0.127 S 
ATOM     75  O   UNL A   1      45.548  38.692  26.325  1.00  0.00    -0.237 OA
ATOM     76  O   UNL A   1      46.728  37.670  28.230  1.00  0.00    -0.237 OA
ATOM     77  O   UNL A   1      46.836  36.607  26.019  1.00  0.00    -0.744 OA
ENDBRANCH  71  74
ENDBRANCH  53  67
BRANCH  54  78
ATOM     78  C   UNL A   1      43.318  26.695  34.261  1.00  0.00     0.023 A 
ATOM     79  C   UNL A   1      42.090  26.131  34.657  1.00  0.00     0.012 A 
ATOM     80  C   UNL A   1      44.517  26.091  34.691  1.00  0.00     0.148 A 
ATOM     81  C   UNL A   1      42.059  24.998  35.472  1.00  0.00     0.002 A 
ATOM     82  C   UNL A   1      44.479  24.923  35.442  1.00  0.00     0.091 A 
ATOM     83  F   UNL A   1      45.679  26.667  34.349  1.00  0.00    -0.205 F 
ATOM     84  C   UNL A   1      43.252  24.384  35.850  1.00  0.00     0.022 A 
BRANCH  82  85
ATOM     85  S   UNL A   1      45.970  23.998  35.823  1.00  0.00     0.127 S 
ATOM     86  O   UNL A   1      45.428  22.803  36.462  1.00  0.00    -0.237 OA
ATOM     87  O   UNL A   1      46.547  23.781  34.496  1.00  0.00    -0.237 OA
ATOM     88  O   UNL A   1      46.759  24.878  36.676  1.00  0.00    -0.744 OA
ENDBRANCH  82  85
ENDBRANCH  54  78
BRANCH  66  89
ATOM     89  C   UNL A   1      42.709  33.539  35.560  1.00  0.00     0.023 A 
ATOM     90  C   UNL A   1      43.827  33.801  36.373  1.00  0.00     0.012 A 
ATOM     91  C   UNL A   1      41.472  34.139  35.866  1.00  0.00     0.148 A 
ATOM     92  C   UNL A   1      43.714  34.638  37.483  1.00  0.00     0.002 A 
ATOM     93  C   UNL A   1      41.376  35.006  36.948  1.00  0.00     0.091 A 
ATOM     94  F   UNL A   1      40.418  33.862  35.084  1.00  0.00    -0.205 F 
ATOM     95  C   UNL A   1      42.494  35.251  37.762  1.00  0.00     0.022 A 
BRANCH  93  96
ATOM     96  S   UNL A   1      39.872  35.914  37.328  1.00  0.00     0.127 S 
ATOM     97  O   UNL A   1      39.628  36.624  36.074  1.00  0.00    -0.237 OA
ATOM     98  O   UNL A   1      38.925  34.838  37.615  1.00  0.00    -0.237 OA
ATOM     99  O   UNL A   1      40.192  36.760  38.470  1.00  0.00    -0.744 OA
ENDBRANCH  93  96
ENDBRANCH  66  89
ENDBRANCH  40  41
ENDBRANCH  33  35
ENDBRANCH  32  33
ENDBRANCH  31  32
ENDBRANCH  30  31
ENDBRANCH  29  30
ENDBRANCH   1  29
TORSDOF 22
ENDMDL
