MODEL 1
REMARK VINA RESULT:      -9.1      0.000      0.000
REMARK SMILES COc1cc(/C=N/NC(=O)c2cccnc2)ccc1OCC(=O)OCCOCCOCCOC(=O)c1ccc(-c2c3nc(c(-c4cccc(S(=O)(=O)[O-])c4F)c4ccc([nH]4)c(-c4cccc(S(=O)(=O)[O-])c4F)c4nc(c(-c5cccc(S(=O)(=O)[O-])c5F)c5ccc2[nH]5)C=C4)C=C3)cc1
REMARK SMILES IDX 28 1 27 2 26 3 25 4 24 5 22 6 23 7 21 8 20 9 19 10 3 11 4 12
REMARK SMILES IDX 5 13 18 14 17 15 2 16 1 17 6 18 7 19 8 20 9 21 10 23 11 24
REMARK SMILES IDX 12 25 16 26 13 27 15 28 14 29 29 30 30 31 31 32 32 33 33 34
REMARK SMILES IDX 34 35 35 36 36 37 37 38 98 39 38 40 97 41 39 42 40 43 41 44
REMARK SMILES IDX 91 45 42 46 96 47 90 48 92 49 43 50 95 51 89 52 88 53 44 55
REMARK SMILES IDX 76 56 56 57 75 58 57 59 60 60 74 61 93 62 58 63 59 64 73 66
REMARK SMILES IDX 94 67 61 68 45 69 46 70 54 71 47 72 49 73 55 74 48 75 50 76
REMARK SMILES IDX 51 77 52 78 53 79 77 80 78 81 86 82 79 83 81 84 87 85 80 86
REMARK SMILES IDX 82 87 83 88 84 89 85 90 62 91 63 92 71 93 64 94 66 95 72 96
REMARK SMILES IDX 65 97 67 98 68 99 69 100 70 101
REMARK H PARENT 8 22 92 54 60 65
REMARK Flexibility Score: inf
ROOT
ATOM      1  C   UNL A   1      42.175  19.757  27.156  1.00  0.00     0.188 C 
ENDROOT
BRANCH   1   2
ATOM      2  O   UNL A   1      41.200  20.774  27.336  1.00  0.00    -0.376 OA
BRANCH   2   3
ATOM      3  C   UNL A   1      40.765  21.477  26.177  1.00  0.00     0.202 C 
BRANCH   3   4
ATOM      4  C   UNL A   1      39.375  22.105  26.294  1.00  0.00     0.261 C 
BRANCH   4   5
ATOM      5  O   UNL A   1      38.426  21.478  25.396  1.00  0.00    -0.461 OA
BRANCH   5   6
ATOM      6  C   UNL A   1      37.188  22.043  25.317  1.00  0.00     0.344 C 
ATOM      7  O   UNL A   1      36.981  23.250  25.260  1.00  0.00    -0.248 OA
BRANCH   6   8
ATOM      8  C   UNL A   1      36.060  21.009  25.438  1.00  0.00     0.352 C 
BRANCH   8   9
ATOM      9  O   UNL A   1      35.025  20.941  24.476  1.00  0.00    -0.478 OA
BRANCH   9  10
ATOM     10  C   UNL A   1      34.025  21.872  24.425  1.00  0.00     0.162 A 
ATOM     11  C   UNL A   1      33.168  22.313  25.444  1.00  0.00     0.161 A 
ATOM     12  C   UNL A   1      32.258  23.361  25.200  1.00  0.00     0.060 A 
ATOM     13  C   UNL A   1      32.260  24.013  23.962  1.00  0.00    -0.002 A 
ATOM     14  C   UNL A   1      33.915  22.458  23.156  1.00  0.00     0.051 A 
ATOM     15  C   UNL A   1      33.058  23.532  22.925  1.00  0.00     0.014 A 
BRANCH  11  16
ATOM     16  O   UNL A   1      33.150  21.667  26.649  1.00  0.00    -0.493 OA
ATOM     17  C   UNL A   1      33.744  22.421  27.705  1.00  0.00     0.278 C 
ENDBRANCH  11  16
BRANCH  13  18
ATOM     18  C   UNL A   1      31.553  25.288  23.717  1.00  0.00     0.141 C 
ATOM     19  N   UNL A   1      32.130  26.364  23.280  1.00  0.00    -0.180 NA
BRANCH  19  20
ATOM     20  N   UNL A   1      31.310  27.446  23.051  1.00  0.00    -0.243 N 
ATOM     21  C   UNL A   1      30.982  28.505  23.880  1.00  0.00     0.272 C 
ATOM     22  H   UNL A   1      30.893  27.470  22.159  1.00  0.00     0.194 HD
ATOM     23  O   UNL A   1      30.090  29.295  23.583  1.00  0.00    -0.267 OA
BRANCH  21  24
ATOM     24  C   UNL A   1      31.706  28.702  25.144  1.00  0.00     0.059 A 
ATOM     25  C   UNL A   1      31.452  27.940  26.285  1.00  0.00     0.017 A 
ATOM     26  C   UNL A   1      32.644  29.721  25.222  1.00  0.00     0.124 A 
ATOM     27  C   UNL A   1      32.090  28.272  27.474  1.00  0.00     0.021 A 
ATOM     28  N   UNL A   1      33.277  30.069  26.371  1.00  0.00    -0.264 NA
ATOM     29  C   UNL A   1      32.978  29.339  27.469  1.00  0.00     0.111 A 
ENDBRANCH  21  24
ENDBRANCH  19  20
ENDBRANCH  13  18
ENDBRANCH   9  10
ENDBRANCH   8   9
ENDBRANCH   6   8
ENDBRANCH   5   6
ENDBRANCH   4   5
ENDBRANCH   3   4
ENDBRANCH   2   3
ENDBRANCH   1   2
BRANCH   1  30
ATOM     30  C   UNL A   1      42.252  19.115  25.762  1.00  0.00     0.188 C 
BRANCH  30  31
ATOM     31  O   UNL A   1      43.291  19.525  24.879  1.00  0.00    -0.376 OA
BRANCH  31  32
ATOM     32  C   UNL A   1      44.449  20.092  25.482  1.00  0.00     0.202 C 
BRANCH  32  33
ATOM     33  C   UNL A   1      45.133  21.154  24.628  1.00  0.00     0.261 C 
BRANCH  33  34
ATOM     34  O   UNL A   1      45.999  21.977  25.426  1.00  0.00    -0.460 OA
BRANCH  34  35
ATOM     35  C   UNL A   1      46.362  23.126  24.809  1.00  0.00     0.338 C 
ATOM     36  O   UNL A   1      46.952  23.207  23.744  1.00  0.00    -0.246 OA
BRANCH  35  37
ATOM     37  C   UNL A   1      45.923  24.309  25.581  1.00  0.00     0.060 A 
ATOM     38  C   UNL A   1      45.251  25.368  24.970  1.00  0.00     0.016 A 
ATOM     39  C   UNL A   1      46.343  24.433  26.906  1.00  0.00     0.016 A 
ATOM     40  C   UNL A   1      45.101  26.584  25.644  1.00  0.00     0.010 A 
ATOM     41  C   UNL A   1      46.115  25.623  27.604  1.00  0.00     0.010 A 
ATOM     42  C   UNL A   1      45.536  26.733  26.966  1.00  0.00    -0.014 A 
BRANCH  42  43
ATOM     43  C   UNL A   1      45.457  28.049  27.663  1.00  0.00     0.031 A 
ATOM     44  C   UNL A   1      44.159  28.495  28.285  1.00  0.00     0.074 A 
ATOM     45  C   UNL A   1      46.527  28.864  27.737  1.00  0.00     0.049 A 
ATOM     46  N   UNL A   1      43.794  29.682  28.695  1.00  0.00    -0.248 NA
ATOM     47  C   UNL A   1      43.127  27.463  28.457  1.00  0.00     0.031 C 
ATOM     48  C   UNL A   1      47.867  28.555  27.239  1.00  0.00     0.029 A 
ATOM     49  N   UNL A   1      46.645  30.136  28.243  1.00  0.00    -0.354 N 
ATOM     50  C   UNL A   1      42.464  29.557  29.086  1.00  0.00     0.074 A 
ATOM     51  C   UNL A   1      42.094  28.173  28.888  1.00  0.00     0.031 C 
ATOM     52  C   UNL A   1      48.672  29.606  27.462  1.00  0.00     0.029 A 
ATOM     53  C   UNL A   1      47.884  30.695  28.033  1.00  0.00     0.049 A 
ATOM     54  H   UNL A   1      45.913  30.603  28.709  1.00  0.00     0.167 HD
ATOM     55  C   UNL A   1      41.629  30.506  29.574  1.00  0.00     0.034 A 
ATOM     56  C   UNL A   1      48.326  31.955  28.216  1.00  0.00     0.034 A 
ATOM     57  C   UNL A   1      42.023  31.860  29.854  1.00  0.00     0.049 A 
ATOM     58  C   UNL A   1      47.381  33.000  28.740  1.00  0.00     0.074 A 
ATOM     59  C   UNL A   1      41.257  32.889  30.373  1.00  0.00     0.029 A 
ATOM     60  N   UNL A   1      43.295  32.371  29.655  1.00  0.00    -0.354 N 
ATOM     61  N   UNL A   1      46.129  32.872  29.106  1.00  0.00    -0.248 NA
ATOM     62  C   UNL A   1      47.911  34.364  28.881  1.00  0.00     0.031 C 
ATOM     63  C   UNL A   1      42.067  34.025  30.482  1.00  0.00     0.029 A 
ATOM     64  C   UNL A   1      43.339  33.699  30.042  1.00  0.00     0.049 A 
ATOM     65  H   UNL A   1      44.057  31.862  29.293  1.00  0.00     0.167 HD
ATOM     66  C   UNL A   1      45.725  34.133  29.531  1.00  0.00     0.074 A 
ATOM     67  C   UNL A   1      46.877  35.003  29.408  1.00  0.00     0.031 C 
ATOM     68  C   UNL A   1      44.504  34.540  29.960  1.00  0.00     0.034 A 
BRANCH  55  69
ATOM     69  C   UNL A   1      40.202  30.108  29.846  1.00  0.00     0.023 A 
ATOM     70  C   UNL A   1      39.281  30.012  28.785  1.00  0.00     0.012 A 
ATOM     71  C   UNL A   1      39.787  29.781  31.153  1.00  0.00     0.148 A 
ATOM     72  C   UNL A   1      37.962  29.627  29.024  1.00  0.00     0.002 A 
ATOM     73  C   UNL A   1      38.481  29.358  31.377  1.00  0.00     0.091 A 
ATOM     74  F   UNL A   1      40.669  29.906  32.155  1.00  0.00    -0.205 F 
ATOM     75  C   UNL A   1      37.565  29.291  30.316  1.00  0.00     0.022 A 
BRANCH  73  76
ATOM     76  S   UNL A   1      37.913  28.825  32.995  1.00  0.00     0.127 S 
ATOM     77  O   UNL A   1      37.971  27.370  32.867  1.00  0.00    -0.237 OA
ATOM     78  O   UNL A   1      38.922  29.397  33.888  1.00  0.00    -0.237 OA
ATOM     79  O   UNL A   1      36.581  29.393  33.154  1.00  0.00    -0.744 OA
ENDBRANCH  73  76
ENDBRANCH  55  69
BRANCH  56  80
ATOM     80  C   UNL A   1      49.739  32.292  27.882  1.00  0.00     0.023 A 
ATOM     81  C   UNL A   1      50.758  31.997  28.805  1.00  0.00     0.012 A 
ATOM     82  C   UNL A   1      50.082  32.844  26.631  1.00  0.00     0.148 A 
ATOM     83  C   UNL A   1      52.094  32.252  28.493  1.00  0.00     0.002 A 
ATOM     84  C   UNL A   1      51.418  33.031  26.301  1.00  0.00     0.091 A 
ATOM     85  F   UNL A   1      49.094  33.148  25.777  1.00  0.00    -0.205 F 
ATOM     86  C   UNL A   1      52.426  32.752  27.236  1.00  0.00     0.022 A 
BRANCH  84  87
ATOM     87  S   UNL A   1      51.933  33.510  24.647  1.00  0.00     0.127 S 
ATOM     88  O   UNL A   1      51.709  32.280  23.894  1.00  0.00    -0.237 OA
ATOM     89  O   UNL A   1      51.004  34.599  24.344  1.00  0.00    -0.237 OA
ATOM     90  O   UNL A   1      53.321  33.932  24.780  1.00  0.00    -0.744 OA
ENDBRANCH  84  87
ENDBRANCH  56  80
BRANCH  68  91
ATOM     91  C   UNL A   1      44.351  35.989  30.342  1.00  0.00     0.023 A 
ATOM     92  C   UNL A   1      44.740  36.410  31.629  1.00  0.00     0.012 A 
ATOM     93  C   UNL A   1      43.880  36.939  29.415  1.00  0.00     0.148 A 
ATOM     94  C   UNL A   1      44.635  37.752  31.997  1.00  0.00     0.002 A 
ATOM     95  C   UNL A   1      43.817  38.280  29.776  1.00  0.00     0.091 A 
ATOM     96  F   UNL A   1      43.494  36.514  28.203  1.00  0.00    -0.205 F 
ATOM     97  C   UNL A   1      44.185  38.687  31.069  1.00  0.00     0.022 A 
BRANCH  95  98
ATOM     98  S   UNL A   1      43.326  39.559  28.613  1.00  0.00     0.127 S 
ATOM     99  O   UNL A   1      41.930  39.212  28.359  1.00  0.00    -0.237 OA
ATOM    100  O   UNL A   1      43.519  40.783  29.391  1.00  0.00    -0.237 OA
ATOM    101  O   UNL A   1      44.225  39.424  27.474  1.00  0.00    -0.744 OA
ENDBRANCH  95  98
ENDBRANCH  68  91
ENDBRANCH  42  43
ENDBRANCH  35  37
ENDBRANCH  34  35
ENDBRANCH  33  34
ENDBRANCH  32  33
ENDBRANCH  31  32
ENDBRANCH  30  31
ENDBRANCH   1  30
TORSDOF 26
ENDMDL
MODEL 2
REMARK VINA RESULT:      -8.7      5.438     11.281
REMARK SMILES COc1cc(/C=N/NC(=O)c2cccnc2)ccc1OCC(=O)OCCOCCOCCOC(=O)c1ccc(-c2c3nc(c(-c4cccc(S(=O)(=O)[O-])c4F)c4ccc([nH]4)c(-c4cccc(S(=O)(=O)[O-])c4F)c4nc(c(-c5cccc(S(=O)(=O)[O-])c5F)c5ccc2[nH]5)C=C4)C=C3)cc1
REMARK SMILES IDX 28 1 27 2 26 3 25 4 24 5 22 6 23 7 21 8 20 9 19 10 3 11 4 12
REMARK SMILES IDX 5 13 18 14 17 15 2 16 1 17 6 18 7 19 8 20 9 21 10 23 11 24
REMARK SMILES IDX 12 25 16 26 13 27 15 28 14 29 29 30 30 31 31 32 32 33 33 34
REMARK SMILES IDX 34 35 35 36 36 37 37 38 98 39 38 40 97 41 39 42 40 43 41 44
REMARK SMILES IDX 91 45 42 46 96 47 90 48 92 49 43 50 95 51 89 52 88 53 44 55
REMARK SMILES IDX 76 56 56 57 75 58 57 59 60 60 74 61 93 62 58 63 59 64 73 66
REMARK SMILES IDX 94 67 61 68 45 69 46 70 54 71 47 72 49 73 55 74 48 75 50 76
REMARK SMILES IDX 51 77 52 78 53 79 77 80 78 81 86 82 79 83 81 84 87 85 80 86
REMARK SMILES IDX 82 87 83 88 84 89 85 90 62 91 63 92 71 93 64 94 66 95 72 96
REMARK SMILES IDX 65 97 67 98 68 99 69 100 70 101
REMARK H PARENT 8 22 92 54 60 65
REMARK Flexibility Score: inf
ROOT
ATOM      1  C   UNL A   1      39.593  34.917  38.682  1.00  0.00     0.188 C 
ENDROOT
BRANCH   1   2
ATOM      2  O   UNL A   1      40.129  34.875  37.366  1.00  0.00    -0.376 OA
BRANCH   2   3
ATOM      3  C   UNL A   1      39.670  35.856  36.442  1.00  0.00     0.202 C 
BRANCH   3   4
ATOM      4  C   UNL A   1      39.625  35.390  34.986  1.00  0.00     0.261 C 
BRANCH   4   5
ATOM      5  O   UNL A   1      38.265  35.237  34.513  1.00  0.00    -0.461 OA
BRANCH   5   6
ATOM      6  C   UNL A   1      38.098  34.635  33.301  1.00  0.00     0.344 C 
ATOM      7  O   UNL A   1      39.010  34.385  32.522  1.00  0.00    -0.248 OA
BRANCH   6   8
ATOM      8  C   UNL A   1      36.619  34.419  32.950  1.00  0.00     0.352 C 
BRANCH   8   9
ATOM      9  O   UNL A   1      36.217  34.137  31.624  1.00  0.00    -0.478 OA
BRANCH   9  10
ATOM     10  C   UNL A   1      36.516  32.949  31.017  1.00  0.00     0.162 A 
ATOM     11  C   UNL A   1      37.246  32.710  29.844  1.00  0.00     0.161 A 
ATOM     12  C   UNL A   1      37.521  31.388  29.438  1.00  0.00     0.060 A 
ATOM     13  C   UNL A   1      37.128  30.314  30.244  1.00  0.00    -0.002 A 
ATOM     14  C   UNL A   1      36.024  31.851  31.736  1.00  0.00     0.051 A 
ATOM     15  C   UNL A   1      36.341  30.544  31.371  1.00  0.00     0.014 A 
BRANCH  11  16
ATOM     16  O   UNL A   1      37.616  33.755  29.044  1.00  0.00    -0.493 OA
ATOM     17  C   UNL A   1      38.936  34.231  29.307  1.00  0.00     0.278 C 
ENDBRANCH  11  16
BRANCH  13  18
ATOM     18  C   UNL A   1      37.617  28.933  30.047  1.00  0.00     0.141 C 
ATOM     19  N   UNL A   1      38.618  28.620  29.286  1.00  0.00    -0.180 NA
BRANCH  19  20
ATOM     20  N   UNL A   1      38.976  27.291  29.265  1.00  0.00    -0.243 N 
ATOM     21  C   UNL A   1      39.883  26.626  28.457  1.00  0.00     0.272 C 
ATOM     22  H   UNL A   1      38.518  26.726  29.929  1.00  0.00     0.194 HD
ATOM     23  O   UNL A   1      39.951  25.399  28.449  1.00  0.00    -0.267 OA
BRANCH  21  24
ATOM     24  C   UNL A   1      40.788  27.387  27.583  1.00  0.00     0.059 A 
ATOM     25  C   UNL A   1      41.422  28.560  27.994  1.00  0.00     0.017 A 
ATOM     26  C   UNL A   1      40.980  26.949  26.281  1.00  0.00     0.124 A 
ATOM     27  C   UNL A   1      42.162  29.287  27.069  1.00  0.00     0.021 A 
ATOM     28  N   UNL A   1      41.693  27.643  25.357  1.00  0.00    -0.264 NA
ATOM     29  C   UNL A   1      42.260  28.797  25.774  1.00  0.00     0.111 A 
ENDBRANCH  21  24
ENDBRANCH  19  20
ENDBRANCH  13  18
ENDBRANCH   9  10
ENDBRANCH   8   9
ENDBRANCH   6   8
ENDBRANCH   5   6
ENDBRANCH   4   5
ENDBRANCH   3   4
ENDBRANCH   2   3
ENDBRANCH   1   2
BRANCH   1  30
ATOM     30  C   UNL A   1      40.127  33.874  39.676  1.00  0.00     0.188 C 
BRANCH  30  31
ATOM     31  O   UNL A   1      39.573  32.563  39.653  1.00  0.00    -0.376 OA
BRANCH  31  32
ATOM     32  C   UNL A   1      38.163  32.467  39.813  1.00  0.00     0.202 C 
BRANCH  32  33
ATOM     33  C   UNL A   1      37.457  31.755  38.664  1.00  0.00     0.261 C 
BRANCH  33  34
ATOM     34  O   UNL A   1      38.359  31.526  37.569  1.00  0.00    -0.460 OA
BRANCH  34  35
ATOM     35  C   UNL A   1      37.920  32.046  36.398  1.00  0.00     0.338 C 
ATOM     36  O   UNL A   1      36.887  32.676  36.241  1.00  0.00    -0.246 OA
BRANCH  35  37
ATOM     37  C   UNL A   1      38.878  31.781  35.304  1.00  0.00     0.060 A 
ATOM     38  C   UNL A   1      38.477  31.160  34.120  1.00  0.00     0.016 A 
ATOM     39  C   UNL A   1      40.235  32.005  35.538  1.00  0.00     0.016 A 
ATOM     40  C   UNL A   1      39.434  30.665  33.230  1.00  0.00     0.010 A 
ATOM     41  C   UNL A   1      41.186  31.582  34.603  1.00  0.00     0.010 A 
ATOM     42  C   UNL A   1      40.802  30.862  33.460  1.00  0.00    -0.014 A 
BRANCH  42  43
ATOM     43  C   UNL A   1      41.831  30.265  32.561  1.00  0.00     0.031 A 
ATOM     44  C   UNL A   1      42.426  28.919  32.887  1.00  0.00     0.074 A 
ATOM     45  C   UNL A   1      42.256  30.914  31.459  1.00  0.00     0.049 A 
ATOM     46  N   UNL A   1      43.499  28.343  32.410  1.00  0.00    -0.248 NA
ATOM     47  C   UNL A   1      41.721  28.120  33.898  1.00  0.00     0.031 C 
ATOM     48  C   UNL A   1      41.739  32.193  30.974  1.00  0.00     0.029 A 
ATOM     49  N   UNL A   1      43.244  30.591  30.560  1.00  0.00    -0.354 N 
ATOM     50  C   UNL A   1      43.645  27.160  33.127  1.00  0.00     0.074 A 
ATOM     51  C   UNL A   1      42.538  27.088  34.055  1.00  0.00     0.031 C 
ATOM     52  C   UNL A   1      42.412  32.547  29.868  1.00  0.00     0.029 A 
ATOM     53  C   UNL A   1      43.467  31.570  29.620  1.00  0.00     0.049 A 
ATOM     54  H   UNL A   1      43.743  29.742  30.587  1.00  0.00     0.167 HD
ATOM     55  C   UNL A   1      44.610  26.215  33.019  1.00  0.00     0.034 A 
ATOM     56  C   UNL A   1      44.446  31.703  28.702  1.00  0.00     0.034 A 
ATOM     57  C   UNL A   1      45.660  26.243  32.038  1.00  0.00     0.049 A 
ATOM     58  C   UNL A   1      45.519  30.655  28.608  1.00  0.00     0.074 A 
ATOM     59  C   UNL A   1      46.670  25.319  31.831  1.00  0.00     0.029 A 
ATOM     60  N   UNL A   1      45.828  27.236  31.087  1.00  0.00    -0.354 N 
ATOM     61  N   UNL A   1      45.648  29.542  29.289  1.00  0.00    -0.248 NA
ATOM     62  C   UNL A   1      46.579  30.878  27.615  1.00  0.00     0.031 C 
ATOM     63  C   UNL A   1      47.452  25.759  30.757  1.00  0.00     0.029 A 
ATOM     64  C   UNL A   1      46.921  26.950  30.289  1.00  0.00     0.049 A 
ATOM     65  H   UNL A   1      45.251  28.029  30.992  1.00  0.00     0.167 HD
ATOM     66  C   UNL A   1      46.795  28.928  28.800  1.00  0.00     0.074 A 
ATOM     67  C   UNL A   1      47.305  29.775  27.742  1.00  0.00     0.031 C 
ATOM     68  C   UNL A   1      47.389  27.778  29.208  1.00  0.00     0.034 A 
BRANCH  55  69
ATOM     69  C   UNL A   1      44.569  25.059  33.985  1.00  0.00     0.023 A 
ATOM     70  C   UNL A   1      43.982  23.839  33.600  1.00  0.00     0.012 A 
ATOM     71  C   UNL A   1      45.158  25.171  35.260  1.00  0.00     0.148 A 
ATOM     72  C   UNL A   1      43.954  22.756  34.479  1.00  0.00     0.002 A 
ATOM     73  C   UNL A   1      45.164  24.075  36.116  1.00  0.00     0.091 A 
ATOM     74  F   UNL A   1      45.687  26.349  35.621  1.00  0.00    -0.205 F 
ATOM     75  C   UNL A   1      44.554  22.871  35.732  1.00  0.00     0.022 A 
BRANCH  73  76
ATOM     76  S   UNL A   1      45.988  24.111  37.712  1.00  0.00     0.127 S 
ATOM     77  O   UNL A   1      47.359  24.445  37.331  1.00  0.00    -0.237 OA
ATOM     78  O   UNL A   1      45.273  25.180  38.411  1.00  0.00    -0.237 OA
ATOM     79  O   UNL A   1      45.797  22.786  38.286  1.00  0.00    -0.744 OA
ENDBRANCH  73  76
ENDBRANCH  55  69
BRANCH  56  80
ATOM     80  C   UNL A   1      44.454  32.896  27.808  1.00  0.00     0.023 A 
ATOM     81  C   UNL A   1      43.947  32.785  26.501  1.00  0.00     0.012 A 
ATOM     82  C   UNL A   1      44.901  34.151  28.269  1.00  0.00     0.148 A 
ATOM     83  C   UNL A   1      43.892  33.899  25.664  1.00  0.00     0.002 A 
ATOM     84  C   UNL A   1      44.779  35.270  27.454  1.00  0.00     0.091 A 
ATOM     85  F   UNL A   1      45.409  34.231  29.506  1.00  0.00    -0.205 F 
ATOM     86  C   UNL A   1      44.291  35.145  26.145  1.00  0.00     0.022 A 
BRANCH  84  87
ATOM     87  S   UNL A   1      45.112  36.929  28.058  1.00  0.00     0.127 S 
ATOM     88  O   UNL A   1      44.611  37.754  26.962  1.00  0.00    -0.237 OA
ATOM     89  O   UNL A   1      44.312  36.973  29.282  1.00  0.00    -0.237 OA
ATOM     90  O   UNL A   1      46.551  36.978  28.285  1.00  0.00    -0.744 OA
ENDBRANCH  84  87
ENDBRANCH  56  80
BRANCH  68  91
ATOM     91  C   UNL A   1      48.650  27.358  28.499  1.00  0.00     0.023 A 
ATOM     92  C   UNL A   1      48.561  26.552  27.347  1.00  0.00     0.012 A 
ATOM     93  C   UNL A   1      49.911  27.808  28.934  1.00  0.00     0.148 A 
ATOM     94  C   UNL A   1      49.713  26.175  26.656  1.00  0.00     0.002 A 
ATOM     95  C   UNL A   1      51.051  27.462  28.216  1.00  0.00     0.091 A 
ATOM     96  F   UNL A   1      49.976  28.557  30.045  1.00  0.00    -0.205 F 
ATOM     97  C   UNL A   1      50.954  26.638  27.083  1.00  0.00     0.022 A 
BRANCH  95  98
ATOM     98  S   UNL A   1      52.679  28.085  28.653  1.00  0.00     0.127 S 
ATOM     99  O   UNL A   1      52.776  27.707  30.061  1.00  0.00    -0.237 OA
ATOM    100  O   UNL A   1      53.555  27.328  27.757  1.00  0.00    -0.237 OA
ATOM    101  O   UNL A   1      52.640  29.516  28.385  1.00  0.00    -0.744 OA
ENDBRANCH  95  98
ENDBRANCH  68  91
ENDBRANCH  42  43
ENDBRANCH  35  37
ENDBRANCH  34  35
ENDBRANCH  33  34
ENDBRANCH  32  33
ENDBRANCH  31  32
ENDBRANCH  30  31
ENDBRANCH   1  30
TORSDOF 26
ENDMDL
MODEL 3
REMARK VINA RESULT:      -8.3      4.488      8.379
REMARK SMILES COc1cc(/C=N/NC(=O)c2cccnc2)ccc1OCC(=O)OCCOCCOCCOC(=O)c1ccc(-c2c3nc(c(-c4cccc(S(=O)(=O)[O-])c4F)c4ccc([nH]4)c(-c4cccc(S(=O)(=O)[O-])c4F)c4nc(c(-c5cccc(S(=O)(=O)[O-])c5F)c5ccc2[nH]5)C=C4)C=C3)cc1
REMARK SMILES IDX 28 1 27 2 26 3 25 4 24 5 22 6 23 7 21 8 20 9 19 10 3 11 4 12
REMARK SMILES IDX 5 13 18 14 17 15 2 16 1 17 6 18 7 19 8 20 9 21 10 23 11 24
REMARK SMILES IDX 12 25 16 26 13 27 15 28 14 29 29 30 30 31 31 32 32 33 33 34
REMARK SMILES IDX 34 35 35 36 36 37 37 38 98 39 38 40 97 41 39 42 40 43 41 44
REMARK SMILES IDX 91 45 42 46 96 47 90 48 92 49 43 50 95 51 89 52 88 53 44 55
REMARK SMILES IDX 76 56 56 57 75 58 57 59 60 60 74 61 93 62 58 63 59 64 73 66
REMARK SMILES IDX 94 67 61 68 45 69 46 70 54 71 47 72 49 73 55 74 48 75 50 76
REMARK SMILES IDX 51 77 52 78 53 79 77 80 78 81 86 82 79 83 81 84 87 85 80 86
REMARK SMILES IDX 82 87 83 88 84 89 85 90 62 91 63 92 71 93 64 94 66 95 72 96
REMARK SMILES IDX 65 97 67 98 68 99 69 100 70 101
REMARK H PARENT 8 22 92 54 60 65
REMARK Flexibility Score: inf
ROOT
ATOM      1  C   UNL A   1      42.887  19.185  26.861  1.00  0.00     0.188 C 
ENDROOT
BRANCH   1   2
ATOM      2  O   UNL A   1      41.866  20.044  27.351  1.00  0.00    -0.376 OA
BRANCH   2   3
ATOM      3  C   UNL A   1      41.127  20.795  26.393  1.00  0.00     0.202 C 
BRANCH   3   4
ATOM      4  C   UNL A   1      40.174  21.831  26.992  1.00  0.00     0.261 C 
BRANCH   4   5
ATOM      5  O   UNL A   1      40.487  23.171  26.539  1.00  0.00    -0.461 OA
BRANCH   5   6
ATOM      6  C   UNL A   1      39.907  24.202  27.218  1.00  0.00     0.344 C 
ATOM      7  O   UNL A   1      38.766  24.180  27.665  1.00  0.00    -0.248 OA
BRANCH   6   8
ATOM      8  C   UNL A   1      40.792  25.456  27.252  1.00  0.00     0.352 C 
BRANCH   8   9
ATOM      9  O   UNL A   1      41.070  26.120  28.469  1.00  0.00    -0.478 OA
BRANCH   9  10
ATOM     10  C   UNL A   1      40.361  27.218  28.870  1.00  0.00     0.162 A 
ATOM     11  C   UNL A   1      40.479  28.552  28.456  1.00  0.00     0.161 A 
ATOM     12  C   UNL A   1      39.576  29.525  28.932  1.00  0.00     0.060 A 
ATOM     13  C   UNL A   1      38.516  29.145  29.762  1.00  0.00    -0.002 A 
ATOM     14  C   UNL A   1      39.367  26.891  29.804  1.00  0.00     0.051 A 
ATOM     15  C   UNL A   1      38.437  27.836  30.234  1.00  0.00     0.014 A 
BRANCH  11  16
ATOM     16  O   UNL A   1      41.524  28.930  27.660  1.00  0.00    -0.493 OA
ATOM     17  C   UNL A   1      41.230  28.856  26.265  1.00  0.00     0.278 C 
ENDBRANCH  11  16
BRANCH  13  18
ATOM     18  C   UNL A   1      37.373  30.030  30.071  1.00  0.00     0.141 C 
ATOM     19  N   UNL A   1      36.373  30.229  29.271  1.00  0.00    -0.180 NA
BRANCH  19  20
ATOM     20  N   UNL A   1      35.364  31.038  29.743  1.00  0.00    -0.243 N 
ATOM     21  C   UNL A   1      35.434  32.249  30.412  1.00  0.00     0.272 C 
ATOM     22  H   UNL A   1      34.452  30.705  29.580  1.00  0.00     0.194 HD
ATOM     23  O   UNL A   1      34.438  32.753  30.925  1.00  0.00    -0.267 OA
BRANCH  21  24
ATOM     24  C   UNL A   1      36.717  32.958  30.520  1.00  0.00     0.059 A 
ATOM     25  C   UNL A   1      37.279  33.666  29.458  1.00  0.00     0.017 A 
ATOM     26  C   UNL A   1      37.423  32.878  31.712  1.00  0.00     0.124 A 
ATOM     27  C   UNL A   1      38.553  34.203  29.603  1.00  0.00     0.021 A 
ATOM     28  N   UNL A   1      38.669  33.389  31.878  1.00  0.00    -0.264 NA
ATOM     29  C   UNL A   1      39.204  34.032  30.816  1.00  0.00     0.111 A 
ENDBRANCH  21  24
ENDBRANCH  19  20
ENDBRANCH  13  18
ENDBRANCH   9  10
ENDBRANCH   8   9
ENDBRANCH   6   8
ENDBRANCH   5   6
ENDBRANCH   4   5
ENDBRANCH   3   4
ENDBRANCH   2   3
ENDBRANCH   1   2
BRANCH   1  30
ATOM     30  C   UNL A   1      42.788  18.769  25.385  1.00  0.00     0.188 C 
BRANCH  30  31
ATOM     31  O   UNL A   1      43.774  19.246  24.475  1.00  0.00    -0.376 OA
BRANCH  31  32
ATOM     32  C   UNL A   1      44.941  19.821  25.049  1.00  0.00     0.202 C 
BRANCH  32  33
ATOM     33  C   UNL A   1      45.402  21.101  24.361  1.00  0.00     0.261 C 
BRANCH  33  34
ATOM     34  O   UNL A   1      46.353  21.809  25.174  1.00  0.00    -0.460 OA
BRANCH  34  35
ATOM     35  C   UNL A   1      46.373  23.141  24.935  1.00  0.00     0.338 C 
ATOM     36  O   UNL A   1      46.661  23.671  23.876  1.00  0.00    -0.246 OA
BRANCH  35  37
ATOM     37  C   UNL A   1      45.963  23.904  26.135  1.00  0.00     0.060 A 
ATOM     38  C   UNL A   1      44.617  24.112  26.440  1.00  0.00     0.016 A 
ATOM     39  C   UNL A   1      46.946  24.564  26.872  1.00  0.00     0.016 A 
ATOM     40  C   UNL A   1      44.256  25.062  27.400  1.00  0.00     0.010 A 
ATOM     41  C   UNL A   1      46.580  25.451  27.891  1.00  0.00     0.010 A 
ATOM     42  C   UNL A   1      45.230  25.749  28.135  1.00  0.00    -0.014 A 
BRANCH  42  43
ATOM     43  C   UNL A   1      44.855  26.823  29.100  1.00  0.00     0.031 A 
ATOM     44  C   UNL A   1      44.836  28.263  28.654  1.00  0.00     0.074 A 
ATOM     45  C   UNL A   1      44.544  26.534  30.378  1.00  0.00     0.049 A 
ATOM     46  N   UNL A   1      44.805  29.358  29.369  1.00  0.00    -0.248 NA
ATOM     47  C   UNL A   1      44.871  28.499  27.204  1.00  0.00     0.031 C 
ATOM     48  C   UNL A   1      44.457  25.191  30.950  1.00  0.00     0.029 A 
ATOM     49  N   UNL A   1      44.264  27.365  31.437  1.00  0.00    -0.354 N 
ATOM     50  C   UNL A   1      44.907  30.407  28.461  1.00  0.00     0.074 A 
ATOM     51  C   UNL A   1      44.977  29.819  27.141  1.00  0.00     0.031 C 
ATOM     52  C   UNL A   1      44.148  25.286  32.251  1.00  0.00     0.029 A 
ATOM     53  C   UNL A   1      44.105  26.696  32.628  1.00  0.00     0.049 A 
ATOM     54  H   UNL A   1      44.185  28.343  31.351  1.00  0.00     0.167 HD
ATOM     55  C   UNL A   1      44.933  31.740  28.702  1.00  0.00     0.034 A 
ATOM     56  C   UNL A   1      44.001  27.157  33.891  1.00  0.00     0.034 A 
ATOM     57  C   UNL A   1      44.774  32.326  30.005  1.00  0.00     0.049 A 
ATOM     58  C   UNL A   1      44.050  28.638  34.142  1.00  0.00     0.074 A 
ATOM     59  C   UNL A   1      44.760  33.667  30.350  1.00  0.00     0.029 A 
ATOM     60  N   UNL A   1      44.584  31.612  31.177  1.00  0.00    -0.354 N 
ATOM     61  N   UNL A   1      44.147  29.620  33.280  1.00  0.00    -0.248 NA
ATOM     62  C   UNL A   1      43.971  29.075  35.544  1.00  0.00     0.031 C 
ATOM     63  C   UNL A   1      44.568  33.761  31.733  1.00  0.00     0.029 A 
ATOM     64  C   UNL A   1      44.451  32.479  32.246  1.00  0.00     0.049 A 
ATOM     65  H   UNL A   1      44.549  30.629  31.238  1.00  0.00     0.167 HD
ATOM     66  C   UNL A   1      44.128  30.790  34.030  1.00  0.00     0.074 A 
ATOM     67  C   UNL A   1      43.977  30.395  35.416  1.00  0.00     0.031 C 
ATOM     68  C   UNL A   1      44.252  32.075  33.614  1.00  0.00     0.034 A 
BRANCH  55  69
ATOM     69  C   UNL A   1      45.131  32.660  27.526  1.00  0.00     0.023 A 
ATOM     70  C   UNL A   1      44.035  33.019  26.719  1.00  0.00     0.012 A 
ATOM     71  C   UNL A   1      46.400  33.208  27.252  1.00  0.00     0.148 A 
ATOM     72  C   UNL A   1      44.204  33.885  25.639  1.00  0.00     0.002 A 
ATOM     73  C   UNL A   1      46.553  34.103  26.199  1.00  0.00     0.091 A 
ATOM     74  F   UNL A   1      47.439  32.832  28.014  1.00  0.00    -0.205 F 
ATOM     75  C   UNL A   1      45.459  34.435  25.385  1.00  0.00     0.022 A 
BRANCH  73  76
ATOM     76  S   UNL A   1      48.115  34.921  25.857  1.00  0.00     0.127 S 
ATOM     77  O   UNL A   1      47.669  36.163  25.227  1.00  0.00    -0.237 OA
ATOM     78  O   UNL A   1      48.682  35.088  27.196  1.00  0.00    -0.237 OA
ATOM     79  O   UNL A   1      48.860  34.009  25.000  1.00  0.00    -0.744 OA
ENDBRANCH  73  76
ENDBRANCH  55  69
BRANCH  56  80
ATOM     80  C   UNL A   1      43.853  26.189  35.014  1.00  0.00     0.023 A 
ATOM     81  C   UNL A   1      42.579  25.683  35.330  1.00  0.00     0.012 A 
ATOM     82  C   UNL A   1      44.975  25.721  35.727  1.00  0.00     0.148 A 
ATOM     83  C   UNL A   1      42.423  24.734  36.340  1.00  0.00     0.002 A 
ATOM     84  C   UNL A   1      44.821  24.726  36.684  1.00  0.00     0.091 A 
ATOM     85  F   UNL A   1      46.177  26.237  35.433  1.00  0.00    -0.205 F 
ATOM     86  C   UNL A   1      43.544  24.242  37.005  1.00  0.00     0.022 A 
BRANCH  84  87
ATOM     87  S   UNL A   1      46.229  23.924  37.461  1.00  0.00     0.127 S 
ATOM     88  O   UNL A   1      46.755  23.113  36.367  1.00  0.00    -0.237 OA
ATOM     89  O   UNL A   1      47.060  25.068  37.838  1.00  0.00    -0.237 OA
ATOM     90  O   UNL A   1      45.681  23.188  38.593  1.00  0.00    -0.744 OA
ENDBRANCH  84  87
ENDBRANCH  56  80
BRANCH  68  91
ATOM     91  C   UNL A   1      44.215  33.152  34.665  1.00  0.00     0.023 A 
ATOM     92  C   UNL A   1      45.396  33.485  35.358  1.00  0.00     0.012 A 
ATOM     93  C   UNL A   1      43.034  33.873  34.924  1.00  0.00     0.148 A 
ATOM     94  C   UNL A   1      45.393  34.500  36.315  1.00  0.00     0.002 A 
ATOM     95  C   UNL A   1      43.049  34.911  35.849  1.00  0.00     0.091 A 
ATOM     96  F   UNL A   1      41.915  33.527  34.270  1.00  0.00    -0.205 F 
ATOM     97  C   UNL A   1      44.225  35.219  36.552  1.00  0.00     0.022 A 
BRANCH  95  98
ATOM     98  S   UNL A   1      41.608  35.939  36.154  1.00  0.00     0.127 S 
ATOM     99  O   UNL A   1      42.017  36.683  37.343  1.00  0.00    -0.237 OA
ATOM    100  O   UNL A   1      41.528  36.740  34.932  1.00  0.00    -0.237 OA
ATOM    101  O   UNL A   1      40.495  35.017  36.340  1.00  0.00    -0.744 OA
ENDBRANCH  95  98
ENDBRANCH  68  91
ENDBRANCH  42  43
ENDBRANCH  35  37
ENDBRANCH  34  35
ENDBRANCH  33  34
ENDBRANCH  32  33
ENDBRANCH  31  32
ENDBRANCH  30  31
ENDBRANCH   1  30
TORSDOF 26
ENDMDL
