MODEL 1
REMARK VINA RESULT:     -10.3      0.000      0.000
REMARK SMILES NC(=O)[C@@H]1CCCCN1c1cncc(C(=O)OCCOCCOCCOC(=O)c2ccc(-c3c4nc(c(-c5cccc(S(=O)(=O)[O-])c5F)c5ccc([nH]5)c(-c5cccc(S(=O)(=O)[O-])c5F)c5nc(c(-c6cccc(S(=O)(=O)[O-])c6F)c6ccc3[nH]6)C=C5)C=C4)cc2)n1
REMARK SMILES IDX 22 1 21 2 20 3 19 4 18 5 17 6 15 7 16 8 14 9 10 10 11 11
REMARK SMILES IDX 92 12 12 13 13 14 9 15 4 16 5 17 6 18 8 19 7 20 2 21 1 22
REMARK SMILES IDX 3 25 23 26 24 27 25 28 26 29 27 30 28 31 29 32 30 33 91 34
REMARK SMILES IDX 31 35 90 36 32 37 33 38 34 39 84 40 35 41 89 42 83 43 85 44
REMARK SMILES IDX 36 45 88 46 82 47 81 48 37 50 69 51 49 52 68 53 50 54 53 55
REMARK SMILES IDX 67 56 86 57 51 58 52 59 66 61 87 62 54 63 38 64 39 65 47 66
REMARK SMILES IDX 40 67 42 68 48 69 41 70 43 71 44 72 45 73 46 74 70 75 71 76
REMARK SMILES IDX 79 77 72 78 74 79 80 80 73 81 75 82 76 83 77 84 78 85 55 86
REMARK SMILES IDX 56 87 64 88 57 89 59 90 65 91 58 92 60 93 61 94 62 95 63 96
REMARK H PARENT 1 23 1 24 85 49 53 60
REMARK Flexibility Score: inf
ROOT
ATOM      1  C   UNL A   1      36.705  22.320  25.218  1.00  0.00     0.188 C 
ENDROOT
BRANCH   1   2
ATOM      2  C   UNL A   1      35.377  23.091  25.360  1.00  0.00     0.188 C 
BRANCH   2   3
ATOM      3  O   UNL A   1      34.292  22.514  26.051  1.00  0.00    -0.376 OA
BRANCH   3   4
ATOM      4  C   UNL A   1      33.496  21.499  25.467  1.00  0.00     0.202 C 
BRANCH   4   5
ATOM      5  C   UNL A   1      31.962  21.520  25.427  1.00  0.00     0.261 C 
BRANCH   5   6
ATOM      6  O   UNL A   1      31.368  22.448  24.515  1.00  0.00    -0.458 OA
BRANCH   6   7
ATOM      7  C   UNL A   1      31.991  22.538  23.302  1.00  0.00     0.358 C 
ATOM      8  O   UNL A   1      31.988  21.714  22.422  1.00  0.00    -0.244 OA
BRANCH   7   9
ATOM      9  C   UNL A   1      32.524  23.909  23.133  1.00  0.00     0.169 A 
ATOM     10  C   UNL A   1      32.671  26.105  23.815  1.00  0.00     0.148 A 
ATOM     11  C   UNL A   1      33.412  26.349  22.647  1.00  0.00     0.157 A 
ATOM     12  N   UNL A   1      32.175  24.868  24.033  1.00  0.00    -0.220 NA
ATOM     13  N   UNL A   1      33.731  25.406  21.722  1.00  0.00    -0.258 NA
ATOM     14  C   UNL A   1      33.296  24.162  22.012  1.00  0.00     0.147 A 
BRANCH  10  15
ATOM     15  N   UNL A   1      32.469  27.075  24.768  1.00  0.00    -0.343 N 
ATOM     16  C   UNL A   1      31.526  28.194  24.570  1.00  0.00     0.172 C 
ATOM     17  C   UNL A   1      32.313  29.507  24.604  1.00  0.00     0.035 C 
ATOM     18  C   UNL A   1      33.074  29.625  25.927  1.00  0.00     0.004 C 
ATOM     19  C   UNL A   1      33.218  27.084  26.020  1.00  0.00     0.119 C 
ATOM     20  C   UNL A   1      33.977  28.409  26.153  1.00  0.00     0.022 C 
BRANCH  16  21
ATOM     21  C   UNL A   1      30.536  28.065  23.390  1.00  0.00     0.240 C 
ATOM     22  N   UNL A   1      30.767  28.823  22.277  1.00  0.00    -0.368 N 
ATOM     23  H   UNL A   1      30.156  28.766  21.506  1.00  0.00     0.159 HD
ATOM     24  H   UNL A   1      31.544  29.427  22.244  1.00  0.00     0.159 HD
ATOM     25  O   UNL A   1      29.560  27.315  23.420  1.00  0.00    -0.273 OA
ENDBRANCH  16  21
ENDBRANCH  10  15
ENDBRANCH   7   9
ENDBRANCH   6   7
ENDBRANCH   5   6
ENDBRANCH   4   5
ENDBRANCH   3   4
ENDBRANCH   2   3
ENDBRANCH   1   2
BRANCH   1  26
ATOM     26  O   UNL A   1      36.846  21.003  25.711  1.00  0.00    -0.376 OA
BRANCH  26  27
ATOM     27  C   UNL A   1      37.541  20.027  24.954  1.00  0.00     0.202 C 
BRANCH  27  28
ATOM     28  C   UNL A   1      38.879  19.421  25.395  1.00  0.00     0.261 C 
BRANCH  28  29
ATOM     29  O   UNL A   1      39.951  20.343  25.604  1.00  0.00    -0.460 OA
BRANCH  29  30
ATOM     30  C   UNL A   1      40.453  20.360  26.864  1.00  0.00     0.338 C 
ATOM     31  O   UNL A   1      40.802  19.403  27.533  1.00  0.00    -0.246 OA
BRANCH  30  32
ATOM     32  C   UNL A   1      40.680  21.755  27.275  1.00  0.00     0.060 A 
ATOM     33  C   UNL A   1      40.082  22.778  26.526  1.00  0.00     0.016 A 
ATOM     34  C   UNL A   1      41.521  22.054  28.348  1.00  0.00     0.016 A 
ATOM     35  C   UNL A   1      40.343  24.110  26.836  1.00  0.00     0.010 A 
ATOM     36  C   UNL A   1      41.796  23.391  28.644  1.00  0.00     0.010 A 
ATOM     37  C   UNL A   1      41.233  24.423  27.872  1.00  0.00    -0.014 A 
BRANCH  37  38
ATOM     38  C   UNL A   1      41.698  25.819  28.050  1.00  0.00     0.031 A 
ATOM     39  C   UNL A   1      43.093  26.177  27.617  1.00  0.00     0.074 A 
ATOM     40  C   UNL A   1      40.902  26.748  28.607  1.00  0.00     0.049 A 
ATOM     41  N   UNL A   1      43.727  27.315  27.721  1.00  0.00    -0.248 NA
ATOM     42  C   UNL A   1      43.880  25.106  26.982  1.00  0.00     0.031 C 
ATOM     43  C   UNL A   1      39.533  26.523  29.065  1.00  0.00     0.029 A 
ATOM     44  N   UNL A   1      41.148  28.063  28.911  1.00  0.00    -0.354 N 
ATOM     45  C   UNL A   1      44.994  27.092  27.198  1.00  0.00     0.074 A 
ATOM     46  C   UNL A   1      45.044  25.707  26.783  1.00  0.00     0.031 C 
ATOM     47  C   UNL A   1      39.070  27.654  29.624  1.00  0.00     0.029 A 
ATOM     48  C   UNL A   1      40.118  28.673  29.585  1.00  0.00     0.049 A 
ATOM     49  H   UNL A   1      41.983  28.526  28.668  1.00  0.00     0.167 HD
ATOM     50  C   UNL A   1      46.021  27.964  27.063  1.00  0.00     0.034 A 
ATOM     51  C   UNL A   1      40.040  29.904  30.129  1.00  0.00     0.034 A 
ATOM     52  C   UNL A   1      45.965  29.344  27.464  1.00  0.00     0.049 A 
ATOM     53  C   UNL A   1      41.206  30.849  29.986  1.00  0.00     0.074 A 
ATOM     54  C   UNL A   1      46.935  30.320  27.321  1.00  0.00     0.029 A 
ATOM     55  N   UNL A   1      44.887  29.941  28.098  1.00  0.00    -0.354 N 
ATOM     56  N   UNL A   1      42.352  30.663  29.377  1.00  0.00    -0.248 NA
ATOM     57  C   UNL A   1      41.055  32.187  30.579  1.00  0.00     0.031 C 
ATOM     58  C   UNL A   1      46.455  31.501  27.897  1.00  0.00     0.029 A 
ATOM     59  C   UNL A   1      45.172  31.268  28.368  1.00  0.00     0.049 A 
ATOM     60  H   UNL A   1      44.043  29.488  28.324  1.00  0.00     0.167 HD
ATOM     61  C   UNL A   1      43.040  31.868  29.478  1.00  0.00     0.074 A 
ATOM     62  C   UNL A   1      42.175  32.783  30.193  1.00  0.00     0.031 C 
ATOM     63  C   UNL A   1      44.281  32.186  29.031  1.00  0.00     0.034 A 
BRANCH  50  64
ATOM     64  C   UNL A   1      47.292  27.455  26.438  1.00  0.00     0.023 A 
ATOM     65  C   UNL A   1      47.597  27.792  25.104  1.00  0.00     0.012 A 
ATOM     66  C   UNL A   1      48.208  26.690  27.187  1.00  0.00     0.148 A 
ATOM     67  C   UNL A   1      48.780  27.349  24.514  1.00  0.00     0.002 A 
ATOM     68  C   UNL A   1      49.405  26.290  26.605  1.00  0.00     0.091 A 
ATOM     69  F   UNL A   1      47.887  26.360  28.445  1.00  0.00    -0.205 F 
ATOM     70  C   UNL A   1      49.687  26.608  25.267  1.00  0.00     0.022 A 
BRANCH  68  71
ATOM     71  S   UNL A   1      50.673  25.400  27.515  1.00  0.00     0.127 S 
ATOM     72  O   UNL A   1      49.946  24.204  27.939  1.00  0.00    -0.237 OA
ATOM     73  O   UNL A   1      51.683  25.166  26.484  1.00  0.00    -0.237 OA
ATOM     74  O   UNL A   1      51.095  26.289  28.589  1.00  0.00    -0.744 OA
ENDBRANCH  68  71
ENDBRANCH  50  64
BRANCH  51  75
ATOM     75  C   UNL A   1      38.800  30.329  30.838  1.00  0.00     0.023 A 
ATOM     76  C   UNL A   1      38.653  30.045  32.210  1.00  0.00     0.012 A 
ATOM     77  C   UNL A   1      37.772  31.018  30.165  1.00  0.00     0.148 A 
ATOM     78  C   UNL A   1      37.490  30.409  32.890  1.00  0.00     0.002 A 
ATOM     79  C   UNL A   1      36.640  31.425  30.861  1.00  0.00     0.091 A 
ATOM     80  F   UNL A   1      37.924  31.262  28.855  1.00  0.00    -0.205 F 
ATOM     81  C   UNL A   1      36.489  31.107  32.219  1.00  0.00     0.022 A 
BRANCH  79  82
ATOM     82  S   UNL A   1      35.356  32.430  30.107  1.00  0.00     0.127 S 
ATOM     83  O   UNL A   1      34.917  31.578  29.006  1.00  0.00    -0.237 OA
ATOM     84  O   UNL A   1      34.395  32.562  31.204  1.00  0.00    -0.237 OA
ATOM     85  O   UNL A   1      36.004  33.676  29.724  1.00  0.00    -0.744 OA
ENDBRANCH  79  82
ENDBRANCH  51  75
BRANCH  63  86
ATOM     86  C   UNL A   1      44.774  33.593  29.257  1.00  0.00     0.023 A 
ATOM     87  C   UNL A   1      45.575  33.886  30.378  1.00  0.00     0.012 A 
ATOM     88  C   UNL A   1      44.511  34.606  28.312  1.00  0.00     0.148 A 
ATOM     89  C   UNL A   1      46.079  35.172  30.572  1.00  0.00     0.002 A 
ATOM     90  C   UNL A   1      45.058  35.871  28.485  1.00  0.00     0.091 A 
ATOM     91  F   UNL A   1      43.732  34.311  27.260  1.00  0.00    -0.205 F 
ATOM     92  C   UNL A   1      45.831  36.160  29.621  1.00  0.00     0.022 A 
BRANCH  90  93
ATOM     93  S   UNL A   1      44.875  37.176  27.264  1.00  0.00     0.127 S 
ATOM     94  O   UNL A   1      43.560  36.872  26.699  1.00  0.00    -0.237 OA
ATOM     95  O   UNL A   1      44.919  38.383  28.089  1.00  0.00    -0.237 OA
ATOM     96  O   UNL A   1      45.997  37.031  26.348  1.00  0.00    -0.744 OA
ENDBRANCH  90  93
ENDBRANCH  63  86
ENDBRANCH  37  38
ENDBRANCH  30  32
ENDBRANCH  29  30
ENDBRANCH  28  29
ENDBRANCH  27  28
ENDBRANCH  26  27
ENDBRANCH   1  26
TORSDOF 22
ENDMDL
MODEL 2
REMARK VINA RESULT:     -10.1      4.336      9.717
REMARK SMILES NC(=O)[C@@H]1CCCCN1c1cncc(C(=O)OCCOCCOCCOC(=O)c2ccc(-c3c4nc(c(-c5cccc(S(=O)(=O)[O-])c5F)c5ccc([nH]5)c(-c5cccc(S(=O)(=O)[O-])c5F)c5nc(c(-c6cccc(S(=O)(=O)[O-])c6F)c6ccc3[nH]6)C=C5)C=C4)cc2)n1
REMARK SMILES IDX 22 1 21 2 20 3 19 4 18 5 17 6 15 7 16 8 14 9 10 10 11 11
REMARK SMILES IDX 92 12 12 13 13 14 9 15 4 16 5 17 6 18 8 19 7 20 2 21 1 22
REMARK SMILES IDX 3 25 23 26 24 27 25 28 26 29 27 30 28 31 29 32 30 33 91 34
REMARK SMILES IDX 31 35 90 36 32 37 33 38 34 39 84 40 35 41 89 42 83 43 85 44
REMARK SMILES IDX 36 45 88 46 82 47 81 48 37 50 69 51 49 52 68 53 50 54 53 55
REMARK SMILES IDX 67 56 86 57 51 58 52 59 66 61 87 62 54 63 38 64 39 65 47 66
REMARK SMILES IDX 40 67 42 68 48 69 41 70 43 71 44 72 45 73 46 74 70 75 71 76
REMARK SMILES IDX 79 77 72 78 74 79 80 80 73 81 75 82 76 83 77 84 78 85 55 86
REMARK SMILES IDX 56 87 64 88 57 89 59 90 65 91 58 92 60 93 61 94 62 95 63 96
REMARK H PARENT 1 23 1 24 85 49 53 60
REMARK Flexibility Score: inf
ROOT
ATOM      1  C   UNL A   1      32.361  28.332  25.856  1.00  0.00     0.188 C 
ENDROOT
BRANCH   1   2
ATOM      2  C   UNL A   1      33.379  28.312  24.697  1.00  0.00     0.188 C 
BRANCH   2   3
ATOM      3  O   UNL A   1      32.945  28.083  23.375  1.00  0.00    -0.376 OA
BRANCH   3   4
ATOM      4  C   UNL A   1      31.818  28.751  22.839  1.00  0.00     0.202 C 
BRANCH   4   5
ATOM      5  C   UNL A   1      30.452  28.091  22.606  1.00  0.00     0.261 C 
BRANCH   5   6
ATOM      6  O   UNL A   1      30.391  26.677  22.814  1.00  0.00    -0.458 OA
BRANCH   6   7
ATOM      7  C   UNL A   1      29.702  26.291  23.929  1.00  0.00     0.358 C 
ATOM      8  O   UNL A   1      28.524  26.437  24.140  1.00  0.00    -0.244 OA
BRANCH   7   9
ATOM      9  C   UNL A   1      30.588  25.469  24.784  1.00  0.00     0.169 A 
ATOM     10  C   UNL A   1      32.505  24.226  25.081  1.00  0.00     0.148 A 
ATOM     11  C   UNL A   1      32.013  23.893  26.354  1.00  0.00     0.157 A 
ATOM     12  N   UNL A   1      31.749  24.989  24.263  1.00  0.00    -0.220 NA
ATOM     13  N   UNL A   1      30.834  24.334  26.867  1.00  0.00    -0.258 NA
ATOM     14  C   UNL A   1      30.144  25.166  26.060  1.00  0.00     0.147 A 
BRANCH  10  15
ATOM     15  N   UNL A   1      33.751  23.836  24.655  1.00  0.00    -0.343 N 
ATOM     16  C   UNL A   1      33.986  22.550  23.967  1.00  0.00     0.172 C 
ATOM     17  C   UNL A   1      34.933  21.704  24.822  1.00  0.00     0.035 C 
ATOM     18  C   UNL A   1      36.236  22.469  25.070  1.00  0.00     0.004 C 
ATOM     19  C   UNL A   1      34.935  24.652  24.905  1.00  0.00     0.119 C 
ATOM     20  C   UNL A   1      35.961  23.837  25.700  1.00  0.00     0.022 C 
BRANCH  16  21
ATOM     21  C   UNL A   1      32.735  21.800  23.456  1.00  0.00     0.240 C 
ATOM     22  N   UNL A   1      32.072  22.322  22.381  1.00  0.00    -0.368 N 
ATOM     23  H   UNL A   1      31.271  21.869  22.030  1.00  0.00     0.159 HD
ATOM     24  H   UNL A   1      32.395  23.150  21.958  1.00  0.00     0.159 HD
ATOM     25  O   UNL A   1      32.321  20.764  23.979  1.00  0.00    -0.273 OA
ENDBRANCH  16  21
ENDBRANCH  10  15
ENDBRANCH   7   9
ENDBRANCH   6   7
ENDBRANCH   5   6
ENDBRANCH   4   5
ENDBRANCH   3   4
ENDBRANCH   2   3
ENDBRANCH   1   2
BRANCH   1  26
ATOM     26  O   UNL A   1      31.701  29.524  26.233  1.00  0.00    -0.376 OA
BRANCH  26  27
ATOM     27  C   UNL A   1      32.448  30.682  26.558  1.00  0.00     0.202 C 
BRANCH  27  28
ATOM     28  C   UNL A   1      33.635  30.668  27.531  1.00  0.00     0.261 C 
BRANCH  28  29
ATOM     29  O   UNL A   1      34.267  31.928  27.773  1.00  0.00    -0.460 OA
BRANCH  29  30
ATOM     30  C   UNL A   1      34.741  32.097  29.032  1.00  0.00     0.338 C 
ATOM     31  O   UNL A   1      34.214  32.712  29.944  1.00  0.00    -0.246 OA
BRANCH  30  32
ATOM     32  C   UNL A   1      35.948  31.273  29.209  1.00  0.00     0.060 A 
ATOM     33  C   UNL A   1      35.877  30.158  30.054  1.00  0.00     0.016 A 
ATOM     34  C   UNL A   1      37.150  31.631  28.598  1.00  0.00     0.016 A 
ATOM     35  C   UNL A   1      37.021  29.405  30.310  1.00  0.00     0.010 A 
ATOM     36  C   UNL A   1      38.300  30.886  28.873  1.00  0.00     0.010 A 
ATOM     37  C   UNL A   1      38.247  29.790  29.752  1.00  0.00    -0.014 A 
BRANCH  37  38
ATOM     38  C   UNL A   1      39.501  29.145  30.206  1.00  0.00     0.031 A 
ATOM     39  C   UNL A   1      40.200  29.697  31.418  1.00  0.00     0.074 A 
ATOM     40  C   UNL A   1      40.021  28.099  29.542  1.00  0.00     0.049 A 
ATOM     41  N   UNL A   1      41.328  29.327  31.964  1.00  0.00    -0.248 NA
ATOM     42  C   UNL A   1      39.539  30.819  32.105  1.00  0.00     0.031 C 
ATOM     43  C   UNL A   1      39.437  27.475  28.356  1.00  0.00     0.029 A 
ATOM     44  N   UNL A   1      41.182  27.398  29.755  1.00  0.00    -0.354 N 
ATOM     45  C   UNL A   1      41.530  30.188  33.035  1.00  0.00     0.074 A 
ATOM     46  C   UNL A   1      40.411  31.104  33.060  1.00  0.00     0.031 C 
ATOM     47  C   UNL A   1      40.260  26.504  27.925  1.00  0.00     0.029 A 
ATOM     48  C   UNL A   1      41.438  26.455  28.789  1.00  0.00     0.049 A 
ATOM     49  H   UNL A   1      41.773  27.555  30.527  1.00  0.00     0.167 HD
ATOM     50  C   UNL A   1      42.549  30.206  33.928  1.00  0.00     0.034 A 
ATOM     51  C   UNL A   1      42.514  25.661  28.610  1.00  0.00     0.034 A 
ATOM     52  C   UNL A   1      43.653  29.285  33.910  1.00  0.00     0.049 A 
ATOM     53  C   UNL A   1      43.647  25.718  29.604  1.00  0.00     0.074 A 
ATOM     54  C   UNL A   1      44.707  29.190  34.802  1.00  0.00     0.029 A 
ATOM     55  N   UNL A   1      43.856  28.310  32.946  1.00  0.00    -0.354 N 
ATOM     56  N   UNL A   1      43.763  26.450  30.685  1.00  0.00    -0.248 NA
ATOM     57  C   UNL A   1      44.782  24.812  29.370  1.00  0.00     0.031 C 
ATOM     58  C   UNL A   1      45.563  28.177  34.359  1.00  0.00     0.029 A 
ATOM     59  C   UNL A   1      45.024  27.618  33.211  1.00  0.00     0.049 A 
ATOM     60  H   UNL A   1      43.256  28.135  32.185  1.00  0.00     0.167 HD
ATOM     61  C   UNL A   1      44.961  26.068  31.279  1.00  0.00     0.074 A 
ATOM     62  C   UNL A   1      45.526  25.026  30.447  1.00  0.00     0.031 C 
ATOM     63  C   UNL A   1      45.549  26.544  32.406  1.00  0.00     0.034 A 
BRANCH  50  64
ATOM     64  C   UNL A   1      42.507  31.247  35.013  1.00  0.00     0.023 A 
ATOM     65  C   UNL A   1      41.949  30.926  36.268  1.00  0.00     0.012 A 
ATOM     66  C   UNL A   1      43.067  32.524  34.811  1.00  0.00     0.148 A 
ATOM     67  C   UNL A   1      41.922  31.869  37.294  1.00  0.00     0.002 A 
ATOM     68  C   UNL A   1      43.075  33.444  35.853  1.00  0.00     0.091 A 
ATOM     69  F   UNL A   1      43.569  32.817  33.604  1.00  0.00    -0.205 F 
ATOM     70  C   UNL A   1      42.493  33.122  37.090  1.00  0.00     0.022 A 
BRANCH  68  71
ATOM     71  S   UNL A   1      43.856  35.055  35.715  1.00  0.00     0.127 S 
ATOM     72  O   UNL A   1      45.203  34.692  35.273  1.00  0.00    -0.237 OA
ATOM     73  O   UNL A   1      43.035  35.708  34.696  1.00  0.00    -0.237 OA
ATOM     74  O   UNL A   1      43.775  35.656  37.040  1.00  0.00    -0.744 OA
ENDBRANCH  68  71
ENDBRANCH  50  64
BRANCH  51  75
ATOM     75  C   UNL A   1      42.563  24.721  27.455  1.00  0.00     0.023 A 
ATOM     76  C   UNL A   1      43.116  25.151  26.233  1.00  0.00     0.012 A 
ATOM     77  C   UNL A   1      42.073  23.405  27.561  1.00  0.00     0.148 A 
ATOM     78  C   UNL A   1      43.149  24.299  25.128  1.00  0.00     0.002 A 
ATOM     79  C   UNL A   1      42.158  22.544  26.474  1.00  0.00     0.091 A 
ATOM     80  F   UNL A   1      41.534  23.021  28.728  1.00  0.00    -0.205 F 
ATOM     81  C   UNL A   1      42.680  22.993  25.252  1.00  0.00     0.022 A 
BRANCH  79  82
ATOM     82  S   UNL A   1      41.689  20.813  26.577  1.00  0.00     0.127 S 
ATOM     83  O   UNL A   1      42.329  20.403  27.824  1.00  0.00    -0.237 OA
ATOM     84  O   UNL A   1      40.229  20.900  26.634  1.00  0.00    -0.237 OA
ATOM     85  O   UNL A   1      42.207  20.191  25.366  1.00  0.00    -0.744 OA
ENDBRANCH  79  82
ENDBRANCH  51  75
BRANCH  63  86
ATOM     86  C   UNL A   1      46.851  25.920  32.841  1.00  0.00     0.023 A 
ATOM     87  C   UNL A   1      48.073  26.506  32.459  1.00  0.00     0.012 A 
ATOM     88  C   UNL A   1      46.859  24.801  33.698  1.00  0.00     0.148 A 
ATOM     89  C   UNL A   1      49.284  25.969  32.895  1.00  0.00     0.002 A 
ATOM     90  C   UNL A   1      48.067  24.302  34.171  1.00  0.00     0.091 A 
ATOM     91  F   UNL A   1      45.685  24.248  34.038  1.00  0.00    -0.205 F 
ATOM     92  C   UNL A   1      49.281  24.876  33.760  1.00  0.00     0.022 A 
BRANCH  90  93
ATOM     93  S   UNL A   1      48.155  22.962  35.364  1.00  0.00     0.127 S 
ATOM     94  O   UNL A   1      49.570  22.981  35.730  1.00  0.00    -0.237 OA
ATOM     95  O   UNL A   1      47.248  23.423  36.416  1.00  0.00    -0.237 OA
ATOM     96  O   UNL A   1      47.706  21.768  34.662  1.00  0.00    -0.744 OA
ENDBRANCH  90  93
ENDBRANCH  63  86
ENDBRANCH  37  38
ENDBRANCH  30  32
ENDBRANCH  29  30
ENDBRANCH  28  29
ENDBRANCH  27  28
ENDBRANCH  26  27
ENDBRANCH   1  26
TORSDOF 22
ENDMDL
MODEL 3
REMARK VINA RESULT:      -9.8      2.139      2.781
REMARK SMILES NC(=O)[C@@H]1CCCCN1c1cncc(C(=O)OCCOCCOCCOC(=O)c2ccc(-c3c4nc(c(-c5cccc(S(=O)(=O)[O-])c5F)c5ccc([nH]5)c(-c5cccc(S(=O)(=O)[O-])c5F)c5nc(c(-c6cccc(S(=O)(=O)[O-])c6F)c6ccc3[nH]6)C=C5)C=C4)cc2)n1
REMARK SMILES IDX 22 1 21 2 20 3 19 4 18 5 17 6 15 7 16 8 14 9 10 10 11 11
REMARK SMILES IDX 92 12 12 13 13 14 9 15 4 16 5 17 6 18 8 19 7 20 2 21 1 22
REMARK SMILES IDX 3 25 23 26 24 27 25 28 26 29 27 30 28 31 29 32 30 33 91 34
REMARK SMILES IDX 31 35 90 36 32 37 33 38 34 39 84 40 35 41 89 42 83 43 85 44
REMARK SMILES IDX 36 45 88 46 82 47 81 48 37 50 69 51 49 52 68 53 50 54 53 55
REMARK SMILES IDX 67 56 86 57 51 58 52 59 66 61 87 62 54 63 38 64 39 65 47 66
REMARK SMILES IDX 40 67 42 68 48 69 41 70 43 71 44 72 45 73 46 74 70 75 71 76
REMARK SMILES IDX 79 77 72 78 74 79 80 80 73 81 75 82 76 83 77 84 78 85 55 86
REMARK SMILES IDX 56 87 64 88 57 89 59 90 65 91 58 92 60 93 61 94 62 95 63 96
REMARK H PARENT 1 23 1 24 85 49 53 60
REMARK Flexibility Score: inf
ROOT
ATOM      1  C   UNL A   1      37.580  22.525  25.067  1.00  0.00     0.188 C 
ENDROOT
BRANCH   1   2
ATOM      2  C   UNL A   1      36.463  23.396  24.456  1.00  0.00     0.188 C 
BRANCH   2   3
ATOM      3  O   UNL A   1      35.293  22.795  23.947  1.00  0.00    -0.376 OA
BRANCH   3   4
ATOM      4  C   UNL A   1      34.782  23.133  22.670  1.00  0.00     0.202 C 
BRANCH   4   5
ATOM      5  C   UNL A   1      33.308  22.991  22.265  1.00  0.00     0.261 C 
BRANCH   5   6
ATOM      6  O   UNL A   1      32.527  24.188  22.297  1.00  0.00    -0.458 OA
BRANCH   6   7
ATOM      7  C   UNL A   1      32.901  25.141  21.391  1.00  0.00     0.358 C 
ATOM      8  O   UNL A   1      33.192  24.967  20.235  1.00  0.00    -0.244 OA
BRANCH   7   9
ATOM      9  C   UNL A   1      32.706  26.481  21.990  1.00  0.00     0.169 A 
ATOM     10  C   UNL A   1      31.329  28.110  22.863  1.00  0.00     0.148 A 
ATOM     11  C   UNL A   1      32.457  28.946  22.909  1.00  0.00     0.157 A 
ATOM     12  N   UNL A   1      31.451  26.868  22.345  1.00  0.00    -0.220 NA
ATOM     13  N   UNL A   1      33.706  28.581  22.518  1.00  0.00    -0.258 NA
ATOM     14  C   UNL A   1      33.813  27.307  22.088  1.00  0.00     0.147 A 
BRANCH  10  15
ATOM     15  N   UNL A   1      30.112  28.497  23.370  1.00  0.00    -0.343 N 
ATOM     16  C   UNL A   1      29.297  27.616  24.231  1.00  0.00     0.172 C 
ATOM     17  C   UNL A   1      27.970  27.332  23.522  1.00  0.00     0.035 C 
ATOM     18  C   UNL A   1      27.254  28.648  23.207  1.00  0.00     0.004 C 
ATOM     19  C   UNL A   1      29.524  29.792  23.042  1.00  0.00     0.119 C 
ATOM     20  C   UNL A   1      28.152  29.582  22.391  1.00  0.00     0.022 C 
BRANCH  16  21
ATOM     21  C   UNL A   1      30.001  26.367  24.807  1.00  0.00     0.240 C 
ATOM     22  N   UNL A   1      29.870  25.189  24.127  1.00  0.00    -0.368 N 
ATOM     23  H   UNL A   1      30.306  24.374  24.466  1.00  0.00     0.159 HD
ATOM     24  H   UNL A   1      29.340  25.156  23.298  1.00  0.00     0.159 HD
ATOM     25  O   UNL A   1      30.664  26.397  25.844  1.00  0.00    -0.273 OA
ENDBRANCH  16  21
ENDBRANCH  10  15
ENDBRANCH   7   9
ENDBRANCH   6   7
ENDBRANCH   5   6
ENDBRANCH   4   5
ENDBRANCH   3   4
ENDBRANCH   2   3
ENDBRANCH   1   2
BRANCH   1  26
ATOM     26  O   UNL A   1      37.316  21.222  25.546  1.00  0.00    -0.376 OA
BRANCH  26  27
ATOM     27  C   UNL A   1      37.999  20.108  25.000  1.00  0.00     0.202 C 
BRANCH  27  28
ATOM     28  C   UNL A   1      39.314  19.567  25.576  1.00  0.00     0.261 C 
BRANCH  28  29
ATOM     29  O   UNL A   1      40.325  20.537  25.859  1.00  0.00    -0.460 OA
BRANCH  29  30
ATOM     30  C   UNL A   1      40.727  20.583  27.154  1.00  0.00     0.338 C 
ATOM     31  O   UNL A   1      41.014  19.640  27.872  1.00  0.00    -0.246 OA
BRANCH  30  32
ATOM     32  C   UNL A   1      40.933  21.986  27.547  1.00  0.00     0.060 A 
ATOM     33  C   UNL A   1      40.224  22.982  26.863  1.00  0.00     0.016 A 
ATOM     34  C   UNL A   1      41.858  22.320  28.537  1.00  0.00     0.016 A 
ATOM     35  C   UNL A   1      40.456  24.325  27.151  1.00  0.00     0.010 A 
ATOM     36  C   UNL A   1      42.103  23.668  28.810  1.00  0.00     0.010 A 
ATOM     37  C   UNL A   1      41.427  24.675  28.099  1.00  0.00    -0.014 A 
BRANCH  37  38
ATOM     38  C   UNL A   1      41.848  26.089  28.238  1.00  0.00     0.031 A 
ATOM     39  C   UNL A   1      43.227  26.481  27.784  1.00  0.00     0.074 A 
ATOM     40  C   UNL A   1      41.026  27.006  28.777  1.00  0.00     0.049 A 
ATOM     41  N   UNL A   1      43.823  27.641  27.854  1.00  0.00    -0.248 NA
ATOM     42  C   UNL A   1      44.043  25.420  27.171  1.00  0.00     0.031 C 
ATOM     43  C   UNL A   1      39.668  26.749  29.253  1.00  0.00     0.029 A 
ATOM     44  N   UNL A   1      41.231  28.336  29.045  1.00  0.00    -0.354 N 
ATOM     45  C   UNL A   1      45.093  27.446  27.326  1.00  0.00     0.074 A 
ATOM     46  C   UNL A   1      45.186  26.053  26.946  1.00  0.00     0.031 C 
ATOM     47  C   UNL A   1      39.172  27.878  29.787  1.00  0.00     0.029 A 
ATOM     48  C   UNL A   1      40.186  28.929  29.712  1.00  0.00     0.049 A 
ATOM     49  H   UNL A   1      42.049  28.820  28.784  1.00  0.00     0.167 HD
ATOM     50  C   UNL A   1      46.090  28.348  27.161  1.00  0.00     0.034 A 
ATOM     51  C   UNL A   1      40.072  30.171  30.225  1.00  0.00     0.034 A 
ATOM     52  C   UNL A   1      45.992  29.735  27.526  1.00  0.00     0.049 A 
ATOM     53  C   UNL A   1      41.206  31.149  30.049  1.00  0.00     0.074 A 
ATOM     54  C   UNL A   1      46.929  30.738  27.351  1.00  0.00     0.029 A 
ATOM     55  N   UNL A   1      44.900  30.313  28.154  1.00  0.00    -0.354 N 
ATOM     56  N   UNL A   1      42.353  30.985  29.435  1.00  0.00    -0.248 NA
ATOM     57  C   UNL A   1      41.016  32.496  30.609  1.00  0.00     0.031 C 
ATOM     58  C   UNL A   1      46.415  31.917  27.901  1.00  0.00     0.029 A 
ATOM     59  C   UNL A   1      45.144  31.655  28.388  1.00  0.00     0.049 A 
ATOM     60  H   UNL A   1      44.073  29.838  28.398  1.00  0.00     0.167 HD
ATOM     61  C   UNL A   1      43.002  32.214  29.500  1.00  0.00     0.074 A 
ATOM     62  C   UNL A   1      42.113  33.119  30.198  1.00  0.00     0.031 C 
ATOM     63  C   UNL A   1      44.228  32.560  29.034  1.00  0.00     0.034 A 
BRANCH  50  64
ATOM     64  C   UNL A   1      47.372  27.864  26.538  1.00  0.00     0.023 A 
ATOM     65  C   UNL A   1      48.385  27.321  27.355  1.00  0.00     0.012 A 
ATOM     66  C   UNL A   1      47.553  27.897  25.141  1.00  0.00     0.148 A 
ATOM     67  C   UNL A   1      49.570  26.847  26.796  1.00  0.00     0.002 A 
ATOM     68  C   UNL A   1      48.719  27.382  24.587  1.00  0.00     0.091 A 
ATOM     69  F   UNL A   1      46.590  28.439  24.385  1.00  0.00    -0.205 F 
ATOM     70  C   UNL A   1      49.732  26.867  25.413  1.00  0.00     0.022 A 
BRANCH  68  71
ATOM     71  S   UNL A   1      48.990  27.290  22.814  1.00  0.00     0.127 S 
ATOM     72  O   UNL A   1      50.451  27.248  22.741  1.00  0.00    -0.237 OA
ATOM     73  O   UNL A   1      48.326  26.034  22.466  1.00  0.00    -0.237 OA
ATOM     74  O   UNL A   1      48.371  28.482  22.251  1.00  0.00    -0.744 OA
ENDBRANCH  68  71
ENDBRANCH  50  64
BRANCH  51  75
ATOM     75  C   UNL A   1      38.825  30.574  30.934  1.00  0.00     0.023 A 
ATOM     76  C   UNL A   1      38.676  30.276  32.302  1.00  0.00     0.012 A 
ATOM     77  C   UNL A   1      37.790  31.255  30.263  1.00  0.00     0.148 A 
ATOM     78  C   UNL A   1      37.507  30.619  32.982  1.00  0.00     0.002 A 
ATOM     79  C   UNL A   1      36.651  31.642  30.958  1.00  0.00     0.091 A 
ATOM     80  F   UNL A   1      37.943  31.512  28.956  1.00  0.00    -0.205 F 
ATOM     81  C   UNL A   1      36.499  31.310  32.313  1.00  0.00     0.022 A 
BRANCH  79  82
ATOM     82  S   UNL A   1      35.356  32.636  30.209  1.00  0.00     0.127 S 
ATOM     83  O   UNL A   1      36.040  33.910  30.000  1.00  0.00    -0.237 OA
ATOM     84  O   UNL A   1      35.068  31.884  28.987  1.00  0.00    -0.237 OA
ATOM     85  O   UNL A   1      34.265  32.656  31.174  1.00  0.00    -0.744 OA
ENDBRANCH  79  82
ENDBRANCH  51  75
BRANCH  63  86
ATOM     86  C   UNL A   1      44.677  33.988  29.220  1.00  0.00     0.023 A 
ATOM     87  C   UNL A   1      44.379  34.952  28.236  1.00  0.00     0.012 A 
ATOM     88  C   UNL A   1      45.319  34.389  30.408  1.00  0.00     0.148 A 
ATOM     89  C   UNL A   1      44.743  36.286  28.419  1.00  0.00     0.002 A 
ATOM     90  C   UNL A   1      45.633  35.728  30.605  1.00  0.00     0.091 A 
ATOM     91  F   UNL A   1      45.608  33.453  31.325  1.00  0.00    -0.205 F 
ATOM     92  C   UNL A   1      45.359  36.676  29.607  1.00  0.00     0.022 A 
BRANCH  90  93
ATOM     93  S   UNL A   1      46.336  36.337  32.143  1.00  0.00     0.127 S 
ATOM     94  O   UNL A   1      45.860  37.719  32.161  1.00  0.00    -0.237 OA
ATOM     95  O   UNL A   1      45.711  35.464  33.137  1.00  0.00    -0.237 OA
ATOM     96  O   UNL A   1      47.778  36.173  32.019  1.00  0.00    -0.744 OA
ENDBRANCH  90  93
ENDBRANCH  63  86
ENDBRANCH  37  38
ENDBRANCH  30  32
ENDBRANCH  29  30
ENDBRANCH  28  29
ENDBRANCH  27  28
ENDBRANCH  26  27
ENDBRANCH   1  26
TORSDOF 22
ENDMDL
