MODEL 1
REMARK VINA RESULT:      -9.3      0.000      0.000
REMARK SMILES CC(C)(C)OC(=O)N[C@H](Cc1ccc(N=[N+]=[N-])cc1)C(=O)OCCOCCOCCOC(=O)c1ccc(-c2c3nc(c(-c4cccc(S(=O)(=O)[O-])c4F)c4ccc([nH]4)c(-c4cccc(S(=O)(=O)[O-])c4F)c4nc(c(-c5cccc(S(=O)(=O)[O-])c5F)c5ccc2[nH]5)C=C4)C=C3)cc1
REMARK SMILES IDX 26 1 25 2 24 3 23 4 22 5 20 6 21 7 9 8 8 9 6 10 7 11 5 13
REMARK SMILES IDX 2 14 1 15 3 16 4 17 10 18 11 19 12 20 19 21 13 22 18 23
REMARK SMILES IDX 14 24 15 25 16 26 17 27 27 28 28 29 29 30 30 31 31 32 32 33
REMARK SMILES IDX 33 34 34 35 35 36 96 37 36 38 95 39 37 40 38 41 39 42 89 43
REMARK SMILES IDX 40 44 94 45 88 46 90 47 41 48 93 49 87 50 86 51 42 53 74 54
REMARK SMILES IDX 54 55 73 56 55 57 58 58 72 59 91 60 56 61 57 62 71 64 92 65
REMARK SMILES IDX 59 66 43 67 44 68 52 69 45 70 47 71 53 72 46 73 48 74 49 75
REMARK SMILES IDX 50 76 51 77 75 78 76 79 84 80 77 81 79 82 85 83 78 84 80 85
REMARK SMILES IDX 81 86 82 87 83 88 60 89 61 90 69 91 62 92 64 93 70 94 63 95
REMARK SMILES IDX 65 96 66 97 67 98 68 99
REMARK H PARENT 8 12 90 52 58 63
REMARK Flexibility Score: inf
ROOT
ATOM      1  C   UNL A   1      37.824  23.592  26.247  1.00  0.00     0.188 C 
ENDROOT
BRANCH   1   2
ATOM      2  O   UNL A   1      37.101  23.770  25.038  1.00  0.00    -0.376 OA
BRANCH   2   3
ATOM      3  C   UNL A   1      35.685  23.662  25.041  1.00  0.00     0.202 C 
BRANCH   3   4
ATOM      4  C   UNL A   1      34.940  23.612  23.694  1.00  0.00     0.261 C 
BRANCH   4   5
ATOM      5  O   UNL A   1      34.142  24.773  23.334  1.00  0.00    -0.462 OA
BRANCH   5   6
ATOM      6  C   UNL A   1      32.833  24.522  23.061  1.00  0.00     0.329 C 
ATOM      7  O   UNL A   1      32.481  23.637  22.281  1.00  0.00    -0.250 OA
BRANCH   6   8
ATOM      8  C   UNL A   1      31.787  25.507  23.653  1.00  0.00     0.199 C 
BRANCH   8   9
ATOM      9  N   UNL A   1      31.728  24.955  25.020  1.00  0.00    -0.308 N 
ATOM     10  C   UNL A   1      31.434  25.585  26.177  1.00  0.00     0.408 C 
ATOM     11  O   UNL A   1      31.477  24.967  27.231  1.00  0.00    -0.225 OA
ATOM     12  H   UNL A   1      31.930  23.995  25.099  1.00  0.00     0.168 HD
BRANCH  10  13
ATOM     13  O   UNL A   1      31.062  26.873  26.006  1.00  0.00    -0.444 OA
BRANCH  13  14
ATOM     14  C   UNL A   1      31.959  27.916  26.463  1.00  0.00     0.106 C 
ATOM     15  C   UNL A   1      31.632  29.146  25.605  1.00  0.00     0.056 C 
ATOM     16  C   UNL A   1      33.429  27.542  26.233  1.00  0.00     0.056 C 
ATOM     17  C   UNL A   1      31.668  28.260  27.932  1.00  0.00     0.056 C 
ENDBRANCH  13  14
ENDBRANCH  10  13
ENDBRANCH   8   9
BRANCH   8  18
ATOM     18  C   UNL A   1      30.337  25.692  23.138  1.00  0.00     0.072 C 
BRANCH  18  19
ATOM     19  C   UNL A   1      29.688  27.054  22.889  1.00  0.00    -0.045 A 
ATOM     20  C   UNL A   1      28.413  27.306  23.420  1.00  0.00     0.004 A 
ATOM     21  C   UNL A   1      30.356  28.134  22.289  1.00  0.00     0.004 A 
ATOM     22  C   UNL A   1      27.817  28.575  23.334  1.00  0.00     0.010 A 
ATOM     23  C   UNL A   1      29.754  29.414  22.217  1.00  0.00     0.010 A 
ATOM     24  C   UNL A   1      28.471  29.645  22.727  1.00  0.00     0.038 A 
BRANCH  24  25
ATOM     25  N   UNL A   1      27.849  30.906  22.754  1.00  0.00    -0.061 NA
ATOM     26  N   UNL A   1      28.569  31.841  23.170  1.00  0.00     0.005 N 
ATOM     27  N   UNL A   1      29.185  32.706  23.577  1.00  0.00    -0.003 NA
ENDBRANCH  24  25
ENDBRANCH  18  19
ENDBRANCH   8  18
ENDBRANCH   6   8
ENDBRANCH   5   6
ENDBRANCH   4   5
ENDBRANCH   3   4
ENDBRANCH   2   3
ENDBRANCH   1   2
BRANCH   1  28
ATOM     28  C   UNL A   1      39.263  23.071  26.172  1.00  0.00     0.188 C 
BRANCH  28  29
ATOM     29  O   UNL A   1      39.456  21.770  26.688  1.00  0.00    -0.376 OA
BRANCH  29  30
ATOM     30  C   UNL A   1      39.314  20.705  25.768  1.00  0.00     0.202 C 
BRANCH  30  31
ATOM     31  C   UNL A   1      40.208  19.476  25.987  1.00  0.00     0.261 C 
BRANCH  31  32
ATOM     32  O   UNL A   1      41.439  19.453  25.235  1.00  0.00    -0.460 OA
BRANCH  32  33
ATOM     33  C   UNL A   1      42.572  19.666  25.943  1.00  0.00     0.338 C 
ATOM     34  O   UNL A   1      43.453  18.851  26.146  1.00  0.00    -0.246 OA
BRANCH  33  35
ATOM     35  C   UNL A   1      42.666  21.090  26.337  1.00  0.00     0.060 A 
ATOM     36  C   UNL A   1      42.794  22.089  25.360  1.00  0.00     0.016 A 
ATOM     37  C   UNL A   1      42.771  21.417  27.685  1.00  0.00     0.016 A 
ATOM     38  C   UNL A   1      43.110  23.397  25.721  1.00  0.00     0.010 A 
ATOM     39  C   UNL A   1      43.075  22.733  28.048  1.00  0.00     0.010 A 
ATOM     40  C   UNL A   1      43.295  23.719  27.069  1.00  0.00    -0.014 A 
BRANCH  40  41
ATOM     41  C   UNL A   1      43.804  25.055  27.462  1.00  0.00     0.031 A 
ATOM     42  C   UNL A   1      42.844  26.083  27.997  1.00  0.00     0.074 A 
ATOM     43  C   UNL A   1      45.107  25.351  27.305  1.00  0.00     0.049 A 
ATOM     44  N   UNL A   1      43.048  27.346  28.267  1.00  0.00    -0.248 NA
ATOM     45  C   UNL A   1      41.464  25.632  28.245  1.00  0.00     0.031 C 
ATOM     46  C   UNL A   1      46.126  24.427  26.807  1.00  0.00     0.029 A 
ATOM     47  N   UNL A   1      45.789  26.523  27.512  1.00  0.00    -0.354 N 
ATOM     48  C   UNL A   1      41.815  27.856  28.657  1.00  0.00     0.074 A 
ATOM     49  C   UNL A   1      40.868  26.764  28.593  1.00  0.00     0.031 C 
ATOM     50  C   UNL A   1      47.298  25.074  26.719  1.00  0.00     0.029 A 
ATOM     51  C   UNL A   1      47.101  26.467  27.105  1.00  0.00     0.049 A 
ATOM     52  H   UNL A   1      45.380  27.324  27.911  1.00  0.00     0.167 HD
ATOM     53  C   UNL A   1      41.502  29.121  29.029  1.00  0.00     0.034 A 
ATOM     54  C   UNL A   1      48.028  27.441  27.012  1.00  0.00     0.034 A 
ATOM     55  C   UNL A   1      42.462  30.192  29.102  1.00  0.00     0.049 A 
ATOM     56  C   UNL A   1      47.656  28.836  27.431  1.00  0.00     0.074 A 
ATOM     57  C   UNL A   1      42.268  31.499  29.512  1.00  0.00     0.029 A 
ATOM     58  N   UNL A   1      43.796  30.083  28.739  1.00  0.00    -0.354 N 
ATOM     59  N   UNL A   1      46.505  29.287  27.874  1.00  0.00    -0.248 NA
ATOM     60  C   UNL A   1      48.717  29.849  27.370  1.00  0.00     0.031 C 
ATOM     61  C   UNL A   1      43.474  32.192  29.355  1.00  0.00     0.029 A 
ATOM     62  C   UNL A   1      44.435  31.302  28.902  1.00  0.00     0.049 A 
ATOM     63  H   UNL A   1      44.227  29.261  28.413  1.00  0.00     0.167 HD
ATOM     64  C   UNL A   1      46.713  30.627  28.178  1.00  0.00     0.074 A 
ATOM     65  C   UNL A   1      48.107  30.904  27.893  1.00  0.00     0.031 C 
ATOM     66  C   UNL A   1      45.832  31.549  28.642  1.00  0.00     0.034 A 
BRANCH  53  67
ATOM     67  C   UNL A   1      40.062  29.419  29.376  1.00  0.00     0.023 A 
ATOM     68  C   UNL A   1      39.130  29.707  28.356  1.00  0.00     0.012 A 
ATOM     69  C   UNL A   1      39.622  29.375  30.715  1.00  0.00     0.148 A 
ATOM     70  C   UNL A   1      37.799  29.989  28.667  1.00  0.00     0.002 A 
ATOM     71  C   UNL A   1      38.283  29.607  31.012  1.00  0.00     0.091 A 
ATOM     72  F   UNL A   1      40.521  29.117  31.674  1.00  0.00    -0.205 F 
ATOM     73  C   UNL A   1      37.374  29.929  29.992  1.00  0.00     0.022 A 
BRANCH  71  74
ATOM     74  S   UNL A   1      37.619  29.474  32.676  1.00  0.00     0.127 S 
ATOM     75  O   UNL A   1      38.515  30.356  33.423  1.00  0.00    -0.237 OA
ATOM     76  O   UNL A   1      36.260  29.990  32.504  1.00  0.00    -0.237 OA
ATOM     77  O   UNL A   1      37.695  28.064  33.031  1.00  0.00    -0.744 OA
ENDBRANCH  71  74
ENDBRANCH  53  67
BRANCH  54  78
ATOM     78  C   UNL A   1      49.397  27.121  26.518  1.00  0.00     0.023 A 
ATOM     79  C   UNL A   1      49.621  26.971  25.137  1.00  0.00     0.012 A 
ATOM     80  C   UNL A   1      50.481  26.999  27.408  1.00  0.00     0.148 A 
ATOM     81  C   UNL A   1      50.896  26.674  24.652  1.00  0.00     0.002 A 
ATOM     82  C   UNL A   1      51.759  26.764  26.915  1.00  0.00     0.091 A 
ATOM     83  F   UNL A   1      50.244  27.135  28.720  1.00  0.00    -0.205 F 
ATOM     84  C   UNL A   1      51.966  26.584  25.539  1.00  0.00     0.022 A 
BRANCH  82  85
ATOM     85  S   UNL A   1      53.214  26.760  27.967  1.00  0.00     0.127 S 
ATOM     86  O   UNL A   1      52.619  26.695  29.299  1.00  0.00    -0.237 OA
ATOM     87  O   UNL A   1      53.892  25.538  27.533  1.00  0.00    -0.237 OA
ATOM     88  O   UNL A   1      53.930  27.989  27.656  1.00  0.00    -0.744 OA
ENDBRANCH  82  85
ENDBRANCH  54  78
BRANCH  66  89
ATOM     89  C   UNL A   1      46.368  32.931  28.919  1.00  0.00     0.023 A 
ATOM     90  C   UNL A   1      46.741  33.301  30.227  1.00  0.00     0.012 A 
ATOM     91  C   UNL A   1      46.522  33.857  27.869  1.00  0.00     0.148 A 
ATOM     92  C   UNL A   1      47.202  34.590  30.493  1.00  0.00     0.002 A 
ATOM     93  C   UNL A   1      47.039  35.118  28.132  1.00  0.00     0.091 A 
ATOM     94  F   UNL A   1      46.146  33.493  26.634  1.00  0.00    -0.205 F 
ATOM     95  C   UNL A   1      47.360  35.495  29.446  1.00  0.00     0.022 A 
BRANCH  93  96
ATOM     96  S   UNL A   1      47.375  36.308  26.830  1.00  0.00     0.127 S 
ATOM     97  O   UNL A   1      48.438  35.639  26.081  1.00  0.00    -0.237 OA
ATOM     98  O   UNL A   1      46.090  36.378  26.135  1.00  0.00    -0.237 OA
ATOM     99  O   UNL A   1      47.765  37.540  27.504  1.00  0.00    -0.744 OA
ENDBRANCH  93  96
ENDBRANCH  66  89
ENDBRANCH  40  41
ENDBRANCH  33  35
ENDBRANCH  32  33
ENDBRANCH  31  32
ENDBRANCH  30  31
ENDBRANCH  29  30
ENDBRANCH  28  29
ENDBRANCH   1  28
TORSDOF 26
ENDMDL
MODEL 2
REMARK VINA RESULT:      -9.0      4.377      9.657
REMARK SMILES CC(C)(C)OC(=O)N[C@H](Cc1ccc(N=[N+]=[N-])cc1)C(=O)OCCOCCOCCOC(=O)c1ccc(-c2c3nc(c(-c4cccc(S(=O)(=O)[O-])c4F)c4ccc([nH]4)c(-c4cccc(S(=O)(=O)[O-])c4F)c4nc(c(-c5cccc(S(=O)(=O)[O-])c5F)c5ccc2[nH]5)C=C4)C=C3)cc1
REMARK SMILES IDX 26 1 25 2 24 3 23 4 22 5 20 6 21 7 9 8 8 9 6 10 7 11 5 13
REMARK SMILES IDX 2 14 1 15 3 16 4 17 10 18 11 19 12 20 19 21 13 22 18 23
REMARK SMILES IDX 14 24 15 25 16 26 17 27 27 28 28 29 29 30 30 31 31 32 32 33
REMARK SMILES IDX 33 34 34 35 35 36 96 37 36 38 95 39 37 40 38 41 39 42 89 43
REMARK SMILES IDX 40 44 94 45 88 46 90 47 41 48 93 49 87 50 86 51 42 53 74 54
REMARK SMILES IDX 54 55 73 56 55 57 58 58 72 59 91 60 56 61 57 62 71 64 92 65
REMARK SMILES IDX 59 66 43 67 44 68 52 69 45 70 47 71 53 72 46 73 48 74 49 75
REMARK SMILES IDX 50 76 51 77 75 78 76 79 84 80 77 81 79 82 85 83 78 84 80 85
REMARK SMILES IDX 81 86 82 87 83 88 60 89 61 90 69 91 62 92 64 93 70 94 63 95
REMARK SMILES IDX 65 96 66 97 67 98 68 99
REMARK H PARENT 8 12 90 52 58 63
REMARK Flexibility Score: inf
ROOT
ATOM      1  C   UNL A   1      40.054  22.623  27.101  1.00  0.00     0.188 C 
ENDROOT
BRANCH   1   2
ATOM      2  O   UNL A   1      39.595  22.104  25.861  1.00  0.00    -0.376 OA
BRANCH   2   3
ATOM      3  C   UNL A   1      38.528  21.167  25.841  1.00  0.00     0.202 C 
BRANCH   3   4
ATOM      4  C   UNL A   1      37.423  21.320  24.780  1.00  0.00     0.261 C 
BRANCH   4   5
ATOM      5  O   UNL A   1      36.676  22.568  24.774  1.00  0.00    -0.462 OA
BRANCH   5   6
ATOM      6  C   UNL A   1      36.032  22.860  23.612  1.00  0.00     0.329 C 
ATOM      7  O   UNL A   1      36.604  22.852  22.522  1.00  0.00    -0.250 OA
BRANCH   6   8
ATOM      8  C   UNL A   1      34.566  23.363  23.725  1.00  0.00     0.199 C 
BRANCH   8   9
ATOM      9  N   UNL A   1      33.945  22.104  24.180  1.00  0.00    -0.308 N 
ATOM     10  C   UNL A   1      33.178  21.882  25.267  1.00  0.00     0.408 C 
ATOM     11  O   UNL A   1      32.784  20.749  25.509  1.00  0.00    -0.225 OA
ATOM     12  H   UNL A   1      34.114  21.318  23.611  1.00  0.00     0.168 HD
BRANCH  10  13
ATOM     13  O   UNL A   1      32.889  23.006  25.958  1.00  0.00    -0.444 OA
BRANCH  13  14
ATOM     14  C   UNL A   1      31.528  23.506  25.924  1.00  0.00     0.106 C 
ATOM     15  C   UNL A   1      31.647  25.032  26.040  1.00  0.00     0.056 C 
ATOM     16  C   UNL A   1      30.705  22.993  27.114  1.00  0.00     0.056 C 
ATOM     17  C   UNL A   1      30.874  23.172  24.575  1.00  0.00     0.056 C 
ENDBRANCH  13  14
ENDBRANCH  10  13
ENDBRANCH   8   9
BRANCH   8  18
ATOM     18  C   UNL A   1      33.719  23.930  22.557  1.00  0.00     0.072 C 
BRANCH  18  19
ATOM     19  C   UNL A   1      32.993  25.275  22.606  1.00  0.00    -0.045 A 
ATOM     20  C   UNL A   1      33.644  26.378  23.181  1.00  0.00     0.004 A 
ATOM     21  C   UNL A   1      31.766  25.519  21.966  1.00  0.00     0.004 A 
ATOM     22  C   UNL A   1      33.084  27.665  23.145  1.00  0.00     0.010 A 
ATOM     23  C   UNL A   1      31.213  26.821  21.923  1.00  0.00     0.010 A 
ATOM     24  C   UNL A   1      31.861  27.907  22.524  1.00  0.00     0.038 A 
BRANCH  24  25
ATOM     25  N   UNL A   1      31.403  29.235  22.452  1.00  0.00    -0.061 NA
ATOM     26  N   UNL A   1      30.349  29.466  23.087  1.00  0.00     0.005 N 
ATOM     27  N   UNL A   1      29.375  29.701  23.623  1.00  0.00    -0.003 NA
ENDBRANCH  24  25
ENDBRANCH  18  19
ENDBRANCH   8  18
ENDBRANCH   6   8
ENDBRANCH   5   6
ENDBRANCH   4   5
ENDBRANCH   3   4
ENDBRANCH   2   3
ENDBRANCH   1   2
BRANCH   1  28
ATOM     28  C   UNL A   1      41.049  21.794  27.919  1.00  0.00     0.188 C 
BRANCH  28  29
ATOM     29  O   UNL A   1      42.404  22.162  27.764  1.00  0.00    -0.376 OA
BRANCH  29  30
ATOM     30  C   UNL A   1      42.676  23.163  26.803  1.00  0.00     0.202 C 
BRANCH  30  31
ATOM     31  C   UNL A   1      43.066  24.549  27.337  1.00  0.00     0.261 C 
BRANCH  31  32
ATOM     32  O   UNL A   1      42.054  25.233  28.106  1.00  0.00    -0.460 OA
BRANCH  32  33
ATOM     33  C   UNL A   1      41.348  26.181  27.449  1.00  0.00     0.338 C 
ATOM     34  O   UNL A   1      40.762  26.034  26.391  1.00  0.00    -0.246 OA
BRANCH  33  35
ATOM     35  C   UNL A   1      41.267  27.413  28.266  1.00  0.00     0.060 A 
ATOM     36  C   UNL A   1      40.723  28.587  27.724  1.00  0.00     0.016 A 
ATOM     37  C   UNL A   1      41.865  27.438  29.521  1.00  0.00     0.016 A 
ATOM     38  C   UNL A   1      40.849  29.802  28.395  1.00  0.00     0.010 A 
ATOM     39  C   UNL A   1      41.980  28.654  30.200  1.00  0.00     0.010 A 
ATOM     40  C   UNL A   1      41.517  29.850  29.622  1.00  0.00    -0.014 A 
BRANCH  40  41
ATOM     41  C   UNL A   1      41.819  31.151  30.266  1.00  0.00     0.031 A 
ATOM     42  C   UNL A   1      43.104  31.860  29.931  1.00  0.00     0.074 A 
ATOM     43  C   UNL A   1      40.967  31.669  31.169  1.00  0.00     0.049 A 
ATOM     44  N   UNL A   1      43.627  32.928  30.475  1.00  0.00    -0.248 NA
ATOM     45  C   UNL A   1      43.915  31.280  28.848  1.00  0.00     0.031 C 
ATOM     46  C   UNL A   1      39.690  31.071  31.560  1.00  0.00     0.029 A 
ATOM     47  N   UNL A   1      41.064  32.793  31.948  1.00  0.00    -0.354 N 
ATOM     48  C   UNL A   1      44.855  33.112  29.848  1.00  0.00     0.074 A 
ATOM     49  C   UNL A   1      44.995  32.049  28.877  1.00  0.00     0.031 C 
ATOM     50  C   UNL A   1      39.134  31.819  32.525  1.00  0.00     0.029 A 
ATOM     51  C   UNL A   1      40.039  32.916  32.855  1.00  0.00     0.049 A 
ATOM     52  H   UNL A   1      41.795  33.448  31.866  1.00  0.00     0.167 HD
ATOM     53  C   UNL A   1      45.780  34.078  30.066  1.00  0.00     0.034 A 
ATOM     54  C   UNL A   1      39.869  33.788  33.868  1.00  0.00     0.034 A 
ATOM     55  C   UNL A   1      45.615  35.139  31.027  1.00  0.00     0.049 A 
ATOM     56  C   UNL A   1      40.909  34.850  34.090  1.00  0.00     0.074 A 
ATOM     57  C   UNL A   1      46.463  36.197  31.299  1.00  0.00     0.029 A 
ATOM     58  N   UNL A   1      44.534  35.264  31.888  1.00  0.00    -0.354 N 
ATOM     59  N   UNL A   1      42.028  35.061  33.435  1.00  0.00    -0.248 NA
ATOM     60  C   UNL A   1      40.650  35.815  35.166  1.00  0.00     0.031 C 
ATOM     61  C   UNL A   1      45.916  36.938  32.353  1.00  0.00     0.029 A 
ATOM     62  C   UNL A   1      44.699  36.374  32.700  1.00  0.00     0.049 A 
ATOM     63  H   UNL A   1      43.762  34.654  31.917  1.00  0.00     0.167 HD
ATOM     64  C   UNL A   1      42.588  36.202  33.997  1.00  0.00     0.074 A 
ATOM     65  C   UNL A   1      41.669  36.650  35.025  1.00  0.00     0.031 C 
ATOM     66  C   UNL A   1      43.758  36.821  33.698  1.00  0.00     0.034 A 
BRANCH  53  67
ATOM     67  C   UNL A   1      47.057  34.028  29.261  1.00  0.00     0.023 A 
ATOM     68  C   UNL A   1      48.198  33.380  29.778  1.00  0.00     0.012 A 
ATOM     69  C   UNL A   1      47.114  34.591  27.969  1.00  0.00     0.148 A 
ATOM     70  C   UNL A   1      49.385  33.333  29.044  1.00  0.00     0.002 A 
ATOM     71  C   UNL A   1      48.283  34.495  27.223  1.00  0.00     0.091 A 
ATOM     72  F   UNL A   1      46.027  35.217  27.497  1.00  0.00    -0.205 F 
ATOM     73  C   UNL A   1      49.424  33.882  27.764  1.00  0.00     0.022 A 
BRANCH  71  74
ATOM     74  S   UNL A   1      48.412  35.097  25.535  1.00  0.00     0.127 S 
ATOM     75  O   UNL A   1      49.660  34.475  25.093  1.00  0.00    -0.237 OA
ATOM     76  O   UNL A   1      47.205  34.542  24.921  1.00  0.00    -0.237 OA
ATOM     77  O   UNL A   1      48.437  36.550  25.623  1.00  0.00    -0.744 OA
ENDBRANCH  71  74
ENDBRANCH  53  67
BRANCH  54  78
ATOM     78  C   UNL A   1      38.658  33.699  34.733  1.00  0.00     0.023 A 
ATOM     79  C   UNL A   1      37.439  34.241  34.283  1.00  0.00     0.012 A 
ATOM     80  C   UNL A   1      38.702  33.050  35.982  1.00  0.00     0.148 A 
ATOM     81  C   UNL A   1      36.293  34.166  35.074  1.00  0.00     0.002 A 
ATOM     82  C   UNL A   1      37.544  32.925  36.739  1.00  0.00     0.091 A 
ATOM     83  F   UNL A   1      39.875  32.551  36.396  1.00  0.00    -0.205 F 
ATOM     84  C   UNL A   1      36.342  33.498  36.295  1.00  0.00     0.022 A 
BRANCH  82  85
ATOM     85  S   UNL A   1      37.483  31.972  38.259  1.00  0.00     0.127 S 
ATOM     86  O   UNL A   1      38.694  32.420  38.942  1.00  0.00    -0.237 OA
ATOM     87  O   UNL A   1      36.230  32.441  38.855  1.00  0.00    -0.237 OA
ATOM     88  O   UNL A   1      37.469  30.576  37.850  1.00  0.00    -0.744 OA
ENDBRANCH  82  85
ENDBRANCH  54  78
BRANCH  66  89
ATOM     89  C   UNL A   1      44.082  38.080  34.460  1.00  0.00     0.023 A 
ATOM     90  C   UNL A   1      44.876  38.024  35.624  1.00  0.00     0.012 A 
ATOM     91  C   UNL A   1      43.613  39.328  34.004  1.00  0.00     0.148 A 
ATOM     92  C   UNL A   1      45.147  39.183  36.352  1.00  0.00     0.002 A 
ATOM     93  C   UNL A   1      43.938  40.484  34.700  1.00  0.00     0.091 A 
ATOM     94  F   UNL A   1      42.845  39.360  32.905  1.00  0.00    -0.205 F 
ATOM     95  C   UNL A   1      44.687  40.412  35.886  1.00  0.00     0.022 A 
BRANCH  93  96
ATOM     96  S   UNL A   1      43.478  42.118  34.115  1.00  0.00     0.127 S 
ATOM     97  O   UNL A   1      43.959  42.970  35.202  1.00  0.00    -0.237 OA
ATOM     98  O   UNL A   1      44.239  42.228  32.871  1.00  0.00    -0.237 OA
ATOM     99  O   UNL A   1      42.032  42.087  33.938  1.00  0.00    -0.744 OA
ENDBRANCH  93  96
ENDBRANCH  66  89
ENDBRANCH  40  41
ENDBRANCH  33  35
ENDBRANCH  32  33
ENDBRANCH  31  32
ENDBRANCH  30  31
ENDBRANCH  29  30
ENDBRANCH  28  29
ENDBRANCH   1  28
TORSDOF 26
ENDMDL
MODEL 3
REMARK VINA RESULT:      -8.9      4.167     10.020
REMARK SMILES CC(C)(C)OC(=O)N[C@H](Cc1ccc(N=[N+]=[N-])cc1)C(=O)OCCOCCOCCOC(=O)c1ccc(-c2c3nc(c(-c4cccc(S(=O)(=O)[O-])c4F)c4ccc([nH]4)c(-c4cccc(S(=O)(=O)[O-])c4F)c4nc(c(-c5cccc(S(=O)(=O)[O-])c5F)c5ccc2[nH]5)C=C4)C=C3)cc1
REMARK SMILES IDX 26 1 25 2 24 3 23 4 22 5 20 6 21 7 9 8 8 9 6 10 7 11 5 13
REMARK SMILES IDX 2 14 1 15 3 16 4 17 10 18 11 19 12 20 19 21 13 22 18 23
REMARK SMILES IDX 14 24 15 25 16 26 17 27 27 28 28 29 29 30 30 31 31 32 32 33
REMARK SMILES IDX 33 34 34 35 35 36 96 37 36 38 95 39 37 40 38 41 39 42 89 43
REMARK SMILES IDX 40 44 94 45 88 46 90 47 41 48 93 49 87 50 86 51 42 53 74 54
REMARK SMILES IDX 54 55 73 56 55 57 58 58 72 59 91 60 56 61 57 62 71 64 92 65
REMARK SMILES IDX 59 66 43 67 44 68 52 69 45 70 47 71 53 72 46 73 48 74 49 75
REMARK SMILES IDX 50 76 51 77 75 78 76 79 84 80 77 81 79 82 85 83 78 84 80 85
REMARK SMILES IDX 81 86 82 87 83 88 60 89 61 90 69 91 62 92 64 93 70 94 63 95
REMARK SMILES IDX 65 96 66 97 67 98 68 99
REMARK H PARENT 8 12 90 52 58 63
REMARK Flexibility Score: inf
ROOT
ATOM      1  C   UNL A   1      40.152  20.804  25.930  1.00  0.00     0.188 C 
ENDROOT
BRANCH   1   2
ATOM      2  O   UNL A   1      38.912  21.284  26.429  1.00  0.00    -0.376 OA
BRANCH   2   3
ATOM      3  C   UNL A   1      38.407  22.533  25.978  1.00  0.00     0.202 C 
BRANCH   3   4
ATOM      4  C   UNL A   1      36.890  22.688  25.763  1.00  0.00     0.261 C 
BRANCH   4   5
ATOM      5  O   UNL A   1      36.047  21.566  26.145  1.00  0.00    -0.462 OA
BRANCH   5   6
ATOM      6  C   UNL A   1      34.793  21.892  26.561  1.00  0.00     0.329 C 
ATOM      7  O   UNL A   1      34.381  21.621  27.689  1.00  0.00    -0.250 OA
BRANCH   6   8
ATOM      8  C   UNL A   1      33.829  22.485  25.496  1.00  0.00     0.199 C 
BRANCH   8   9
ATOM      9  N   UNL A   1      32.633  22.625  26.349  1.00  0.00    -0.308 N 
ATOM     10  C   UNL A   1      31.882  23.722  26.581  1.00  0.00     0.408 C 
ATOM     11  O   UNL A   1      30.943  23.658  27.362  1.00  0.00    -0.225 OA
ATOM     12  H   UNL A   1      32.343  21.806  26.811  1.00  0.00     0.168 HD
BRANCH  10  13
ATOM     13  O   UNL A   1      32.255  24.793  25.846  1.00  0.00    -0.444 OA
BRANCH  13  14
ATOM     14  C   UNL A   1      31.345  25.283  24.830  1.00  0.00     0.106 C 
ATOM     15  C   UNL A   1      32.213  26.092  23.856  1.00  0.00     0.056 C 
ATOM     16  C   UNL A   1      30.282  26.218  25.422  1.00  0.00     0.056 C 
ATOM     17  C   UNL A   1      30.725  24.106  24.062  1.00  0.00     0.056 C 
ENDBRANCH  13  14
ENDBRANCH  10  13
ENDBRANCH   8   9
BRANCH   8  18
ATOM     18  C   UNL A   1      33.409  21.786  24.178  1.00  0.00     0.072 C 
BRANCH  18  19
ATOM     19  C   UNL A   1      33.453  20.272  23.964  1.00  0.00    -0.045 A 
ATOM     20  C   UNL A   1      34.493  19.534  24.552  1.00  0.00     0.004 A 
ATOM     21  C   UNL A   1      32.425  19.545  23.342  1.00  0.00     0.004 A 
ATOM     22  C   UNL A   1      34.521  18.131  24.499  1.00  0.00     0.010 A 
ATOM     23  C   UNL A   1      32.454  18.130  23.303  1.00  0.00     0.010 A 
ATOM     24  C   UNL A   1      33.511  17.407  23.869  1.00  0.00     0.038 A 
BRANCH  24  25
ATOM     25  N   UNL A   1      33.562  16.003  23.930  1.00  0.00    -0.061 NA
ATOM     26  N   UNL A   1      33.046  15.500  24.953  1.00  0.00     0.005 N 
ATOM     27  N   UNL A   1      32.618  15.013  25.887  1.00  0.00    -0.003 NA
ENDBRANCH  24  25
ENDBRANCH  18  19
ENDBRANCH   8  18
ENDBRANCH   6   8
ENDBRANCH   5   6
ENDBRANCH   4   5
ENDBRANCH   3   4
ENDBRANCH   2   3
ENDBRANCH   1   2
BRANCH   1  28
ATOM     28  C   UNL A   1      41.429  21.578  26.270  1.00  0.00     0.188 C 
BRANCH  28  29
ATOM     29  O   UNL A   1      42.462  21.480  25.312  1.00  0.00    -0.376 OA
BRANCH  29  30
ATOM     30  C   UNL A   1      43.627  22.241  25.568  1.00  0.00     0.202 C 
BRANCH  30  31
ATOM     31  C   UNL A   1      43.438  23.571  26.310  1.00  0.00     0.261 C 
BRANCH  31  32
ATOM     32  O   UNL A   1      43.154  24.718  25.481  1.00  0.00    -0.460 OA
BRANCH  32  33
ATOM     33  C   UNL A   1      42.101  25.478  25.858  1.00  0.00     0.338 C 
ATOM     34  O   UNL A   1      40.928  25.154  25.805  1.00  0.00    -0.246 OA
BRANCH  33  35
ATOM     35  C   UNL A   1      42.576  26.735  26.479  1.00  0.00     0.060 A 
ATOM     36  C   UNL A   1      43.173  26.716  27.748  1.00  0.00     0.016 A 
ATOM     37  C   UNL A   1      42.297  27.949  25.859  1.00  0.00     0.016 A 
ATOM     38  C   UNL A   1      43.416  27.904  28.436  1.00  0.00     0.010 A 
ATOM     39  C   UNL A   1      42.552  29.140  26.544  1.00  0.00     0.010 A 
ATOM     40  C   UNL A   1      43.066  29.125  27.853  1.00  0.00    -0.014 A 
BRANCH  40  41
ATOM     41  C   UNL A   1      43.148  30.384  28.633  1.00  0.00     0.031 A 
ATOM     42  C   UNL A   1      44.428  31.175  28.626  1.00  0.00     0.074 A 
ATOM     43  C   UNL A   1      42.096  30.788  29.369  1.00  0.00     0.049 A 
ATOM     44  N   UNL A   1      44.761  32.219  29.339  1.00  0.00    -0.248 NA
ATOM     45  C   UNL A   1      45.480  30.720  27.701  1.00  0.00     0.031 C 
ATOM     46  C   UNL A   1      40.806  30.104  29.440  1.00  0.00     0.029 A 
ATOM     47  N   UNL A   1      41.961  31.852  30.225  1.00  0.00    -0.354 N 
ATOM     48  C   UNL A   1      46.078  32.509  28.999  1.00  0.00     0.074 A 
ATOM     49  C   UNL A   1      46.481  31.532  28.010  1.00  0.00     0.031 C 
ATOM     50  C   UNL A   1      40.017  30.747  30.315  1.00  0.00     0.029 A 
ATOM     51  C   UNL A   1      40.764  31.855  30.902  1.00  0.00     0.049 A 
ATOM     52  H   UNL A   1      42.652  32.543  30.344  1.00  0.00     0.167 HD
ATOM     53  C   UNL A   1      46.877  33.495  29.472  1.00  0.00     0.034 A 
ATOM     54  C   UNL A   1      40.336  32.635  31.912  1.00  0.00     0.034 A 
ATOM     55  C   UNL A   1      46.452  34.468  30.446  1.00  0.00     0.049 A 
ATOM     56  C   UNL A   1      41.241  33.723  32.420  1.00  0.00     0.074 A 
ATOM     57  C   UNL A   1      47.159  35.539  30.962  1.00  0.00     0.029 A 
ATOM     58  N   UNL A   1      45.210  34.476  31.066  1.00  0.00    -0.354 N 
ATOM     59  N   UNL A   1      42.455  34.036  32.032  1.00  0.00    -0.248 NA
ATOM     60  C   UNL A   1      40.705  34.587  33.480  1.00  0.00     0.031 C 
ATOM     61  C   UNL A   1      46.361  36.169  31.925  1.00  0.00     0.029 A 
ATOM     62  C   UNL A   1      45.135  35.524  31.968  1.00  0.00     0.049 A 
ATOM     63  H   UNL A   1      44.488  33.831  30.890  1.00  0.00     0.167 HD
ATOM     64  C   UNL A   1      42.816  35.154  32.775  1.00  0.00     0.074 A 
ATOM     65  C   UNL A   1      41.678  35.477  33.614  1.00  0.00     0.031 C 
ATOM     66  C   UNL A   1      43.982  35.847  32.772  1.00  0.00     0.034 A 
BRANCH  53  67
ATOM     67  C   UNL A   1      48.293  33.567  28.953  1.00  0.00     0.023 A 
ATOM     68  C   UNL A   1      49.312  32.803  29.559  1.00  0.00     0.012 A 
ATOM     69  C   UNL A   1      48.608  34.366  27.834  1.00  0.00     0.148 A 
ATOM     70  C   UNL A   1      50.625  32.866  29.090  1.00  0.00     0.002 A 
ATOM     71  C   UNL A   1      49.909  34.385  27.341  1.00  0.00     0.091 A 
ATOM     72  F   UNL A   1      47.634  35.100  27.279  1.00  0.00    -0.205 F 
ATOM     73  C   UNL A   1      50.921  33.649  27.976  1.00  0.00     0.022 A 
BRANCH  71  74
ATOM     74  S   UNL A   1      50.375  35.296  25.864  1.00  0.00     0.127 S 
ATOM     75  O   UNL A   1      51.794  34.962  25.746  1.00  0.00    -0.237 OA
ATOM     76  O   UNL A   1      49.519  34.686  24.847  1.00  0.00    -0.237 OA
ATOM     77  O   UNL A   1      50.087  36.696  26.144  1.00  0.00    -0.744 OA
ENDBRANCH  71  74
ENDBRANCH  53  67
BRANCH  54  78
ATOM     78  C   UNL A   1      38.980  32.423  32.494  1.00  0.00     0.023 A 
ATOM     79  C   UNL A   1      38.851  31.815  33.756  1.00  0.00     0.012 A 
ATOM     80  C   UNL A   1      37.822  32.853  31.816  1.00  0.00     0.148 A 
ATOM     81  C   UNL A   1      37.591  31.609  34.321  1.00  0.00     0.002 A 
ATOM     82  C   UNL A   1      36.576  32.701  32.410  1.00  0.00     0.091 A 
ATOM     83  F   UNL A   1      37.967  33.420  30.610  1.00  0.00    -0.205 F 
ATOM     84  C   UNL A   1      36.456  32.063  33.654  1.00  0.00     0.022 A 
BRANCH  82  85
ATOM     85  S   UNL A   1      35.074  33.369  31.686  1.00  0.00     0.127 S 
ATOM     86  O   UNL A   1      34.063  32.945  32.652  1.00  0.00    -0.237 OA
ATOM     87  O   UNL A   1      35.359  34.804  31.681  1.00  0.00    -0.237 OA
ATOM     88  O   UNL A   1      34.973  32.770  30.363  1.00  0.00    -0.744 OA
ENDBRANCH  82  85
ENDBRANCH  54  78
BRANCH  66  89
ATOM     89  C   UNL A   1      44.064  37.056  33.670  1.00  0.00     0.023 A 
ATOM     90  C   UNL A   1      44.530  36.930  34.994  1.00  0.00     0.012 A 
ATOM     91  C   UNL A   1      43.695  38.326  33.185  1.00  0.00     0.148 A 
ATOM     92  C   UNL A   1      44.572  38.040  35.837  1.00  0.00     0.002 A 
ATOM     93  C   UNL A   1      43.798  39.436  34.012  1.00  0.00     0.091 A 
ATOM     94  F   UNL A   1      43.237  38.424  31.928  1.00  0.00    -0.205 F 
ATOM     95  C   UNL A   1      44.216  39.293  35.345  1.00  0.00     0.022 A 
BRANCH  93  96
ATOM     96  S   UNL A   1      43.460  41.101  33.430  1.00  0.00     0.127 S 
ATOM     97  O   UNL A   1      43.282  41.826  34.687  1.00  0.00    -0.237 OA
ATOM     98  O   UNL A   1      44.686  41.431  32.704  1.00  0.00    -0.237 OA
ATOM     99  O   UNL A   1      42.271  41.000  32.594  1.00  0.00    -0.744 OA
ENDBRANCH  93  96
ENDBRANCH  66  89
ENDBRANCH  40  41
ENDBRANCH  33  35
ENDBRANCH  32  33
ENDBRANCH  31  32
ENDBRANCH  30  31
ENDBRANCH  29  30
ENDBRANCH  28  29
ENDBRANCH   1  28
TORSDOF 26
ENDMDL
