MODEL 1
REMARK VINA RESULT:     -11.2      0.000      0.000
REMARK SMILES O=C(OCCOCCOCCOC(=O)[C@@H]1[C@H](C(=O)Nc2ccc(Cn3cncn3)cc2)[C@@H]2C=C[C@H]1CC2)c1ccc(-c2c3nc(c(-c4cccc(S(=O)(=O)[O-])c4F)c4ccc([nH]4)c(-c4cccc(S(=O)(=O)[O-])c4F)c4nc(c(-c5cccc(S(=O)(=O)[O-])c5F)c5ccc2[nH]5)C=C4)C=C3)cc1
REMARK SMILES IDX 8 1 7 2 6 3 5 4 4 5 3 6 2 7 1 8 38 9 39 10 100 11 40 12
REMARK SMILES IDX 99 13 41 14 42 15 43 16 93 17 44 18 98 19 92 20 94 21 45 22
REMARK SMILES IDX 97 23 91 24 90 25 46 27 78 28 58 29 77 30 59 31 62 32 76 33
REMARK SMILES IDX 95 34 60 35 61 36 75 38 96 39 63 40 47 41 48 42 56 43 49 44
REMARK SMILES IDX 51 45 57 46 50 47 52 48 53 49 54 50 55 51 79 52 80 53 88 54
REMARK SMILES IDX 81 55 83 56 89 57 82 58 84 59 85 60 86 61 87 62 64 63 65 64
REMARK SMILES IDX 73 65 66 66 68 67 74 68 67 69 69 70 70 71 71 72 72 73 9 74
REMARK SMILES IDX 10 75 11 76 12 77 13 78 14 79 15 80 16 81 35 82 32 83 34 84
REMARK SMILES IDX 36 85 33 86 37 87 17 88 18 89 19 90 20 92 21 93 31 94 22 95
REMARK SMILES IDX 30 96 23 97 24 98 25 99 26 100 29 101 27 102 28 103
REMARK H PARENT 94 26 62 37 19 91
REMARK Flexibility Score: inf
ROOT
ATOM      1  C   UNL A   1      37.866  21.602  25.438  1.00  0.00     0.188 C 
ENDROOT
BRANCH   1   2
ATOM      2  C   UNL A   1      39.262  21.638  26.027  1.00  0.00     0.188 C 
BRANCH   2   3
ATOM      3  O   UNL A   1      39.549  22.586  27.059  1.00  0.00    -0.376 OA
BRANCH   3   4
ATOM      4  C   UNL A   1      40.851  22.452  27.641  1.00  0.00     0.202 C 
BRANCH   4   5
ATOM      5  C   UNL A   1      42.065  23.065  26.929  1.00  0.00     0.261 C 
BRANCH   5   6
ATOM      6  O   UNL A   1      42.216  24.489  27.007  1.00  0.00    -0.460 OA
BRANCH   6   7
ATOM      7  C   UNL A   1      41.596  25.447  26.286  1.00  0.00     0.338 C 
ATOM      8  O   UNL A   1      41.761  25.469  25.067  1.00  0.00    -0.246 OA
BRANCH   7   9
ATOM      9  C   UNL A   1      40.725  26.487  26.892  1.00  0.00     0.060 A 
ATOM     10  C   UNL A   1      40.755  27.829  26.517  1.00  0.00     0.016 A 
ATOM     11  C   UNL A   1      40.023  26.096  28.052  1.00  0.00     0.016 A 
ATOM     12  C   UNL A   1      40.388  28.784  27.430  1.00  0.00     0.010 A 
ATOM     13  C   UNL A   1      39.623  27.050  28.961  1.00  0.00     0.010 A 
ATOM     14  C   UNL A   1      39.978  28.362  28.687  1.00  0.00    -0.014 A 
BRANCH  14  15
ATOM     15  C   UNL A   1      40.140  29.330  29.748  1.00  0.00     0.031 A 
ATOM     16  C   UNL A   1      39.095  30.375  29.772  1.00  0.00     0.074 A 
ATOM     17  C   UNL A   1      41.198  29.204  30.575  1.00  0.00     0.049 A 
ATOM     18  N   UNL A   1      39.234  31.659  29.693  1.00  0.00    -0.248 NA
ATOM     19  C   UNL A   1      37.701  29.912  29.698  1.00  0.00     0.031 C 
ATOM     20  C   UNL A   1      42.126  28.066  30.682  1.00  0.00     0.029 A 
ATOM     21  N   UNL A   1      41.565  29.988  31.620  1.00  0.00    -0.354 N 
ATOM     22  C   UNL A   1      37.941  32.167  29.811  1.00  0.00     0.074 A 
ATOM     23  C   UNL A   1      37.043  31.065  29.600  1.00  0.00     0.031 C 
ATOM     24  C   UNL A   1      42.704  28.086  31.901  1.00  0.00     0.029 A 
ATOM     25  C   UNL A   1      42.288  29.295  32.585  1.00  0.00     0.049 A 
ATOM     26  H   UNL A   1      41.343  30.946  31.687  1.00  0.00     0.167 HD
ATOM     27  C   UNL A   1      37.711  33.384  30.371  1.00  0.00     0.034 A 
ATOM     28  C   UNL A   1      42.386  29.623  33.895  1.00  0.00     0.034 A 
ATOM     29  C   UNL A   1      38.870  34.233  30.290  1.00  0.00     0.049 A 
ATOM     30  C   UNL A   1      41.999  31.049  34.021  1.00  0.00     0.074 A 
ATOM     31  C   UNL A   1      39.629  34.744  29.256  1.00  0.00     0.029 A 
ATOM     32  N   UNL A   1      39.627  34.384  31.426  1.00  0.00    -0.354 N 
ATOM     33  N   UNL A   1      42.681  32.029  33.494  1.00  0.00    -0.248 NA
ATOM     34  C   UNL A   1      40.607  31.348  34.323  1.00  0.00     0.031 C 
ATOM     35  C   UNL A   1      40.968  34.735  29.745  1.00  0.00     0.029 A 
ATOM     36  C   UNL A   1      40.941  34.267  31.061  1.00  0.00     0.049 A 
ATOM     37  H   UNL A   1      39.287  34.546  32.336  1.00  0.00     0.167 HD
ATOM     38  C   UNL A   1      41.718  32.900  32.998  1.00  0.00     0.074 A 
ATOM     39  C   UNL A   1      40.467  32.480  33.628  1.00  0.00     0.031 C 
ATOM     40  C   UNL A   1      41.962  33.680  31.902  1.00  0.00     0.034 A 
BRANCH  27  41
ATOM     41  C   UNL A   1      36.586  33.647  31.347  1.00  0.00     0.023 A 
ATOM     42  C   UNL A   1      36.540  32.847  32.509  1.00  0.00     0.012 A 
ATOM     43  C   UNL A   1      35.430  34.412  31.054  1.00  0.00     0.148 A 
ATOM     44  C   UNL A   1      35.382  32.754  33.291  1.00  0.00     0.002 A 
ATOM     45  C   UNL A   1      34.310  34.373  31.872  1.00  0.00     0.091 A 
ATOM     46  F   UNL A   1      35.337  35.088  29.907  1.00  0.00    -0.205 F 
ATOM     47  C   UNL A   1      34.266  33.519  32.973  1.00  0.00     0.022 A 
BRANCH  45  48
ATOM     48  S   UNL A   1      32.860  35.374  31.515  1.00  0.00     0.127 S 
ATOM     49  O   UNL A   1      31.960  34.977  32.589  1.00  0.00    -0.237 OA
ATOM     50  O   UNL A   1      33.398  36.730  31.619  1.00  0.00    -0.237 OA
ATOM     51  O   UNL A   1      32.457  35.002  30.160  1.00  0.00    -0.744 OA
ENDBRANCH  45  48
ENDBRANCH  27  41
BRANCH  28  52
ATOM     52  C   UNL A   1      42.415  28.687  35.045  1.00  0.00     0.023 A 
ATOM     53  C   UNL A   1      41.501  27.620  35.105  1.00  0.00     0.012 A 
ATOM     54  C   UNL A   1      43.484  28.703  35.975  1.00  0.00     0.148 A 
ATOM     55  C   UNL A   1      41.648  26.602  36.057  1.00  0.00     0.002 A 
ATOM     56  C   UNL A   1      43.610  27.704  36.934  1.00  0.00     0.091 A 
ATOM     57  F   UNL A   1      44.428  29.645  35.861  1.00  0.00    -0.205 F 
ATOM     58  C   UNL A   1      42.698  26.644  36.972  1.00  0.00     0.022 A 
BRANCH  56  59
ATOM     59  S   UNL A   1      44.939  27.705  38.146  1.00  0.00     0.127 S 
ATOM     60  O   UNL A   1      44.891  29.079  38.646  1.00  0.00    -0.237 OA
ATOM     61  O   UNL A   1      44.485  26.692  39.094  1.00  0.00    -0.237 OA
ATOM     62  O   UNL A   1      46.152  27.382  37.405  1.00  0.00    -0.744 OA
ENDBRANCH  56  59
ENDBRANCH  28  52
BRANCH  40  63
ATOM     63  C   UNL A   1      43.367  33.712  31.349  1.00  0.00     0.023 A 
ATOM     64  C   UNL A   1      44.369  34.532  31.913  1.00  0.00     0.012 A 
ATOM     65  C   UNL A   1      43.737  32.751  30.395  1.00  0.00     0.148 A 
ATOM     66  C   UNL A   1      45.704  34.411  31.520  1.00  0.00     0.002 A 
ATOM     67  C   UNL A   1      45.074  32.603  30.040  1.00  0.00     0.091 A 
ATOM     68  F   UNL A   1      42.779  31.966  29.881  1.00  0.00    -0.205 F 
ATOM     69  C   UNL A   1      46.060  33.437  30.593  1.00  0.00     0.022 A 
BRANCH  67  70
ATOM     70  S   UNL A   1      45.618  31.277  28.961  1.00  0.00     0.127 S 
ATOM     71  O   UNL A   1      45.006  31.648  27.686  1.00  0.00    -0.237 OA
ATOM     72  O   UNL A   1      47.076  31.415  29.002  1.00  0.00    -0.237 OA
ATOM     73  O   UNL A   1      45.122  30.043  29.558  1.00  0.00    -0.744 OA
ENDBRANCH  67  70
ENDBRANCH  40  63
ENDBRANCH  14  15
ENDBRANCH   7   9
ENDBRANCH   6   7
ENDBRANCH   5   6
ENDBRANCH   4   5
ENDBRANCH   3   4
ENDBRANCH   2   3
ENDBRANCH   1   2
BRANCH   1  74
ATOM     74  O   UNL A   1      37.035  22.677  25.853  1.00  0.00    -0.376 OA
BRANCH  74  75
ATOM     75  C   UNL A   1      35.674  22.593  25.446  1.00  0.00     0.202 C 
BRANCH  75  76
ATOM     76  C   UNL A   1      35.361  23.393  24.186  1.00  0.00     0.261 C 
BRANCH  76  77
ATOM     77  O   UNL A   1      34.789  24.673  24.529  1.00  0.00    -0.463 OA
BRANCH  77  78
ATOM     78  C   UNL A   1      34.174  25.404  23.580  1.00  0.00     0.310 C 
ATOM     79  O   UNL A   1      34.277  25.175  22.379  1.00  0.00    -0.252 OA
BRANCH  78  80
ATOM     80  C   UNL A   1      33.448  26.638  24.109  1.00  0.00     0.119 C 
ATOM     81  C   UNL A   1      31.928  26.505  23.974  1.00  0.00     0.100 C 
ATOM     82  C   UNL A   1      33.863  28.147  23.950  1.00  0.00     0.026 C 
ATOM     83  C   UNL A   1      31.271  27.886  24.214  1.00  0.00     0.025 C 
ATOM     84  C   UNL A   1      33.001  28.966  22.990  1.00  0.00    -0.027 C 
ATOM     85  C   UNL A   1      33.429  28.825  25.283  1.00  0.00     0.009 C 
ATOM     86  C   UNL A   1      31.671  28.814  23.106  1.00  0.00    -0.027 C 
ATOM     87  C   UNL A   1      31.902  28.534  25.501  1.00  0.00     0.009 C 
BRANCH  81  88
ATOM     88  C   UNL A   1      31.371  25.637  22.827  1.00  0.00     0.228 C 
ATOM     89  O   UNL A   1      30.912  26.245  21.841  1.00  0.00    -0.274 OA
ATOM     90  N   UNL A   1      31.367  24.286  22.678  1.00  0.00    -0.326 N 
ATOM     91  H   UNL A   1      31.131  24.036  21.756  1.00  0.00     0.169 HD
BRANCH  90  92
ATOM     92  C   UNL A   1      31.604  23.142  23.461  1.00  0.00     0.041 A 
ATOM     93  C   UNL A   1      32.108  22.014  22.807  1.00  0.00     0.026 A 
ATOM     94  C   UNL A   1      31.352  23.014  24.816  1.00  0.00     0.026 A 
ATOM     95  C   UNL A   1      32.546  20.894  23.535  1.00  0.00     0.008 A 
ATOM     96  C   UNL A   1      31.766  21.905  25.552  1.00  0.00     0.008 A 
ATOM     97  C   UNL A   1      32.438  20.865  24.929  1.00  0.00    -0.026 A 
BRANCH  97  98
ATOM     98  C   UNL A   1      33.026  19.777  25.783  1.00  0.00     0.181 C 
BRANCH  98  99
ATOM     99  N   UNL A   1      33.208  18.556  25.032  1.00  0.00    -0.249 N 
ATOM    100  C   UNL A   1      34.358  18.109  24.459  1.00  0.00     0.220 A 
ATOM    101  N   UNL A   1      32.210  17.663  24.874  1.00  0.00    -0.160 NA
ATOM    102  N   UNL A   1      34.158  16.920  23.940  1.00  0.00    -0.224 NA
ATOM    103  C   UNL A   1      32.844  16.678  24.232  1.00  0.00     0.246 A 
ENDBRANCH  98  99
ENDBRANCH  97  98
ENDBRANCH  90  92
ENDBRANCH  81  88
ENDBRANCH  78  80
ENDBRANCH  77  78
ENDBRANCH  76  77
ENDBRANCH  75  76
ENDBRANCH  74  75
ENDBRANCH   1  74
TORSDOF 24
ENDMDL
MODEL 2
REMARK VINA RESULT:     -11.1      4.252      9.500
REMARK SMILES O=C(OCCOCCOCCOC(=O)[C@@H]1[C@H](C(=O)Nc2ccc(Cn3cncn3)cc2)[C@@H]2C=C[C@H]1CC2)c1ccc(-c2c3nc(c(-c4cccc(S(=O)(=O)[O-])c4F)c4ccc([nH]4)c(-c4cccc(S(=O)(=O)[O-])c4F)c4nc(c(-c5cccc(S(=O)(=O)[O-])c5F)c5ccc2[nH]5)C=C4)C=C3)cc1
REMARK SMILES IDX 8 1 7 2 6 3 5 4 4 5 3 6 2 7 1 8 38 9 39 10 100 11 40 12
REMARK SMILES IDX 99 13 41 14 42 15 43 16 93 17 44 18 98 19 92 20 94 21 45 22
REMARK SMILES IDX 97 23 91 24 90 25 46 27 78 28 58 29 77 30 59 31 62 32 76 33
REMARK SMILES IDX 95 34 60 35 61 36 75 38 96 39 63 40 47 41 48 42 56 43 49 44
REMARK SMILES IDX 51 45 57 46 50 47 52 48 53 49 54 50 55 51 79 52 80 53 88 54
REMARK SMILES IDX 81 55 83 56 89 57 82 58 84 59 85 60 86 61 87 62 64 63 65 64
REMARK SMILES IDX 73 65 66 66 68 67 74 68 67 69 69 70 70 71 71 72 72 73 9 74
REMARK SMILES IDX 10 75 11 76 12 77 13 78 14 79 15 80 16 81 35 82 32 83 34 84
REMARK SMILES IDX 36 85 33 86 37 87 17 88 18 89 19 90 20 92 21 93 31 94 22 95
REMARK SMILES IDX 30 96 23 97 24 98 25 99 26 100 29 101 27 102 28 103
REMARK H PARENT 94 26 62 37 19 91
REMARK Flexibility Score: inf
ROOT
ATOM      1  C   UNL A   1      33.283  30.183  26.195  1.00  0.00     0.188 C 
ENDROOT
BRANCH   1   2
ATOM      2  C   UNL A   1      33.680  30.647  27.582  1.00  0.00     0.188 C 
BRANCH   2   3
ATOM      3  O   UNL A   1      34.523  31.796  27.708  1.00  0.00    -0.376 OA
BRANCH   3   4
ATOM      4  C   UNL A   1      34.233  32.622  28.842  1.00  0.00     0.202 C 
BRANCH   4   5
ATOM      5  C   UNL A   1      34.901  32.319  30.190  1.00  0.00     0.261 C 
BRANCH   5   6
ATOM      6  O   UNL A   1      36.244  31.815  30.152  1.00  0.00    -0.460 OA
BRANCH   6   7
ATOM      7  C   UNL A   1      36.676  30.544  30.291  1.00  0.00     0.338 C 
ATOM      8  O   UNL A   1      36.196  29.852  31.189  1.00  0.00    -0.246 OA
BRANCH   7   9
ATOM      9  C   UNL A   1      37.711  29.935  29.417  1.00  0.00     0.060 A 
ATOM     10  C   UNL A   1      37.646  28.626  28.946  1.00  0.00     0.016 A 
ATOM     11  C   UNL A   1      38.905  30.675  29.278  1.00  0.00     0.016 A 
ATOM     12  C   UNL A   1      38.811  27.966  28.651  1.00  0.00     0.010 A 
ATOM     13  C   UNL A   1      40.075  30.027  28.952  1.00  0.00     0.010 A 
ATOM     14  C   UNL A   1      40.008  28.648  28.816  1.00  0.00    -0.014 A 
BRANCH  14  15
ATOM     15  C   UNL A   1      41.169  27.817  29.043  1.00  0.00     0.031 A 
ATOM     16  C   UNL A   1      41.832  28.054  30.343  1.00  0.00     0.074 A 
ATOM     17  C   UNL A   1      41.534  26.948  28.078  1.00  0.00     0.049 A 
ATOM     18  N   UNL A   1      43.055  28.405  30.573  1.00  0.00    -0.248 NA
ATOM     19  C   UNL A   1      40.964  28.073  31.529  1.00  0.00     0.031 C 
ATOM     20  C   UNL A   1      40.774  26.566  26.877  1.00  0.00     0.029 A 
ATOM     21  N   UNL A   1      42.582  26.085  28.056  1.00  0.00    -0.354 N 
ATOM     22  C   UNL A   1      43.161  28.442  31.963  1.00  0.00     0.074 A 
ATOM     23  C   UNL A   1      41.820  28.440  32.479  1.00  0.00     0.031 C 
ATOM     24  C   UNL A   1      41.208  25.362  26.449  1.00  0.00     0.029 A 
ATOM     25  C   UNL A   1      42.344  24.970  27.261  1.00  0.00     0.049 A 
ATOM     26  H   UNL A   1      43.421  26.235  28.551  1.00  0.00     0.167 HD
ATOM     27  C   UNL A   1      44.336  28.167  32.588  1.00  0.00     0.034 A 
ATOM     28  C   UNL A   1      42.937  23.759  27.389  1.00  0.00     0.034 A 
ATOM     29  C   UNL A   1      45.464  28.391  31.722  1.00  0.00     0.049 A 
ATOM     30  C   UNL A   1      44.175  23.957  28.181  1.00  0.00     0.074 A 
ATOM     31  C   UNL A   1      45.967  29.485  31.046  1.00  0.00     0.029 A 
ATOM     32  N   UNL A   1      46.057  27.290  31.154  1.00  0.00    -0.354 N 
ATOM     33  N   UNL A   1      45.192  24.661  27.764  1.00  0.00    -0.248 NA
ATOM     34  C   UNL A   1      44.091  23.774  29.622  1.00  0.00     0.031 C 
ATOM     35  C   UNL A   1      46.459  28.961  29.815  1.00  0.00     0.029 A 
ATOM     36  C   UNL A   1      46.274  27.577  29.833  1.00  0.00     0.049 A 
ATOM     37  H   UNL A   1      46.284  26.449  31.612  1.00  0.00     0.167 HD
ATOM     38  C   UNL A   1      45.615  25.365  28.885  1.00  0.00     0.074 A 
ATOM     39  C   UNL A   1      44.968  24.702  30.016  1.00  0.00     0.031 C 
ATOM     40  C   UNL A   1      46.201  26.596  28.772  1.00  0.00     0.034 A 
BRANCH  27  41
ATOM     41  C   UNL A   1      44.433  27.309  33.830  1.00  0.00     0.023 A 
ATOM     42  C   UNL A   1      45.047  27.884  34.964  1.00  0.00     0.012 A 
ATOM     43  C   UNL A   1      44.232  25.907  33.855  1.00  0.00     0.148 A 
ATOM     44  C   UNL A   1      45.503  27.097  36.028  1.00  0.00     0.002 A 
ATOM     45  C   UNL A   1      44.621  25.140  34.944  1.00  0.00     0.091 A 
ATOM     46  F   UNL A   1      43.786  25.266  32.773  1.00  0.00    -0.205 F 
ATOM     47  C   UNL A   1      45.289  25.723  36.019  1.00  0.00     0.022 A 
BRANCH  45  48
ATOM     48  S   UNL A   1      44.329  23.366  34.986  1.00  0.00     0.127 S 
ATOM     49  O   UNL A   1      44.700  23.043  36.357  1.00  0.00    -0.237 OA
ATOM     50  O   UNL A   1      42.899  23.290  34.691  1.00  0.00    -0.237 OA
ATOM     51  O   UNL A   1      45.179  22.810  33.935  1.00  0.00    -0.744 OA
ENDBRANCH  45  48
ENDBRANCH  27  41
BRANCH  28  52
ATOM     52  C   UNL A   1      42.299  22.434  27.202  1.00  0.00     0.023 A 
ATOM     53  C   UNL A   1      40.914  22.288  27.395  1.00  0.00     0.012 A 
ATOM     54  C   UNL A   1      43.007  21.356  26.615  1.00  0.00     0.148 A 
ATOM     55  C   UNL A   1      40.256  21.110  27.014  1.00  0.00     0.002 A 
ATOM     56  C   UNL A   1      42.355  20.180  26.262  1.00  0.00     0.091 A 
ATOM     57  F   UNL A   1      44.303  21.518  26.317  1.00  0.00    -0.205 F 
ATOM     58  C   UNL A   1      40.974  20.057  26.452  1.00  0.00     0.022 A 
BRANCH  56  59
ATOM     59  S   UNL A   1      43.226  18.783  25.539  1.00  0.00     0.127 S 
ATOM     60  O   UNL A   1      42.244  17.708  25.681  1.00  0.00    -0.237 OA
ATOM     61  O   UNL A   1      43.443  19.238  24.169  1.00  0.00    -0.237 OA
ATOM     62  O   UNL A   1      44.427  18.603  26.345  1.00  0.00    -0.744 OA
ENDBRANCH  56  59
ENDBRANCH  28  52
BRANCH  40  63
ATOM     63  C   UNL A   1      46.547  27.095  27.389  1.00  0.00     0.023 A 
ATOM     64  C   UNL A   1      45.580  27.693  26.552  1.00  0.00     0.012 A 
ATOM     65  C   UNL A   1      47.898  27.158  27.014  1.00  0.00     0.148 A 
ATOM     66  C   UNL A   1      45.949  28.322  25.360  1.00  0.00     0.002 A 
ATOM     67  C   UNL A   1      48.267  27.824  25.850  1.00  0.00     0.091 A 
ATOM     68  F   UNL A   1      48.808  26.601  27.828  1.00  0.00    -0.205 F 
ATOM     69  C   UNL A   1      47.295  28.400  25.015  1.00  0.00     0.022 A 
BRANCH  67  70
ATOM     70  S   UNL A   1      49.989  28.083  25.421  1.00  0.00     0.127 S 
ATOM     71  O   UNL A   1      50.321  29.281  26.191  1.00  0.00    -0.237 OA
ATOM     72  O   UNL A   1      50.622  26.852  25.902  1.00  0.00    -0.237 OA
ATOM     73  O   UNL A   1      50.024  28.241  23.972  1.00  0.00    -0.744 OA
ENDBRANCH  67  70
ENDBRANCH  40  63
ENDBRANCH  14  15
ENDBRANCH   7   9
ENDBRANCH   6   7
ENDBRANCH   5   6
ENDBRANCH   4   5
ENDBRANCH   3   4
ENDBRANCH   2   3
ENDBRANCH   1   2
BRANCH   1  74
ATOM     74  O   UNL A   1      33.598  28.825  25.926  1.00  0.00    -0.376 OA
BRANCH  74  75
ATOM     75  C   UNL A   1      32.487  27.940  25.847  1.00  0.00     0.202 C 
BRANCH  75  76
ATOM     76  C   UNL A   1      32.625  26.703  26.728  1.00  0.00     0.261 C 
BRANCH  76  77
ATOM     77  O   UNL A   1      32.163  25.529  26.026  1.00  0.00    -0.463 OA
BRANCH  77  78
ATOM     78  C   UNL A   1      32.384  24.309  26.551  1.00  0.00     0.310 C 
ATOM     79  O   UNL A   1      31.745  23.854  27.495  1.00  0.00    -0.252 OA
BRANCH  78  80
ATOM     80  C   UNL A   1      33.597  23.586  25.972  1.00  0.00     0.119 C 
ATOM     81  C   UNL A   1      33.370  23.171  24.515  1.00  0.00     0.100 C 
ATOM     82  C   UNL A   1      34.526  22.533  26.682  1.00  0.00     0.026 C 
ATOM     83  C   UNL A   1      34.476  22.174  24.089  1.00  0.00     0.025 C 
ATOM     84  C   UNL A   1      34.368  21.091  26.203  1.00  0.00    -0.027 C 
ATOM     85  C   UNL A   1      35.950  22.809  26.115  1.00  0.00     0.009 C 
ATOM     86  C   UNL A   1      34.316  20.907  24.873  1.00  0.00    -0.027 C 
ATOM     87  C   UNL A   1      35.872  22.734  24.549  1.00  0.00     0.009 C 
BRANCH  81  88
ATOM     88  C   UNL A   1      31.927  22.878  24.057  1.00  0.00     0.228 C 
ATOM     89  O   UNL A   1      31.538  21.699  24.160  1.00  0.00    -0.274 OA
ATOM     90  N   UNL A   1      30.961  23.729  23.618  1.00  0.00    -0.326 N 
ATOM     91  H   UNL A   1      30.085  23.281  23.596  1.00  0.00     0.169 HD
BRANCH  90  92
ATOM     92  C   UNL A   1      30.852  25.063  23.188  1.00  0.00     0.041 A 
ATOM     93  C   UNL A   1      29.826  25.832  23.746  1.00  0.00     0.026 A 
ATOM     94  C   UNL A   1      31.646  25.681  22.237  1.00  0.00     0.026 A 
ATOM     95  C   UNL A   1      29.756  27.217  23.516  1.00  0.00     0.008 A 
ATOM     96  C   UNL A   1      31.581  27.051  21.985  1.00  0.00     0.008 A 
ATOM     97  C   UNL A   1      30.685  27.847  22.680  1.00  0.00    -0.026 A 
BRANCH  97  98
ATOM     98  C   UNL A   1      30.770  29.338  22.514  1.00  0.00     0.181 C 
BRANCH  98  99
ATOM     99  N   UNL A   1      29.469  29.958  22.625  1.00  0.00    -0.249 N 
ATOM    100  C   UNL A   1      29.086  30.905  23.523  1.00  0.00     0.220 A 
ATOM    101  N   UNL A   1      28.474  29.684  21.758  1.00  0.00    -0.160 NA
ATOM    102  N   UNL A   1      27.860  31.292  23.259  1.00  0.00    -0.224 NA
ATOM    103  C   UNL A   1      27.533  30.538  22.166  1.00  0.00     0.246 A 
ENDBRANCH  98  99
ENDBRANCH  97  98
ENDBRANCH  90  92
ENDBRANCH  81  88
ENDBRANCH  78  80
ENDBRANCH  77  78
ENDBRANCH  76  77
ENDBRANCH  75  76
ENDBRANCH  74  75
ENDBRANCH   1  74
TORSDOF 24
ENDMDL
MODEL 3
REMARK VINA RESULT:     -11.1      3.329      5.613
REMARK SMILES O=C(OCCOCCOCCOC(=O)[C@@H]1[C@H](C(=O)Nc2ccc(Cn3cncn3)cc2)[C@@H]2C=C[C@H]1CC2)c1ccc(-c2c3nc(c(-c4cccc(S(=O)(=O)[O-])c4F)c4ccc([nH]4)c(-c4cccc(S(=O)(=O)[O-])c4F)c4nc(c(-c5cccc(S(=O)(=O)[O-])c5F)c5ccc2[nH]5)C=C4)C=C3)cc1
REMARK SMILES IDX 8 1 7 2 6 3 5 4 4 5 3 6 2 7 1 8 38 9 39 10 100 11 40 12
REMARK SMILES IDX 99 13 41 14 42 15 43 16 93 17 44 18 98 19 92 20 94 21 45 22
REMARK SMILES IDX 97 23 91 24 90 25 46 27 78 28 58 29 77 30 59 31 62 32 76 33
REMARK SMILES IDX 95 34 60 35 61 36 75 38 96 39 63 40 47 41 48 42 56 43 49 44
REMARK SMILES IDX 51 45 57 46 50 47 52 48 53 49 54 50 55 51 79 52 80 53 88 54
REMARK SMILES IDX 81 55 83 56 89 57 82 58 84 59 85 60 86 61 87 62 64 63 65 64
REMARK SMILES IDX 73 65 66 66 68 67 74 68 67 69 69 70 70 71 71 72 72 73 9 74
REMARK SMILES IDX 10 75 11 76 12 77 13 78 14 79 15 80 16 81 35 82 32 83 34 84
REMARK SMILES IDX 36 85 33 86 37 87 17 88 18 89 19 90 20 92 21 93 31 94 22 95
REMARK SMILES IDX 30 96 23 97 24 98 25 99 26 100 29 101 27 102 28 103
REMARK H PARENT 94 26 62 37 19 91
REMARK Flexibility Score: inf
ROOT
ATOM      1  C   UNL A   1      37.202  22.607  25.054  1.00  0.00     0.188 C 
ENDROOT
BRANCH   1   2
ATOM      2  C   UNL A   1      38.350  21.893  25.740  1.00  0.00     0.188 C 
BRANCH   2   3
ATOM      3  O   UNL A   1      39.187  22.635  26.632  1.00  0.00    -0.376 OA
BRANCH   3   4
ATOM      4  C   UNL A   1      40.507  22.101  26.787  1.00  0.00     0.202 C 
BRANCH   4   5
ATOM      5  C   UNL A   1      41.696  22.827  26.143  1.00  0.00     0.261 C 
BRANCH   5   6
ATOM      6  O   UNL A   1      42.015  24.132  26.648  1.00  0.00    -0.460 OA
BRANCH   6   7
ATOM      7  C   UNL A   1      41.669  25.339  26.154  1.00  0.00     0.338 C 
ATOM      8  O   UNL A   1      42.005  25.626  25.006  1.00  0.00    -0.246 OA
BRANCH   7   9
ATOM      9  C   UNL A   1      40.907  26.349  26.932  1.00  0.00     0.060 A 
ATOM     10  C   UNL A   1      40.683  27.651  26.490  1.00  0.00     0.016 A 
ATOM     11  C   UNL A   1      40.619  26.001  28.269  1.00  0.00     0.016 A 
ATOM     12  C   UNL A   1      40.497  28.646  27.415  1.00  0.00     0.010 A 
ATOM     13  C   UNL A   1      40.401  26.991  29.200  1.00  0.00     0.010 A 
ATOM     14  C   UNL A   1      40.518  28.301  28.759  1.00  0.00    -0.014 A 
BRANCH  14  15
ATOM     15  C   UNL A   1      40.878  29.367  29.667  1.00  0.00     0.031 A 
ATOM     16  C   UNL A   1      39.725  30.149  30.161  1.00  0.00     0.074 A 
ATOM     17  C   UNL A   1      42.183  29.552  29.953  1.00  0.00     0.049 A 
ATOM     18  N   UNL A   1      39.507  31.419  30.057  1.00  0.00    -0.248 NA
ATOM     19  C   UNL A   1      38.586  29.380  30.685  1.00  0.00     0.031 C 
ATOM     20  C   UNL A   1      43.311  28.664  29.626  1.00  0.00     0.029 A 
ATOM     21  N   UNL A   1      42.759  30.484  30.755  1.00  0.00    -0.354 N 
ATOM     22  C   UNL A   1      38.305  31.632  30.732  1.00  0.00     0.074 A 
ATOM     23  C   UNL A   1      37.694  30.342  30.905  1.00  0.00     0.031 C 
ATOM     24  C   UNL A   1      44.327  28.917  30.476  1.00  0.00     0.029 A 
ATOM     25  C   UNL A   1      43.964  30.054  31.299  1.00  0.00     0.049 A 
ATOM     26  H   UNL A   1      42.364  31.369  30.931  1.00  0.00     0.167 HD
ATOM     27  C   UNL A   1      38.050  32.809  31.362  1.00  0.00     0.034 A 
ATOM     28  C   UNL A   1      44.527  30.506  32.445  1.00  0.00     0.034 A 
ATOM     29  C   UNL A   1      38.825  33.887  30.808  1.00  0.00     0.049 A 
ATOM     30  C   UNL A   1      43.901  31.814  32.756  1.00  0.00     0.074 A 
ATOM     31  C   UNL A   1      38.929  34.466  29.558  1.00  0.00     0.029 A 
ATOM     32  N   UNL A   1      39.932  34.300  31.509  1.00  0.00    -0.354 N 
ATOM     33  N   UNL A   1      44.040  32.874  32.007  1.00  0.00    -0.248 NA
ATOM     34  C   UNL A   1      42.741  31.817  33.634  1.00  0.00     0.031 C 
ATOM     35  C   UNL A   1      40.309  34.799  29.422  1.00  0.00     0.029 A 
ATOM     36  C   UNL A   1      40.954  34.450  30.611  1.00  0.00     0.049 A 
ATOM     37  H   UNL A   1      39.981  34.458  32.479  1.00  0.00     0.167 HD
ATOM     38  C   UNL A   1      42.779  33.462  31.994  1.00  0.00     0.074 A 
ATOM     39  C   UNL A   1      42.053  32.826  33.092  1.00  0.00     0.031 C 
ATOM     40  C   UNL A   1      42.342  34.181  30.916  1.00  0.00     0.034 A 
BRANCH  27  41
ATOM     41  C   UNL A   1      37.417  32.894  32.733  1.00  0.00     0.023 A 
ATOM     42  C   UNL A   1      36.407  33.863  32.917  1.00  0.00     0.012 A 
ATOM     43  C   UNL A   1      37.951  32.299  33.903  1.00  0.00     0.148 A 
ATOM     44  C   UNL A   1      36.006  34.270  34.196  1.00  0.00     0.002 A 
ATOM     45  C   UNL A   1      37.499  32.654  35.166  1.00  0.00     0.091 A 
ATOM     46  F   UNL A   1      39.000  31.478  33.828  1.00  0.00    -0.205 F 
ATOM     47  C   UNL A   1      36.552  33.664  35.321  1.00  0.00     0.022 A 
BRANCH  45  48
ATOM     48  S   UNL A   1      38.154  31.868  36.644  1.00  0.00     0.127 S 
ATOM     49  O   UNL A   1      39.454  32.514  36.766  1.00  0.00    -0.237 OA
ATOM     50  O   UNL A   1      37.167  32.254  37.652  1.00  0.00    -0.237 OA
ATOM     51  O   UNL A   1      38.166  30.436  36.348  1.00  0.00    -0.744 OA
ENDBRANCH  45  48
ENDBRANCH  27  41
BRANCH  28  52
ATOM     52  C   UNL A   1      45.262  29.701  33.450  1.00  0.00     0.023 A 
ATOM     53  C   UNL A   1      46.583  30.040  33.791  1.00  0.00     0.012 A 
ATOM     54  C   UNL A   1      44.595  28.735  34.243  1.00  0.00     0.148 A 
ATOM     55  C   UNL A   1      47.218  29.439  34.887  1.00  0.00     0.002 A 
ATOM     56  C   UNL A   1      45.238  28.123  35.314  1.00  0.00     0.091 A 
ATOM     57  F   UNL A   1      43.301  28.483  34.007  1.00  0.00    -0.205 F 
ATOM     58  C   UNL A   1      46.549  28.480  35.645  1.00  0.00     0.022 A 
BRANCH  56  59
ATOM     59  S   UNL A   1      44.432  26.874  36.326  1.00  0.00     0.127 S 
ATOM     60  O   UNL A   1      43.503  26.265  35.373  1.00  0.00    -0.237 OA
ATOM     61  O   UNL A   1      45.555  26.026  36.713  1.00  0.00    -0.237 OA
ATOM     62  O   UNL A   1      43.783  27.600  37.410  1.00  0.00    -0.744 OA
ENDBRANCH  56  59
ENDBRANCH  28  52
BRANCH  40  63
ATOM     63  C   UNL A   1      43.329  34.480  29.812  1.00  0.00     0.023 A 
ATOM     64  C   UNL A   1      44.182  35.604  29.863  1.00  0.00     0.012 A 
ATOM     65  C   UNL A   1      43.548  33.509  28.823  1.00  0.00     0.148 A 
ATOM     66  C   UNL A   1      45.217  35.765  28.939  1.00  0.00     0.002 A 
ATOM     67  C   UNL A   1      44.608  33.649  27.933  1.00  0.00     0.091 A 
ATOM     68  F   UNL A   1      42.742  32.437  28.798  1.00  0.00    -0.205 F 
ATOM     69  C   UNL A   1      45.439  34.781  27.981  1.00  0.00     0.022 A 
BRANCH  67  70
ATOM     70  S   UNL A   1      45.036  32.353  26.769  1.00  0.00     0.127 S 
ATOM     71  O   UNL A   1      43.885  32.357  25.868  1.00  0.00    -0.237 OA
ATOM     72  O   UNL A   1      46.277  32.859  26.177  1.00  0.00    -0.237 OA
ATOM     73  O   UNL A   1      45.208  31.142  27.561  1.00  0.00    -0.744 OA
ENDBRANCH  67  70
ENDBRANCH  40  63
ENDBRANCH  14  15
ENDBRANCH   7   9
ENDBRANCH   6   7
ENDBRANCH   5   6
ENDBRANCH   4   5
ENDBRANCH   3   4
ENDBRANCH   2   3
ENDBRANCH   1   2
BRANCH   1  74
ATOM     74  O   UNL A   1      36.307  23.255  25.946  1.00  0.00    -0.376 OA
BRANCH  74  75
ATOM     75  C   UNL A   1      35.188  22.482  26.363  1.00  0.00     0.202 C 
BRANCH  75  76
ATOM     76  C   UNL A   1      34.019  23.320  26.871  1.00  0.00     0.261 C 
BRANCH  76  77
ATOM     77  O   UNL A   1      33.644  24.311  25.890  1.00  0.00    -0.463 OA
BRANCH  77  78
ATOM     78  C   UNL A   1      32.354  24.432  25.525  1.00  0.00     0.310 C 
ATOM     79  O   UNL A   1      31.466  23.686  25.926  1.00  0.00    -0.252 OA
BRANCH  78  80
ATOM     80  C   UNL A   1      32.101  25.486  24.451  1.00  0.00     0.119 C 
ATOM     81  C   UNL A   1      32.231  26.907  25.007  1.00  0.00     0.100 C 
ATOM     82  C   UNL A   1      31.020  25.463  23.308  1.00  0.00     0.026 C 
ATOM     83  C   UNL A   1      31.653  27.913  23.981  1.00  0.00     0.025 C 
ATOM     84  C   UNL A   1      29.856  26.436  23.487  1.00  0.00    -0.027 C 
ATOM     85  C   UNL A   1      31.708  26.150  22.092  1.00  0.00     0.009 C 
ATOM     86  C   UNL A   1      30.177  27.688  23.858  1.00  0.00    -0.027 C 
ATOM     87  C   UNL A   1      32.214  27.563  22.554  1.00  0.00     0.009 C 
BRANCH  81  88
ATOM     88  C   UNL A   1      31.907  27.139  26.497  1.00  0.00     0.228 C 
ATOM     89  O   UNL A   1      31.022  26.415  26.994  1.00  0.00    -0.274 OA
ATOM     90  N   UNL A   1      32.493  27.972  27.398  1.00  0.00    -0.326 N 
ATOM     91  H   UNL A   1      32.209  27.751  28.314  1.00  0.00     0.169 HD
BRANCH  90  92
ATOM     92  C   UNL A   1      33.388  29.056  27.400  1.00  0.00     0.041 A 
ATOM     93  C   UNL A   1      32.841  30.336  27.276  1.00  0.00     0.026 A 
ATOM     94  C   UNL A   1      34.768  28.973  27.479  1.00  0.00     0.026 A 
ATOM     95  C   UNL A   1      33.638  31.481  27.454  1.00  0.00     0.008 A 
ATOM     96  C   UNL A   1      35.576  30.098  27.640  1.00  0.00     0.008 A 
ATOM     97  C   UNL A   1      35.009  31.361  27.706  1.00  0.00    -0.026 A 
BRANCH  97  98
ATOM     98  C   UNL A   1      35.889  32.526  28.062  1.00  0.00     0.181 C 
BRANCH  98  99
ATOM     99  N   UNL A   1      35.126  33.610  28.637  1.00  0.00    -0.249 N 
ATOM    100  C   UNL A   1      34.624  34.695  27.989  1.00  0.00     0.220 A 
ATOM    101  N   UNL A   1      34.764  33.614  29.936  1.00  0.00    -0.160 NA
ATOM    102  N   UNL A   1      33.911  35.415  28.821  1.00  0.00    -0.224 NA
ATOM    103  C   UNL A   1      34.006  34.711  29.990  1.00  0.00     0.246 A 
ENDBRANCH  98  99
ENDBRANCH  97  98
ENDBRANCH  90  92
ENDBRANCH  81  88
ENDBRANCH  78  80
ENDBRANCH  77  78
ENDBRANCH  76  77
ENDBRANCH  75  76
ENDBRANCH  74  75
ENDBRANCH   1  74
TORSDOF 24
ENDMDL
