MODEL 1
REMARK VINA RESULT:     -10.5      0.000      0.000
REMARK SMILES C[C@@H](C(=O)OCCOCCOCCOC(=O)c1ccc(-c2c3nc(c(-c4cccc(S(=O)(=O)[O-])c4F)c4ccc([nH]4)c(-c4cccc(S(=O)(=O)[O-])c4F)c4nc(c(-c5cccc(S(=O)(=O)[O-])c5F)c5ccc2[nH]5)C=C4)C=C3)cc1)c1cccc(C(=O)c2ccccc2)c1
REMARK SMILES IDX 9 1 8 2 7 3 6 4 5 5 3 6 4 7 2 8 1 9 80 10 81 11 93 12 82 13
REMARK SMILES IDX 84 14 83 15 85 16 86 17 87 18 88 19 92 20 89 21 91 22 90 23
REMARK SMILES IDX 10 24 11 25 12 26 13 27 14 28 15 29 16 30 17 31 18 32 79 33
REMARK SMILES IDX 19 34 78 35 20 36 21 37 22 38 72 39 23 40 77 41 71 42 73 43
REMARK SMILES IDX 24 44 76 45 70 46 69 47 25 49 57 50 37 51 56 52 38 53 41 54
REMARK SMILES IDX 55 55 74 56 39 57 40 58 54 60 75 61 42 62 26 63 27 64 35 65
REMARK SMILES IDX 28 66 30 67 36 68 29 69 31 70 32 71 33 72 34 73 58 74 59 75
REMARK SMILES IDX 67 76 60 77 62 78 68 79 61 80 63 81 64 82 65 83 66 84 43 85
REMARK SMILES IDX 44 86 52 87 45 88 47 89 53 90 46 91 48 92 49 93 50 94 51 95
REMARK H PARENT 73 48 41 59
REMARK Flexibility Score: inf
ROOT
ATOM      1  C   UNL A   1      36.583  23.707  25.350  1.00  0.00     0.188 C 
ENDROOT
BRANCH   1   2
ATOM      2  O   UNL A   1      35.388  23.886  26.079  1.00  0.00    -0.376 OA
BRANCH   2   3
ATOM      3  C   UNL A   1      34.806  22.757  26.717  1.00  0.00     0.202 C 
BRANCH   3   4
ATOM      4  C   UNL A   1      33.513  22.891  27.540  1.00  0.00     0.261 C 
BRANCH   4   5
ATOM      5  O   UNL A   1      32.525  23.777  26.970  1.00  0.00    -0.463 OA
BRANCH   5   6
ATOM      6  C   UNL A   1      31.333  23.202  26.646  1.00  0.00     0.313 C 
ATOM      7  O   UNL A   1      30.373  23.165  27.410  1.00  0.00    -0.252 OA
BRANCH   6   8
ATOM      8  C   UNL A   1      31.276  22.572  25.242  1.00  0.00     0.126 C 
ATOM      9  C   UNL A   1      31.822  21.160  25.025  1.00  0.00     0.025 C 
BRANCH   8  10
ATOM     10  C   UNL A   1      31.761  23.534  24.160  1.00  0.00    -0.033 A 
ATOM     11  C   UNL A   1      32.653  23.168  23.148  1.00  0.00     0.004 A 
ATOM     12  C   UNL A   1      31.336  24.866  24.194  1.00  0.00     0.016 A 
ATOM     13  C   UNL A   1      33.165  24.115  22.258  1.00  0.00     0.001 A 
ATOM     14  C   UNL A   1      31.888  25.836  23.339  1.00  0.00     0.023 A 
ATOM     15  C   UNL A   1      32.802  25.452  22.360  1.00  0.00     0.012 A 
BRANCH  14  16
ATOM     16  C   UNL A   1      31.525  27.275  23.453  1.00  0.00     0.193 C 
ATOM     17  O   UNL A   1      30.771  27.808  22.646  1.00  0.00    -0.289 OA
BRANCH  16  18
ATOM     18  C   UNL A   1      32.024  28.068  24.595  1.00  0.00     0.022 A 
ATOM     19  C   UNL A   1      31.436  29.312  24.834  1.00  0.00     0.012 A 
ATOM     20  C   UNL A   1      32.987  27.553  25.472  1.00  0.00     0.012 A 
ATOM     21  C   UNL A   1      31.763  30.013  25.991  1.00  0.00     0.001 A 
ATOM     22  C   UNL A   1      33.298  28.251  26.637  1.00  0.00     0.001 A 
ATOM     23  C   UNL A   1      32.678  29.475  26.899  1.00  0.00     0.000 A 
ENDBRANCH  16  18
ENDBRANCH  14  16
ENDBRANCH   8  10
ENDBRANCH   6   8
ENDBRANCH   5   6
ENDBRANCH   4   5
ENDBRANCH   3   4
ENDBRANCH   2   3
ENDBRANCH   1   2
BRANCH   1  24
ATOM     24  C   UNL A   1      36.524  22.910  24.042  1.00  0.00     0.188 C 
BRANCH  24  25
ATOM     25  O   UNL A   1      37.248  21.716  23.868  1.00  0.00    -0.376 OA
BRANCH  25  26
ATOM     26  C   UNL A   1      37.102  20.650  24.784  1.00  0.00     0.202 C 
BRANCH  26  27
ATOM     27  C   UNL A   1      38.283  19.880  25.401  1.00  0.00     0.261 C 
BRANCH  27  28
ATOM     28  O   UNL A   1      39.575  20.483  25.354  1.00  0.00    -0.460 OA
BRANCH  28  29
ATOM     29  C   UNL A   1      40.296  20.426  26.501  1.00  0.00     0.338 C 
ATOM     30  O   UNL A   1      40.787  19.429  27.008  1.00  0.00    -0.246 OA
BRANCH  29  31
ATOM     31  C   UNL A   1      40.575  21.812  26.939  1.00  0.00     0.060 A 
ATOM     32  C   UNL A   1      39.962  22.871  26.256  1.00  0.00     0.016 A 
ATOM     33  C   UNL A   1      41.420  22.065  28.023  1.00  0.00     0.016 A 
ATOM     34  C   UNL A   1      40.213  24.189  26.641  1.00  0.00     0.010 A 
ATOM     35  C   UNL A   1      41.691  23.387  28.390  1.00  0.00     0.010 A 
ATOM     36  C   UNL A   1      41.110  24.455  27.686  1.00  0.00    -0.014 A 
BRANCH  36  37
ATOM     37  C   UNL A   1      41.581  25.844  27.916  1.00  0.00     0.031 A 
ATOM     38  C   UNL A   1      42.935  26.235  27.396  1.00  0.00     0.074 A 
ATOM     39  C   UNL A   1      40.833  26.742  28.582  1.00  0.00     0.049 A 
ATOM     40  N   UNL A   1      43.569  27.370  27.512  1.00  0.00    -0.248 NA
ATOM     41  C   UNL A   1      43.682  25.195  26.668  1.00  0.00     0.031 C 
ATOM     42  C   UNL A   1      39.527  26.475  29.172  1.00  0.00     0.029 A 
ATOM     43  N   UNL A   1      41.074  28.061  28.882  1.00  0.00    -0.354 N 
ATOM     44  C   UNL A   1      44.805  27.173  26.911  1.00  0.00     0.074 A 
ATOM     45  C   UNL A   1      44.830  25.810  26.427  1.00  0.00     0.031 C 
ATOM     46  C   UNL A   1      39.060  27.603  29.733  1.00  0.00     0.029 A 
ATOM     47  C   UNL A   1      40.069  28.654  29.611  1.00  0.00     0.049 A 
ATOM     48  H   UNL A   1      41.889  28.537  28.601  1.00  0.00     0.167 HD
ATOM     49  C   UNL A   1      45.831  28.046  26.777  1.00  0.00     0.034 A 
ATOM     50  C   UNL A   1      39.990  29.887  30.152  1.00  0.00     0.034 A 
ATOM     51  C   UNL A   1      45.811  29.400  27.260  1.00  0.00     0.049 A 
ATOM     52  C   UNL A   1      41.148  30.840  29.986  1.00  0.00     0.074 A 
ATOM     53  C   UNL A   1      46.796  30.365  27.150  1.00  0.00     0.029 A 
ATOM     54  N   UNL A   1      44.761  29.978  27.957  1.00  0.00    -0.354 N 
ATOM     55  N   UNL A   1      42.275  30.670  29.337  1.00  0.00    -0.248 NA
ATOM     56  C   UNL A   1      41.022  32.159  30.626  1.00  0.00     0.031 C 
ATOM     57  C   UNL A   1      46.355  31.516  27.810  1.00  0.00     0.029 A 
ATOM     58  C   UNL A   1      45.078  31.283  28.291  1.00  0.00     0.049 A 
ATOM     59  H   UNL A   1      43.915  29.527  28.179  1.00  0.00     0.167 HD
ATOM     60  C   UNL A   1      42.978  31.864  29.469  1.00  0.00     0.074 A 
ATOM     61  C   UNL A   1      42.139  32.760  30.236  1.00  0.00     0.031 C 
ATOM     62  C   UNL A   1      44.215  32.184  29.013  1.00  0.00     0.034 A 
BRANCH  49  63
ATOM     63  C   UNL A   1      47.071  27.555  26.077  1.00  0.00     0.023 A 
ATOM     64  C   UNL A   1      48.007  26.770  26.781  1.00  0.00     0.012 A 
ATOM     65  C   UNL A   1      47.288  27.839  24.715  1.00  0.00     0.148 A 
ATOM     66  C   UNL A   1      49.158  26.303  26.149  1.00  0.00     0.002 A 
ATOM     67  C   UNL A   1      48.413  27.329  24.079  1.00  0.00     0.091 A 
ATOM     68  F   UNL A   1      46.399  28.607  24.072  1.00  0.00    -0.205 F 
ATOM     69  C   UNL A   1      49.355  26.574  24.796  1.00  0.00     0.022 A 
BRANCH  67  70
ATOM     70  S   UNL A   1      48.719  27.555  22.324  1.00  0.00     0.127 S 
ATOM     71  O   UNL A   1      49.179  26.224  21.932  1.00  0.00    -0.237 OA
ATOM     72  O   UNL A   1      47.390  27.912  21.827  1.00  0.00    -0.237 OA
ATOM     73  O   UNL A   1      49.713  28.613  22.220  1.00  0.00    -0.744 OA
ENDBRANCH  67  70
ENDBRANCH  49  63
BRANCH  50  74
ATOM     74  C   UNL A   1      38.776  30.300  30.916  1.00  0.00     0.023 A 
ATOM     75  C   UNL A   1      38.665  29.977  32.283  1.00  0.00     0.012 A 
ATOM     76  C   UNL A   1      37.729  31.008  30.293  1.00  0.00     0.148 A 
ATOM     77  C   UNL A   1      37.520  30.321  33.005  1.00  0.00     0.002 A 
ATOM     78  C   UNL A   1      36.623  31.405  31.034  1.00  0.00     0.091 A 
ATOM     79  F   UNL A   1      37.840  31.284  28.986  1.00  0.00    -0.205 F 
ATOM     80  C   UNL A   1      36.505  31.044  32.384  1.00  0.00     0.022 A 
BRANCH  78  81
ATOM     81  S   UNL A   1      35.339  32.458  30.349  1.00  0.00     0.127 S 
ATOM     82  O   UNL A   1      36.097  33.649  29.973  1.00  0.00    -0.237 OA
ATOM     83  O   UNL A   1      34.856  31.655  29.227  1.00  0.00    -0.237 OA
ATOM     84  O   UNL A   1      34.367  32.639  31.419  1.00  0.00    -0.744 OA
ENDBRANCH  78  81
ENDBRANCH  50  74
BRANCH  62  85
ATOM     85  C   UNL A   1      44.731  33.573  29.289  1.00  0.00     0.023 A 
ATOM     86  C   UNL A   1      45.444  33.841  30.475  1.00  0.00     0.012 A 
ATOM     87  C   UNL A   1      44.578  34.596  28.331  1.00  0.00     0.148 A 
ATOM     88  C   UNL A   1      45.965  35.111  30.719  1.00  0.00     0.002 A 
ATOM     89  C   UNL A   1      45.144  35.845  28.558  1.00  0.00     0.091 A 
ATOM     90  F   UNL A   1      43.885  34.328  27.215  1.00  0.00    -0.205 F 
ATOM     91  C   UNL A   1      45.826  36.109  29.756  1.00  0.00     0.022 A 
BRANCH  89  92
ATOM     92  S   UNL A   1      45.104  37.160  27.333  1.00  0.00     0.127 S 
ATOM     93  O   UNL A   1      45.747  38.257  28.054  1.00  0.00    -0.237 OA
ATOM     94  O   UNL A   1      45.901  36.594  26.245  1.00  0.00    -0.237 OA
ATOM     95  O   UNL A   1      43.698  37.366  27.010  1.00  0.00    -0.744 OA
ENDBRANCH  89  92
ENDBRANCH  62  85
ENDBRANCH  36  37
ENDBRANCH  29  31
ENDBRANCH  28  29
ENDBRANCH  27  28
ENDBRANCH  26  27
ENDBRANCH  25  26
ENDBRANCH  24  25
ENDBRANCH   1  24
TORSDOF 23
ENDMDL
MODEL 2
REMARK VINA RESULT:     -10.4      1.731      2.291
REMARK SMILES C[C@@H](C(=O)OCCOCCOCCOC(=O)c1ccc(-c2c3nc(c(-c4cccc(S(=O)(=O)[O-])c4F)c4ccc([nH]4)c(-c4cccc(S(=O)(=O)[O-])c4F)c4nc(c(-c5cccc(S(=O)(=O)[O-])c5F)c5ccc2[nH]5)C=C4)C=C3)cc1)c1cccc(C(=O)c2ccccc2)c1
REMARK SMILES IDX 9 1 8 2 7 3 6 4 5 5 3 6 4 7 2 8 1 9 80 10 81 11 93 12 82 13
REMARK SMILES IDX 84 14 83 15 85 16 86 17 87 18 88 19 92 20 89 21 91 22 90 23
REMARK SMILES IDX 10 24 11 25 12 26 13 27 14 28 15 29 16 30 17 31 18 32 79 33
REMARK SMILES IDX 19 34 78 35 20 36 21 37 22 38 72 39 23 40 77 41 71 42 73 43
REMARK SMILES IDX 24 44 76 45 70 46 69 47 25 49 57 50 37 51 56 52 38 53 41 54
REMARK SMILES IDX 55 55 74 56 39 57 40 58 54 60 75 61 42 62 26 63 27 64 35 65
REMARK SMILES IDX 28 66 30 67 36 68 29 69 31 70 32 71 33 72 34 73 58 74 59 75
REMARK SMILES IDX 67 76 60 77 62 78 68 79 61 80 63 81 64 82 65 83 66 84 43 85
REMARK SMILES IDX 44 86 52 87 45 88 47 89 53 90 46 91 48 92 49 93 50 94 51 95
REMARK H PARENT 73 48 41 59
REMARK Flexibility Score: inf
ROOT
ATOM      1  C   UNL A   1      35.838  23.738  24.932  1.00  0.00     0.188 C 
ENDROOT
BRANCH   1   2
ATOM      2  O   UNL A   1      34.435  23.861  25.011  1.00  0.00    -0.376 OA
BRANCH   2   3
ATOM      3  C   UNL A   1      33.709  22.894  25.758  1.00  0.00     0.202 C 
BRANCH   3   4
ATOM      4  C   UNL A   1      32.611  23.319  26.748  1.00  0.00     0.261 C 
BRANCH   4   5
ATOM      5  O   UNL A   1      32.056  24.630  26.507  1.00  0.00    -0.463 OA
BRANCH   5   6
ATOM      6  C   UNL A   1      30.779  24.653  26.032  1.00  0.00     0.313 C 
ATOM      7  O   UNL A   1      29.790  24.601  26.757  1.00  0.00    -0.252 OA
BRANCH   6   8
ATOM      8  C   UNL A   1      30.657  24.731  24.500  1.00  0.00     0.126 C 
ATOM      9  C   UNL A   1      30.988  23.502  23.652  1.00  0.00     0.025 C 
BRANCH   8  10
ATOM     10  C   UNL A   1      31.305  25.994  23.935  1.00  0.00    -0.033 A 
ATOM     11  C   UNL A   1      32.505  25.989  23.219  1.00  0.00     0.004 A 
ATOM     12  C   UNL A   1      30.702  27.233  24.174  1.00  0.00     0.016 A 
ATOM     13  C   UNL A   1      33.122  27.180  22.832  1.00  0.00     0.001 A 
ATOM     14  C   UNL A   1      31.343  28.438  23.839  1.00  0.00     0.023 A 
ATOM     15  C   UNL A   1      32.557  28.408  23.156  1.00  0.00     0.012 A 
BRANCH  14  16
ATOM     16  C   UNL A   1      30.759  29.759  24.200  1.00  0.00     0.193 C 
ATOM     17  O   UNL A   1      31.179  30.403  25.155  1.00  0.00    -0.289 OA
BRANCH  16  18
ATOM     18  C   UNL A   1      29.696  30.345  23.357  1.00  0.00     0.022 A 
ATOM     19  C   UNL A   1      28.825  31.263  23.947  1.00  0.00     0.012 A 
ATOM     20  C   UNL A   1      29.620  30.067  21.987  1.00  0.00     0.012 A 
ATOM     21  C   UNL A   1      27.919  31.956  23.150  1.00  0.00     0.001 A 
ATOM     22  C   UNL A   1      28.722  30.776  21.191  1.00  0.00     0.001 A 
ATOM     23  C   UNL A   1      27.881  31.726  21.773  1.00  0.00     0.000 A 
ENDBRANCH  16  18
ENDBRANCH  14  16
ENDBRANCH   8  10
ENDBRANCH   6   8
ENDBRANCH   5   6
ENDBRANCH   4   5
ENDBRANCH   3   4
ENDBRANCH   2   3
ENDBRANCH   1   2
BRANCH   1  24
ATOM     24  C   UNL A   1      36.436  22.987  23.736  1.00  0.00     0.188 C 
BRANCH  24  25
ATOM     25  O   UNL A   1      37.391  21.968  23.902  1.00  0.00    -0.376 OA
BRANCH  25  26
ATOM     26  C   UNL A   1      37.105  20.842  24.707  1.00  0.00     0.202 C 
BRANCH  26  27
ATOM     27  C   UNL A   1      38.157  20.098  25.548  1.00  0.00     0.261 C 
BRANCH  27  28
ATOM     28  O   UNL A   1      39.523  20.492  25.417  1.00  0.00    -0.460 OA
BRANCH  28  29
ATOM     29  C   UNL A   1      40.264  20.440  26.551  1.00  0.00     0.338 C 
ATOM     30  O   UNL A   1      40.770  19.447  27.051  1.00  0.00    -0.246 OA
BRANCH  29  31
ATOM     31  C   UNL A   1      40.543  21.829  26.981  1.00  0.00     0.060 A 
ATOM     32  C   UNL A   1      39.898  22.882  26.319  1.00  0.00     0.016 A 
ATOM     33  C   UNL A   1      41.419  22.090  28.038  1.00  0.00     0.016 A 
ATOM     34  C   UNL A   1      40.149  24.202  26.697  1.00  0.00     0.010 A 
ATOM     35  C   UNL A   1      41.688  23.415  28.397  1.00  0.00     0.010 A 
ATOM     36  C   UNL A   1      41.075  24.477  27.713  1.00  0.00    -0.014 A 
BRANCH  36  37
ATOM     37  C   UNL A   1      41.539  25.870  27.930  1.00  0.00     0.031 A 
ATOM     38  C   UNL A   1      42.889  26.265  27.400  1.00  0.00     0.074 A 
ATOM     39  C   UNL A   1      40.789  26.770  28.591  1.00  0.00     0.049 A 
ATOM     40  N   UNL A   1      43.517  27.404  27.504  1.00  0.00    -0.248 NA
ATOM     41  C   UNL A   1      43.638  25.222  26.678  1.00  0.00     0.031 C 
ATOM     42  C   UNL A   1      39.488  26.500  29.189  1.00  0.00     0.029 A 
ATOM     43  N   UNL A   1      41.024  28.093  28.879  1.00  0.00    -0.354 N 
ATOM     44  C   UNL A   1      44.752  27.209  26.899  1.00  0.00     0.074 A 
ATOM     45  C   UNL A   1      44.782  25.842  26.427  1.00  0.00     0.031 C 
ATOM     46  C   UNL A   1      39.016  27.631  29.743  1.00  0.00     0.029 A 
ATOM     47  C   UNL A   1      40.019  28.686  29.608  1.00  0.00     0.049 A 
ATOM     48  H   UNL A   1      41.835  28.571  28.591  1.00  0.00     0.167 HD
ATOM     49  C   UNL A   1      45.772  28.086  26.753  1.00  0.00     0.034 A 
ATOM     50  C   UNL A   1      39.936  29.923  30.139  1.00  0.00     0.034 A 
ATOM     51  C   UNL A   1      45.747  29.444  27.226  1.00  0.00     0.049 A 
ATOM     52  C   UNL A   1      41.088  30.881  29.960  1.00  0.00     0.074 A 
ATOM     53  C   UNL A   1      46.726  30.413  27.104  1.00  0.00     0.029 A 
ATOM     54  N   UNL A   1      44.697  30.022  27.922  1.00  0.00    -0.354 N 
ATOM     55  N   UNL A   1      42.212  30.711  29.307  1.00  0.00    -0.248 NA
ATOM     56  C   UNL A   1      40.957  32.205  30.589  1.00  0.00     0.031 C 
ATOM     57  C   UNL A   1      46.282  31.567  27.755  1.00  0.00     0.029 A 
ATOM     58  C   UNL A   1      45.008  31.332  28.244  1.00  0.00     0.049 A 
ATOM     59  H   UNL A   1      43.854  29.568  28.152  1.00  0.00     0.167 HD
ATOM     60  C   UNL A   1      42.910  31.911  29.426  1.00  0.00     0.074 A 
ATOM     61  C   UNL A   1      42.069  32.809  30.189  1.00  0.00     0.031 C 
ATOM     62  C   UNL A   1      44.143  32.233  28.963  1.00  0.00     0.034 A 
BRANCH  49  63
ATOM     63  C   UNL A   1      47.012  27.596  26.053  1.00  0.00     0.023 A 
ATOM     64  C   UNL A   1      47.974  26.855  26.769  1.00  0.00     0.012 A 
ATOM     65  C   UNL A   1      47.203  27.835  24.678  1.00  0.00     0.148 A 
ATOM     66  C   UNL A   1      49.126  26.391  26.136  1.00  0.00     0.002 A 
ATOM     67  C   UNL A   1      48.329  27.327  24.044  1.00  0.00     0.091 A 
ATOM     68  F   UNL A   1      46.288  28.562  24.023  1.00  0.00    -0.205 F 
ATOM     69  C   UNL A   1      49.297  26.617  24.772  1.00  0.00     0.022 A 
BRANCH  67  70
ATOM     70  S   UNL A   1      48.604  27.496  22.277  1.00  0.00     0.127 S 
ATOM     71  O   UNL A   1      49.862  28.241  22.245  1.00  0.00    -0.237 OA
ATOM     72  O   UNL A   1      48.710  26.102  21.850  1.00  0.00    -0.237 OA
ATOM     73  O   UNL A   1      47.446  28.208  21.755  1.00  0.00    -0.744 OA
ENDBRANCH  67  70
ENDBRANCH  49  63
BRANCH  50  74
ATOM     74  C   UNL A   1      38.723  30.336  30.905  1.00  0.00     0.023 A 
ATOM     75  C   UNL A   1      38.609  30.004  32.269  1.00  0.00     0.012 A 
ATOM     76  C   UNL A   1      37.679  31.052  30.285  1.00  0.00     0.148 A 
ATOM     77  C   UNL A   1      37.465  30.348  32.992  1.00  0.00     0.002 A 
ATOM     78  C   UNL A   1      36.574  31.449  31.028  1.00  0.00     0.091 A 
ATOM     79  F   UNL A   1      37.792  31.336  28.980  1.00  0.00    -0.205 F 
ATOM     80  C   UNL A   1      36.453  31.079  32.375  1.00  0.00     0.022 A 
BRANCH  78  81
ATOM     81  S   UNL A   1      35.295  32.512  30.349  1.00  0.00     0.127 S 
ATOM     82  O   UNL A   1      36.059  33.702  29.981  1.00  0.00    -0.237 OA
ATOM     83  O   UNL A   1      34.809  31.718  29.222  1.00  0.00    -0.237 OA
ATOM     84  O   UNL A   1      34.323  32.691  31.421  1.00  0.00    -0.744 OA
ENDBRANCH  78  81
ENDBRANCH  50  74
BRANCH  62  85
ATOM     85  C   UNL A   1      44.653  33.628  29.225  1.00  0.00     0.023 A 
ATOM     86  C   UNL A   1      44.386  34.663  28.306  1.00  0.00     0.012 A 
ATOM     87  C   UNL A   1      45.330  33.928  30.425  1.00  0.00     0.148 A 
ATOM     88  C   UNL A   1      44.814  35.966  28.561  1.00  0.00     0.002 A 
ATOM     89  C   UNL A   1      45.708  35.238  30.695  1.00  0.00     0.091 A 
ATOM     90  F   UNL A   1      45.587  32.928  31.280  1.00  0.00    -0.205 F 
ATOM     91  C   UNL A   1      45.463  36.255  29.760  1.00  0.00     0.022 A 
BRANCH  89  92
ATOM     92  S   UNL A   1      46.458  35.723  32.254  1.00  0.00     0.127 S 
ATOM     93  O   UNL A   1      45.409  35.374  33.211  1.00  0.00    -0.237 OA
ATOM     94  O   UNL A   1      47.642  34.865  32.308  1.00  0.00    -0.237 OA
ATOM     95  O   UNL A   1      46.747  37.146  32.138  1.00  0.00    -0.744 OA
ENDBRANCH  89  92
ENDBRANCH  62  85
ENDBRANCH  36  37
ENDBRANCH  29  31
ENDBRANCH  28  29
ENDBRANCH  27  28
ENDBRANCH  26  27
ENDBRANCH  25  26
ENDBRANCH  24  25
ENDBRANCH   1  24
TORSDOF 23
ENDMDL
MODEL 3
REMARK VINA RESULT:      -9.6      1.706      2.258
REMARK SMILES C[C@@H](C(=O)OCCOCCOCCOC(=O)c1ccc(-c2c3nc(c(-c4cccc(S(=O)(=O)[O-])c4F)c4ccc([nH]4)c(-c4cccc(S(=O)(=O)[O-])c4F)c4nc(c(-c5cccc(S(=O)(=O)[O-])c5F)c5ccc2[nH]5)C=C4)C=C3)cc1)c1cccc(C(=O)c2ccccc2)c1
REMARK SMILES IDX 9 1 8 2 7 3 6 4 5 5 3 6 4 7 2 8 1 9 80 10 81 11 93 12 82 13
REMARK SMILES IDX 84 14 83 15 85 16 86 17 87 18 88 19 92 20 89 21 91 22 90 23
REMARK SMILES IDX 10 24 11 25 12 26 13 27 14 28 15 29 16 30 17 31 18 32 79 33
REMARK SMILES IDX 19 34 78 35 20 36 21 37 22 38 72 39 23 40 77 41 71 42 73 43
REMARK SMILES IDX 24 44 76 45 70 46 69 47 25 49 57 50 37 51 56 52 38 53 41 54
REMARK SMILES IDX 55 55 74 56 39 57 40 58 54 60 75 61 42 62 26 63 27 64 35 65
REMARK SMILES IDX 28 66 30 67 36 68 29 69 31 70 32 71 33 72 34 73 58 74 59 75
REMARK SMILES IDX 67 76 60 77 62 78 68 79 61 80 63 81 64 82 65 83 66 84 43 85
REMARK SMILES IDX 44 86 52 87 45 88 47 89 53 90 46 91 48 92 49 93 50 94 51 95
REMARK H PARENT 73 48 41 59
REMARK Flexibility Score: inf
ROOT
ATOM      1  C   UNL A   1      35.006  22.302  25.493  1.00  0.00     0.188 C 
ENDROOT
BRANCH   1   2
ATOM      2  O   UNL A   1      33.630  22.612  25.480  1.00  0.00    -0.376 OA
BRANCH   2   3
ATOM      3  C   UNL A   1      32.816  22.133  26.542  1.00  0.00     0.202 C 
BRANCH   3   4
ATOM      4  C   UNL A   1      31.858  23.075  27.293  1.00  0.00     0.261 C 
BRANCH   4   5
ATOM      5  O   UNL A   1      31.703  24.380  26.692  1.00  0.00    -0.463 OA
BRANCH   5   6
ATOM      6  C   UNL A   1      30.483  24.636  26.145  1.00  0.00     0.313 C 
ATOM      7  O   UNL A   1      29.456  24.746  26.808  1.00  0.00    -0.252 OA
BRANCH   6   8
ATOM      8  C   UNL A   1      30.472  24.762  24.610  1.00  0.00     0.126 C 
ATOM      9  C   UNL A   1      30.774  23.534  23.750  1.00  0.00     0.025 C 
BRANCH   8  10
ATOM     10  C   UNL A   1      31.245  25.988  24.129  1.00  0.00    -0.033 A 
ATOM     11  C   UNL A   1      32.517  25.920  23.555  1.00  0.00     0.004 A 
ATOM     12  C   UNL A   1      30.684  27.258  24.304  1.00  0.00     0.016 A 
ATOM     13  C   UNL A   1      33.235  27.078  23.246  1.00  0.00     0.001 A 
ATOM     14  C   UNL A   1      31.421  28.428  24.051  1.00  0.00     0.023 A 
ATOM     15  C   UNL A   1      32.701  28.333  23.510  1.00  0.00     0.012 A 
BRANCH  14  16
ATOM     16  C   UNL A   1      30.869  29.777  24.349  1.00  0.00     0.193 C 
ATOM     17  O   UNL A   1      31.329  30.470  25.250  1.00  0.00    -0.289 OA
BRANCH  16  18
ATOM     18  C   UNL A   1      29.789  30.330  23.506  1.00  0.00     0.022 A 
ATOM     19  C   UNL A   1      29.021  31.373  24.027  1.00  0.00     0.012 A 
ATOM     20  C   UNL A   1      29.599  29.893  22.189  1.00  0.00     0.012 A 
ATOM     21  C   UNL A   1      28.106  32.027  23.206  1.00  0.00     0.001 A 
ATOM     22  C   UNL A   1      28.695  30.561  21.367  1.00  0.00     0.001 A 
ATOM     23  C   UNL A   1      27.958  31.633  21.874  1.00  0.00     0.000 A 
ENDBRANCH  16  18
ENDBRANCH  14  16
ENDBRANCH   8  10
ENDBRANCH   6   8
ENDBRANCH   5   6
ENDBRANCH   4   5
ENDBRANCH   3   4
ENDBRANCH   2   3
ENDBRANCH   1   2
BRANCH   1  24
ATOM     24  C   UNL A   1      35.693  21.987  24.159  1.00  0.00     0.188 C 
BRANCH  24  25
ATOM     25  O   UNL A   1      37.047  21.607  24.092  1.00  0.00    -0.376 OA
BRANCH  25  26
ATOM     26  C   UNL A   1      37.445  20.308  24.480  1.00  0.00     0.202 C 
BRANCH  26  27
ATOM     27  C   UNL A   1      38.555  20.020  25.506  1.00  0.00     0.261 C 
BRANCH  27  28
ATOM     28  O   UNL A   1      39.642  20.940  25.594  1.00  0.00    -0.460 OA
BRANCH  28  29
ATOM     29  C   UNL A   1      40.460  20.786  26.664  1.00  0.00     0.338 C 
ATOM     30  O   UNL A   1      41.019  19.759  27.018  1.00  0.00    -0.246 OA
BRANCH  29  31
ATOM     31  C   UNL A   1      40.739  22.127  27.226  1.00  0.00     0.060 A 
ATOM     32  C   UNL A   1      39.990  23.219  26.768  1.00  0.00     0.016 A 
ATOM     33  C   UNL A   1      41.720  22.304  28.205  1.00  0.00     0.016 A 
ATOM     34  C   UNL A   1      40.238  24.497  27.273  1.00  0.00     0.010 A 
ATOM     35  C   UNL A   1      41.984  23.590  28.690  1.00  0.00     0.010 A 
ATOM     36  C   UNL A   1      41.263  24.694  28.209  1.00  0.00    -0.014 A 
BRANCH  36  37
ATOM     37  C   UNL A   1      41.702  26.073  28.539  1.00  0.00     0.031 A 
ATOM     38  C   UNL A   1      43.160  26.411  28.405  1.00  0.00     0.074 A 
ATOM     39  C   UNL A   1      40.834  27.010  28.961  1.00  0.00     0.049 A 
ATOM     40  N   UNL A   1      43.779  27.528  28.674  1.00  0.00    -0.248 NA
ATOM     41  C   UNL A   1      44.040  25.331  27.925  1.00  0.00     0.031 C 
ATOM     42  C   UNL A   1      39.408  26.796  29.174  1.00  0.00     0.029 A 
ATOM     43  N   UNL A   1      41.030  28.327  29.297  1.00  0.00    -0.354 N 
ATOM     44  C   UNL A   1      45.124  27.279  28.439  1.00  0.00     0.074 A 
ATOM     45  C   UNL A   1      45.231  25.905  28.000  1.00  0.00     0.031 C 
ATOM     46  C   UNL A   1      38.845  27.951  29.569  1.00  0.00     0.029 A 
ATOM     47  C   UNL A   1      39.886  28.967  29.714  1.00  0.00     0.049 A 
ATOM     48  H   UNL A   1      41.907  28.771  29.244  1.00  0.00     0.167 HD
ATOM     49  C   UNL A   1      46.178  28.117  28.579  1.00  0.00     0.034 A 
ATOM     50  C   UNL A   1      39.706  30.214  30.195  1.00  0.00     0.034 A 
ATOM     51  C   UNL A   1      46.075  29.482  29.019  1.00  0.00     0.049 A 
ATOM     52  C   UNL A   1      40.899  31.128  30.339  1.00  0.00     0.074 A 
ATOM     53  C   UNL A   1      47.087  30.413  29.170  1.00  0.00     0.029 A 
ATOM     54  N   UNL A   1      44.896  30.108  29.392  1.00  0.00    -0.354 N 
ATOM     55  N   UNL A   1      42.153  30.907  30.027  1.00  0.00    -0.248 NA
ATOM     56  C   UNL A   1      40.649  32.465  30.901  1.00  0.00     0.031 C 
ATOM     57  C   UNL A   1      46.523  31.593  29.667  1.00  0.00     0.029 A 
ATOM     58  C   UNL A   1      45.156  31.410  29.782  1.00  0.00     0.049 A 
ATOM     59  H   UNL A   1      44.006  29.688  29.380  1.00  0.00     0.167 HD
ATOM     60  C   UNL A   1      42.836  32.083  30.330  1.00  0.00     0.074 A 
ATOM     61  C   UNL A   1      41.851  33.022  30.824  1.00  0.00     0.031 C 
ATOM     62  C   UNL A   1      44.161  32.354  30.227  1.00  0.00     0.034 A 
BRANCH  49  63
ATOM     63  C   UNL A   1      47.544  27.572  28.254  1.00  0.00     0.023 A 
ATOM     64  C   UNL A   1      48.303  26.940  29.261  1.00  0.00     0.012 A 
ATOM     65  C   UNL A   1      48.056  27.651  26.945  1.00  0.00     0.148 A 
ATOM     66  C   UNL A   1      49.567  26.426  28.977  1.00  0.00     0.002 A 
ATOM     67  C   UNL A   1      49.296  27.093  26.659  1.00  0.00     0.091 A 
ATOM     68  F   UNL A   1      47.329  28.277  26.010  1.00  0.00    -0.205 F 
ATOM     69  C   UNL A   1      50.058  26.493  27.675  1.00  0.00     0.022 A 
BRANCH  67  70
ATOM     70  S   UNL A   1      49.982  27.057  24.999  1.00  0.00     0.127 S 
ATOM     71  O   UNL A   1      51.341  26.579  25.253  1.00  0.00    -0.237 OA
ATOM     72  O   UNL A   1      49.111  26.093  24.330  1.00  0.00    -0.237 OA
ATOM     73  O   UNL A   1      49.886  28.419  24.494  1.00  0.00    -0.744 OA
ENDBRANCH  67  70
ENDBRANCH  49  63
BRANCH  50  74
ATOM     74  C   UNL A   1      38.345  30.683  30.590  1.00  0.00     0.023 A 
ATOM     75  C   UNL A   1      37.891  30.483  31.909  1.00  0.00     0.012 A 
ATOM     76  C   UNL A   1      37.496  31.321  29.664  1.00  0.00     0.148 A 
ATOM     77  C   UNL A   1      36.606  30.879  32.287  1.00  0.00     0.002 A 
ATOM     78  C   UNL A   1      36.245  31.772  30.065  1.00  0.00     0.091 A 
ATOM     79  F   UNL A   1      37.934  31.479  28.407  1.00  0.00    -0.205 F 
ATOM     80  C   UNL A   1      35.788  31.533  31.369  1.00  0.00     0.022 A 
BRANCH  78  81
ATOM     81  S   UNL A   1      35.187  32.746  28.989  1.00  0.00     0.127 S 
ATOM     82  O   UNL A   1      34.022  32.975  29.841  1.00  0.00    -0.237 OA
ATOM     83  O   UNL A   1      36.013  33.928  28.744  1.00  0.00    -0.237 OA
ATOM     84  O   UNL A   1      34.957  31.920  27.811  1.00  0.00    -0.744 OA
ENDBRANCH  78  81
ENDBRANCH  50  74
BRANCH  62  85
ATOM     85  C   UNL A   1      44.631  33.733  30.614  1.00  0.00     0.023 A 
ATOM     86  C   UNL A   1      45.176  33.962  31.893  1.00  0.00     0.012 A 
ATOM     87  C   UNL A   1      44.607  34.786  29.677  1.00  0.00     0.148 A 
ATOM     88  C   UNL A   1      45.656  35.222  32.245  1.00  0.00     0.002 A 
ATOM     89  C   UNL A   1      45.134  36.026  30.018  1.00  0.00     0.091 A 
ATOM     90  F   UNL A   1      44.072  34.554  28.469  1.00  0.00    -0.205 F 
ATOM     91  C   UNL A   1      45.646  36.250  31.305  1.00  0.00     0.022 A 
BRANCH  89  92
ATOM     92  S   UNL A   1      45.256  37.379  28.841  1.00  0.00     0.127 S 
ATOM     93  O   UNL A   1      46.176  38.286  29.526  1.00  0.00    -0.237 OA
ATOM     94  O   UNL A   1      45.816  36.716  27.664  1.00  0.00    -0.237 OA
ATOM     95  O   UNL A   1      43.901  37.883  28.664  1.00  0.00    -0.744 OA
ENDBRANCH  89  92
ENDBRANCH  62  85
ENDBRANCH  36  37
ENDBRANCH  29  31
ENDBRANCH  28  29
ENDBRANCH  27  28
ENDBRANCH  26  27
ENDBRANCH  25  26
ENDBRANCH  24  25
ENDBRANCH   1  24
TORSDOF 23
ENDMDL
