MODEL 1
REMARK VINA RESULT:     -10.1      0.000      0.000
REMARK SMILES CC(C)[C@H](NC(=O)[C@H](C)NC(=O)CNC(=O)OCc1ccccc1)C(=O)OCCOCCOCCOC(=O)c1ccc(-c2c3nc(c(-c4cccc(S(=O)(=O)[O-])c4F)c4ccc([nH]4)c(-c4cccc(S(=O)(=O)[O-])c4F)c4nc(c(-c5cccc(S(=O)(=O)[O-])c5F)c5ccc2[nH]5)C=C4)C=C3)cc1
REMARK SMILES IDX 29 1 28 2 27 3 25 4 26 5 4 6 2 7 1 8 3 9 5 10 6 11 7 13 8 14
REMARK SMILES IDX 9 15 10 16 11 17 12 19 13 20 14 21 15 22 16 24 17 25 18 26
REMARK SMILES IDX 19 27 20 28 24 29 21 30 23 31 22 32 30 33 31 34 32 35 33 36
REMARK SMILES IDX 34 37 35 38 36 39 37 40 38 41 39 42 40 43 101 44 41 45
REMARK SMILES IDX 100 46 42 47 43 48 44 49 94 50 45 51 99 52 93 53 95 54 46 55
REMARK SMILES IDX 98 56 92 57 91 58 47 60 79 61 59 62 78 63 60 64 63 65 77 66
REMARK SMILES IDX 96 67 61 68 62 69 76 71 97 72 64 73 48 74 49 75 57 76 50 77
REMARK SMILES IDX 52 78 58 79 51 80 53 81 54 82 55 83 56 84 80 85 81 86 89 87
REMARK SMILES IDX 82 88 84 89 90 90 83 91 85 92 86 93 87 94 88 95 65 96 66 97
REMARK SMILES IDX 74 98 67 99 69 100 75 101 68 102 70 103 71 104 72 105 73 106
REMARK H PARENT 5 12 10 18 14 23 95 59 63 70
REMARK Flexibility Score: inf
ROOT
ATOM      1  C   UNL A   1      38.411  20.308  25.385  1.00  0.00     0.202 C 
ENDROOT
BRANCH   1   2
ATOM      2  C   UNL A   1      37.213  21.147  24.938  1.00  0.00     0.261 C 
BRANCH   2   3
ATOM      3  O   UNL A   1      35.992  20.705  25.588  1.00  0.00    -0.462 OA
BRANCH   3   4
ATOM      4  C   UNL A   1      34.837  21.028  24.949  1.00  0.00     0.328 C 
ATOM      5  O   UNL A   1      34.749  21.893  24.084  1.00  0.00    -0.250 OA
BRANCH   4   6
ATOM      6  C   UNL A   1      33.588  20.327  25.531  1.00  0.00     0.194 C 
BRANCH   6   7
ATOM      7  C   UNL A   1      32.630  19.837  24.383  1.00  0.00     0.017 C 
ATOM      8  C   UNL A   1      32.261  20.890  23.333  1.00  0.00     0.010 C 
ATOM      9  C   UNL A   1      33.121  18.575  23.655  1.00  0.00     0.010 C 
ENDBRANCH   6   7
BRANCH   6  10
ATOM     10  N   UNL A   1      32.875  20.978  26.663  1.00  0.00    -0.341 N 
ATOM     11  C   UNL A   1      32.829  22.303  27.042  1.00  0.00     0.242 C 
ATOM     12  H   UNL A   1      32.352  20.367  27.231  1.00  0.00     0.164 HD
ATOM     13  O   UNL A   1      32.860  22.517  28.260  1.00  0.00    -0.273 OA
BRANCH  11  14
ATOM     14  C   UNL A   1      32.462  23.454  26.051  1.00  0.00     0.168 C 
ATOM     15  C   UNL A   1      33.489  24.572  26.024  1.00  0.00     0.041 C 
BRANCH  14  16
ATOM     16  N   UNL A   1      31.130  24.065  26.247  1.00  0.00    -0.343 N 
ATOM     17  C   UNL A   1      30.614  25.245  25.741  1.00  0.00     0.240 C 
ATOM     18  H   UNL A   1      30.518  23.554  26.825  1.00  0.00     0.164 HD
ATOM     19  O   UNL A   1      30.051  25.977  26.565  1.00  0.00    -0.273 OA
BRANCH  17  20
ATOM     20  C   UNL A   1      30.509  25.618  24.054  1.00  0.00     0.219 C 
BRANCH  20  21
ATOM     21  N   UNL A   1      30.437  27.306  22.826  1.00  0.00    -0.312 N 
ATOM     22  C   UNL A   1      30.495  28.723  22.610  1.00  0.00     0.407 C 
ATOM     23  H   UNL A   1      30.281  26.937  21.928  1.00  0.00     0.167 HD
ATOM     24  O   UNL A   1      29.997  29.160  21.573  1.00  0.00    -0.225 OA
BRANCH  22  25
ATOM     25  O   UNL A   1      31.010  29.548  23.565  1.00  0.00    -0.445 OA
BRANCH  25  26
ATOM     26  C   UNL A   1      30.872  29.083  24.907  1.00  0.00     0.270 C 
BRANCH  26  27
ATOM     27  C   UNL A   1      32.092  29.229  25.768  1.00  0.00    -0.011 A 
ATOM     28  C   UNL A   1      33.027  28.199  25.859  1.00  0.00     0.007 A 
ATOM     29  C   UNL A   1      32.354  30.457  26.406  1.00  0.00     0.007 A 
ATOM     30  C   UNL A   1      34.209  28.395  26.571  1.00  0.00     0.000 A 
ATOM     31  C   UNL A   1      33.536  30.649  27.117  1.00  0.00     0.000 A 
ATOM     32  C   UNL A   1      34.466  29.616  27.195  1.00  0.00     0.000 A 
ENDBRANCH  26  27
ENDBRANCH  25  26
ENDBRANCH  22  25
ENDBRANCH  20  21
ENDBRANCH  17  20
ENDBRANCH  14  16
ENDBRANCH  11  14
ENDBRANCH   6  10
ENDBRANCH   4   6
ENDBRANCH   3   4
ENDBRANCH   2   3
ENDBRANCH   1   2
BRANCH   1  33
ATOM     33  O   UNL A   1      39.438  21.057  26.031  1.00  0.00    -0.376 OA
BRANCH  33  34
ATOM     34  C   UNL A   1      40.661  20.371  26.281  1.00  0.00     0.188 C 
BRANCH  34  35
ATOM     35  C   UNL A   1      41.348  20.732  27.607  1.00  0.00     0.188 C 
BRANCH  35  36
ATOM     36  O   UNL A   1      41.343  22.125  27.918  1.00  0.00    -0.376 OA
BRANCH  36  37
ATOM     37  C   UNL A   1      42.486  22.853  27.471  1.00  0.00     0.202 C 
BRANCH  37  38
ATOM     38  C   UNL A   1      42.258  23.475  26.101  1.00  0.00     0.261 C 
BRANCH  38  39
ATOM     39  O   UNL A   1      41.945  24.872  26.262  1.00  0.00    -0.460 OA
BRANCH  39  40
ATOM     40  C   UNL A   1      40.746  25.106  26.834  1.00  0.00     0.338 C 
ATOM     41  O   UNL A   1      39.706  24.503  26.648  1.00  0.00    -0.246 OA
BRANCH  40  42
ATOM     42  C   UNL A   1      40.844  26.326  27.636  1.00  0.00     0.060 A 
ATOM     43  C   UNL A   1      39.928  27.838  27.256  1.00  0.00     0.016 A 
ATOM     44  C   UNL A   1      42.016  26.326  29.032  1.00  0.00     0.016 A 
ATOM     45  C   UNL A   1      40.226  29.358  28.214  1.00  0.00     0.010 A 
ATOM     46  C   UNL A   1      42.179  27.792  30.080  1.00  0.00     0.010 A 
ATOM     47  C   UNL A   1      41.358  29.354  29.642  1.00  0.00    -0.014 A 
BRANCH  47  48
ATOM     48  C   UNL A   1      41.694  30.642  30.405  1.00  0.00     0.031 A 
ATOM     49  C   UNL A   1      42.852  31.532  29.957  1.00  0.00     0.074 A 
ATOM     50  C   UNL A   1      41.008  31.099  31.482  1.00  0.00     0.049 A 
ATOM     51  N   UNL A   1      43.536  32.419  30.642  1.00  0.00    -0.248 NA
ATOM     52  C   UNL A   1      43.368  31.347  28.598  1.00  0.00     0.031 C 
ATOM     53  C   UNL A   1      39.906  30.434  32.166  1.00  0.00     0.029 A 
ATOM     54  N   UNL A   1      41.133  32.285  32.189  1.00  0.00    -0.354 N 
ATOM     55  C   UNL A   1      44.665  32.708  29.877  1.00  0.00     0.074 A 
ATOM     56  C   UNL A   1      44.568  31.903  28.682  1.00  0.00     0.031 C 
ATOM     57  C   UNL A   1      39.351  31.269  33.058  1.00  0.00     0.029 A 
ATOM     58  C   UNL A   1      40.153  32.482  33.143  1.00  0.00     0.049 A 
ATOM     59  H   UNL A   1      41.857  32.931  32.026  1.00  0.00     0.167 HD
ATOM     60  C   UNL A   1      45.668  33.595  30.104  1.00  0.00     0.034 A 
ATOM     61  C   UNL A   1      39.939  33.490  34.018  1.00  0.00     0.034 A 
ATOM     62  C   UNL A   1      45.605  34.634  31.096  1.00  0.00     0.049 A 
ATOM     63  C   UNL A   1      40.940  34.614  34.119  1.00  0.00     0.074 A 
ATOM     64  C   UNL A   1      46.512  35.651  31.339  1.00  0.00     0.029 A 
ATOM     65  N   UNL A   1      44.527  34.853  31.937  1.00  0.00    -0.354 N 
ATOM     66  N   UNL A   1      42.038  34.806  33.432  1.00  0.00    -0.248 NA
ATOM     67  C   UNL A   1      40.683  35.652  35.133  1.00  0.00     0.031 C 
ATOM     68  C   UNL A   1      45.966  36.505  32.303  1.00  0.00     0.029 A 
ATOM     69  C   UNL A   1      44.721  36.014  32.662  1.00  0.00     0.049 A 
ATOM     70  H   UNL A   1      43.738  34.267  32.008  1.00  0.00     0.167 HD
ATOM     71  C   UNL A   1      42.599  35.979  33.927  1.00  0.00     0.074 A 
ATOM     72  C   UNL A   1      41.697  36.484  34.938  1.00  0.00     0.031 C 
ATOM     73  C   UNL A   1      43.779  36.560  33.603  1.00  0.00     0.034 A 
BRANCH  60  74
ATOM     74  C   UNL A   1      46.891  33.530  29.218  1.00  0.00     0.023 A 
ATOM     75  C   UNL A   1      47.993  32.727  29.566  1.00  0.00     0.012 A 
ATOM     76  C   UNL A   1      46.929  34.259  28.008  1.00  0.00     0.148 A 
ATOM     77  C   UNL A   1      49.144  32.714  28.777  1.00  0.00     0.002 A 
ATOM     78  C   UNL A   1      48.056  34.193  27.195  1.00  0.00     0.091 A 
ATOM     79  F   UNL A   1      45.871  35.015  27.680  1.00  0.00    -0.205 F 
ATOM     80  C   UNL A   1      49.173  33.441  27.591  1.00  0.00     0.022 A 
BRANCH  78  81
ATOM     81  S   UNL A   1      48.148  35.007  25.595  1.00  0.00     0.127 S 
ATOM     82  O   UNL A   1      48.134  36.417  25.977  1.00  0.00    -0.237 OA
ATOM     83  O   UNL A   1      49.433  34.530  25.080  1.00  0.00    -0.237 OA
ATOM     84  O   UNL A   1      46.989  34.546  24.843  1.00  0.00    -0.744 OA
ENDBRANCH  78  81
ENDBRANCH  60  74
BRANCH  61  85
ATOM     85  C   UNL A   1      38.706  33.509  34.871  1.00  0.00     0.023 A 
ATOM     86  C   UNL A   1      37.522  34.080  34.355  1.00  0.00     0.012 A 
ATOM     87  C   UNL A   1      38.680  32.963  36.168  1.00  0.00     0.148 A 
ATOM     88  C   UNL A   1      36.353  34.125  35.119  1.00  0.00     0.002 A 
ATOM     89  C   UNL A   1      37.492  32.938  36.892  1.00  0.00     0.091 A 
ATOM     90  F   UNL A   1      39.819  32.464  36.672  1.00  0.00    -0.205 F 
ATOM     91  C   UNL A   1      36.333  33.537  36.380  1.00  0.00     0.022 A 
BRANCH  89  92
ATOM     92  S   UNL A   1      37.344  32.039  38.441  1.00  0.00     0.127 S 
ATOM     93  O   UNL A   1      36.047  32.493  38.932  1.00  0.00    -0.237 OA
ATOM     94  O   UNL A   1      37.380  30.645  37.991  1.00  0.00    -0.237 OA
ATOM     95  O   UNL A   1      38.506  32.437  39.226  1.00  0.00    -0.744 OA
ENDBRANCH  89  92
ENDBRANCH  61  85
BRANCH  73  96
ATOM     96  C   UNL A   1      44.162  37.834  34.307  1.00  0.00     0.023 A 
ATOM     97  C   UNL A   1      44.915  37.771  35.495  1.00  0.00     0.012 A 
ATOM     98  C   UNL A   1      43.868  39.088  33.738  1.00  0.00     0.148 A 
ATOM     99  C   UNL A   1      45.357  38.939  36.117  1.00  0.00     0.002 A 
ATOM    100  C   UNL A   1      44.345  40.246  34.341  1.00  0.00     0.091 A 
ATOM    101  F   UNL A   1      43.130  39.126  32.619  1.00  0.00    -0.205 F 
ATOM    102  C   UNL A   1      45.084  40.174  35.533  1.00  0.00     0.022 A 
BRANCH 100 103
ATOM    103  S   UNL A   1      44.122  41.873  33.610  1.00  0.00     0.127 S 
ATOM    104  O   UNL A   1      45.439  42.121  33.026  1.00  0.00    -0.237 OA
ATOM    105  O   UNL A   1      43.057  41.634  32.635  1.00  0.00    -0.237 OA
ATOM    106  O   UNL A   1      43.747  42.755  34.708  1.00  0.00    -0.744 OA
ENDBRANCH 100 103
ENDBRANCH  73  96
ENDBRANCH  47  48
ENDBRANCH  40  42
ENDBRANCH  39  40
ENDBRANCH  38  39
ENDBRANCH  37  38
ENDBRANCH  36  37
ENDBRANCH  35  36
ENDBRANCH  34  35
ENDBRANCH  33  34
ENDBRANCH   1  33
TORSDOF 29
ENDMDL
MODEL 2
REMARK VINA RESULT:      -9.7      2.442      3.369
REMARK SMILES CC(C)[C@H](NC(=O)[C@H](C)NC(=O)CNC(=O)OCc1ccccc1)C(=O)OCCOCCOCCOC(=O)c1ccc(-c2c3nc(c(-c4cccc(S(=O)(=O)[O-])c4F)c4ccc([nH]4)c(-c4cccc(S(=O)(=O)[O-])c4F)c4nc(c(-c5cccc(S(=O)(=O)[O-])c5F)c5ccc2[nH]5)C=C4)C=C3)cc1
REMARK SMILES IDX 29 1 28 2 27 3 25 4 26 5 4 6 2 7 1 8 3 9 5 10 6 11 7 13 8 14
REMARK SMILES IDX 9 15 10 16 11 17 12 19 13 20 14 21 15 22 16 24 17 25 18 26
REMARK SMILES IDX 19 27 20 28 24 29 21 30 23 31 22 32 30 33 31 34 32 35 33 36
REMARK SMILES IDX 34 37 35 38 36 39 37 40 38 41 39 42 40 43 101 44 41 45
REMARK SMILES IDX 100 46 42 47 43 48 44 49 94 50 45 51 99 52 93 53 95 54 46 55
REMARK SMILES IDX 98 56 92 57 91 58 47 60 79 61 59 62 78 63 60 64 63 65 77 66
REMARK SMILES IDX 96 67 61 68 62 69 76 71 97 72 64 73 48 74 49 75 57 76 50 77
REMARK SMILES IDX 52 78 58 79 51 80 53 81 54 82 55 83 56 84 80 85 81 86 89 87
REMARK SMILES IDX 82 88 84 89 90 90 83 91 85 92 86 93 87 94 88 95 65 96 66 97
REMARK SMILES IDX 74 98 67 99 69 100 75 101 68 102 70 103 71 104 72 105 73 106
REMARK H PARENT 5 12 10 18 14 23 95 59 63 70
REMARK Flexibility Score: inf
ROOT
ATOM      1  C   UNL A   1      38.591  22.235  26.115  1.00  0.00     0.202 C 
ENDROOT
BRANCH   1   2
ATOM      2  C   UNL A   1      37.496  22.060  25.062  1.00  0.00     0.261 C 
BRANCH   2   3
ATOM      3  O   UNL A   1      36.344  21.369  25.612  1.00  0.00    -0.462 OA
BRANCH   3   4
ATOM      4  C   UNL A   1      35.157  21.632  25.005  1.00  0.00     0.328 C 
ATOM      5  O   UNL A   1      34.952  22.606  24.289  1.00  0.00    -0.250 OA
BRANCH   4   6
ATOM      6  C   UNL A   1      34.015  20.683  25.438  1.00  0.00     0.194 C 
BRANCH   6   7
ATOM      7  C   UNL A   1      33.182  20.200  24.194  1.00  0.00     0.017 C 
ATOM      8  C   UNL A   1      32.491  18.841  24.344  1.00  0.00     0.010 C 
ATOM      9  C   UNL A   1      32.143  21.222  23.702  1.00  0.00     0.010 C 
ENDBRANCH   6   7
BRANCH   6  10
ATOM     10  N   UNL A   1      33.173  21.074  26.601  1.00  0.00    -0.341 N 
ATOM     11  C   UNL A   1      32.826  22.324  27.069  1.00  0.00     0.242 C 
ATOM     12  H   UNL A   1      32.805  20.321  27.118  1.00  0.00     0.164 HD
ATOM     13  O   UNL A   1      32.810  22.453  28.299  1.00  0.00    -0.273 OA
BRANCH  11  14
ATOM     14  C   UNL A   1      32.205  23.427  26.153  1.00  0.00     0.168 C 
ATOM     15  C   UNL A   1      32.862  24.785  26.322  1.00  0.00     0.041 C 
BRANCH  14  16
ATOM     16  N   UNL A   1      30.743  23.610  26.278  1.00  0.00    -0.343 N 
ATOM     17  C   UNL A   1      29.968  24.730  26.035  1.00  0.00     0.240 C 
ATOM     18  H   UNL A   1      30.247  22.815  26.579  1.00  0.00     0.164 HD
ATOM     19  O   UNL A   1      29.148  25.014  26.918  1.00  0.00    -0.273 OA
BRANCH  17  20
ATOM     20  C   UNL A   1      29.920  25.573  24.523  1.00  0.00     0.219 C 
BRANCH  20  21
ATOM     21  N   UNL A   1      28.915  27.190  23.664  1.00  0.00    -0.312 N 
ATOM     22  C   UNL A   1      28.871  28.371  22.851  1.00  0.00     0.407 C 
ATOM     23  H   UNL A   1      27.990  27.088  23.983  1.00  0.00     0.167 HD
ATOM     24  O   UNL A   1      27.929  29.144  23.025  1.00  0.00    -0.225 OA
BRANCH  22  25
ATOM     25  O   UNL A   1      29.884  28.653  21.985  1.00  0.00    -0.445 OA
BRANCH  25  26
ATOM     26  C   UNL A   1      31.176  28.772  22.581  1.00  0.00     0.270 C 
BRANCH  26  27
ATOM     27  C   UNL A   1      32.001  27.518  22.585  1.00  0.00    -0.011 A 
ATOM     28  C   UNL A   1      31.789  26.524  21.632  1.00  0.00     0.007 A 
ATOM     29  C   UNL A   1      33.071  27.389  23.491  1.00  0.00     0.007 A 
ATOM     30  C   UNL A   1      32.637  25.419  21.579  1.00  0.00     0.000 A 
ATOM     31  C   UNL A   1      33.917  26.284  23.437  1.00  0.00     0.000 A 
ATOM     32  C   UNL A   1      33.700  25.300  22.476  1.00  0.00     0.000 A 
ENDBRANCH  26  27
ENDBRANCH  25  26
ENDBRANCH  22  25
ENDBRANCH  20  21
ENDBRANCH  17  20
ENDBRANCH  14  16
ENDBRANCH  11  14
ENDBRANCH   6  10
ENDBRANCH   4   6
ENDBRANCH   3   4
ENDBRANCH   2   3
ENDBRANCH   1   2
BRANCH   1  33
ATOM     33  O   UNL A   1      39.610  21.239  26.066  1.00  0.00    -0.376 OA
BRANCH  33  34
ATOM     34  C   UNL A   1      40.916  21.650  26.459  1.00  0.00     0.188 C 
BRANCH  34  35
ATOM     35  C   UNL A   1      42.021  20.606  26.233  1.00  0.00     0.188 C 
BRANCH  35  36
ATOM     36  O   UNL A   1      43.293  21.152  25.889  1.00  0.00    -0.376 OA
BRANCH  36  37
ATOM     37  C   UNL A   1      43.306  22.558  25.646  1.00  0.00     0.202 C 
BRANCH  37  38
ATOM     38  C   UNL A   1      44.337  23.271  26.510  1.00  0.00     0.261 C 
BRANCH  38  39
ATOM     39  O   UNL A   1      43.980  24.662  26.621  1.00  0.00    -0.460 OA
BRANCH  39  40
ATOM     40  C   UNL A   1      44.622  25.467  25.748  1.00  0.00     0.338 C 
ATOM     41  O   UNL A   1      45.139  25.152  24.693  1.00  0.00    -0.246 OA
BRANCH  40  42
ATOM     42  C   UNL A   1      44.734  26.800  26.341  1.00  0.00     0.060 A 
ATOM     43  C   UNL A   1      46.161  27.334  27.315  1.00  0.00     0.016 A 
ATOM     44  C   UNL A   1      43.318  27.932  26.148  1.00  0.00     0.016 A 
ATOM     45  C   UNL A   1      46.152  28.954  28.147  1.00  0.00     0.010 A 
ATOM     46  C   UNL A   1      43.391  29.602  26.840  1.00  0.00     0.010 A 
ATOM     47  C   UNL A   1      44.763  30.112  27.919  1.00  0.00    -0.014 A 
BRANCH  47  48
ATOM     48  C   UNL A   1      44.691  31.441  28.682  1.00  0.00     0.031 A 
ATOM     49  C   UNL A   1      45.408  32.681  28.154  1.00  0.00     0.074 A 
ATOM     50  C   UNL A   1      43.995  31.631  29.831  1.00  0.00     0.049 A 
ATOM     51  N   UNL A   1      45.795  33.759  28.797  1.00  0.00    -0.248 NA
ATOM     52  C   UNL A   1      45.822  32.682  26.748  1.00  0.00     0.031 C 
ATOM     53  C   UNL A   1      43.273  30.622  30.595  1.00  0.00     0.029 A 
ATOM     54  N   UNL A   1      43.758  32.789  30.556  1.00  0.00    -0.354 N 
ATOM     55  C   UNL A   1      46.668  34.426  27.938  1.00  0.00     0.074 A 
ATOM     56  C   UNL A   1      46.748  33.630  26.735  1.00  0.00     0.031 C 
ATOM     57  C   UNL A   1      42.547  31.210  31.558  1.00  0.00     0.029 A 
ATOM     58  C   UNL A   1      42.870  32.630  31.602  1.00  0.00     0.049 A 
ATOM     59  H   UNL A   1      44.186  33.648  30.344  1.00  0.00     0.167 HD
ATOM     60  C   UNL A   1      47.307  35.613  28.095  1.00  0.00     0.034 A 
ATOM     61  C   UNL A   1      42.397  33.502  32.521  1.00  0.00     0.034 A 
ATOM     62  C   UNL A   1      46.975  36.568  29.118  1.00  0.00     0.049 A 
ATOM     63  C   UNL A   1      42.938  34.909  32.560  1.00  0.00     0.074 A 
ATOM     64  C   UNL A   1      47.481  37.844  29.303  1.00  0.00     0.029 A 
ATOM     65  N   UNL A   1      45.977  36.395  30.061  1.00  0.00    -0.354 N 
ATOM     66  N   UNL A   1      43.824  35.475  31.779  1.00  0.00    -0.248 NA
ATOM     67  C   UNL A   1      42.428  35.795  33.621  1.00  0.00     0.031 C 
ATOM     68  C   UNL A   1      46.764  38.454  30.337  1.00  0.00     0.029 A 
ATOM     69  C   UNL A   1      45.815  37.555  30.797  1.00  0.00     0.049 A 
ATOM     70  H   UNL A   1      45.459  35.568  30.188  1.00  0.00     0.167 HD
ATOM     71  C   UNL A   1      43.977  36.775  32.252  1.00  0.00     0.074 A 
ATOM     72  C   UNL A   1      43.056  36.932  33.356  1.00  0.00     0.031 C 
ATOM     73  C   UNL A   1      44.837  37.736  31.835  1.00  0.00     0.034 A 
BRANCH  60  74
ATOM     74  C   UNL A   1      48.381  35.982  27.098  1.00  0.00     0.023 A 
ATOM     75  C   UNL A   1      48.079  36.771  25.971  1.00  0.00     0.012 A 
ATOM     76  C   UNL A   1      49.714  35.560  27.301  1.00  0.00     0.148 A 
ATOM     77  C   UNL A   1      49.059  37.062  25.021  1.00  0.00     0.002 A 
ATOM     78  C   UNL A   1      50.698  35.906  26.382  1.00  0.00     0.091 A 
ATOM     79  F   UNL A   1      49.994  34.817  28.381  1.00  0.00    -0.205 F 
ATOM     80  C   UNL A   1      50.367  36.635  25.229  1.00  0.00     0.022 A 
BRANCH  78  81
ATOM     81  S   UNL A   1      52.433  35.497  26.615  1.00  0.00     0.127 S 
ATOM     82  O   UNL A   1      52.396  34.036  26.617  1.00  0.00    -0.237 OA
ATOM     83  O   UNL A   1      53.052  36.087  25.427  1.00  0.00    -0.237 OA
ATOM     84  O   UNL A   1      52.827  36.119  27.871  1.00  0.00    -0.744 OA
ENDBRANCH  78  81
ENDBRANCH  60  74
BRANCH  61  85
ATOM     85  C   UNL A   1      41.326  33.087  33.485  1.00  0.00     0.023 A 
ATOM     86  C   UNL A   1      41.697  32.483  34.705  1.00  0.00     0.012 A 
ATOM     87  C   UNL A   1      39.958  33.291  33.223  1.00  0.00     0.148 A 
ATOM     88  C   UNL A   1      40.731  32.074  35.629  1.00  0.00     0.002 A 
ATOM     89  C   UNL A   1      39.006  32.956  34.181  1.00  0.00     0.091 A 
ATOM     90  F   UNL A   1      39.608  33.823  32.042  1.00  0.00    -0.205 F 
ATOM     91  C   UNL A   1      39.386  32.328  35.375  1.00  0.00     0.022 A 
BRANCH  89  92
ATOM     92  S   UNL A   1      37.279  33.419  34.003  1.00  0.00     0.127 S 
ATOM     93  O   UNL A   1      37.368  34.868  33.855  1.00  0.00    -0.237 OA
ATOM     94  O   UNL A   1      36.891  32.698  32.788  1.00  0.00    -0.237 OA
ATOM     95  O   UNL A   1      36.627  32.934  35.213  1.00  0.00    -0.744 OA
ENDBRANCH  89  92
ENDBRANCH  61  85
BRANCH  73  96
ATOM     96  C   UNL A   1      44.808  39.068  32.536  1.00  0.00     0.023 A 
ATOM     97  C   UNL A   1      45.620  39.274  33.668  1.00  0.00     0.012 A 
ATOM     98  C   UNL A   1      44.060  40.141  32.014  1.00  0.00     0.148 A 
ATOM     99  C   UNL A   1      45.677  40.526  34.280  1.00  0.00     0.002 A 
ATOM    100  C   UNL A   1      44.153  41.395  32.604  1.00  0.00     0.091 A 
ATOM    101  F   UNL A   1      43.276  39.916  30.949  1.00  0.00    -0.205 F 
ATOM    102  C   UNL A   1      44.955  41.589  33.741  1.00  0.00     0.022 A 
BRANCH 100 103
ATOM    103  S   UNL A   1      43.332  42.842  31.923  1.00  0.00     0.127 S 
ATOM    104  O   UNL A   1      44.104  43.076  30.703  1.00  0.00    -0.237 OA
ATOM    105  O   UNL A   1      41.971  42.353  31.699  1.00  0.00    -0.237 OA
ATOM    106  O   UNL A   1      43.440  43.879  32.941  1.00  0.00    -0.744 OA
ENDBRANCH 100 103
ENDBRANCH  73  96
ENDBRANCH  47  48
ENDBRANCH  40  42
ENDBRANCH  39  40
ENDBRANCH  38  39
ENDBRANCH  37  38
ENDBRANCH  36  37
ENDBRANCH  35  36
ENDBRANCH  34  35
ENDBRANCH  33  34
ENDBRANCH   1  33
TORSDOF 29
ENDMDL
MODEL 3
REMARK VINA RESULT:      -8.5      2.658      6.264
REMARK SMILES CC(C)[C@H](NC(=O)[C@H](C)NC(=O)CNC(=O)OCc1ccccc1)C(=O)OCCOCCOCCOC(=O)c1ccc(-c2c3nc(c(-c4cccc(S(=O)(=O)[O-])c4F)c4ccc([nH]4)c(-c4cccc(S(=O)(=O)[O-])c4F)c4nc(c(-c5cccc(S(=O)(=O)[O-])c5F)c5ccc2[nH]5)C=C4)C=C3)cc1
REMARK SMILES IDX 29 1 28 2 27 3 25 4 26 5 4 6 2 7 1 8 3 9 5 10 6 11 7 13 8 14
REMARK SMILES IDX 9 15 10 16 11 17 12 19 13 20 14 21 15 22 16 24 17 25 18 26
REMARK SMILES IDX 19 27 20 28 24 29 21 30 23 31 22 32 30 33 31 34 32 35 33 36
REMARK SMILES IDX 34 37 35 38 36 39 37 40 38 41 39 42 40 43 101 44 41 45
REMARK SMILES IDX 100 46 42 47 43 48 44 49 94 50 45 51 99 52 93 53 95 54 46 55
REMARK SMILES IDX 98 56 92 57 91 58 47 60 79 61 59 62 78 63 60 64 63 65 77 66
REMARK SMILES IDX 96 67 61 68 62 69 76 71 97 72 64 73 48 74 49 75 57 76 50 77
REMARK SMILES IDX 52 78 58 79 51 80 53 81 54 82 55 83 56 84 80 85 81 86 89 87
REMARK SMILES IDX 82 88 84 89 90 90 83 91 85 92 86 93 87 94 88 95 65 96 66 97
REMARK SMILES IDX 74 98 67 99 69 100 75 101 68 102 70 103 71 104 72 105 73 106
REMARK H PARENT 5 12 10 18 14 23 95 59 63 70
REMARK Flexibility Score: inf
ROOT
ATOM      1  C   UNL A   1      32.534  27.116  25.048  1.00  0.00     0.202 C 
ENDROOT
BRANCH   1   2
ATOM      2  C   UNL A   1      32.636  26.034  23.972  1.00  0.00     0.261 C 
BRANCH   2   3
ATOM      3  O   UNL A   1      31.438  25.215  23.936  1.00  0.00    -0.462 OA
BRANCH   3   4
ATOM      4  C   UNL A   1      31.562  23.970  24.465  1.00  0.00     0.328 C 
ATOM      5  O   UNL A   1      30.671  23.394  25.081  1.00  0.00    -0.250 OA
BRANCH   4   6
ATOM      6  C   UNL A   1      32.996  23.398  24.379  1.00  0.00     0.194 C 
BRANCH   6   7
ATOM      7  C   UNL A   1      33.183  22.542  23.072  1.00  0.00     0.017 C 
ATOM      8  C   UNL A   1      31.974  21.701  22.650  1.00  0.00     0.010 C 
ATOM      9  C   UNL A   1      33.658  23.355  21.856  1.00  0.00     0.010 C 
ENDBRANCH   6   7
BRANCH   6  10
ATOM     10  N   UNL A   1      33.578  22.764  25.593  1.00  0.00    -0.341 N 
ATOM     11  C   UNL A   1      33.789  21.434  25.889  1.00  0.00     0.242 C 
ATOM     12  H   UNL A   1      33.857  23.394  26.296  1.00  0.00     0.164 HD
ATOM     13  O   UNL A   1      33.557  21.098  27.056  1.00  0.00    -0.273 OA
BRANCH  11  14
ATOM     14  C   UNL A   1      34.548  20.464  24.927  1.00  0.00     0.168 C 
ATOM     15  C   UNL A   1      33.760  19.209  24.597  1.00  0.00     0.041 C 
BRANCH  14  16
ATOM     16  N   UNL A   1      35.897  20.050  25.372  1.00  0.00    -0.343 N 
ATOM     17  C   UNL A   1      37.140  20.480  24.943  1.00  0.00     0.240 C 
ATOM     18  H   UNL A   1      35.911  19.366  26.079  1.00  0.00     0.164 HD
ATOM     19  O   UNL A   1      37.956  19.584  24.692  1.00  0.00    -0.273 OA
BRANCH  17  20
ATOM     20  C   UNL A   1      37.664  22.130  24.971  1.00  0.00     0.219 C 
BRANCH  20  21
ATOM     21  N   UNL A   1      38.279  23.553  26.369  1.00  0.00    -0.312 N 
ATOM     22  C   UNL A   1      39.288  24.244  27.119  1.00  0.00     0.407 C 
ATOM     23  H   UNL A   1      37.438  23.964  26.672  1.00  0.00     0.167 HD
ATOM     24  O   UNL A   1      38.935  24.830  28.142  1.00  0.00    -0.225 OA
BRANCH  22  25
ATOM     25  O   UNL A   1      40.597  24.174  26.745  1.00  0.00    -0.445 OA
BRANCH  25  26
ATOM     26  C   UNL A   1      41.445  23.448  27.635  1.00  0.00     0.270 C 
BRANCH  26  27
ATOM     27  C   UNL A   1      42.740  22.973  27.046  1.00  0.00    -0.011 A 
ATOM     28  C   UNL A   1      42.756  22.226  25.869  1.00  0.00     0.007 A 
ATOM     29  C   UNL A   1      43.960  23.374  27.624  1.00  0.00     0.007 A 
ATOM     30  C   UNL A   1      43.971  21.890  25.274  1.00  0.00     0.000 A 
ATOM     31  C   UNL A   1      45.173  23.038  27.028  1.00  0.00     0.000 A 
ATOM     32  C   UNL A   1      45.176  22.297  25.849  1.00  0.00     0.000 A 
ENDBRANCH  26  27
ENDBRANCH  25  26
ENDBRANCH  22  25
ENDBRANCH  20  21
ENDBRANCH  17  20
ENDBRANCH  14  16
ENDBRANCH  11  14
ENDBRANCH   6  10
ENDBRANCH   4   6
ENDBRANCH   3   4
ENDBRANCH   2   3
ENDBRANCH   1   2
BRANCH   1  33
ATOM     33  O   UNL A   1      31.849  28.293  24.627  1.00  0.00    -0.376 OA
BRANCH  33  34
ATOM     34  C   UNL A   1      32.485  29.534  24.916  1.00  0.00     0.188 C 
BRANCH  34  35
ATOM     35  C   UNL A   1      32.177  30.113  26.305  1.00  0.00     0.188 C 
BRANCH  35  36
ATOM     36  O   UNL A   1      33.328  30.361  27.112  1.00  0.00    -0.376 OA
BRANCH  36  37
ATOM     37  C   UNL A   1      34.410  29.451  26.926  1.00  0.00     0.202 C 
BRANCH  37  38
ATOM     38  C   UNL A   1      35.428  29.546  28.054  1.00  0.00     0.261 C 
BRANCH  38  39
ATOM     39  O   UNL A   1      36.666  30.065  27.530  1.00  0.00    -0.460 OA
BRANCH  39  40
ATOM     40  C   UNL A   1      37.770  29.486  28.049  1.00  0.00     0.338 C 
ATOM     41  O   UNL A   1      38.117  28.325  27.940  1.00  0.00    -0.246 OA
BRANCH  40  42
ATOM     42  C   UNL A   1      38.443  30.457  28.911  1.00  0.00     0.060 A 
ATOM     43  C   UNL A   1      37.717  32.049  29.366  1.00  0.00     0.016 A 
ATOM     44  C   UNL A   1      40.130  30.059  29.474  1.00  0.00     0.016 A 
ATOM     45  C   UNL A   1      38.686  33.264  30.315  1.00  0.00     0.010 A 
ATOM     46  C   UNL A   1      41.020  31.203  30.558  1.00  0.00     0.010 A 
ATOM     47  C   UNL A   1      40.354  32.855  30.925  1.00  0.00    -0.014 A 
BRANCH  47  48
ATOM     48  C   UNL A   1      41.223  33.894  31.646  1.00  0.00     0.031 A 
ATOM     49  C   UNL A   1      42.173  34.793  30.860  1.00  0.00     0.074 A 
ATOM     50  C   UNL A   1      41.207  34.113  32.985  1.00  0.00     0.049 A 
ATOM     51  N   UNL A   1      43.240  35.441  31.269  1.00  0.00    -0.248 NA
ATOM     52  C   UNL A   1      41.957  34.916  29.416  1.00  0.00     0.031 C 
ATOM     53  C   UNL A   1      40.453  33.369  33.986  1.00  0.00     0.029 A 
ATOM     54  N   UNL A   1      41.849  35.080  33.744  1.00  0.00    -0.354 N 
ATOM     55  C   UNL A   1      43.914  35.840  30.116  1.00  0.00     0.074 A 
ATOM     56  C   UNL A   1      43.135  35.360  28.999  1.00  0.00     0.031 C 
ATOM     57  C   UNL A   1      40.531  33.992  35.172  1.00  0.00     0.029 A 
ATOM     58  C   UNL A   1      41.476  35.096  35.073  1.00  0.00     0.049 A 
ATOM     59  H   UNL A   1      42.514  35.700  33.367  1.00  0.00     0.167 HD
ATOM     60  C   UNL A   1      45.043  36.581  29.980  1.00  0.00     0.034 A 
ATOM     61  C   UNL A   1      41.871  35.870  36.110  1.00  0.00     0.034 A 
ATOM     62  C   UNL A   1      45.629  37.347  31.046  1.00  0.00     0.049 A 
ATOM     63  C   UNL A   1      42.981  36.871  35.911  1.00  0.00     0.074 A 
ATOM     64  C   UNL A   1      46.706  38.216  30.993  1.00  0.00     0.029 A 
ATOM     65  N   UNL A   1      45.123  37.418  32.332  1.00  0.00    -0.354 N 
ATOM     66  N   UNL A   1      43.648  37.158  34.821  1.00  0.00    -0.248 NA
ATOM     67  C   UNL A   1      43.409  37.642  37.091  1.00  0.00     0.031 C 
ATOM     68  C   UNL A   1      46.828  38.839  32.240  1.00  0.00     0.029 A 
ATOM     69  C   UNL A   1      45.829  38.352  33.068  1.00  0.00     0.049 A 
ATOM     70  H   UNL A   1      44.370  36.883  32.673  1.00  0.00     0.167 HD
ATOM     71  C   UNL A   1      44.568  38.137  35.182  1.00  0.00     0.074 A 
ATOM     72  C   UNL A   1      44.343  38.433  36.580  1.00  0.00     0.031 C 
ATOM     73  C   UNL A   1      45.543  38.707  34.432  1.00  0.00     0.034 A 
BRANCH  60  74
ATOM     74  C   UNL A   1      45.682  36.661  28.612  1.00  0.00     0.023 A 
ATOM     75  C   UNL A   1      45.510  37.800  27.800  1.00  0.00     0.012 A 
ATOM     76  C   UNL A   1      46.486  35.600  28.141  1.00  0.00     0.148 A 
ATOM     77  C   UNL A   1      46.051  37.847  26.515  1.00  0.00     0.002 A 
ATOM     78  C   UNL A   1      47.074  35.682  26.883  1.00  0.00     0.091 A 
ATOM     79  F   UNL A   1      46.652  34.524  28.923  1.00  0.00    -0.205 F 
ATOM     80  C   UNL A   1      46.837  36.793  26.060  1.00  0.00     0.022 A 
BRANCH  78  81
ATOM     81  S   UNL A   1      48.191  34.424  26.249  1.00  0.00     0.127 S 
ATOM     82  O   UNL A   1      48.708  35.066  25.042  1.00  0.00    -0.237 OA
ATOM     83  O   UNL A   1      49.165  34.300  27.335  1.00  0.00    -0.237 OA
ATOM     84  O   UNL A   1      47.376  33.236  26.031  1.00  0.00    -0.744 OA
ENDBRANCH  78  81
ENDBRANCH  60  74
BRANCH  61  85
ATOM     85  C   UNL A   1      41.200  35.754  37.446  1.00  0.00     0.023 A 
ATOM     86  C   UNL A   1      40.056  36.536  37.710  1.00  0.00     0.012 A 
ATOM     87  C   UNL A   1      41.664  34.879  38.446  1.00  0.00     0.148 A 
ATOM     88  C   UNL A   1      39.405  36.465  38.944  1.00  0.00     0.002 A 
ATOM     89  C   UNL A   1      40.964  34.753  39.643  1.00  0.00     0.091 A 
ATOM     90  F   UNL A   1      42.779  34.172  38.209  1.00  0.00    -0.205 F 
ATOM     91  C   UNL A   1      39.847  35.559  39.904  1.00  0.00     0.022 A 
BRANCH  89  92
ATOM     92  S   UNL A   1      41.365  33.480  40.846  1.00  0.00     0.127 S 
ATOM     93  O   UNL A   1      40.460  33.806  41.944  1.00  0.00    -0.237 OA
ATOM     94  O   UNL A   1      41.035  32.254  40.118  1.00  0.00    -0.237 OA
ATOM     95  O   UNL A   1      42.788  33.644  41.115  1.00  0.00    -0.744 OA
ENDBRANCH  89  92
ENDBRANCH  61  85
BRANCH  73  96
ATOM     96  C   UNL A   1      46.423  39.743  35.079  1.00  0.00     0.023 A 
ATOM     97  C   UNL A   1      47.568  39.336  35.790  1.00  0.00     0.012 A 
ATOM     98  C   UNL A   1      46.175  41.117  34.891  1.00  0.00     0.148 A 
ATOM     99  C   UNL A   1      48.446  40.281  36.321  1.00  0.00     0.002 A 
ATOM    100  C   UNL A   1      47.075  42.052  35.388  1.00  0.00     0.091 A 
ATOM    101  F   UNL A   1      45.067  41.483  34.230  1.00  0.00    -0.205 F 
ATOM    102  C   UNL A   1      48.207  41.637  36.109  1.00  0.00     0.022 A 
BRANCH 100 103
ATOM    103  S   UNL A   1      46.897  43.814  35.082  1.00  0.00     0.127 S 
ATOM    104  O   UNL A   1      48.207  44.322  35.488  1.00  0.00    -0.237 OA
ATOM    105  O   UNL A   1      46.646  43.858  33.641  1.00  0.00    -0.237 OA
ATOM    106  O   UNL A   1      45.775  44.250  35.903  1.00  0.00    -0.744 OA
ENDBRANCH 100 103
ENDBRANCH  73  96
ENDBRANCH  47  48
ENDBRANCH  40  42
ENDBRANCH  39  40
ENDBRANCH  38  39
ENDBRANCH  37  38
ENDBRANCH  36  37
ENDBRANCH  35  36
ENDBRANCH  34  35
ENDBRANCH  33  34
ENDBRANCH   1  33
TORSDOF 29
ENDMDL
