MODEL 1
REMARK VINA RESULT:     -10.8      0.000      0.000
REMARK SMILES COc1ccc(-n2nc(C(=O)OCCOCCOCCOC(=O)c3ccc(-c4c5nc(c(-c6cccc(S(=O)(=O)[O-])c6F)c6ccc([nH]6)c(-c6cccc(S(=O)(=O)[O-])c6F)c6nc(c(-c7cccc(S(=O)(=O)[O-])c7F)c7ccc4[nH]7)C=C6)C=C5)cc3)c(=O)cc2C)cc1
REMARK SMILES IDX 17 1 16 2 15 3 14 4 13 5 12 6 10 7 11 8 9 9 7 10 8 11 90 12
REMARK SMILES IDX 89 13 91 14 87 15 88 16 6 17 3 18 4 19 93 20 5 21 92 22 2 23
REMARK SMILES IDX 1 24 18 25 19 26 20 27 21 28 22 29 23 30 24 31 25 32 86 33
REMARK SMILES IDX 26 34 85 35 27 36 28 37 29 38 79 39 30 40 84 41 78 42 80 43
REMARK SMILES IDX 31 44 83 45 77 46 76 47 32 49 64 50 44 51 63 52 45 53 48 54
REMARK SMILES IDX 62 55 81 56 46 57 47 58 61 60 82 61 49 62 33 63 34 64 42 65
REMARK SMILES IDX 35 66 37 67 43 68 36 69 38 70 39 71 40 72 41 73 65 74 66 75
REMARK SMILES IDX 74 76 67 77 69 78 75 79 68 80 70 81 71 82 72 83 73 84 50 85
REMARK SMILES IDX 51 86 59 87 52 88 54 89 60 90 53 91 55 92 56 93 57 94 58 95
REMARK H PARENT 80 48 48 59
REMARK Flexibility Score: inf
ROOT
ATOM      1  C   UNL A   1      34.714  20.048  25.097  1.00  0.00     0.188 C 
ENDROOT
BRANCH   1   2
ATOM      2  C   UNL A   1      33.537  19.188  24.586  1.00  0.00     0.188 C 
BRANCH   2   3
ATOM      3  O   UNL A   1      32.975  19.460  23.313  1.00  0.00    -0.376 OA
BRANCH   3   4
ATOM      4  C   UNL A   1      32.002  20.487  23.174  1.00  0.00     0.202 C 
BRANCH   4   5
ATOM      5  C   UNL A   1      32.347  21.783  22.431  1.00  0.00     0.261 C 
BRANCH   5   6
ATOM      6  O   UNL A   1      32.242  22.942  23.263  1.00  0.00    -0.458 OA
BRANCH   6   7
ATOM      7  C   UNL A   1      33.074  23.960  22.957  1.00  0.00     0.363 C 
ATOM      8  O   UNL A   1      33.968  23.975  22.142  1.00  0.00    -0.244 OA
BRANCH   7   9
ATOM      9  C   UNL A   1      32.701  25.179  23.774  1.00  0.00     0.216 A 
ATOM     10  N   UNL A   1      31.497  27.124  23.985  1.00  0.00    -0.237 N 
ATOM     11  N   UNL A   1      31.777  25.967  23.296  1.00  0.00    -0.156 NA
ATOM     12  C   UNL A   1      32.138  27.501  25.170  1.00  0.00     0.044 A 
ATOM     13  C   UNL A   1      33.045  26.711  25.764  1.00  0.00     0.078 A 
ATOM     14  C   UNL A   1      31.823  28.827  25.823  1.00  0.00     0.067 C 
ATOM     15  C   UNL A   1      33.390  25.464  25.078  1.00  0.00     0.215 A 
ATOM     16  O   UNL A   1      34.223  24.694  25.531  1.00  0.00    -0.287 OA
BRANCH  10  17
ATOM     17  C   UNL A   1      30.573  27.971  23.310  1.00  0.00     0.065 A 
ATOM     18  C   UNL A   1      28.755  29.730  22.075  1.00  0.00     0.119 A 
ATOM     19  C   UNL A   1      28.292  28.698  22.893  1.00  0.00     0.048 A 
ATOM     20  C   UNL A   1      30.124  29.886  21.871  1.00  0.00     0.048 A 
ATOM     21  C   UNL A   1      29.194  27.813  23.495  1.00  0.00     0.032 A 
ATOM     22  C   UNL A   1      31.028  29.009  22.484  1.00  0.00     0.032 A 
BRANCH  18  23
ATOM     23  O   UNL A   1      27.795  30.569  21.583  1.00  0.00    -0.497 OA
ATOM     24  C   UNL A   1      28.033  31.957  21.797  1.00  0.00     0.278 C 
ENDBRANCH  18  23
ENDBRANCH  10  17
ENDBRANCH   7   9
ENDBRANCH   6   7
ENDBRANCH   5   6
ENDBRANCH   4   5
ENDBRANCH   3   4
ENDBRANCH   2   3
ENDBRANCH   1   2
BRANCH   1  25
ATOM     25  O   UNL A   1      34.869  21.339  24.556  1.00  0.00    -0.376 OA
BRANCH  25  26
ATOM     26  C   UNL A   1      36.156  21.902  24.358  1.00  0.00     0.202 C 
BRANCH  26  27
ATOM     27  C   UNL A   1      37.508  21.277  24.757  1.00  0.00     0.261 C 
BRANCH  27  28
ATOM     28  O   UNL A   1      37.971  21.453  26.093  1.00  0.00    -0.460 OA
BRANCH  28  29
ATOM     29  C   UNL A   1      39.310  21.327  26.268  1.00  0.00     0.338 C 
ATOM     30  O   UNL A   1      40.020  20.409  25.895  1.00  0.00    -0.246 OA
BRANCH  29  31
ATOM     31  C   UNL A   1      39.826  22.590  26.824  1.00  0.00     0.060 A 
ATOM     32  C   UNL A   1      39.289  23.794  26.352  1.00  0.00     0.016 A 
ATOM     33  C   UNL A   1      40.839  22.587  27.784  1.00  0.00     0.016 A 
ATOM     34  C   UNL A   1      39.778  25.005  26.830  1.00  0.00     0.010 A 
ATOM     35  C   UNL A   1      41.341  23.807  28.249  1.00  0.00     0.010 A 
ATOM     36  C   UNL A   1      40.827  25.020  27.757  1.00  0.00    -0.014 A 
BRANCH  36  37
ATOM     37  C   UNL A   1      41.491  26.303  28.082  1.00  0.00     0.031 A 
ATOM     38  C   UNL A   1      40.682  27.383  28.747  1.00  0.00     0.074 A 
ATOM     39  C   UNL A   1      42.794  26.502  27.810  1.00  0.00     0.049 A 
ATOM     40  N   UNL A   1      41.037  28.592  29.089  1.00  0.00    -0.248 NA
ATOM     41  C   UNL A   1      39.285  27.048  29.073  1.00  0.00     0.031 C 
ATOM     42  C   UNL A   1      43.690  25.523  27.199  1.00  0.00     0.029 A 
ATOM     43  N   UNL A   1      43.580  27.612  27.996  1.00  0.00    -0.354 N 
ATOM     44  C   UNL A   1      39.905  29.174  29.645  1.00  0.00     0.074 A 
ATOM     45  C   UNL A   1      38.849  28.187  29.590  1.00  0.00     0.031 C 
ATOM     46  C   UNL A   1      44.898  26.089  27.027  1.00  0.00     0.029 A 
ATOM     47  C   UNL A   1      44.851  27.475  27.489  1.00  0.00     0.049 A 
ATOM     48  H   UNL A   1      43.263  28.429  28.447  1.00  0.00     0.167 HD
ATOM     49  C   UNL A   1      39.759  30.414  30.167  1.00  0.00     0.034 A 
ATOM     50  C   UNL A   1      45.848  28.376  27.386  1.00  0.00     0.034 A 
ATOM     51  C   UNL A   1      40.812  31.390  30.232  1.00  0.00     0.049 A 
ATOM     52  C   UNL A   1      45.643  29.770  27.926  1.00  0.00     0.074 A 
ATOM     53  C   UNL A   1      40.770  32.664  30.770  1.00  0.00     0.029 A 
ATOM     54  N   UNL A   1      42.092  31.210  29.731  1.00  0.00    -0.354 N 
ATOM     55  N   UNL A   1      44.601  30.273  28.544  1.00  0.00    -0.248 NA
ATOM     56  C   UNL A   1      46.763  30.712  27.780  1.00  0.00     0.031 C 
ATOM     57  C   UNL A   1      42.016  33.265  30.567  1.00  0.00     0.029 A 
ATOM     58  C   UNL A   1      42.845  32.353  29.932  1.00  0.00     0.049 A 
ATOM     59  H   UNL A   1      42.417  30.387  29.297  1.00  0.00     0.167 HD
ATOM     60  C   UNL A   1      44.954  31.574  28.894  1.00  0.00     0.074 A 
ATOM     61  C   UNL A   1      46.312  31.773  28.436  1.00  0.00     0.031 C 
ATOM     62  C   UNL A   1      44.216  32.521  29.524  1.00  0.00     0.034 A 
BRANCH  49  63
ATOM     63  C   UNL A   1      38.410  30.783  30.720  1.00  0.00     0.023 A 
ATOM     64  C   UNL A   1      38.098  30.476  32.060  1.00  0.00     0.012 A 
ATOM     65  C   UNL A   1      37.473  31.476  29.931  1.00  0.00     0.148 A 
ATOM     66  C   UNL A   1      36.860  30.829  32.598  1.00  0.00     0.002 A 
ATOM     67  C   UNL A   1      36.260  31.864  30.487  1.00  0.00     0.091 A 
ATOM     68  F   UNL A   1      37.781  31.735  28.653  1.00  0.00    -0.205 F 
ATOM     69  C   UNL A   1      35.948  31.532  31.816  1.00  0.00     0.022 A 
BRANCH  67  70
ATOM     70  S   UNL A   1      35.049  32.836  29.585  1.00  0.00     0.127 S 
ATOM     71  O   UNL A   1      34.378  31.808  28.791  1.00  0.00    -0.237 OA
ATOM     72  O   UNL A   1      34.239  33.395  30.667  1.00  0.00    -0.237 OA
ATOM     73  O   UNL A   1      35.807  33.817  28.822  1.00  0.00    -0.744 OA
ENDBRANCH  67  70
ENDBRANCH  49  63
BRANCH  50  74
ATOM     74  C   UNL A   1      47.144  27.993  26.754  1.00  0.00     0.023 A 
ATOM     75  C   UNL A   1      48.256  27.706  27.568  1.00  0.00     0.012 A 
ATOM     76  C   UNL A   1      47.282  27.927  25.354  1.00  0.00     0.148 A 
ATOM     77  C   UNL A   1      49.492  27.394  26.999  1.00  0.00     0.002 A 
ATOM     78  C   UNL A   1      48.501  27.563  24.795  1.00  0.00     0.091 A 
ATOM     79  F   UNL A   1      46.218  28.226  24.596  1.00  0.00    -0.205 F 
ATOM     80  C   UNL A   1      49.612  27.313  25.614  1.00  0.00     0.022 A 
BRANCH  78  81
ATOM     81  S   UNL A   1      48.720  27.328  23.027  1.00  0.00     0.127 S 
ATOM     82  O   UNL A   1      50.168  27.449  22.887  1.00  0.00    -0.237 OA
ATOM     83  O   UNL A   1      48.193  25.976  22.835  1.00  0.00    -0.237 OA
ATOM     84  O   UNL A   1      47.932  28.376  22.391  1.00  0.00    -0.744 OA
ENDBRANCH  78  81
ENDBRANCH  50  74
BRANCH  62  85
ATOM     85  C   UNL A   1      44.866  33.852  29.801  1.00  0.00     0.023 A 
ATOM     86  C   UNL A   1      45.685  34.012  30.937  1.00  0.00     0.012 A 
ATOM     87  C   UNL A   1      44.733  34.920  28.891  1.00  0.00     0.148 A 
ATOM     88  C   UNL A   1      46.332  35.224  31.180  1.00  0.00     0.002 A 
ATOM     89  C   UNL A   1      45.421  36.106  29.113  1.00  0.00     0.091 A 
ATOM     90  F   UNL A   1      43.938  34.754  27.823  1.00  0.00    -0.205 F 
ATOM     91  C   UNL A   1      46.211  36.265  30.263  1.00  0.00     0.022 A 
BRANCH  89  92
ATOM     92  S   UNL A   1      45.403  37.466  27.938  1.00  0.00     0.127 S 
ATOM     93  O   UNL A   1      46.330  38.410  28.560  1.00  0.00    -0.237 OA
ATOM     94  O   UNL A   1      45.907  36.831  26.720  1.00  0.00    -0.237 OA
ATOM     95  O   UNL A   1      44.018  37.910  27.859  1.00  0.00    -0.744 OA
ENDBRANCH  89  92
ENDBRANCH  62  85
ENDBRANCH  36  37
ENDBRANCH  29  31
ENDBRANCH  28  29
ENDBRANCH  27  28
ENDBRANCH  26  27
ENDBRANCH  25  26
ENDBRANCH   1  25
TORSDOF 22
ENDMDL
MODEL 2
REMARK VINA RESULT:     -10.7      0.808      7.396
REMARK SMILES COc1ccc(-n2nc(C(=O)OCCOCCOCCOC(=O)c3ccc(-c4c5nc(c(-c6cccc(S(=O)(=O)[O-])c6F)c6ccc([nH]6)c(-c6cccc(S(=O)(=O)[O-])c6F)c6nc(c(-c7cccc(S(=O)(=O)[O-])c7F)c7ccc4[nH]7)C=C6)C=C5)cc3)c(=O)cc2C)cc1
REMARK SMILES IDX 17 1 16 2 15 3 14 4 13 5 12 6 10 7 11 8 9 9 7 10 8 11 90 12
REMARK SMILES IDX 89 13 91 14 87 15 88 16 6 17 3 18 4 19 93 20 5 21 92 22 2 23
REMARK SMILES IDX 1 24 18 25 19 26 20 27 21 28 22 29 23 30 24 31 25 32 86 33
REMARK SMILES IDX 26 34 85 35 27 36 28 37 29 38 79 39 30 40 84 41 78 42 80 43
REMARK SMILES IDX 31 44 83 45 77 46 76 47 32 49 64 50 44 51 63 52 45 53 48 54
REMARK SMILES IDX 62 55 81 56 46 57 47 58 61 60 82 61 49 62 33 63 34 64 42 65
REMARK SMILES IDX 35 66 37 67 43 68 36 69 38 70 39 71 40 72 41 73 65 74 66 75
REMARK SMILES IDX 74 76 67 77 69 78 75 79 68 80 70 81 71 82 72 83 73 84 50 85
REMARK SMILES IDX 51 86 59 87 52 88 54 89 60 90 53 91 55 92 56 93 57 94 58 95
REMARK H PARENT 80 48 48 59
REMARK Flexibility Score: inf
ROOT
ATOM      1  C   UNL A   1      34.537  18.224  24.531  1.00  0.00     0.188 C 
ENDROOT
BRANCH   1   2
ATOM      2  C   UNL A   1      33.077  18.035  24.998  1.00  0.00     0.188 C 
BRANCH   2   3
ATOM      3  O   UNL A   1      32.122  19.049  24.731  1.00  0.00    -0.376 OA
BRANCH   3   4
ATOM      4  C   UNL A   1      32.394  20.036  23.745  1.00  0.00     0.202 C 
BRANCH   4   5
ATOM      5  C   UNL A   1      32.198  21.522  24.065  1.00  0.00     0.261 C 
BRANCH   5   6
ATOM      6  O   UNL A   1      32.142  22.338  22.890  1.00  0.00    -0.458 OA
BRANCH   6   7
ATOM      7  C   UNL A   1      33.075  23.310  22.808  1.00  0.00     0.363 C 
ATOM      8  O   UNL A   1      34.003  23.393  22.035  1.00  0.00    -0.244 OA
BRANCH   7   9
ATOM      9  C   UNL A   1      32.777  24.383  23.834  1.00  0.00     0.216 A 
ATOM     10  N   UNL A   1      31.568  26.231  24.467  1.00  0.00    -0.237 N 
ATOM     11  N   UNL A   1      31.788  25.197  23.587  1.00  0.00    -0.156 NA
ATOM     12  C   UNL A   1      32.336  26.455  25.615  1.00  0.00     0.044 A 
ATOM     13  C   UNL A   1      33.322  25.621  25.978  1.00  0.00     0.078 A 
ATOM     14  C   UNL A   1      32.075  27.659  26.489  1.00  0.00     0.067 C 
ATOM     15  C   UNL A   1      33.609  24.500  25.079  1.00  0.00     0.215 A 
ATOM     16  O   UNL A   1      34.505  23.703  25.316  1.00  0.00    -0.287 OA
BRANCH  10  17
ATOM     17  C   UNL A   1      30.555  27.133  24.036  1.00  0.00     0.065 A 
ATOM     18  C   UNL A   1      28.565  28.870  23.062  1.00  0.00     0.119 A 
ATOM     19  C   UNL A   1      29.890  29.298  23.156  1.00  0.00     0.048 A 
ATOM     20  C   UNL A   1      28.230  27.576  23.454  1.00  0.00     0.048 A 
ATOM     21  C   UNL A   1      30.877  28.441  23.654  1.00  0.00     0.032 A 
ATOM     22  C   UNL A   1      29.220  26.713  23.941  1.00  0.00     0.032 A 
BRANCH  18  23
ATOM     23  O   UNL A   1      27.692  29.765  22.510  1.00  0.00    -0.497 OA
ATOM     24  C   UNL A   1      28.073  30.280  21.238  1.00  0.00     0.278 C 
ENDBRANCH  18  23
ENDBRANCH  10  17
ENDBRANCH   7   9
ENDBRANCH   6   7
ENDBRANCH   5   6
ENDBRANCH   4   5
ENDBRANCH   3   4
ENDBRANCH   2   3
ENDBRANCH   1   2
BRANCH   1  25
ATOM     25  O   UNL A   1      35.095  19.513  24.618  1.00  0.00    -0.376 OA
BRANCH  25  26
ATOM     26  C   UNL A   1      36.461  19.702  24.948  1.00  0.00     0.202 C 
BRANCH  26  27
ATOM     27  C   UNL A   1      37.091  20.954  25.589  1.00  0.00     0.261 C 
BRANCH  27  28
ATOM     28  O   UNL A   1      38.395  21.350  25.170  1.00  0.00    -0.460 OA
BRANCH  28  29
ATOM     29  C   UNL A   1      39.388  21.131  26.067  1.00  0.00     0.338 C 
ATOM     30  O   UNL A   1      39.964  20.080  26.289  1.00  0.00    -0.246 OA
BRANCH  29  31
ATOM     31  C   UNL A   1      39.812  22.430  26.617  1.00  0.00     0.060 A 
ATOM     32  C   UNL A   1      39.214  23.592  26.115  1.00  0.00     0.016 A 
ATOM     33  C   UNL A   1      40.800  22.502  27.601  1.00  0.00     0.016 A 
ATOM     34  C   UNL A   1      39.617  24.838  26.587  1.00  0.00     0.010 A 
ATOM     35  C   UNL A   1      41.214  23.756  28.060  1.00  0.00     0.010 A 
ATOM     36  C   UNL A   1      40.640  24.930  27.539  1.00  0.00    -0.014 A 
BRANCH  36  37
ATOM     37  C   UNL A   1      41.216  26.255  27.861  1.00  0.00     0.031 A 
ATOM     38  C   UNL A   1      42.632  26.542  27.444  1.00  0.00     0.074 A 
ATOM     39  C   UNL A   1      40.491  27.195  28.493  1.00  0.00     0.049 A 
ATOM     40  N   UNL A   1      43.355  27.611  27.650  1.00  0.00    -0.248 NA
ATOM     41  C   UNL A   1      43.323  25.482  26.692  1.00  0.00     0.031 C 
ATOM     42  C   UNL A   1      39.100  27.048  28.917  1.00  0.00     0.029 A 
ATOM     43  N   UNL A   1      40.841  28.455  28.910  1.00  0.00    -0.354 N 
ATOM     44  C   UNL A   1      44.593  27.344  27.077  1.00  0.00     0.074 A 
ATOM     45  C   UNL A   1      44.526  26.010  26.521  1.00  0.00     0.031 C 
ATOM     46  C   UNL A   1      38.724  28.164  29.567  1.00  0.00     0.029 A 
ATOM     47  C   UNL A   1      39.854  29.089  29.628  1.00  0.00     0.049 A 
ATOM     48  H   UNL A   1      41.715  28.865  28.714  1.00  0.00     0.167 HD
ATOM     49  C   UNL A   1      45.683  28.142  27.009  1.00  0.00     0.034 A 
ATOM     50  C   UNL A   1      39.876  30.267  30.283  1.00  0.00     0.034 A 
ATOM     51  C   UNL A   1      45.745  29.471  27.552  1.00  0.00     0.049 A 
ATOM     52  C   UNL A   1      41.123  31.115  30.238  1.00  0.00     0.074 A 
ATOM     53  C   UNL A   1      46.797  30.369  27.506  1.00  0.00     0.029 A 
ATOM     54  N   UNL A   1      44.722  30.090  28.252  1.00  0.00    -0.354 N 
ATOM     55  N   UNL A   1      42.251  30.895  29.604  1.00  0.00    -0.248 NA
ATOM     56  C   UNL A   1      41.091  32.387  30.975  1.00  0.00     0.031 C 
ATOM     57  C   UNL A   1      46.420  31.519  28.206  1.00  0.00     0.029 A 
ATOM     58  C   UNL A   1      45.120  31.351  28.658  1.00  0.00     0.049 A 
ATOM     59  H   UNL A   1      43.840  29.690  28.432  1.00  0.00     0.167 HD
ATOM     60  C   UNL A   1      43.044  32.016  29.834  1.00  0.00     0.074 A 
ATOM     61  C   UNL A   1      42.261  32.920  30.648  1.00  0.00     0.031 C 
ATOM     62  C   UNL A   1      44.311  32.267  29.419  1.00  0.00     0.034 A 
BRANCH  49  63
ATOM     63  C   UNL A   1      46.900  27.599  26.311  1.00  0.00     0.023 A 
ATOM     64  C   UNL A   1      47.781  26.745  27.005  1.00  0.00     0.012 A 
ATOM     65  C   UNL A   1      47.143  27.893  24.956  1.00  0.00     0.148 A 
ATOM     66  C   UNL A   1      48.903  26.215  26.368  1.00  0.00     0.002 A 
ATOM     67  C   UNL A   1      48.238  27.325  24.316  1.00  0.00     0.091 A 
ATOM     68  F   UNL A   1      46.307  28.726  24.322  1.00  0.00    -0.205 F 
ATOM     69  C   UNL A   1      49.124  26.495  25.023  1.00  0.00     0.022 A 
BRANCH  67  70
ATOM     70  S   UNL A   1      48.568  27.564  22.567  1.00  0.00     0.127 S 
ATOM     71  O   UNL A   1      49.835  28.294  22.603  1.00  0.00    -0.237 OA
ATOM     72  O   UNL A   1      48.671  26.187  22.084  1.00  0.00    -0.237 OA
ATOM     73  O   UNL A   1      47.434  28.310  22.041  1.00  0.00    -0.744 OA
ENDBRANCH  67  70
ENDBRANCH  49  63
BRANCH  50  74
ATOM     74  C   UNL A   1      38.674  30.732  31.033  1.00  0.00     0.023 A 
ATOM     75  C   UNL A   1      38.577  30.482  32.415  1.00  0.00     0.012 A 
ATOM     76  C   UNL A   1      37.622  31.405  30.382  1.00  0.00     0.148 A 
ATOM     77  C   UNL A   1      37.439  30.862  33.129  1.00  0.00     0.002 A 
ATOM     78  C   UNL A   1      36.516  31.829  31.108  1.00  0.00     0.091 A 
ATOM     79  F   UNL A   1      37.722  31.614  29.061  1.00  0.00    -0.205 F 
ATOM     80  C   UNL A   1      36.414  31.544  32.479  1.00  0.00     0.022 A 
BRANCH  78  81
ATOM     81  S   UNL A   1      35.198  32.807  30.377  1.00  0.00     0.127 S 
ATOM     82  O   UNL A   1      35.924  33.986  29.912  1.00  0.00    -0.237 OA
ATOM     83  O   UNL A   1      34.718  31.921  29.315  1.00  0.00    -0.237 OA
ATOM     84  O   UNL A   1      34.238  33.036  31.448  1.00  0.00    -0.744 OA
ENDBRANCH  78  81
ENDBRANCH  50  74
BRANCH  62  85
ATOM     85  C   UNL A   1      44.926  33.590  29.798  1.00  0.00     0.023 A 
ATOM     86  C   UNL A   1      45.663  33.706  30.994  1.00  0.00     0.012 A 
ATOM     87  C   UNL A   1      44.845  34.696  28.928  1.00  0.00     0.148 A 
ATOM     88  C   UNL A   1      46.278  34.911  31.334  1.00  0.00     0.002 A 
ATOM     89  C   UNL A   1      45.504  35.877  29.249  1.00  0.00     0.091 A 
ATOM     90  F   UNL A   1      44.127  34.572  27.801  1.00  0.00    -0.205 F 
ATOM     91  C   UNL A   1      46.209  35.991  30.457  1.00  0.00     0.022 A 
BRANCH  89  92
ATOM     92  S   UNL A   1      45.552  37.287  28.135  1.00  0.00     0.127 S 
ATOM     93  O   UNL A   1      45.890  36.650  26.863  1.00  0.00    -0.237 OA
ATOM     94  O   UNL A   1      44.183  37.794  28.218  1.00  0.00    -0.237 OA
ATOM     95  O   UNL A   1      46.564  38.187  28.671  1.00  0.00    -0.744 OA
ENDBRANCH  89  92
ENDBRANCH  62  85
ENDBRANCH  36  37
ENDBRANCH  29  31
ENDBRANCH  28  29
ENDBRANCH  27  28
ENDBRANCH  26  27
ENDBRANCH  25  26
ENDBRANCH   1  25
TORSDOF 22
ENDMDL
MODEL 3
REMARK VINA RESULT:     -10.0      1.893      2.193
REMARK SMILES COc1ccc(-n2nc(C(=O)OCCOCCOCCOC(=O)c3ccc(-c4c5nc(c(-c6cccc(S(=O)(=O)[O-])c6F)c6ccc([nH]6)c(-c6cccc(S(=O)(=O)[O-])c6F)c6nc(c(-c7cccc(S(=O)(=O)[O-])c7F)c7ccc4[nH]7)C=C6)C=C5)cc3)c(=O)cc2C)cc1
REMARK SMILES IDX 17 1 16 2 15 3 14 4 13 5 12 6 10 7 11 8 9 9 7 10 8 11 90 12
REMARK SMILES IDX 89 13 91 14 87 15 88 16 6 17 3 18 4 19 93 20 5 21 92 22 2 23
REMARK SMILES IDX 1 24 18 25 19 26 20 27 21 28 22 29 23 30 24 31 25 32 86 33
REMARK SMILES IDX 26 34 85 35 27 36 28 37 29 38 79 39 30 40 84 41 78 42 80 43
REMARK SMILES IDX 31 44 83 45 77 46 76 47 32 49 64 50 44 51 63 52 45 53 48 54
REMARK SMILES IDX 62 55 81 56 46 57 47 58 61 60 82 61 49 62 33 63 34 64 42 65
REMARK SMILES IDX 35 66 37 67 43 68 36 69 38 70 39 71 40 72 41 73 65 74 66 75
REMARK SMILES IDX 74 76 67 77 69 78 75 79 68 80 70 81 71 82 72 83 73 84 50 85
REMARK SMILES IDX 51 86 59 87 52 88 54 89 60 90 53 91 55 92 56 93 57 94 58 95
REMARK H PARENT 80 48 48 59
REMARK Flexibility Score: inf
ROOT
ATOM      1  C   UNL A   1      34.754  20.497  25.354  1.00  0.00     0.188 C 
ENDROOT
BRANCH   1   2
ATOM      2  C   UNL A   1      33.637  19.503  24.968  1.00  0.00     0.188 C 
BRANCH   2   3
ATOM      3  O   UNL A   1      33.071  19.559  23.668  1.00  0.00    -0.376 OA
BRANCH   3   4
ATOM      4  C   UNL A   1      32.053  20.508  23.380  1.00  0.00     0.202 C 
BRANCH   4   5
ATOM      5  C   UNL A   1      32.336  21.682  22.435  1.00  0.00     0.261 C 
BRANCH   5   6
ATOM      6  O   UNL A   1      31.949  22.943  22.987  1.00  0.00    -0.458 OA
BRANCH   6   7
ATOM      7  C   UNL A   1      32.770  23.979  22.712  1.00  0.00     0.363 C 
ATOM      8  O   UNL A   1      33.648  24.038  21.882  1.00  0.00    -0.244 OA
BRANCH   7   9
ATOM      9  C   UNL A   1      32.405  25.158  23.591  1.00  0.00     0.216 A 
ATOM     10  N   UNL A   1      31.233  27.111  23.891  1.00  0.00    -0.237 N 
ATOM     11  N   UNL A   1      31.503  25.988  23.144  1.00  0.00    -0.156 NA
ATOM     12  C   UNL A   1      31.861  27.409  25.106  1.00  0.00     0.044 A 
ATOM     13  C   UNL A   1      32.743  26.570  25.668  1.00  0.00     0.078 A 
ATOM     14  C   UNL A   1      31.559  28.701  25.827  1.00  0.00     0.067 C 
ATOM     15  C   UNL A   1      33.078  25.356  24.918  1.00  0.00     0.215 A 
ATOM     16  O   UNL A   1      33.890  24.547  25.341  1.00  0.00    -0.287 OA
BRANCH  10  17
ATOM     17  C   UNL A   1      30.335  28.011  23.252  1.00  0.00     0.065 A 
ATOM     18  C   UNL A   1      28.568  29.869  22.090  1.00  0.00     0.119 A 
ATOM     19  C   UNL A   1      28.074  28.794  22.830  1.00  0.00     0.048 A 
ATOM     20  C   UNL A   1      29.944  30.018  21.926  1.00  0.00     0.048 A 
ATOM     21  C   UNL A   1      28.950  27.861  23.395  1.00  0.00     0.032 A 
ATOM     22  C   UNL A   1      30.822  29.092  22.502  1.00  0.00     0.032 A 
BRANCH  18  23
ATOM     23  O   UNL A   1      27.630  30.751  21.630  1.00  0.00    -0.497 OA
ATOM     24  C   UNL A   1      28.110  31.718  20.700  1.00  0.00     0.278 C 
ENDBRANCH  18  23
ENDBRANCH  10  17
ENDBRANCH   7   9
ENDBRANCH   6   7
ENDBRANCH   5   6
ENDBRANCH   4   5
ENDBRANCH   3   4
ENDBRANCH   2   3
ENDBRANCH   1   2
BRANCH   1  25
ATOM     25  O   UNL A   1      35.133  21.464  24.402  1.00  0.00    -0.376 OA
BRANCH  25  26
ATOM     26  C   UNL A   1      36.479  21.898  24.293  1.00  0.00     0.202 C 
BRANCH  26  27
ATOM     27  C   UNL A   1      37.729  21.171  24.826  1.00  0.00     0.261 C 
BRANCH  27  28
ATOM     28  O   UNL A   1      38.175  21.465  26.148  1.00  0.00    -0.460 OA
BRANCH  28  29
ATOM     29  C   UNL A   1      39.513  21.371  26.346  1.00  0.00     0.338 C 
ATOM     30  O   UNL A   1      40.253  20.472  25.983  1.00  0.00    -0.246 OA
BRANCH  29  31
ATOM     31  C   UNL A   1      39.989  22.645  26.914  1.00  0.00     0.060 A 
ATOM     32  C   UNL A   1      39.515  23.839  26.359  1.00  0.00     0.016 A 
ATOM     33  C   UNL A   1      40.904  22.660  27.968  1.00  0.00     0.016 A 
ATOM     34  C   UNL A   1      39.970  25.059  26.849  1.00  0.00     0.010 A 
ATOM     35  C   UNL A   1      41.373  23.887  28.445  1.00  0.00     0.010 A 
ATOM     36  C   UNL A   1      40.925  25.091  27.873  1.00  0.00    -0.014 A 
BRANCH  36  37
ATOM     37  C   UNL A   1      41.570  26.376  28.225  1.00  0.00     0.031 A 
ATOM     38  C   UNL A   1      40.729  27.452  28.856  1.00  0.00     0.074 A 
ATOM     39  C   UNL A   1      42.881  26.580  28.008  1.00  0.00     0.049 A 
ATOM     40  N   UNL A   1      41.065  28.663  29.213  1.00  0.00    -0.248 NA
ATOM     41  C   UNL A   1      39.321  27.113  29.124  1.00  0.00     0.031 C 
ATOM     42  C   UNL A   1      43.806  25.605  27.435  1.00  0.00     0.029 A 
ATOM     43  N   UNL A   1      43.655  27.693  28.226  1.00  0.00    -0.354 N 
ATOM     44  C   UNL A   1      39.908  29.241  29.721  1.00  0.00     0.074 A 
ATOM     45  C   UNL A   1      38.859  28.250  29.622  1.00  0.00     0.031 C 
ATOM     46  C   UNL A   1      45.018  26.175  27.313  1.00  0.00     0.029 A 
ATOM     47  C   UNL A   1      44.947  27.561  27.773  1.00  0.00     0.049 A 
ATOM     48  H   UNL A   1      43.317  28.508  28.664  1.00  0.00     0.167 HD
ATOM     49  C   UNL A   1      39.737  30.480  30.237  1.00  0.00     0.034 A 
ATOM     50  C   UNL A   1      45.944  28.466  27.712  1.00  0.00     0.034 A 
ATOM     51  C   UNL A   1      40.782  31.460  30.346  1.00  0.00     0.049 A 
ATOM     52  C   UNL A   1      45.711  29.858  28.243  1.00  0.00     0.074 A 
ATOM     53  C   UNL A   1      40.713  32.734  30.881  1.00  0.00     0.029 A 
ATOM     54  N   UNL A   1      42.082  31.284  29.899  1.00  0.00    -0.354 N 
ATOM     55  N   UNL A   1      44.642  30.358  28.817  1.00  0.00    -0.248 NA
ATOM     56  C   UNL A   1      46.832  30.805  28.144  1.00  0.00     0.031 C 
ATOM     57  C   UNL A   1      41.964  33.340  30.731  1.00  0.00     0.029 A 
ATOM     58  C   UNL A   1      42.822  32.431  30.131  1.00  0.00     0.049 A 
ATOM     59  H   UNL A   1      42.428  30.463  29.479  1.00  0.00     0.167 HD
ATOM     60  C   UNL A   1      44.975  31.659  29.181  1.00  0.00     0.074 A 
ATOM     61  C   UNL A   1      46.351  31.864  28.781  1.00  0.00     0.031 C 
ATOM     62  C   UNL A   1      44.208  32.604  29.781  1.00  0.00     0.034 A 
BRANCH  49  63
ATOM     63  C   UNL A   1      38.364  30.843  30.734  1.00  0.00     0.023 A 
ATOM     64  C   UNL A   1      38.013  30.577  32.073  1.00  0.00     0.012 A 
ATOM     65  C   UNL A   1      37.442  31.493  29.891  1.00  0.00     0.148 A 
ATOM     66  C   UNL A   1      36.753  30.926  32.558  1.00  0.00     0.002 A 
ATOM     67  C   UNL A   1      36.205  31.877  30.394  1.00  0.00     0.091 A 
ATOM     68  F   UNL A   1      37.787  31.713  28.615  1.00  0.00    -0.205 F 
ATOM     69  C   UNL A   1      35.855  31.585  31.723  1.00  0.00     0.022 A 
BRANCH  67  70
ATOM     70  S   UNL A   1      35.008  32.797  29.421  1.00  0.00     0.127 S 
ATOM     71  O   UNL A   1      35.868  33.748  28.718  1.00  0.00    -0.237 OA
ATOM     72  O   UNL A   1      34.436  31.751  28.572  1.00  0.00    -0.237 OA
ATOM     73  O   UNL A   1      34.078  33.384  30.374  1.00  0.00    -0.744 OA
ENDBRANCH  67  70
ENDBRANCH  49  63
BRANCH  50  74
ATOM     74  C   UNL A   1      47.266  28.088  27.135  1.00  0.00     0.023 A 
ATOM     75  C   UNL A   1      47.476  28.195  25.746  1.00  0.00     0.012 A 
ATOM     76  C   UNL A   1      48.309  27.610  27.951  1.00  0.00     0.148 A 
ATOM     77  C   UNL A   1      48.688  27.800  25.178  1.00  0.00     0.002 A 
ATOM     78  C   UNL A   1      49.532  27.270  27.386  1.00  0.00     0.091 A 
ATOM     79  F   UNL A   1      48.083  27.494  29.268  1.00  0.00    -0.205 F 
ATOM     80  C   UNL A   1      49.718  27.347  25.997  1.00  0.00     0.022 A 
BRANCH  78  81
ATOM     81  S   UNL A   1      50.950  26.779  28.375  1.00  0.00     0.127 S 
ATOM     82  O   UNL A   1      50.961  27.808  29.410  1.00  0.00    -0.237 OA
ATOM     83  O   UNL A   1      50.552  25.448  28.833  1.00  0.00    -0.237 OA
ATOM     84  O   UNL A   1      52.085  26.786  27.462  1.00  0.00    -0.744 OA
ENDBRANCH  78  81
ENDBRANCH  50  74
BRANCH  62  85
ATOM     85  C   UNL A   1      44.841  33.937  30.085  1.00  0.00     0.023 A 
ATOM     86  C   UNL A   1      44.765  34.983  29.143  1.00  0.00     0.012 A 
ATOM     87  C   UNL A   1      45.440  34.179  31.338  1.00  0.00     0.148 A 
ATOM     88  C   UNL A   1      45.305  36.237  29.430  1.00  0.00     0.002 A 
ATOM     89  C   UNL A   1      45.929  35.445  31.636  1.00  0.00     0.091 A 
ATOM     90  F   UNL A   1      45.517  33.168  32.216  1.00  0.00    -0.205 F 
ATOM     91  C   UNL A   1      45.875  36.471  30.679  1.00  0.00     0.022 A 
BRANCH  89  92
ATOM     92  S   UNL A   1      46.591  35.867  33.253  1.00  0.00     0.127 S 
ATOM     93  O   UNL A   1      47.845  35.114  33.266  1.00  0.00    -0.237 OA
ATOM     94  O   UNL A   1      46.753  37.317  33.154  1.00  0.00    -0.237 OA
ATOM     95  O   UNL A   1      45.593  35.435  34.221  1.00  0.00    -0.744 OA
ENDBRANCH  89  92
ENDBRANCH  62  85
ENDBRANCH  36  37
ENDBRANCH  29  31
ENDBRANCH  28  29
ENDBRANCH  27  28
ENDBRANCH  26  27
ENDBRANCH  25  26
ENDBRANCH   1  25
TORSDOF 22
ENDMDL
