MODEL 1
REMARK VINA RESULT:     -12.6      0.000      0.000
REMARK SMILES O=C(OCCOCCOCCOC(=O)[C@H]1[C@H]2CC[C@H](C2)[C@@H]1C(=O)N1CC[NH+](C2CCCCC2)CC1)c1ccc(-c2c3nc(c(-c4cccc(S(=O)(=O)[O-])c4F)c4ccc([nH]4)c(-c4cccc(S(=O)(=O)[O-])c4F)c4nc(c(-c5cccc(S(=O)(=O)[O-])c5F)c5ccc2[nH]5)C=C4)C=C3)cc1
REMARK SMILES IDX 7 1 6 2 5 3 4 4 3 5 2 6 1 7 36 8 37 9 98 10 38 11 97 12
REMARK SMILES IDX 39 13 40 14 41 15 91 16 42 17 96 18 90 19 92 20 43 21 95 22
REMARK SMILES IDX 89 23 88 24 44 26 76 27 56 28 75 29 57 30 60 31 74 32 93 33
REMARK SMILES IDX 58 34 59 35 73 37 94 38 61 39 45 40 46 41 54 42 47 43 49 44
REMARK SMILES IDX 55 45 48 46 50 47 51 48 52 49 53 50 77 51 78 52 86 53 79 54
REMARK SMILES IDX 81 55 87 56 80 57 82 58 83 59 84 60 85 61 62 62 63 63 71 64
REMARK SMILES IDX 64 65 66 66 72 67 65 68 67 69 68 70 69 71 70 72 8 73 9 74
REMARK SMILES IDX 10 75 11 76 12 77 13 78 14 79 15 80 16 81 21 82 17 83 20 84
REMARK SMILES IDX 19 85 18 86 22 87 23 88 24 89 25 90 35 91 26 92 34 93 27 94
REMARK SMILES IDX 28 96 29 97 33 98 30 99 32 100 31 101
REMARK H PARENT 92 25 60 36 27 95
REMARK Flexibility Score: inf
ROOT
ATOM      1  C   UNL A   1      38.508  21.975  25.939  1.00  0.00     0.188 C 
ENDROOT
BRANCH   1   2
ATOM      2  O   UNL A   1      39.544  21.873  26.912  1.00  0.00    -0.376 OA
BRANCH   2   3
ATOM      3  C   UNL A   1      40.440  20.772  26.795  1.00  0.00     0.202 C 
BRANCH   3   4
ATOM      4  C   UNL A   1      41.774  21.005  26.070  1.00  0.00     0.261 C 
BRANCH   4   5
ATOM      5  O   UNL A   1      41.881  22.264  25.397  1.00  0.00    -0.460 OA
BRANCH   5   6
ATOM      6  C   UNL A   1      42.829  23.215  25.593  1.00  0.00     0.338 C 
ATOM      7  O   UNL A   1      43.952  23.028  25.126  1.00  0.00    -0.246 OA
BRANCH   6   8
ATOM      8  C   UNL A   1      42.518  24.497  26.291  1.00  0.00     0.060 A 
ATOM      9  C   UNL A   1      42.709  25.777  25.757  1.00  0.00     0.016 A 
ATOM     10  C   UNL A   1      41.896  24.407  27.529  1.00  0.00     0.016 A 
ATOM     11  C   UNL A   1      42.479  26.951  26.480  1.00  0.00     0.010 A 
ATOM     12  C   UNL A   1      41.541  25.575  28.205  1.00  0.00     0.010 A 
ATOM     13  C   UNL A   1      41.880  26.870  27.721  1.00  0.00    -0.014 A 
BRANCH  13  14
ATOM     14  C   UNL A   1      41.587  28.044  28.601  1.00  0.00     0.031 A 
ATOM     15  C   UNL A   1      42.372  28.021  29.881  1.00  0.00     0.074 A 
ATOM     16  C   UNL A   1      40.561  28.908  28.406  1.00  0.00     0.049 A 
ATOM     17  N   UNL A   1      42.010  28.325  31.089  1.00  0.00    -0.248 NA
ATOM     18  C   UNL A   1      43.717  27.410  29.778  1.00  0.00     0.031 C 
ATOM     19  C   UNL A   1      39.772  29.093  27.179  1.00  0.00     0.029 A 
ATOM     20  N   UNL A   1      39.865  29.661  29.339  1.00  0.00    -0.354 N 
ATOM     21  C   UNL A   1      43.058  27.890  31.892  1.00  0.00     0.074 A 
ATOM     22  C   UNL A   1      43.978  27.163  31.051  1.00  0.00     0.031 C 
ATOM     23  C   UNL A   1      38.636  29.758  27.466  1.00  0.00     0.029 A 
ATOM     24  C   UNL A   1      38.587  29.999  28.899  1.00  0.00     0.049 A 
ATOM     25  H   UNL A   1      40.232  29.926  30.212  1.00  0.00     0.167 HD
ATOM     26  C   UNL A   1      43.272  28.153  33.201  1.00  0.00     0.034 A 
ATOM     27  C   UNL A   1      37.482  30.340  29.603  1.00  0.00     0.034 A 
ATOM     28  C   UNL A   1      42.366  28.976  33.943  1.00  0.00     0.049 A 
ATOM     29  C   UNL A   1      37.652  30.492  31.099  1.00  0.00     0.074 A 
ATOM     30  C   UNL A   1      42.511  29.524  35.199  1.00  0.00     0.029 A 
ATOM     31  N   UNL A   1      41.132  29.388  33.453  1.00  0.00    -0.354 N 
ATOM     32  N   UNL A   1      38.696  30.208  31.846  1.00  0.00    -0.248 NA
ATOM     33  C   UNL A   1      36.529  31.080  31.843  1.00  0.00     0.031 C 
ATOM     34  C   UNL A   1      41.356  30.267  35.469  1.00  0.00     0.029 A 
ATOM     35  C   UNL A   1      40.506  30.197  34.372  1.00  0.00     0.049 A 
ATOM     36  H   UNL A   1      40.761  29.139  32.575  1.00  0.00     0.167 HD
ATOM     37  C   UNL A   1      38.413  30.720  33.107  1.00  0.00     0.074 A 
ATOM     38  C   UNL A   1      37.061  31.242  33.048  1.00  0.00     0.031 C 
ATOM     39  C   UNL A   1      39.208  30.803  34.201  1.00  0.00     0.034 A 
BRANCH  26  40
ATOM     40  C   UNL A   1      44.561  27.662  33.812  1.00  0.00     0.023 A 
ATOM     41  C   UNL A   1      45.698  28.504  33.800  1.00  0.00     0.012 A 
ATOM     42  C   UNL A   1      44.679  26.372  34.361  1.00  0.00     0.148 A 
ATOM     43  C   UNL A   1      46.943  28.042  34.219  1.00  0.00     0.002 A 
ATOM     44  C   UNL A   1      45.914  25.940  34.841  1.00  0.00     0.091 A 
ATOM     45  F   UNL A   1      43.603  25.574  34.368  1.00  0.00    -0.205 F 
ATOM     46  C   UNL A   1      47.050  26.760  34.743  1.00  0.00     0.022 A 
BRANCH  44  47
ATOM     47  S   UNL A   1      46.148  24.344  35.631  1.00  0.00     0.127 S 
ATOM     48  O   UNL A   1      45.129  24.378  36.678  1.00  0.00    -0.237 OA
ATOM     49  O   UNL A   1      45.864  23.416  34.536  1.00  0.00    -0.237 OA
ATOM     50  O   UNL A   1      47.528  24.326  36.097  1.00  0.00    -0.744 OA
ENDBRANCH  44  47
ENDBRANCH  26  40
BRANCH  27  51
ATOM     51  C   UNL A   1      36.129  30.566  28.979  1.00  0.00     0.023 A 
ATOM     52  C   UNL A   1      35.492  29.528  28.277  1.00  0.00     0.012 A 
ATOM     53  C   UNL A   1      35.512  31.834  28.964  1.00  0.00     0.148 A 
ATOM     54  C   UNL A   1      34.319  29.765  27.543  1.00  0.00     0.002 A 
ATOM     55  C   UNL A   1      34.349  32.075  28.232  1.00  0.00     0.091 A 
ATOM     56  F   UNL A   1      36.061  32.807  29.683  1.00  0.00    -0.205 F 
ATOM     57  C   UNL A   1      33.757  31.039  27.506  1.00  0.00     0.022 A 
BRANCH  55  58
ATOM     58  S   UNL A   1      33.602  33.715  28.132  1.00  0.00     0.127 S 
ATOM     59  O   UNL A   1      33.427  34.071  29.541  1.00  0.00    -0.237 OA
ATOM     60  O   UNL A   1      34.635  34.474  27.433  1.00  0.00    -0.237 OA
ATOM     61  O   UNL A   1      32.351  33.534  27.408  1.00  0.00    -0.744 OA
ENDBRANCH  55  58
ENDBRANCH  27  51
BRANCH  39  62
ATOM     62  C   UNL A   1      38.753  31.668  35.338  1.00  0.00     0.023 A 
ATOM     63  C   UNL A   1      38.057  31.119  36.427  1.00  0.00     0.012 A 
ATOM     64  C   UNL A   1      39.222  32.997  35.397  1.00  0.00     0.148 A 
ATOM     65  C   UNL A   1      37.844  31.885  37.571  1.00  0.00     0.002 A 
ATOM     66  C   UNL A   1      39.062  33.730  36.562  1.00  0.00     0.091 A 
ATOM     67  F   UNL A   1      39.864  33.495  34.328  1.00  0.00    -0.205 F 
ATOM     68  C   UNL A   1      38.367  33.177  37.648  1.00  0.00     0.022 A 
BRANCH  66  69
ATOM     69  S   UNL A   1      39.839  35.334  36.787  1.00  0.00     0.127 S 
ATOM     70  O   UNL A   1      39.340  35.720  38.112  1.00  0.00    -0.237 OA
ATOM     71  O   UNL A   1      41.265  34.990  36.755  1.00  0.00    -0.237 OA
ATOM     72  O   UNL A   1      39.392  36.163  35.689  1.00  0.00    -0.744 OA
ENDBRANCH  66  69
ENDBRANCH  39  62
ENDBRANCH  13  14
ENDBRANCH   6   8
ENDBRANCH   5   6
ENDBRANCH   4   5
ENDBRANCH   3   4
ENDBRANCH   2   3
ENDBRANCH   1   2
BRANCH   1  73
ATOM     73  C   UNL A   1      38.021  23.414  25.747  1.00  0.00     0.188 C 
BRANCH  73  74
ATOM     74  O   UNL A   1      36.733  23.747  26.255  1.00  0.00    -0.376 OA
BRANCH  74  75
ATOM     75  C   UNL A   1      35.740  24.100  25.301  1.00  0.00     0.202 C 
BRANCH  75  76
ATOM     76  C   UNL A   1      34.391  24.697  25.770  1.00  0.00     0.261 C 
BRANCH  76  77
ATOM     77  O   UNL A   1      34.185  26.121  25.607  1.00  0.00    -0.463 OA
BRANCH  77  78
ATOM     78  C   UNL A   1      32.901  26.522  25.818  1.00  0.00     0.310 C 
ATOM     79  O   UNL A   1      32.510  26.885  26.925  1.00  0.00    -0.252 OA
BRANCH  78  80
ATOM     80  C   UNL A   1      31.957  26.333  24.617  1.00  0.00     0.115 C 
ATOM     81  C   UNL A   1      30.923  27.504  24.665  1.00  0.00     0.004 C 
ATOM     82  C   UNL A   1      32.447  26.454  23.142  1.00  0.00     0.096 C 
ATOM     83  C   UNL A   1      31.607  28.885  24.467  1.00  0.00     0.005 C 
ATOM     84  C   UNL A   1      30.223  27.346  23.329  1.00  0.00     0.009 C 
ATOM     85  C   UNL A   1      31.517  27.518  22.528  1.00  0.00     0.003 C 
ATOM     86  C   UNL A   1      31.997  28.891  22.990  1.00  0.00     0.005 C 
BRANCH  82  87
ATOM     87  C   UNL A   1      32.422  25.166  22.320  1.00  0.00     0.227 C 
ATOM     88  O   UNL A   1      32.639  25.262  21.106  1.00  0.00    -0.275 OA
ATOM     89  N   UNL A   1      32.371  23.936  22.950  1.00  0.00    -0.331 N 
ATOM     90  C   UNL A   1      33.254  22.943  22.391  1.00  0.00     0.181 C 
ATOM     91  C   UNL A   1      31.197  23.301  23.602  1.00  0.00     0.181 C 
ATOM     92  C   UNL A   1      33.698  21.939  23.435  1.00  0.00     0.284 C 
ATOM     93  C   UNL A   1      31.581  22.180  24.613  1.00  0.00     0.284 C 
ATOM     94  N   UNL A   1      32.579  21.289  24.061  1.00  0.00    -0.330 N 
ATOM     95  H   UNL A   1      32.015  20.715  24.688  1.00  0.00     0.348 HD
BRANCH  94  96
ATOM     96  C   UNL A   1      32.548  19.843  24.032  1.00  0.00     0.184 C 
ATOM     97  C   UNL A   1      32.246  19.203  22.666  1.00  0.00     0.065 C 
ATOM     98  C   UNL A   1      33.856  19.366  24.682  1.00  0.00     0.065 C 
ATOM     99  C   UNL A   1      32.481  17.694  22.671  1.00  0.00     0.006 C 
ATOM    100  C   UNL A   1      34.046  17.860  24.607  1.00  0.00     0.006 C 
ATOM    101  C   UNL A   1      33.881  17.371  23.177  1.00  0.00     0.000 C 
ENDBRANCH  94  96
ENDBRANCH  82  87
ENDBRANCH  78  80
ENDBRANCH  77  78
ENDBRANCH  76  77
ENDBRANCH  75  76
ENDBRANCH  74  75
ENDBRANCH  73  74
ENDBRANCH   1  73
TORSDOF 22
ENDMDL
MODEL 2
REMARK VINA RESULT:     -12.3      1.719      4.168
REMARK SMILES O=C(OCCOCCOCCOC(=O)[C@H]1[C@H]2CC[C@H](C2)[C@@H]1C(=O)N1CC[NH+](C2CCCCC2)CC1)c1ccc(-c2c3nc(c(-c4cccc(S(=O)(=O)[O-])c4F)c4ccc([nH]4)c(-c4cccc(S(=O)(=O)[O-])c4F)c4nc(c(-c5cccc(S(=O)(=O)[O-])c5F)c5ccc2[nH]5)C=C4)C=C3)cc1
REMARK SMILES IDX 7 1 6 2 5 3 4 4 3 5 2 6 1 7 36 8 37 9 98 10 38 11 97 12
REMARK SMILES IDX 39 13 40 14 41 15 91 16 42 17 96 18 90 19 92 20 43 21 95 22
REMARK SMILES IDX 89 23 88 24 44 26 76 27 56 28 75 29 57 30 60 31 74 32 93 33
REMARK SMILES IDX 58 34 59 35 73 37 94 38 61 39 45 40 46 41 54 42 47 43 49 44
REMARK SMILES IDX 55 45 48 46 50 47 51 48 52 49 53 50 77 51 78 52 86 53 79 54
REMARK SMILES IDX 81 55 87 56 80 57 82 58 83 59 84 60 85 61 62 62 63 63 71 64
REMARK SMILES IDX 64 65 66 66 72 67 65 68 67 69 68 70 69 71 70 72 8 73 9 74
REMARK SMILES IDX 10 75 11 76 12 77 13 78 14 79 15 80 16 81 21 82 17 83 20 84
REMARK SMILES IDX 19 85 18 86 22 87 23 88 24 89 25 90 35 91 26 92 34 93 27 94
REMARK SMILES IDX 28 96 29 97 33 98 30 99 32 100 31 101
REMARK H PARENT 92 25 60 36 27 95
REMARK Flexibility Score: inf
ROOT
ATOM      1  C   UNL A   1      39.145  21.992  26.267  1.00  0.00     0.188 C 
ENDROOT
BRANCH   1   2
ATOM      2  O   UNL A   1      39.996  21.403  27.246  1.00  0.00    -0.376 OA
BRANCH   2   3
ATOM      3  C   UNL A   1      40.780  20.285  26.838  1.00  0.00     0.202 C 
BRANCH   3   4
ATOM      4  C   UNL A   1      42.117  20.564  26.136  1.00  0.00     0.261 C 
BRANCH   4   5
ATOM      5  O   UNL A   1      42.165  21.790  25.397  1.00  0.00    -0.460 OA
BRANCH   5   6
ATOM      6  C   UNL A   1      43.092  22.774  25.510  1.00  0.00     0.338 C 
ATOM      7  O   UNL A   1      44.184  22.616  24.966  1.00  0.00    -0.246 OA
BRANCH   6   8
ATOM      8  C   UNL A   1      42.789  24.057  26.210  1.00  0.00     0.060 A 
ATOM      9  C   UNL A   1      42.852  25.331  25.631  1.00  0.00     0.016 A 
ATOM     10  C   UNL A   1      42.308  23.969  27.510  1.00  0.00     0.016 A 
ATOM     11  C   UNL A   1      42.639  26.510  26.350  1.00  0.00     0.010 A 
ATOM     12  C   UNL A   1      41.966  25.135  28.195  1.00  0.00     0.010 A 
ATOM     13  C   UNL A   1      42.181  26.432  27.649  1.00  0.00    -0.014 A 
BRANCH  13  14
ATOM     14  C   UNL A   1      41.921  27.613  28.531  1.00  0.00     0.031 A 
ATOM     15  C   UNL A   1      42.572  27.488  29.878  1.00  0.00     0.074 A 
ATOM     16  C   UNL A   1      41.009  28.579  28.264  1.00  0.00     0.049 A 
ATOM     17  N   UNL A   1      42.126  27.803  31.055  1.00  0.00    -0.248 NA
ATOM     18  C   UNL A   1      43.855  26.746  29.885  1.00  0.00     0.031 C 
ATOM     19  C   UNL A   1      40.364  28.865  26.974  1.00  0.00     0.029 A 
ATOM     20  N   UNL A   1      40.303  29.380  29.148  1.00  0.00    -0.354 N 
ATOM     21  C   UNL A   1      43.044  27.250  31.941  1.00  0.00     0.074 A 
ATOM     22  C   UNL A   1      43.966  26.451  31.170  1.00  0.00     0.031 C 
ATOM     23  C   UNL A   1      39.276  29.636  27.171  1.00  0.00     0.029 A 
ATOM     24  C   UNL A   1      39.113  29.854  28.600  1.00  0.00     0.049 A 
ATOM     25  H   UNL A   1      40.607  29.591  30.059  1.00  0.00     0.167 HD
ATOM     26  C   UNL A   1      43.155  27.466  33.271  1.00  0.00     0.034 A 
ATOM     27  C   UNL A   1      37.984  30.291  29.205  1.00  0.00     0.034 A 
ATOM     28  C   UNL A   1      42.267  28.362  33.947  1.00  0.00     0.049 A 
ATOM     29  C   UNL A   1      38.023  30.397  30.715  1.00  0.00     0.074 A 
ATOM     30  C   UNL A   1      42.343  28.869  35.226  1.00  0.00     0.029 A 
ATOM     31  N   UNL A   1      41.133  28.905  33.354  1.00  0.00    -0.354 N 
ATOM     32  N   UNL A   1      38.956  29.996  31.548  1.00  0.00    -0.248 NA
ATOM     33  C   UNL A   1      36.896  31.081  31.365  1.00  0.00     0.031 C 
ATOM     34  C   UNL A   1      41.246  29.719  35.406  1.00  0.00     0.029 A 
ATOM     35  C   UNL A   1      40.503  29.755  34.232  1.00  0.00     0.049 A 
ATOM     36  H   UNL A   1      40.826  28.711  32.439  1.00  0.00     0.167 HD
ATOM     37  C   UNL A   1      38.604  30.510  32.791  1.00  0.00     0.074 A 
ATOM     38  C   UNL A   1      37.322  31.166  32.619  1.00  0.00     0.031 C 
ATOM     39  C   UNL A   1      39.294  30.492  33.957  1.00  0.00     0.034 A 
BRANCH  26  40
ATOM     40  C   UNL A   1      44.325  26.836  33.986  1.00  0.00     0.023 A 
ATOM     41  C   UNL A   1      45.543  27.549  34.082  1.00  0.00     0.012 A 
ATOM     42  C   UNL A   1      44.253  25.541  34.530  1.00  0.00     0.148 A 
ATOM     43  C   UNL A   1      46.689  26.954  34.603  1.00  0.00     0.002 A 
ATOM     44  C   UNL A   1      45.387  24.977  35.112  1.00  0.00     0.091 A 
ATOM     45  F   UNL A   1      43.100  24.865  34.436  1.00  0.00    -0.205 F 
ATOM     46  C   UNL A   1      46.610  25.668  35.122  1.00  0.00     0.022 A 
BRANCH  44  47
ATOM     47  S   UNL A   1      45.375  23.363  35.903  1.00  0.00     0.127 S 
ATOM     48  O   UNL A   1      46.707  22.861  35.572  1.00  0.00    -0.237 OA
ATOM     49  O   UNL A   1      45.189  23.715  37.311  1.00  0.00    -0.237 OA
ATOM     50  O   UNL A   1      44.263  22.634  35.308  1.00  0.00    -0.744 OA
ENDBRANCH  44  47
ENDBRANCH  26  40
BRANCH  27  51
ATOM     51  C   UNL A   1      36.726  30.663  28.463  1.00  0.00     0.023 A 
ATOM     52  C   UNL A   1      36.303  32.003  28.417  1.00  0.00     0.012 A 
ATOM     53  C   UNL A   1      35.873  29.692  27.899  1.00  0.00     0.148 A 
ATOM     54  C   UNL A   1      35.051  32.347  27.884  1.00  0.00     0.002 A 
ATOM     55  C   UNL A   1      34.626  30.031  27.371  1.00  0.00     0.091 A 
ATOM     56  F   UNL A   1      36.291  28.432  27.866  1.00  0.00    -0.205 F 
ATOM     57  C   UNL A   1      34.206  31.362  27.377  1.00  0.00     0.022 A 
BRANCH  55  58
ATOM     58  S   UNL A   1      33.487  28.785  26.731  1.00  0.00     0.127 S 
ATOM     59  O   UNL A   1      32.826  28.305  27.945  1.00  0.00    -0.237 OA
ATOM     60  O   UNL A   1      32.639  29.580  25.846  1.00  0.00    -0.237 OA
ATOM     61  O   UNL A   1      34.323  27.787  26.077  1.00  0.00    -0.744 OA
ENDBRANCH  55  58
ENDBRANCH  27  51
BRANCH  39  62
ATOM     62  C   UNL A   1      38.818  31.377  35.070  1.00  0.00     0.023 A 
ATOM     63  C   UNL A   1      38.106  30.847  36.157  1.00  0.00     0.012 A 
ATOM     64  C   UNL A   1      39.284  32.708  35.111  1.00  0.00     0.148 A 
ATOM     65  C   UNL A   1      37.872  31.634  37.284  1.00  0.00     0.002 A 
ATOM     66  C   UNL A   1      39.102  33.462  36.260  1.00  0.00     0.091 A 
ATOM     67  F   UNL A   1      39.941  33.187  34.045  1.00  0.00    -0.205 F 
ATOM     68  C   UNL A   1      38.391  32.928  37.345  1.00  0.00     0.022 A 
BRANCH  66  69
ATOM     69  S   UNL A   1      39.872  35.072  36.467  1.00  0.00     0.127 S 
ATOM     70  O   UNL A   1      39.279  35.827  35.357  1.00  0.00    -0.237 OA
ATOM     71  O   UNL A   1      39.390  35.472  37.794  1.00  0.00    -0.237 OA
ATOM     72  O   UNL A   1      41.299  34.858  36.381  1.00  0.00    -0.744 OA
ENDBRANCH  66  69
ENDBRANCH  39  62
ENDBRANCH  13  14
ENDBRANCH   6   8
ENDBRANCH   5   6
ENDBRANCH   4   5
ENDBRANCH   3   4
ENDBRANCH   2   3
ENDBRANCH   1   2
BRANCH   1  73
ATOM     73  C   UNL A   1      39.038  23.513  26.420  1.00  0.00     0.188 C 
BRANCH  73  74
ATOM     74  O   UNL A   1      37.736  24.071  26.547  1.00  0.00    -0.376 OA
BRANCH  74  75
ATOM     75  C   UNL A   1      36.825  23.823  25.484  1.00  0.00     0.202 C 
BRANCH  75  76
ATOM     76  C   UNL A   1      35.412  24.454  25.508  1.00  0.00     0.261 C 
BRANCH  76  77
ATOM     77  O   UNL A   1      34.715  24.609  24.247  1.00  0.00    -0.463 OA
BRANCH  77  78
ATOM     78  C   UNL A   1      34.521  23.442  23.575  1.00  0.00     0.310 C 
ATOM     79  O   UNL A   1      35.241  23.108  22.637  1.00  0.00    -0.252 OA
BRANCH  78  80
ATOM     80  C   UNL A   1      33.253  22.667  23.975  1.00  0.00     0.115 C 
ATOM     81  C   UNL A   1      33.665  21.166  24.116  1.00  0.00     0.004 C 
ATOM     82  C   UNL A   1      32.533  22.889  25.340  1.00  0.00     0.096 C 
ATOM     83  C   UNL A   1      34.684  20.955  25.269  1.00  0.00     0.005 C 
ATOM     84  C   UNL A   1      32.416  20.566  24.734  1.00  0.00     0.009 C 
ATOM     85  C   UNL A   1      32.474  21.480  25.961  1.00  0.00     0.003 C 
ATOM     86  C   UNL A   1      33.851  21.156  26.534  1.00  0.00     0.005 C 
BRANCH  82  87
ATOM     87  C   UNL A   1      31.141  23.514  25.270  1.00  0.00     0.227 C 
ATOM     88  O   UNL A   1      30.272  23.053  26.018  1.00  0.00    -0.275 OA
ATOM     89  N   UNL A   1      30.934  24.679  24.553  1.00  0.00    -0.331 N 
ATOM     90  C   UNL A   1      30.103  25.650  25.222  1.00  0.00     0.181 C 
ATOM     91  C   UNL A   1      30.854  24.832  23.078  1.00  0.00     0.181 C 
ATOM     92  C   UNL A   1      30.455  27.064  24.809  1.00  0.00     0.284 C 
ATOM     93  C   UNL A   1      31.101  26.292  22.593  1.00  0.00     0.284 C 
ATOM     94  N   UNL A   1      30.357  27.247  23.387  1.00  0.00    -0.330 N 
ATOM     95  H   UNL A   1      30.416  27.653  22.453  1.00  0.00     0.348 HD
BRANCH  94  96
ATOM     96  C   UNL A   1      29.505  28.315  22.910  1.00  0.00     0.184 C 
ATOM     97  C   UNL A   1      28.001  28.146  23.179  1.00  0.00     0.065 C 
ATOM     98  C   UNL A   1      30.105  29.623  23.448  1.00  0.00     0.065 C 
ATOM     99  C   UNL A   1      27.214  29.419  22.873  1.00  0.00     0.006 C 
ATOM    100  C   UNL A   1      29.247  30.840  23.149  1.00  0.00     0.006 C 
ATOM    101  C   UNL A   1      27.816  30.611  23.608  1.00  0.00     0.000 C 
ENDBRANCH  94  96
ENDBRANCH  82  87
ENDBRANCH  78  80
ENDBRANCH  77  78
ENDBRANCH  76  77
ENDBRANCH  75  76
ENDBRANCH  74  75
ENDBRANCH  73  74
ENDBRANCH   1  73
TORSDOF 22
ENDMDL
MODEL 3
REMARK VINA RESULT:     -11.1      1.604      4.042
REMARK SMILES O=C(OCCOCCOCCOC(=O)[C@H]1[C@H]2CC[C@H](C2)[C@@H]1C(=O)N1CC[NH+](C2CCCCC2)CC1)c1ccc(-c2c3nc(c(-c4cccc(S(=O)(=O)[O-])c4F)c4ccc([nH]4)c(-c4cccc(S(=O)(=O)[O-])c4F)c4nc(c(-c5cccc(S(=O)(=O)[O-])c5F)c5ccc2[nH]5)C=C4)C=C3)cc1
REMARK SMILES IDX 7 1 6 2 5 3 4 4 3 5 2 6 1 7 36 8 37 9 98 10 38 11 97 12
REMARK SMILES IDX 39 13 40 14 41 15 91 16 42 17 96 18 90 19 92 20 43 21 95 22
REMARK SMILES IDX 89 23 88 24 44 26 76 27 56 28 75 29 57 30 60 31 74 32 93 33
REMARK SMILES IDX 58 34 59 35 73 37 94 38 61 39 45 40 46 41 54 42 47 43 49 44
REMARK SMILES IDX 55 45 48 46 50 47 51 48 52 49 53 50 77 51 78 52 86 53 79 54
REMARK SMILES IDX 81 55 87 56 80 57 82 58 83 59 84 60 85 61 62 62 63 63 71 64
REMARK SMILES IDX 64 65 66 66 72 67 65 68 67 69 68 70 69 71 70 72 8 73 9 74
REMARK SMILES IDX 10 75 11 76 12 77 13 78 14 79 15 80 16 81 21 82 17 83 20 84
REMARK SMILES IDX 19 85 18 86 22 87 23 88 24 89 25 90 35 91 26 92 34 93 27 94
REMARK SMILES IDX 28 96 29 97 33 98 30 99 32 100 31 101
REMARK H PARENT 92 25 60 36 27 95
REMARK Flexibility Score: inf
ROOT
ATOM      1  C   UNL A   1      40.961  22.102  26.610  1.00  0.00     0.188 C 
ENDROOT
BRANCH   1   2
ATOM      2  O   UNL A   1      41.629  20.844  26.644  1.00  0.00    -0.376 OA
BRANCH   2   3
ATOM      3  C   UNL A   1      42.951  20.795  26.114  1.00  0.00     0.202 C 
BRANCH   3   4
ATOM      4  C   UNL A   1      43.414  21.963  25.231  1.00  0.00     0.261 C 
BRANCH   4   5
ATOM      5  O   UNL A   1      44.398  22.816  25.828  1.00  0.00    -0.460 OA
BRANCH   5   6
ATOM      6  C   UNL A   1      44.556  24.147  25.621  1.00  0.00     0.338 C 
ATOM      7  O   UNL A   1      45.068  24.520  24.567  1.00  0.00    -0.246 OA
BRANCH   6   8
ATOM      8  C   UNL A   1      44.059  25.155  26.605  1.00  0.00     0.060 A 
ATOM      9  C   UNL A   1      43.263  24.874  27.721  1.00  0.00     0.016 A 
ATOM     10  C   UNL A   1      44.509  26.460  26.453  1.00  0.00     0.016 A 
ATOM     11  C   UNL A   1      42.754  25.862  28.568  1.00  0.00     0.010 A 
ATOM     12  C   UNL A   1      44.113  27.433  27.370  1.00  0.00     0.010 A 
ATOM     13  C   UNL A   1      43.179  27.165  28.411  1.00  0.00    -0.014 A 
BRANCH  13  14
ATOM     14  C   UNL A   1      42.708  28.318  29.241  1.00  0.00     0.031 A 
ATOM     15  C   UNL A   1      43.402  28.400  30.570  1.00  0.00     0.074 A 
ATOM     16  C   UNL A   1      41.615  29.066  28.958  1.00  0.00     0.049 A 
ATOM     17  N   UNL A   1      42.929  28.684  31.745  1.00  0.00    -0.248 NA
ATOM     18  C   UNL A   1      44.807  27.930  30.571  1.00  0.00     0.031 C 
ATOM     19  C   UNL A   1      40.896  29.147  27.678  1.00  0.00     0.029 A 
ATOM     20  N   UNL A   1      40.783  29.759  29.825  1.00  0.00    -0.354 N 
ATOM     21  C   UNL A   1      43.959  28.375  32.626  1.00  0.00     0.074 A 
ATOM     22  C   UNL A   1      45.005  27.734  31.864  1.00  0.00     0.031 C 
ATOM     23  C   UNL A   1      39.680  29.695  27.873  1.00  0.00     0.029 A 
ATOM     24  C   UNL A   1      39.510  29.955  29.294  1.00  0.00     0.049 A 
ATOM     25  H   UNL A   1      41.060  30.076  30.714  1.00  0.00     0.167 HD
ATOM     26  C   UNL A   1      44.055  28.682  33.939  1.00  0.00     0.034 A 
ATOM     27  C   UNL A   1      38.330  30.191  29.915  1.00  0.00     0.034 A 
ATOM     28  C   UNL A   1      43.021  29.419  34.599  1.00  0.00     0.049 A 
ATOM     29  C   UNL A   1      38.382  30.386  31.415  1.00  0.00     0.074 A 
ATOM     30  C   UNL A   1      43.023  30.001  35.848  1.00  0.00     0.029 A 
ATOM     31  N   UNL A   1      41.788  29.692  34.019  1.00  0.00    -0.354 N 
ATOM     32  N   UNL A   1      39.396  30.225  32.235  1.00  0.00    -0.248 NA
ATOM     33  C   UNL A   1      37.156  30.866  32.068  1.00  0.00     0.031 C 
ATOM     34  C   UNL A   1      41.783  30.625  36.023  1.00  0.00     0.029 A 
ATOM     35  C   UNL A   1      41.021  30.447  34.875  1.00  0.00     0.049 A 
ATOM     36  H   UNL A   1      41.505  29.390  33.125  1.00  0.00     0.167 HD
ATOM     37  C   UNL A   1      38.976  30.727  33.462  1.00  0.00     0.074 A 
ATOM     38  C   UNL A   1      37.585  31.104  33.301  1.00  0.00     0.031 C 
ATOM     39  C   UNL A   1      39.683  30.912  34.604  1.00  0.00     0.034 A 
BRANCH  26  40
ATOM     40  C   UNL A   1      45.344  28.338  34.645  1.00  0.00     0.023 A 
ATOM     41  C   UNL A   1      46.425  29.251  34.597  1.00  0.00     0.012 A 
ATOM     42  C   UNL A   1      45.519  27.117  35.320  1.00  0.00     0.148 A 
ATOM     43  C   UNL A   1      47.676  28.916  35.108  1.00  0.00     0.002 A 
ATOM     44  C   UNL A   1      46.755  26.816  35.888  1.00  0.00     0.091 A 
ATOM     45  F   UNL A   1      44.496  26.252  35.362  1.00  0.00    -0.205 F 
ATOM     46  C   UNL A   1      47.840  27.699  35.757  1.00  0.00     0.022 A 
BRANCH  44  47
ATOM     47  S   UNL A   1      47.053  25.320  36.838  1.00  0.00     0.127 S 
ATOM     48  O   UNL A   1      48.369  25.591  37.412  1.00  0.00    -0.237 OA
ATOM     49  O   UNL A   1      45.952  25.345  37.801  1.00  0.00    -0.237 OA
ATOM     50  O   UNL A   1      46.997  24.222  35.882  1.00  0.00    -0.744 OA
ENDBRANCH  44  47
ENDBRANCH  26  40
BRANCH  27  51
ATOM     51  C   UNL A   1      37.007  30.264  29.197  1.00  0.00     0.023 A 
ATOM     52  C   UNL A   1      36.548  29.167  28.446  1.00  0.00     0.012 A 
ATOM     53  C   UNL A   1      36.246  31.450  29.146  1.00  0.00     0.148 A 
ATOM     54  C   UNL A   1      35.409  29.274  27.632  1.00  0.00     0.002 A 
ATOM     55  C   UNL A   1      35.116  31.561  28.335  1.00  0.00     0.091 A 
ATOM     56  F   UNL A   1      36.624  32.471  29.907  1.00  0.00    -0.205 F 
ATOM     57  C   UNL A   1      34.703  30.474  27.563  1.00  0.00     0.022 A 
BRANCH  55  58
ATOM     58  S   UNL A   1      34.188  33.104  28.191  1.00  0.00     0.127 S 
ATOM     59  O   UNL A   1      35.141  33.986  27.517  1.00  0.00    -0.237 OA
ATOM     60  O   UNL A   1      33.049  32.694  27.373  1.00  0.00    -0.237 OA
ATOM     61  O   UNL A   1      33.874  33.502  29.557  1.00  0.00    -0.744 OA
ENDBRANCH  55  58
ENDBRANCH  27  51
BRANCH  39  62
ATOM     62  C   UNL A   1      39.065  31.744  35.687  1.00  0.00     0.023 A 
ATOM     63  C   UNL A   1      38.210  31.168  36.639  1.00  0.00     0.012 A 
ATOM     64  C   UNL A   1      39.526  33.066  35.859  1.00  0.00     0.148 A 
ATOM     65  C   UNL A   1      37.829  31.899  37.763  1.00  0.00     0.002 A 
ATOM     66  C   UNL A   1      39.194  33.763  37.011  1.00  0.00     0.091 A 
ATOM     67  F   UNL A   1      40.323  33.592  34.917  1.00  0.00    -0.205 F 
ATOM     68  C   UNL A   1      38.341  33.183  37.961  1.00  0.00     0.022 A 
BRANCH  66  69
ATOM     69  S   UNL A   1      39.936  35.352  37.403  1.00  0.00     0.127 S 
ATOM     70  O   UNL A   1      39.197  36.250  36.507  1.00  0.00    -0.237 OA
ATOM     71  O   UNL A   1      39.598  35.504  38.823  1.00  0.00    -0.237 OA
ATOM     72  O   UNL A   1      41.349  35.223  37.127  1.00  0.00    -0.744 OA
ENDBRANCH  66  69
ENDBRANCH  39  62
ENDBRANCH  13  14
ENDBRANCH   6   8
ENDBRANCH   5   6
ENDBRANCH   4   5
ENDBRANCH   3   4
ENDBRANCH   2   3
ENDBRANCH   1   2
BRANCH   1  73
ATOM     73  C   UNL A   1      39.437  21.958  26.587  1.00  0.00     0.188 C 
BRANCH  73  74
ATOM     74  O   UNL A   1      38.846  21.396  25.421  1.00  0.00    -0.376 OA
BRANCH  74  75
ATOM     75  C   UNL A   1      37.569  21.894  25.044  1.00  0.00     0.202 C 
BRANCH  75  76
ATOM     76  C   UNL A   1      37.022  23.192  25.685  1.00  0.00     0.261 C 
BRANCH  76  77
ATOM     77  O   UNL A   1      35.775  23.727  25.178  1.00  0.00    -0.463 OA
BRANCH  77  78
ATOM     78  C   UNL A   1      34.699  23.469  25.973  1.00  0.00     0.310 C 
ATOM     79  O   UNL A   1      34.822  23.242  27.174  1.00  0.00    -0.252 OA
BRANCH  78  80
ATOM     80  C   UNL A   1      33.361  23.331  25.227  1.00  0.00     0.115 C 
ATOM     81  C   UNL A   1      33.580  22.276  24.095  1.00  0.00     0.004 C 
ATOM     82  C   UNL A   1      32.082  22.752  25.905  1.00  0.00     0.096 C 
ATOM     83  C   UNL A   1      33.902  20.871  24.673  1.00  0.00     0.005 C 
ATOM     84  C   UNL A   1      32.161  22.058  23.605  1.00  0.00     0.009 C 
ATOM     85  C   UNL A   1      31.662  21.595  24.978  1.00  0.00     0.003 C 
ATOM     86  C   UNL A   1      32.572  20.404  25.263  1.00  0.00     0.005 C 
BRANCH  82  87
ATOM     87  C   UNL A   1      30.929  23.734  26.112  1.00  0.00     0.227 C 
ATOM     88  O   UNL A   1      30.244  23.600  27.132  1.00  0.00    -0.275 OA
ATOM     89  N   UNL A   1      30.803  24.844  25.296  1.00  0.00    -0.331 N 
ATOM     90  C   UNL A   1      30.476  26.062  25.995  1.00  0.00     0.181 C 
ATOM     91  C   UNL A   1      30.318  24.886  23.893  1.00  0.00     0.181 C 
ATOM     92  C   UNL A   1      31.018  27.281  25.277  1.00  0.00     0.284 C 
ATOM     93  C   UNL A   1      30.752  26.172  23.126  1.00  0.00     0.284 C 
ATOM     94  N   UNL A   1      30.540  27.361  23.924  1.00  0.00    -0.330 N 
ATOM     95  H   UNL A   1      30.408  27.653  22.956  1.00  0.00     0.348 HD
BRANCH  94  96
ATOM     96  C   UNL A   1      29.869  28.579  23.526  1.00  0.00     0.184 C 
ATOM     97  C   UNL A   1      30.483  29.327  22.331  1.00  0.00     0.065 C 
ATOM     98  C   UNL A   1      28.384  28.223  23.359  1.00  0.00     0.065 C 
ATOM     99  C   UNL A   1      29.577  30.448  21.825  1.00  0.00     0.006 C 
ATOM    100  C   UNL A   1      27.553  29.368  22.807  1.00  0.00     0.006 C 
ATOM    101  C   UNL A   1      28.178  29.918  21.535  1.00  0.00     0.000 C 
ENDBRANCH  94  96
ENDBRANCH  82  87
ENDBRANCH  78  80
ENDBRANCH  77  78
ENDBRANCH  76  77
ENDBRANCH  75  76
ENDBRANCH  74  75
ENDBRANCH  73  74
ENDBRANCH   1  73
TORSDOF 22
ENDMDL
