MODEL 1
REMARK VINA RESULT:      -9.7      0.000      0.000
REMARK SMILES CCOc1cc2c(cc1OCC)[C@@H](C(=O)OCCOCCOCCOC(=O)c1ccc(-c3c4nc(c(-c5cccc(S(=O)(=O)[O-])c5F)c5ccc([nH]5)c(-c5cccc(S(=O)(=O)[O-])c5F)c5nc(c(-c6cccc(S(=O)(=O)[O-])c6F)c6ccc3[nH]6)C=C5)C=C4)cc1)[C@H](c1ccc(F)cc1Cl)N(C)C2=O
REMARK SMILES IDX 21 1 20 2 19 3 18 4 17 5 16 6 14 7 15 8 13 9 4 10 5 11 9 12
REMARK SMILES IDX 6 13 8 14 7 15 102 16 100 17 103 18 91 19 101 20 3 21 2 22
REMARK SMILES IDX 1 23 10 24 11 25 12 26 92 27 93 28 98 29 94 30 97 31 99 32
REMARK SMILES IDX 95 33 96 34 22 35 23 36 24 37 25 38 26 39 27 40 28 41 29 42
REMARK SMILES IDX 90 43 30 44 89 45 31 46 32 47 33 48 83 49 34 50 88 51 82 52
REMARK SMILES IDX 84 53 35 54 87 55 81 56 80 57 36 59 68 60 48 61 67 62 49 63
REMARK SMILES IDX 52 64 66 65 85 66 50 67 51 68 65 70 86 71 53 72 37 73 38 74
REMARK SMILES IDX 46 75 39 76 41 77 47 78 40 79 42 80 43 81 44 82 45 83 69 84
REMARK SMILES IDX 70 85 78 86 71 87 73 88 79 89 72 90 74 91 75 92 76 93 77 94
REMARK SMILES IDX 54 95 55 96 63 97 56 98 58 99 64 100 57 101 59 102 60 103
REMARK SMILES IDX 61 104 62 105
REMARK H PARENT 84 58 52 69
REMARK Flexibility Score: inf
ROOT
ATOM      1  C   UNL A   1      41.983  20.274  26.951  1.00  0.00     0.188 C 
ENDROOT
BRANCH   1   2
ATOM      2  C   UNL A   1      40.728  19.960  26.136  1.00  0.00     0.188 C 
BRANCH   2   3
ATOM      3  O   UNL A   1      39.526  20.583  26.557  1.00  0.00    -0.376 OA
BRANCH   3   4
ATOM      4  C   UNL A   1      39.234  21.877  26.038  1.00  0.00     0.202 C 
BRANCH   4   5
ATOM      5  C   UNL A   1      37.773  22.193  25.679  1.00  0.00     0.261 C 
BRANCH   5   6
ATOM      6  O   UNL A   1      37.413  23.597  25.678  1.00  0.00    -0.463 OA
BRANCH   6   7
ATOM      7  C   UNL A   1      36.107  23.854  25.440  1.00  0.00     0.316 C 
ATOM      8  O   UNL A   1      35.559  24.915  25.744  1.00  0.00    -0.251 OA
BRANCH   7   9
ATOM      9  C   UNL A   1      35.278  22.716  24.837  1.00  0.00     0.157 C 
ATOM     10  C   UNL A   1      31.961  24.873  23.228  1.00  0.00     0.161 A 
ATOM     11  C   UNL A   1      31.877  24.264  24.491  1.00  0.00     0.064 A 
ATOM     12  C   UNL A   1      33.109  24.705  22.437  1.00  0.00     0.161 A 
ATOM     13  C   UNL A   1      32.955  23.575  25.013  1.00  0.00     0.048 A 
ATOM     14  C   UNL A   1      34.161  23.945  22.944  1.00  0.00     0.056 A 
ATOM     15  C   UNL A   1      34.087  23.395  24.223  1.00  0.00    -0.015 A 
ATOM     16  C   UNL A   1      32.920  23.052  26.413  1.00  0.00     0.254 C 
ATOM     17  N   UNL A   1      33.828  22.036  26.708  1.00  0.00    -0.333 N 
ATOM     18  O   UNL A   1      32.121  23.513  27.222  1.00  0.00    -0.269 OA
ATOM     19  C   UNL A   1      34.733  21.524  25.681  1.00  0.00     0.135 C 
ATOM     20  C   UNL A   1      33.848  21.447  28.035  1.00  0.00     0.147 C 
BRANCH  10  21
ATOM     21  O   UNL A   1      30.867  25.560  22.773  1.00  0.00    -0.490 OA
BRANCH  21  22
ATOM     22  C   UNL A   1      30.241  26.362  23.786  1.00  0.00     0.226 C 
ATOM     23  C   UNL A   1      30.924  27.712  23.954  1.00  0.00     0.049 C 
ENDBRANCH  21  22
ENDBRANCH  10  21
BRANCH  12  24
ATOM     24  O   UNL A   1      33.418  25.192  21.202  1.00  0.00    -0.490 OA
BRANCH  24  25
ATOM     25  C   UNL A   1      32.960  24.544  20.030  1.00  0.00     0.226 C 
ATOM     26  C   UNL A   1      32.362  25.555  19.073  1.00  0.00     0.049 C 
ENDBRANCH  24  25
ENDBRANCH  12  24
BRANCH  19  27
ATOM     27  C   UNL A   1      34.094  20.427  24.749  1.00  0.00    -0.005 A 
ATOM     28  C   UNL A   1      32.839  20.756  24.168  1.00  0.00     0.010 A 
ATOM     29  C   UNL A   1      34.575  19.119  24.477  1.00  0.00     0.049 A 
ATOM     30  C   UNL A   1      32.078  19.824  23.450  1.00  0.00     0.040 A 
ATOM     31  C   UNL A   1      33.802  18.190  23.757  1.00  0.00     0.060 A 
ATOM     32  Cl  UNL A   1      36.111  18.471  24.931  1.00  0.00    -0.084 Cl
ATOM     33  C   UNL A   1      32.561  18.543  23.266  1.00  0.00     0.124 A 
ATOM     34  F   UNL A   1      31.833  17.638  22.599  1.00  0.00    -0.207 F 
ENDBRANCH  19  27
ENDBRANCH   7   9
ENDBRANCH   6   7
ENDBRANCH   5   6
ENDBRANCH   4   5
ENDBRANCH   3   4
ENDBRANCH   2   3
ENDBRANCH   1   2
BRANCH   1  35
ATOM     35  O   UNL A   1      42.631  21.495  26.646  1.00  0.00    -0.376 OA
BRANCH  35  36
ATOM     36  C   UNL A   1      44.034  21.596  26.883  1.00  0.00     0.202 C 
BRANCH  36  37
ATOM     37  C   UNL A   1      44.942  22.074  25.731  1.00  0.00     0.261 C 
BRANCH  37  38
ATOM     38  O   UNL A   1      45.000  23.497  25.486  1.00  0.00    -0.460 OA
BRANCH  38  39
ATOM     39  C   UNL A   1      43.869  24.150  25.114  1.00  0.00     0.338 C 
ATOM     40  O   UNL A   1      43.149  23.866  24.179  1.00  0.00    -0.246 OA
BRANCH  39  41
ATOM     41  C   UNL A   1      43.479  25.077  26.224  1.00  0.00     0.060 A 
ATOM     42  C   UNL A   1      42.417  24.692  27.061  1.00  0.00     0.016 A 
ATOM     43  C   UNL A   1      44.207  26.232  26.529  1.00  0.00     0.016 A 
ATOM     44  C   UNL A   1      42.074  25.461  28.180  1.00  0.00     0.010 A 
ATOM     45  C   UNL A   1      43.851  27.010  27.639  1.00  0.00     0.010 A 
ATOM     46  C   UNL A   1      42.768  26.645  28.459  1.00  0.00    -0.014 A 
BRANCH  46  47
ATOM     47  C   UNL A   1      42.256  27.603  29.477  1.00  0.00     0.031 A 
ATOM     48  C   UNL A   1      42.918  27.620  30.830  1.00  0.00     0.074 A 
ATOM     49  C   UNL A   1      41.218  28.428  29.236  1.00  0.00     0.049 A 
ATOM     50  N   UNL A   1      42.598  28.290  31.905  1.00  0.00    -0.248 NA
ATOM     51  C   UNL A   1      44.101  26.759  30.985  1.00  0.00     0.031 C 
ATOM     52  C   UNL A   1      40.499  28.544  27.970  1.00  0.00     0.029 A 
ATOM     53  N   UNL A   1      40.571  29.308  30.073  1.00  0.00    -0.354 N 
ATOM     54  C   UNL A   1      43.517  27.908  32.876  1.00  0.00     0.074 A 
ATOM     55  C   UNL A   1      44.402  26.942  32.262  1.00  0.00     0.031 C 
ATOM     56  C   UNL A   1      39.489  29.421  28.123  1.00  0.00     0.029 A 
ATOM     57  C   UNL A   1      39.464  29.899  29.506  1.00  0.00     0.049 A 
ATOM     58  H   UNL A   1      40.870  29.497  30.992  1.00  0.00     0.167 HD
ATOM     59  C   UNL A   1      43.625  28.326  34.159  1.00  0.00     0.034 A 
ATOM     60  C   UNL A   1      38.524  30.703  30.047  1.00  0.00     0.034 A 
ATOM     61  C   UNL A   1      42.753  29.286  34.776  1.00  0.00     0.049 A 
ATOM     62  C   UNL A   1      38.623  31.098  31.502  1.00  0.00     0.074 A 
ATOM     63  C   UNL A   1      42.809  29.794  36.062  1.00  0.00     0.029 A 
ATOM     64  N   UNL A   1      41.656  29.869  34.165  1.00  0.00    -0.354 N 
ATOM     65  N   UNL A   1      39.554  30.808  32.378  1.00  0.00    -0.248 NA
ATOM     66  C   UNL A   1      37.548  31.950  32.038  1.00  0.00     0.031 C 
ATOM     67  C   UNL A   1      41.720  30.653  36.242  1.00  0.00     0.029 A 
ATOM     68  C   UNL A   1      41.012  30.715  35.053  1.00  0.00     0.049 A 
ATOM     69  H   UNL A   1      41.374  29.706  33.236  1.00  0.00     0.167 HD
ATOM     70  C   UNL A   1      39.198  31.471  33.550  1.00  0.00     0.074 A 
ATOM     71  C   UNL A   1      37.976  32.191  33.269  1.00  0.00     0.031 C 
ATOM     72  C   UNL A   1      39.824  31.473  34.754  1.00  0.00     0.034 A 
BRANCH  59  73
ATOM     73  C   UNL A   1      44.740  27.740  34.986  1.00  0.00     0.023 A 
ATOM     74  C   UNL A   1      45.959  28.438  35.115  1.00  0.00     0.012 A 
ATOM     75  C   UNL A   1      44.567  26.520  35.666  1.00  0.00     0.148 A 
ATOM     76  C   UNL A   1      47.002  27.910  35.874  1.00  0.00     0.002 A 
ATOM     77  C   UNL A   1      45.592  26.024  36.462  1.00  0.00     0.091 A 
ATOM     78  F   UNL A   1      43.409  25.861  35.514  1.00  0.00    -0.205 F 
ATOM     79  C   UNL A   1      46.815  26.710  36.555  1.00  0.00     0.022 A 
BRANCH  77  80
ATOM     80  S   UNL A   1      45.423  24.528  37.439  1.00  0.00     0.127 S 
ATOM     81  O   UNL A   1      44.507  24.966  38.491  1.00  0.00    -0.237 OA
ATOM     82  O   UNL A   1      44.841  23.595  36.474  1.00  0.00    -0.237 OA
ATOM     83  O   UNL A   1      46.765  24.184  37.885  1.00  0.00    -0.744 OA
ENDBRANCH  77  80
ENDBRANCH  59  73
BRANCH  60  84
ATOM     84  C   UNL A   1      37.394  31.209  29.212  1.00  0.00     0.023 A 
ATOM     85  C   UNL A   1      37.315  32.582  28.906  1.00  0.00     0.012 A 
ATOM     86  C   UNL A   1      36.390  30.342  28.736  1.00  0.00     0.148 A 
ATOM     87  C   UNL A   1      36.243  33.087  28.168  1.00  0.00     0.002 A 
ATOM     88  C   UNL A   1      35.354  30.843  27.955  1.00  0.00     0.091 A 
ATOM     89  F   UNL A   1      36.471  29.043  29.056  1.00  0.00    -0.205 F 
ATOM     90  C   UNL A   1      35.269  32.217  27.685  1.00  0.00     0.022 A 
BRANCH  88  91
ATOM     91  S   UNL A   1      34.115  29.787  27.197  1.00  0.00     0.127 S 
ATOM     92  O   UNL A   1      33.180  30.768  26.652  1.00  0.00    -0.237 OA
ATOM     93  O   UNL A   1      34.907  29.068  26.199  1.00  0.00    -0.237 OA
ATOM     94  O   UNL A   1      33.596  28.953  28.272  1.00  0.00    -0.744 OA
ENDBRANCH  88  91
ENDBRANCH  60  84
BRANCH  72  95
ATOM     95  C   UNL A   1      39.239  32.314  35.863  1.00  0.00     0.023 A 
ATOM     96  C   UNL A   1      38.284  31.762  36.739  1.00  0.00     0.012 A 
ATOM     97  C   UNL A   1      39.712  33.622  36.094  1.00  0.00     0.148 A 
ATOM     98  C   UNL A   1      37.789  32.506  37.810  1.00  0.00     0.002 A 
ATOM     99  C   UNL A   1      39.252  34.340  37.193  1.00  0.00     0.091 A 
ATOM    100  F   UNL A   1      40.612  34.135  35.242  1.00  0.00    -0.205 F 
ATOM    101  C   UNL A   1      38.282  33.789  38.044  1.00  0.00     0.022 A 
BRANCH  99 102
ATOM    102  S   UNL A   1      39.899  35.958  37.632  1.00  0.00     0.127 S 
ATOM    103  O   UNL A   1      39.641  36.723  36.413  1.00  0.00    -0.237 OA
ATOM    104  O   UNL A   1      39.059  36.326  38.772  1.00  0.00    -0.237 OA
ATOM    105  O   UNL A   1      41.305  35.759  37.953  1.00  0.00    -0.744 OA
ENDBRANCH  99 102
ENDBRANCH  72  95
ENDBRANCH  46  47
ENDBRANCH  39  41
ENDBRANCH  38  39
ENDBRANCH  37  38
ENDBRANCH  36  37
ENDBRANCH  35  36
ENDBRANCH   1  35
TORSDOF 25
ENDMDL
MODEL 2
REMARK VINA RESULT:      -8.9      5.741     14.620
REMARK SMILES CCOc1cc2c(cc1OCC)[C@@H](C(=O)OCCOCCOCCOC(=O)c1ccc(-c3c4nc(c(-c5cccc(S(=O)(=O)[O-])c5F)c5ccc([nH]5)c(-c5cccc(S(=O)(=O)[O-])c5F)c5nc(c(-c6cccc(S(=O)(=O)[O-])c6F)c6ccc3[nH]6)C=C5)C=C4)cc1)[C@H](c1ccc(F)cc1Cl)N(C)C2=O
REMARK SMILES IDX 21 1 20 2 19 3 18 4 17 5 16 6 14 7 15 8 13 9 4 10 5 11 9 12
REMARK SMILES IDX 6 13 8 14 7 15 102 16 100 17 103 18 91 19 101 20 3 21 2 22
REMARK SMILES IDX 1 23 10 24 11 25 12 26 92 27 93 28 98 29 94 30 97 31 99 32
REMARK SMILES IDX 95 33 96 34 22 35 23 36 24 37 25 38 26 39 27 40 28 41 29 42
REMARK SMILES IDX 90 43 30 44 89 45 31 46 32 47 33 48 83 49 34 50 88 51 82 52
REMARK SMILES IDX 84 53 35 54 87 55 81 56 80 57 36 59 68 60 48 61 67 62 49 63
REMARK SMILES IDX 52 64 66 65 85 66 50 67 51 68 65 70 86 71 53 72 37 73 38 74
REMARK SMILES IDX 46 75 39 76 41 77 47 78 40 79 42 80 43 81 44 82 45 83 69 84
REMARK SMILES IDX 70 85 78 86 71 87 73 88 79 89 72 90 74 91 75 92 76 93 77 94
REMARK SMILES IDX 54 95 55 96 63 97 56 98 58 99 64 100 57 101 59 102 60 103
REMARK SMILES IDX 61 104 62 105
REMARK H PARENT 84 58 52 69
REMARK Flexibility Score: inf
ROOT
ATOM      1  C   UNL A   1      36.546  34.122  33.860  1.00  0.00     0.188 C 
ENDROOT
BRANCH   1   2
ATOM      2  C   UNL A   1      36.759  33.676  35.307  1.00  0.00     0.188 C 
BRANCH   2   3
ATOM      3  O   UNL A   1      37.384  32.418  35.497  1.00  0.00    -0.376 OA
BRANCH   3   4
ATOM      4  C   UNL A   1      37.592  31.979  36.836  1.00  0.00     0.202 C 
BRANCH   4   5
ATOM      5  C   UNL A   1      38.313  32.934  37.801  1.00  0.00     0.261 C 
BRANCH   5   6
ATOM      6  O   UNL A   1      39.523  32.420  38.411  1.00  0.00    -0.463 OA
BRANCH   6   7
ATOM      7  C   UNL A   1      39.558  32.486  39.762  1.00  0.00     0.316 C 
ATOM      8  O   UNL A   1      40.572  32.263  40.424  1.00  0.00    -0.251 OA
BRANCH   7   9
ATOM      9  C   UNL A   1      38.232  32.773  40.473  1.00  0.00     0.157 C 
ATOM     10  C   UNL A   1      39.432  35.759  43.281  1.00  0.00     0.161 A 
ATOM     11  C   UNL A   1      39.342  34.410  43.661  1.00  0.00     0.064 A 
ATOM     12  C   UNL A   1      39.042  36.158  41.993  1.00  0.00     0.161 A 
ATOM     13  C   UNL A   1      38.963  33.445  42.748  1.00  0.00     0.048 A 
ATOM     14  C   UNL A   1      38.590  35.185  41.103  1.00  0.00     0.056 A 
ATOM     15  C   UNL A   1      38.561  33.842  41.475  1.00  0.00    -0.015 A 
ATOM     16  C   UNL A   1      39.007  31.995  43.109  1.00  0.00     0.254 C 
ATOM     17  N   UNL A   1      38.230  31.146  42.321  1.00  0.00    -0.333 N 
ATOM     18  O   UNL A   1      39.695  31.616  44.051  1.00  0.00    -0.269 OA
ATOM     19  C   UNL A   1      37.420  31.679  41.229  1.00  0.00     0.135 C 
ATOM     20  C   UNL A   1      38.189  29.725  42.614  1.00  0.00     0.147 C 
BRANCH  10  21
ATOM     21  O   UNL A   1      39.835  36.667  44.225  1.00  0.00    -0.490 OA
BRANCH  21  22
ATOM     22  C   UNL A   1      39.693  36.186  45.570  1.00  0.00     0.226 C 
ATOM     23  C   UNL A   1      39.035  37.213  46.481  1.00  0.00     0.049 C 
ENDBRANCH  21  22
ENDBRANCH  10  21
BRANCH  12  24
ATOM     24  O   UNL A   1      39.042  37.387  41.403  1.00  0.00    -0.490 OA
BRANCH  24  25
ATOM     25  C   UNL A   1      38.715  37.537  40.034  1.00  0.00     0.226 C 
ATOM     26  C   UNL A   1      39.978  37.673  39.208  1.00  0.00     0.049 C 
ENDBRANCH  24  25
ENDBRANCH  12  24
BRANCH  19  27
ATOM     27  C   UNL A   1      36.018  32.237  41.680  1.00  0.00    -0.005 A 
ATOM     28  C   UNL A   1      35.243  32.868  40.669  1.00  0.00     0.010 A 
ATOM     29  C   UNL A   1      35.462  32.260  42.987  1.00  0.00     0.049 A 
ATOM     30  C   UNL A   1      34.053  33.551  40.953  1.00  0.00     0.040 A 
ATOM     31  C   UNL A   1      34.267  32.949  43.262  1.00  0.00     0.060 A 
ATOM     32  Cl  UNL A   1      36.096  31.475  44.389  1.00  0.00    -0.084 Cl
ATOM     33  C   UNL A   1      33.585  33.598  42.252  1.00  0.00     0.124 A 
ATOM     34  F   UNL A   1      32.459  34.265  42.539  1.00  0.00    -0.207 F 
ENDBRANCH  19  27
ENDBRANCH   7   9
ENDBRANCH   6   7
ENDBRANCH   5   6
ENDBRANCH   4   5
ENDBRANCH   3   4
ENDBRANCH   2   3
ENDBRANCH   1   2
BRANCH   1  35
ATOM     35  O   UNL A   1      36.420  33.085  32.904  1.00  0.00    -0.376 OA
BRANCH  35  36
ATOM     36  C   UNL A   1      35.130  32.822  32.353  1.00  0.00     0.202 C 
BRANCH  36  37
ATOM     37  C   UNL A   1      34.856  33.235  30.892  1.00  0.00     0.261 C 
BRANCH  37  38
ATOM     38  O   UNL A   1      34.260  32.240  30.029  1.00  0.00    -0.460 OA
BRANCH  38  39
ATOM     39  C   UNL A   1      34.863  31.942  28.850  1.00  0.00     0.338 C 
ATOM     40  O   UNL A   1      34.577  32.394  27.761  1.00  0.00    -0.246 OA
BRANCH  39  41
ATOM     41  C   UNL A   1      36.137  31.214  29.149  1.00  0.00     0.060 A 
ATOM     42  C   UNL A   1      36.052  29.997  29.848  1.00  0.00     0.016 A 
ATOM     43  C   UNL A   1      37.377  31.632  28.652  1.00  0.00     0.016 A 
ATOM     44  C   UNL A   1      37.193  29.216  30.065  1.00  0.00     0.010 A 
ATOM     45  C   UNL A   1      38.521  30.858  28.885  1.00  0.00     0.010 A 
ATOM     46  C   UNL A   1      38.444  29.656  29.613  1.00  0.00    -0.014 A 
BRANCH  46  47
ATOM     47  C   UNL A   1      39.693  28.979  30.058  1.00  0.00     0.031 A 
ATOM     48  C   UNL A   1      40.412  29.537  31.258  1.00  0.00     0.074 A 
ATOM     49  C   UNL A   1      40.205  27.912  29.414  1.00  0.00     0.049 A 
ATOM     50  N   UNL A   1      41.557  29.186  31.780  1.00  0.00    -0.248 NA
ATOM     51  C   UNL A   1      39.742  30.643  31.961  1.00  0.00     0.031 C 
ATOM     52  C   UNL A   1      39.608  27.246  28.260  1.00  0.00     0.029 A 
ATOM     53  N   UNL A   1      41.374  27.220  29.635  1.00  0.00    -0.354 N 
ATOM     54  C   UNL A   1      41.765  30.048  32.851  1.00  0.00     0.074 A 
ATOM     55  C   UNL A   1      40.628  30.943  32.898  1.00  0.00     0.031 C 
ATOM     56  C   UNL A   1      40.430  26.261  27.852  1.00  0.00     0.029 A 
ATOM     57  C   UNL A   1      41.629  26.250  28.691  1.00  0.00     0.049 A 
ATOM     58  H   UNL A   1      41.973  27.401  30.395  1.00  0.00     0.167 HD
ATOM     59  C   UNL A   1      42.799  30.091  33.723  1.00  0.00     0.034 A 
ATOM     60  C   UNL A   1      42.715  25.470  28.506  1.00  0.00     0.034 A 
ATOM     61  C   UNL A   1      43.930  29.205  33.685  1.00  0.00     0.049 A 
ATOM     62  C   UNL A   1      43.891  25.585  29.448  1.00  0.00     0.074 A 
ATOM     63  C   UNL A   1      45.009  29.154  34.551  1.00  0.00     0.029 A 
ATOM     64  N   UNL A   1      44.142  28.231  32.724  1.00  0.00    -0.354 N 
ATOM     65  N   UNL A   1      44.028  26.336  30.514  1.00  0.00    -0.248 NA
ATOM     66  C   UNL A   1      45.056  24.729  29.170  1.00  0.00     0.031 C 
ATOM     67  C   UNL A   1      45.895  28.176  34.087  1.00  0.00     0.029 A 
ATOM     68  C   UNL A   1      45.346  27.588  32.960  1.00  0.00     0.049 A 
ATOM     69  H   UNL A   1      43.530  28.026  31.982  1.00  0.00     0.167 HD
ATOM     70  C   UNL A   1      45.271  26.014  31.053  1.00  0.00     0.074 A 
ATOM     71  C   UNL A   1      45.842  24.989  30.206  1.00  0.00     0.031 C 
ATOM     72  C   UNL A   1      45.888  26.530  32.145  1.00  0.00     0.034 A 
BRANCH  59  73
ATOM     73  C   UNL A   1      42.751  31.139  34.804  1.00  0.00     0.023 A 
ATOM     74  C   UNL A   1      42.326  30.789  36.102  1.00  0.00     0.012 A 
ATOM     75  C   UNL A   1      43.162  32.460  34.544  1.00  0.00     0.148 A 
ATOM     76  C   UNL A   1      42.272  31.746  37.114  1.00  0.00     0.002 A 
ATOM     77  C   UNL A   1      43.154  33.397  35.570  1.00  0.00     0.091 A 
ATOM     78  F   UNL A   1      43.542  32.778  33.299  1.00  0.00    -0.205 F 
ATOM     79  C   UNL A   1      42.696  33.046  36.851  1.00  0.00     0.022 A 
BRANCH  77  80
ATOM     80  S   UNL A   1      43.752  35.076  35.353  1.00  0.00     0.127 S 
ATOM     81  O   UNL A   1      45.129  34.843  34.919  1.00  0.00    -0.237 OA
ATOM     82  O   UNL A   1      42.862  35.586  34.310  1.00  0.00    -0.237 OA
ATOM     83  O   UNL A   1      43.607  35.726  36.648  1.00  0.00    -0.744 OA
ENDBRANCH  77  80
ENDBRANCH  59  73
BRANCH  60  84
ATOM     84  C   UNL A   1      42.755  24.489  27.380  1.00  0.00     0.023 A 
ATOM     85  C   UNL A   1      43.357  24.856  26.159  1.00  0.00     0.012 A 
ATOM     86  C   UNL A   1      42.186  23.206  27.506  1.00  0.00     0.148 A 
ATOM     87  C   UNL A   1      43.365  23.974  25.077  1.00  0.00     0.002 A 
ATOM     88  C   UNL A   1      42.246  22.314  26.440  1.00  0.00     0.091 A 
ATOM     89  F   UNL A   1      41.599  22.885  28.666  1.00  0.00    -0.205 F 
ATOM     90  C   UNL A   1      42.819  22.702  25.220  1.00  0.00     0.022 A 
BRANCH  88  91
ATOM     91  S   UNL A   1      41.669  20.618  26.565  1.00  0.00     0.127 S 
ATOM     92  O   UNL A   1      40.224  20.800  26.670  1.00  0.00    -0.237 OA
ATOM     93  O   UNL A   1      42.129  20.053  25.296  1.00  0.00    -0.237 OA
ATOM     94  O   UNL A   1      42.321  20.065  27.744  1.00  0.00    -0.744 OA
ENDBRANCH  88  91
ENDBRANCH  60  84
BRANCH  72  95
ATOM     95  C   UNL A   1      47.236  25.973  32.536  1.00  0.00     0.023 A 
ATOM     96  C   UNL A   1      48.414  26.550  32.021  1.00  0.00     0.012 A 
ATOM     97  C   UNL A   1      47.334  24.941  33.490  1.00  0.00     0.148 A 
ATOM     98  C   UNL A   1      49.666  26.090  32.430  1.00  0.00     0.002 A 
ATOM     99  C   UNL A   1      48.585  24.521  33.931  1.00  0.00     0.091 A 
ATOM    100  F   UNL A   1      46.202  24.396  33.960  1.00  0.00    -0.205 F 
ATOM    101  C   UNL A   1      49.752  25.086  33.392  1.00  0.00     0.022 A 
BRANCH  99 102
ATOM    102  S   UNL A   1      48.795  23.306  35.238  1.00  0.00     0.127 S 
ATOM    103  O   UNL A   1      48.311  22.087  34.590  1.00  0.00    -0.237 OA
ATOM    104  O   UNL A   1      50.240  23.343  35.464  1.00  0.00    -0.237 OA
ATOM    105  O   UNL A   1      47.991  23.773  36.359  1.00  0.00    -0.744 OA
ENDBRANCH  99 102
ENDBRANCH  72  95
ENDBRANCH  46  47
ENDBRANCH  39  41
ENDBRANCH  38  39
ENDBRANCH  37  38
ENDBRANCH  36  37
ENDBRANCH  35  36
ENDBRANCH   1  35
TORSDOF 25
ENDMDL
MODEL 3
REMARK VINA RESULT:      -8.8      6.757     13.567
REMARK SMILES CCOc1cc2c(cc1OCC)[C@@H](C(=O)OCCOCCOCCOC(=O)c1ccc(-c3c4nc(c(-c5cccc(S(=O)(=O)[O-])c5F)c5ccc([nH]5)c(-c5cccc(S(=O)(=O)[O-])c5F)c5nc(c(-c6cccc(S(=O)(=O)[O-])c6F)c6ccc3[nH]6)C=C5)C=C4)cc1)[C@H](c1ccc(F)cc1Cl)N(C)C2=O
REMARK SMILES IDX 21 1 20 2 19 3 18 4 17 5 16 6 14 7 15 8 13 9 4 10 5 11 9 12
REMARK SMILES IDX 6 13 8 14 7 15 102 16 100 17 103 18 91 19 101 20 3 21 2 22
REMARK SMILES IDX 1 23 10 24 11 25 12 26 92 27 93 28 98 29 94 30 97 31 99 32
REMARK SMILES IDX 95 33 96 34 22 35 23 36 24 37 25 38 26 39 27 40 28 41 29 42
REMARK SMILES IDX 90 43 30 44 89 45 31 46 32 47 33 48 83 49 34 50 88 51 82 52
REMARK SMILES IDX 84 53 35 54 87 55 81 56 80 57 36 59 68 60 48 61 67 62 49 63
REMARK SMILES IDX 52 64 66 65 85 66 50 67 51 68 65 70 86 71 53 72 37 73 38 74
REMARK SMILES IDX 46 75 39 76 41 77 47 78 40 79 42 80 43 81 44 82 45 83 69 84
REMARK SMILES IDX 70 85 78 86 71 87 73 88 79 89 72 90 74 91 75 92 76 93 77 94
REMARK SMILES IDX 54 95 55 96 63 97 56 98 58 99 64 100 57 101 59 102 60 103
REMARK SMILES IDX 61 104 62 105
REMARK H PARENT 84 58 52 69
REMARK Flexibility Score: inf
ROOT
ATOM      1  C   UNL A   1      38.599  30.127  29.649  1.00  0.00     0.188 C 
ENDROOT
BRANCH   1   2
ATOM      2  C   UNL A   1      39.952  29.448  29.864  1.00  0.00     0.188 C 
BRANCH   2   3
ATOM      3  O   UNL A   1      40.967  29.743  28.919  1.00  0.00    -0.376 OA
BRANCH   3   4
ATOM      4  C   UNL A   1      42.256  30.084  29.418  1.00  0.00     0.202 C 
BRANCH   4   5
ATOM      5  C   UNL A   1      43.232  30.790  28.463  1.00  0.00     0.261 C 
BRANCH   5   6
ATOM      6  O   UNL A   1      44.534  30.171  28.320  1.00  0.00    -0.463 OA
BRANCH   6   7
ATOM      7  C   UNL A   1      44.544  29.008  27.628  1.00  0.00     0.316 C 
ATOM      8  O   UNL A   1      44.491  28.951  26.399  1.00  0.00    -0.251 OA
BRANCH   7   9
ATOM      9  C   UNL A   1      44.538  27.716  28.451  1.00  0.00     0.157 C 
ATOM     10  C   UNL A   1      48.116  25.839  27.067  1.00  0.00     0.161 A 
ATOM     11  C   UNL A   1      46.868  25.496  26.522  1.00  0.00     0.064 A 
ATOM     12  C   UNL A   1      48.195  26.741  28.139  1.00  0.00     0.161 A 
ATOM     13  C   UNL A   1      45.713  26.112  26.965  1.00  0.00     0.048 A 
ATOM     14  C   UNL A   1      47.016  27.300  28.627  1.00  0.00     0.056 A 
ATOM     15  C   UNL A   1      45.789  26.995  28.039  1.00  0.00    -0.015 A 
ATOM     16  C   UNL A   1      44.404  25.856  26.288  1.00  0.00     0.254 C 
ATOM     17  N   UNL A   1      43.264  26.160  27.031  1.00  0.00    -0.333 N 
ATOM     18  O   UNL A   1      44.380  25.402  25.149  1.00  0.00    -0.269 OA
ATOM     19  C   UNL A   1      43.378  26.677  28.392  1.00  0.00     0.135 C 
ATOM     20  C   UNL A   1      41.948  25.919  26.466  1.00  0.00     0.147 C 
BRANCH  10  21
ATOM     21  O   UNL A   1      49.227  25.210  26.571  1.00  0.00    -0.490 OA
BRANCH  21  22
ATOM     22  C   UNL A   1      49.989  26.030  25.673  1.00  0.00     0.226 C 
ATOM     23  C   UNL A   1      51.467  26.064  26.039  1.00  0.00     0.049 C 
ENDBRANCH  21  22
ENDBRANCH  10  21
BRANCH  12  24
ATOM     24  O   UNL A   1      49.274  27.221  28.820  1.00  0.00    -0.490 OA
BRANCH  24  25
ATOM     25  C   UNL A   1      49.510  26.847  30.165  1.00  0.00     0.226 C 
ATOM     26  C   UNL A   1      50.210  25.504  30.218  1.00  0.00     0.049 C 
ENDBRANCH  24  25
ENDBRANCH  12  24
BRANCH  19  27
ATOM     27  C   UNL A   1      43.569  25.564  29.490  1.00  0.00    -0.005 A 
ATOM     28  C   UNL A   1      44.092  26.002  30.737  1.00  0.00     0.010 A 
ATOM     29  C   UNL A   1      43.359  24.165  29.367  1.00  0.00     0.049 A 
ATOM     30  C   UNL A   1      44.464  25.108  31.750  1.00  0.00     0.040 A 
ATOM     31  C   UNL A   1      43.738  23.276  30.389  1.00  0.00     0.060 A 
ATOM     32  Cl  UNL A   1      42.623  23.348  28.035  1.00  0.00    -0.084 Cl
ATOM     33  C   UNL A   1      44.299  23.750  31.557  1.00  0.00     0.124 A 
ATOM     34  F   UNL A   1      44.671  22.885  32.510  1.00  0.00    -0.207 F 
ENDBRANCH  19  27
ENDBRANCH   7   9
ENDBRANCH   6   7
ENDBRANCH   5   6
ENDBRANCH   4   5
ENDBRANCH   3   4
ENDBRANCH   2   3
ENDBRANCH   1   2
BRANCH   1  35
ATOM     35  O   UNL A   1      37.748  30.188  30.779  1.00  0.00    -0.376 OA
BRANCH  35  36
ATOM     36  C   UNL A   1      37.740  31.382  31.559  1.00  0.00     0.202 C 
BRANCH  36  37
ATOM     37  C   UNL A   1      38.347  31.339  32.977  1.00  0.00     0.261 C 
BRANCH  37  38
ATOM     38  O   UNL A   1      39.314  30.299  33.247  1.00  0.00    -0.460 OA
BRANCH  38  39
ATOM     39  C   UNL A   1      39.621  30.000  34.535  1.00  0.00     0.338 C 
ATOM     40  O   UNL A   1      38.872  30.071  35.488  1.00  0.00    -0.246 OA
BRANCH  39  41
ATOM     41  C   UNL A   1      40.928  29.270  34.546  1.00  0.00     0.060 A 
ATOM     42  C   UNL A   1      41.657  29.243  35.748  1.00  0.00     0.016 A 
ATOM     43  C   UNL A   1      41.379  28.519  33.456  1.00  0.00     0.016 A 
ATOM     44  C   UNL A   1      42.832  28.489  35.855  1.00  0.00     0.010 A 
ATOM     45  C   UNL A   1      42.564  27.779  33.558  1.00  0.00     0.010 A 
ATOM     46  C   UNL A   1      43.313  27.776  34.749  1.00  0.00    -0.014 A 
BRANCH  46  47
ATOM     47  C   UNL A   1      44.681  27.190  34.761  1.00  0.00     0.031 A 
ATOM     48  C   UNL A   1      45.830  28.064  34.331  1.00  0.00     0.074 A 
ATOM     49  C   UNL A   1      44.918  25.912  35.118  1.00  0.00     0.049 A 
ATOM     50  N   UNL A   1      47.091  27.761  34.168  1.00  0.00    -0.248 NA
ATOM     51  C   UNL A   1      45.505  29.471  34.046  1.00  0.00     0.031 C 
ATOM     52  C   UNL A   1      43.914  24.959  35.584  1.00  0.00     0.029 A 
ATOM     53  N   UNL A   1      46.090  25.191  35.112  1.00  0.00    -0.354 N 
ATOM     54  C   UNL A   1      47.705  28.929  33.727  1.00  0.00     0.074 A 
ATOM     55  C   UNL A   1      46.676  29.942  33.644  1.00  0.00     0.031 C 
ATOM     56  C   UNL A   1      44.507  23.768  35.789  1.00  0.00     0.029 A 
ATOM     57  C   UNL A   1      45.924  23.863  35.433  1.00  0.00     0.049 A 
ATOM     58  H   UNL A   1      46.965  25.588  34.899  1.00  0.00     0.167 HD
ATOM     59  C   UNL A   1      49.008  29.146  33.427  1.00  0.00     0.034 A 
ATOM     60  C   UNL A   1      46.802  22.837  35.409  1.00  0.00     0.034 A 
ATOM     61  C   UNL A   1      50.037  28.147  33.510  1.00  0.00     0.049 A 
ATOM     62  C   UNL A   1      48.235  23.087  34.999  1.00  0.00     0.074 A 
ATOM     63  C   UNL A   1      51.391  28.287  33.258  1.00  0.00     0.029 A 
ATOM     64  N   UNL A   1      49.829  26.820  33.850  1.00  0.00    -0.354 N 
ATOM     65  N   UNL A   1      48.821  24.216  34.683  1.00  0.00    -0.248 NA
ATOM     66  C   UNL A   1      49.132  21.921  34.963  1.00  0.00     0.031 C 
ATOM     67  C   UNL A   1      51.995  27.034  33.405  1.00  0.00     0.029 A 
ATOM     68  C   UNL A   1      51.025  26.124  33.793  1.00  0.00     0.049 A 
ATOM     69  H   UNL A   1      48.960  26.429  34.096  1.00  0.00     0.167 HD
ATOM     70  C   UNL A   1      50.158  23.902  34.450  1.00  0.00     0.074 A 
ATOM     71  C   UNL A   1      50.300  22.480  34.677  1.00  0.00     0.031 C 
ATOM     72  C   UNL A   1      51.174  24.718  34.072  1.00  0.00     0.034 A 
BRANCH  59  73
ATOM     73  C   UNL A   1      49.394  30.532  32.981  1.00  0.00     0.023 A 
ATOM     74  C   UNL A   1      49.867  31.466  33.925  1.00  0.00     0.012 A 
ATOM     75  C   UNL A   1      49.325  30.895  31.623  1.00  0.00     0.148 A 
ATOM     76  C   UNL A   1      50.226  32.754  33.530  1.00  0.00     0.002 A 
ATOM     77  C   UNL A   1      49.732  32.164  31.228  1.00  0.00     0.091 A 
ATOM     78  F   UNL A   1      48.853  29.999  30.744  1.00  0.00    -0.205 F 
ATOM     79  C   UNL A   1      50.169  33.098  32.182  1.00  0.00     0.022 A 
BRANCH  77  80
ATOM     80  S   UNL A   1      49.770  32.678  29.509  1.00  0.00     0.127 S 
ATOM     81  O   UNL A   1      50.730  31.733  28.940  1.00  0.00    -0.237 OA
ATOM     82  O   UNL A   1      48.384  32.464  29.094  1.00  0.00    -0.237 OA
ATOM     83  O   UNL A   1      50.194  34.071  29.515  1.00  0.00    -0.744 OA
ENDBRANCH  77  80
ENDBRANCH  59  73
BRANCH  60  84
ATOM     84  C   UNL A   1      46.365  21.462  35.792  1.00  0.00     0.023 A 
ATOM     85  C   UNL A   1      45.731  20.641  34.838  1.00  0.00     0.012 A 
ATOM     86  C   UNL A   1      46.557  20.970  37.099  1.00  0.00     0.148 A 
ATOM     87  C   UNL A   1      45.271  19.370  35.184  1.00  0.00     0.002 A 
ATOM     88  C   UNL A   1      46.145  19.682  37.422  1.00  0.00     0.091 A 
ATOM     89  F   UNL A   1      47.141  21.773  37.998  1.00  0.00    -0.205 F 
ATOM     90  C   UNL A   1      45.486  18.887  36.472  1.00  0.00     0.022 A 
BRANCH  88  91
ATOM     91  S   UNL A   1      46.476  18.932  39.020  1.00  0.00     0.127 S 
ATOM     92  O   UNL A   1      45.874  19.898  39.934  1.00  0.00    -0.237 OA
ATOM     93  O   UNL A   1      45.760  17.661  38.907  1.00  0.00    -0.237 OA
ATOM     94  O   UNL A   1      47.924  18.804  39.104  1.00  0.00    -0.744 OA
ENDBRANCH  88  91
ENDBRANCH  60  84
BRANCH  72  95
ATOM     95  C   UNL A   1      52.552  24.121  33.920  1.00  0.00     0.023 A 
ATOM     96  C   UNL A   1      52.938  23.538  32.697  1.00  0.00     0.012 A 
ATOM     97  C   UNL A   1      53.497  24.228  34.960  1.00  0.00     0.148 A 
ATOM     98  C   UNL A   1      54.232  23.047  32.521  1.00  0.00     0.002 A 
ATOM     99  C   UNL A   1      54.799  23.783  34.762  1.00  0.00     0.091 A 
ATOM    100  F   UNL A   1      53.108  24.776  36.122  1.00  0.00    -0.205 F 
ATOM    101  C   UNL A   1      55.165  23.181  33.548  1.00  0.00     0.022 A 
BRANCH  99 102
ATOM    102  S   UNL A   1      56.095  24.001  35.988  1.00  0.00     0.127 S 
ATOM    103  O   UNL A   1      56.187  25.458  36.067  1.00  0.00    -0.237 OA
ATOM    104  O   UNL A   1      55.514  23.361  37.168  1.00  0.00    -0.237 OA
ATOM    105  O   UNL A   1      57.274  23.334  35.453  1.00  0.00    -0.744 OA
ENDBRANCH  99 102
ENDBRANCH  72  95
ENDBRANCH  46  47
ENDBRANCH  39  41
ENDBRANCH  38  39
ENDBRANCH  37  38
ENDBRANCH  36  37
ENDBRANCH  35  36
ENDBRANCH   1  35
TORSDOF 25
ENDMDL
