MODEL 1
REMARK VINA RESULT:      -9.4      0.000      0.000
REMARK SMILES COc1ccc(OCc2cccs2)c(C(=O)OCCOCCOCCOC(=O)c2ccc(-c3c4nc(c(-c5cccc(S(=O)(=O)[O-])c5F)c5ccc([nH]5)c(-c5cccc(S(=O)(=O)[O-])c5F)c5nc(c(-c6cccc(S(=O)(=O)[O-])c6F)c6ccc3[nH]6)C=C5)C=C4)cc2)c1
REMARK SMILES IDX 21 1 20 2 19 3 18 4 17 5 15 6 16 7 14 8 3 9 4 10 92 11 5 12
REMARK SMILES IDX 6 13 2 14 1 15 7 16 8 17 9 18 10 19 13 20 11 21 12 22 22 23
REMARK SMILES IDX 23 24 24 25 25 26 26 27 27 28 28 29 29 30 30 31 91 32 31 33
REMARK SMILES IDX 90 34 32 35 33 36 34 37 84 38 35 39 89 40 83 41 85 42 36 43
REMARK SMILES IDX 88 44 82 45 81 46 37 48 69 49 49 50 68 51 50 52 53 53 67 54
REMARK SMILES IDX 86 55 51 56 52 57 66 59 87 60 54 61 38 62 39 63 47 64 40 65
REMARK SMILES IDX 42 66 48 67 41 68 43 69 44 70 45 71 46 72 70 73 71 74 79 75
REMARK SMILES IDX 72 76 74 77 80 78 73 79 75 80 76 81 77 82 78 83 55 84 56 85
REMARK SMILES IDX 64 86 57 87 59 88 65 89 58 90 60 91 61 92 62 93 63 94
REMARK H PARENT 85 47 53 58
REMARK Flexibility Score: inf
ROOT
ATOM      1  C   UNL A   1      40.579  21.457  27.221  1.00  0.00     0.188 C 
ENDROOT
BRANCH   1   2
ATOM      2  O   UNL A   1      39.730  22.267  26.415  1.00  0.00    -0.376 OA
BRANCH   2   3
ATOM      3  C   UNL A   1      38.674  21.590  25.743  1.00  0.00     0.202 C 
BRANCH   3   4
ATOM      4  C   UNL A   1      37.325  22.298  25.889  1.00  0.00     0.261 C 
BRANCH   4   5
ATOM      5  O   UNL A   1      37.140  23.326  24.902  1.00  0.00    -0.460 OA
BRANCH   5   6
ATOM      6  C   UNL A   1      36.114  23.138  24.034  1.00  0.00     0.342 C 
ATOM      7  O   UNL A   1      36.265  22.942  22.846  1.00  0.00    -0.246 OA
BRANCH   6   8
ATOM      8  C   UNL A   1      34.841  23.218  24.799  1.00  0.00     0.105 A 
ATOM      9  C   UNL A   1      33.289  24.815  25.832  1.00  0.00     0.119 A 
ATOM     10  C   UNL A   1      32.594  23.762  26.402  1.00  0.00     0.050 A 
ATOM     11  C   UNL A   1      34.417  24.545  25.060  1.00  0.00     0.066 A 
ATOM     12  C   UNL A   1      32.980  22.452  26.126  1.00  0.00     0.051 A 
ATOM     13  C   UNL A   1      34.082  22.149  25.299  1.00  0.00     0.134 A 
BRANCH   9  14
ATOM     14  O   UNL A   1      32.824  26.068  26.118  1.00  0.00    -0.497 OA
ATOM     15  C   UNL A   1      31.636  26.430  25.421  1.00  0.00     0.278 C 
ENDBRANCH   9  14
BRANCH  13  16
ATOM     16  O   UNL A   1      34.160  20.797  25.150  1.00  0.00    -0.487 OA
BRANCH  16  17
ATOM     17  C   UNL A   1      33.265  19.976  24.406  1.00  0.00     0.276 C 
BRANCH  17  18
ATOM     18  C   UNL A   1      33.318  18.546  24.846  1.00  0.00     0.042 A 
ATOM     19  C   UNL A   1      32.527  17.838  25.735  1.00  0.00     0.019 A 
ATOM     20  S   UNL A   1      34.451  17.508  24.069  1.00  0.00    -0.145 S 
ATOM     21  C   UNL A   1      32.694  16.430  25.594  1.00  0.00     0.012 A 
ATOM     22  C   UNL A   1      33.696  16.115  24.706  1.00  0.00     0.065 A 
ENDBRANCH  17  18
ENDBRANCH  16  17
ENDBRANCH  13  16
ENDBRANCH   6   8
ENDBRANCH   5   6
ENDBRANCH   4   5
ENDBRANCH   3   4
ENDBRANCH   2   3
ENDBRANCH   1   2
BRANCH   1  23
ATOM     23  C   UNL A   1      40.732  19.993  26.754  1.00  0.00     0.188 C 
BRANCH  23  24
ATOM     24  O   UNL A   1      41.829  19.620  25.928  1.00  0.00    -0.376 OA
BRANCH  24  25
ATOM     25  C   UNL A   1      42.592  18.474  26.276  1.00  0.00     0.202 C 
BRANCH  25  26
ATOM     26  C   UNL A   1      43.841  18.167  25.444  1.00  0.00     0.261 C 
BRANCH  26  27
ATOM     27  O   UNL A   1      44.827  19.213  25.469  1.00  0.00    -0.460 OA
BRANCH  27  28
ATOM     28  C   UNL A   1      44.719  20.134  24.479  1.00  0.00     0.338 C 
ATOM     29  O   UNL A   1      44.721  19.922  23.277  1.00  0.00    -0.246 OA
BRANCH  28  30
ATOM     30  C   UNL A   1      44.412  21.463  25.048  1.00  0.00     0.060 A 
ATOM     31  C   UNL A   1      44.103  22.501  24.157  1.00  0.00     0.016 A 
ATOM     32  C   UNL A   1      44.505  21.712  26.418  1.00  0.00     0.016 A 
ATOM     33  C   UNL A   1      43.946  23.805  24.627  1.00  0.00     0.010 A 
ATOM     34  C   UNL A   1      44.370  23.025  26.885  1.00  0.00     0.010 A 
ATOM     35  C   UNL A   1      44.135  24.081  25.986  1.00  0.00    -0.014 A 
BRANCH  35  36
ATOM     36  C   UNL A   1      44.303  25.487  26.431  1.00  0.00     0.031 A 
ATOM     37  C   UNL A   1      45.671  26.110  26.332  1.00  0.00     0.074 A 
ATOM     38  C   UNL A   1      43.271  26.199  26.918  1.00  0.00     0.049 A 
ATOM     39  N   UNL A   1      46.066  27.303  26.689  1.00  0.00    -0.248 NA
ATOM     40  C   UNL A   1      46.735  25.269  25.755  1.00  0.00     0.031 C 
ATOM     41  C   UNL A   1      41.899  25.719  27.054  1.00  0.00     0.029 A 
ATOM     42  N   UNL A   1      43.235  27.479  27.415  1.00  0.00    -0.354 N 
ATOM     43  C   UNL A   1      47.425  27.351  26.406  1.00  0.00     0.074 A 
ATOM     44  C   UNL A   1      47.790  26.064  25.855  1.00  0.00     0.031 C 
ATOM     45  C   UNL A   1      41.158  26.681  27.634  1.00  0.00     0.029 A 
ATOM     46  C   UNL A   1      42.008  27.836  27.923  1.00  0.00     0.049 A 
ATOM     47  H   UNL A   1      44.012  28.082  27.408  1.00  0.00     0.167 HD
ATOM     48  C   UNL A   1      48.293  28.376  26.574  1.00  0.00     0.034 A 
ATOM     49  C   UNL A   1      41.624  28.958  28.565  1.00  0.00     0.034 A 
ATOM     50  C   UNL A   1      47.934  29.662  27.102  1.00  0.00     0.049 A 
ATOM     51  C   UNL A   1      42.618  30.075  28.769  1.00  0.00     0.074 A 
ATOM     52  C   UNL A   1      48.734  30.779  27.264  1.00  0.00     0.029 A 
ATOM     53  N   UNL A   1      46.673  30.001  27.566  1.00  0.00    -0.354 N 
ATOM     54  N   UNL A   1      43.867  30.153  28.377  1.00  0.00    -0.248 NA
ATOM     55  C   UNL A   1      42.139  31.271  29.479  1.00  0.00     0.031 C 
ATOM     56  C   UNL A   1      47.960  31.789  27.845  1.00  0.00     0.029 A 
ATOM     57  C   UNL A   1      46.674  31.305  28.028  1.00  0.00     0.049 A 
ATOM     58  H   UNL A   1      45.892  29.402  27.567  1.00  0.00     0.167 HD
ATOM     59  C   UNL A   1      44.310  31.416  28.758  1.00  0.00     0.074 A 
ATOM     60  C   UNL A   1      43.191  32.076  29.398  1.00  0.00     0.031 C 
ATOM     61  C   UNL A   1      45.536  31.974  28.605  1.00  0.00     0.034 A 
BRANCH  48  62
ATOM     62  C   UNL A   1      49.720  28.153  26.149  1.00  0.00     0.023 A 
ATOM     63  C   UNL A   1      50.051  28.208  24.780  1.00  0.00     0.012 A 
ATOM     64  C   UNL A   1      50.733  27.934  27.100  1.00  0.00     0.148 A 
ATOM     65  C   UNL A   1      51.367  28.020  24.362  1.00  0.00     0.002 A 
ATOM     66  C   UNL A   1      52.049  27.784  26.679  1.00  0.00     0.091 A 
ATOM     67  F   UNL A   1      50.391  27.856  28.394  1.00  0.00    -0.205 F 
ATOM     68  C   UNL A   1      52.367  27.819  25.312  1.00  0.00     0.022 A 
BRANCH  66  69
ATOM     69  S   UNL A   1      53.412  27.588  27.833  1.00  0.00     0.127 S 
ATOM     70  O   UNL A   1      53.273  28.786  28.660  1.00  0.00    -0.237 OA
ATOM     71  O   UNL A   1      53.069  26.337  28.511  1.00  0.00    -0.237 OA
ATOM     72  O   UNL A   1      54.617  27.522  27.018  1.00  0.00    -0.744 OA
ENDBRANCH  66  69
ENDBRANCH  48  62
BRANCH  49  73
ATOM     73  C   UNL A   1      40.218  29.104  29.033  1.00  0.00     0.023 A 
ATOM     74  C   UNL A   1      39.196  29.337  28.091  1.00  0.00     0.012 A 
ATOM     75  C   UNL A   1      39.885  29.009  30.398  1.00  0.00     0.148 A 
ATOM     76  C   UNL A   1      37.873  29.498  28.503  1.00  0.00     0.002 A 
ATOM     77  C   UNL A   1      38.558  29.122  30.797  1.00  0.00     0.091 A 
ATOM     78  F   UNL A   1      40.874  28.812  31.281  1.00  0.00    -0.205 F 
ATOM     79  C   UNL A   1      37.553  29.381  29.853  1.00  0.00     0.022 A 
BRANCH  77  80
ATOM     80  S   UNL A   1      38.042  28.871  32.499  1.00  0.00     0.127 S 
ATOM     81  O   UNL A   1      38.969  29.737  33.224  1.00  0.00    -0.237 OA
ATOM     82  O   UNL A   1      36.657  29.340  32.470  1.00  0.00    -0.237 OA
ATOM     83  O   UNL A   1      38.184  27.442  32.743  1.00  0.00    -0.744 OA
ENDBRANCH  77  80
ENDBRANCH  49  73
BRANCH  61  84
ATOM     84  C   UNL A   1      45.740  33.383  29.104  1.00  0.00     0.023 A 
ATOM     85  C   UNL A   1      46.321  33.596  30.368  1.00  0.00     0.012 A 
ATOM     86  C   UNL A   1      45.442  34.489  28.284  1.00  0.00     0.148 A 
ATOM     87  C   UNL A   1      46.580  34.890  30.821  1.00  0.00     0.002 A 
ATOM     88  C   UNL A   1      45.743  35.773  28.722  1.00  0.00     0.091 A 
ATOM     89  F   UNL A   1      44.871  34.267  27.090  1.00  0.00    -0.205 F 
ATOM     90  C   UNL A   1      46.304  35.977  29.994  1.00  0.00     0.022 A 
BRANCH  88  91
ATOM     91  S   UNL A   1      45.507  37.221  27.683  1.00  0.00     0.127 S 
ATOM     92  O   UNL A   1      44.310  36.854  26.928  1.00  0.00    -0.237 OA
ATOM     93  O   UNL A   1      45.304  38.285  28.667  1.00  0.00    -0.237 OA
ATOM     94  O   UNL A   1      46.729  37.352  26.900  1.00  0.00    -0.744 OA
ENDBRANCH  88  91
ENDBRANCH  61  84
ENDBRANCH  35  36
ENDBRANCH  28  30
ENDBRANCH  27  28
ENDBRANCH  26  27
ENDBRANCH  25  26
ENDBRANCH  24  25
ENDBRANCH  23  24
ENDBRANCH   1  23
TORSDOF 24
ENDMDL
MODEL 2
REMARK VINA RESULT:      -8.7      4.676      6.630
REMARK SMILES COc1ccc(OCc2cccs2)c(C(=O)OCCOCCOCCOC(=O)c2ccc(-c3c4nc(c(-c5cccc(S(=O)(=O)[O-])c5F)c5ccc([nH]5)c(-c5cccc(S(=O)(=O)[O-])c5F)c5nc(c(-c6cccc(S(=O)(=O)[O-])c6F)c6ccc3[nH]6)C=C5)C=C4)cc2)c1
REMARK SMILES IDX 21 1 20 2 19 3 18 4 17 5 15 6 16 7 14 8 3 9 4 10 92 11 5 12
REMARK SMILES IDX 6 13 2 14 1 15 7 16 8 17 9 18 10 19 13 20 11 21 12 22 22 23
REMARK SMILES IDX 23 24 24 25 25 26 26 27 27 28 28 29 29 30 30 31 91 32 31 33
REMARK SMILES IDX 90 34 32 35 33 36 34 37 84 38 35 39 89 40 83 41 85 42 36 43
REMARK SMILES IDX 88 44 82 45 81 46 37 48 69 49 49 50 68 51 50 52 53 53 67 54
REMARK SMILES IDX 86 55 51 56 52 57 66 59 87 60 54 61 38 62 39 63 47 64 40 65
REMARK SMILES IDX 42 66 48 67 41 68 43 69 44 70 45 71 46 72 70 73 71 74 79 75
REMARK SMILES IDX 72 76 74 77 80 78 73 79 75 80 76 81 77 82 78 83 55 84 56 85
REMARK SMILES IDX 64 86 57 87 59 88 65 89 58 90 60 91 61 92 62 93 63 94
REMARK H PARENT 85 47 53 58
REMARK Flexibility Score: inf
ROOT
ATOM      1  C   UNL A   1      40.077  20.713  26.433  1.00  0.00     0.188 C 
ENDROOT
BRANCH   1   2
ATOM      2  O   UNL A   1      39.094  21.740  26.365  1.00  0.00    -0.376 OA
BRANCH   2   3
ATOM      3  C   UNL A   1      38.050  21.545  25.418  1.00  0.00     0.202 C 
BRANCH   3   4
ATOM      4  C   UNL A   1      36.855  22.472  25.650  1.00  0.00     0.261 C 
BRANCH   4   5
ATOM      5  O   UNL A   1      35.621  21.747  25.779  1.00  0.00    -0.460 OA
BRANCH   5   6
ATOM      6  C   UNL A   1      34.502  22.501  25.932  1.00  0.00     0.342 C 
ATOM      7  O   UNL A   1      34.131  22.946  26.997  1.00  0.00    -0.246 OA
BRANCH   6   8
ATOM      8  C   UNL A   1      33.866  22.659  24.596  1.00  0.00     0.105 A 
ATOM      9  C   UNL A   1      33.448  24.304  22.823  1.00  0.00     0.119 A 
ATOM     10  C   UNL A   1      32.626  23.394  22.180  1.00  0.00     0.050 A 
ATOM     11  C   UNL A   1      34.041  23.948  24.032  1.00  0.00     0.066 A 
ATOM     12  C   UNL A   1      32.473  22.112  22.707  1.00  0.00     0.051 A 
ATOM     13  C   UNL A   1      33.109  21.706  23.899  1.00  0.00     0.134 A 
BRANCH   9  14
ATOM     14  O   UNL A   1      33.579  25.524  22.222  1.00  0.00    -0.497 OA
ATOM     15  C   UNL A   1      33.429  26.634  23.102  1.00  0.00     0.278 C 
ENDBRANCH   9  14
BRANCH  13  16
ATOM     16  O   UNL A   1      32.839  20.388  24.112  1.00  0.00    -0.487 OA
BRANCH  16  17
ATOM     17  C   UNL A   1      32.804  19.725  25.372  1.00  0.00     0.276 C 
BRANCH  17  18
ATOM     18  C   UNL A   1      33.170  18.278  25.255  1.00  0.00     0.042 A 
ATOM     19  C   UNL A   1      32.554  17.141  25.749  1.00  0.00     0.019 A 
ATOM     20  S   UNL A   1      34.505  17.866  24.247  1.00  0.00    -0.145 S 
ATOM     21  C   UNL A   1      33.027  15.958  25.111  1.00  0.00     0.012 A 
ATOM     22  C   UNL A   1      34.074  16.214  24.258  1.00  0.00     0.065 A 
ENDBRANCH  17  18
ENDBRANCH  16  17
ENDBRANCH  13  16
ENDBRANCH   6   8
ENDBRANCH   5   6
ENDBRANCH   4   5
ENDBRANCH   3   4
ENDBRANCH   2   3
ENDBRANCH   1   2
BRANCH   1  23
ATOM     23  C   UNL A   1      41.521  21.199  26.688  1.00  0.00     0.188 C 
BRANCH  23  24
ATOM     24  O   UNL A   1      42.425  21.348  25.599  1.00  0.00    -0.376 OA
BRANCH  24  25
ATOM     25  C   UNL A   1      43.149  22.563  25.469  1.00  0.00     0.202 C 
BRANCH  25  26
ATOM     26  C   UNL A   1      44.676  22.479  25.379  1.00  0.00     0.261 C 
BRANCH  26  27
ATOM     27  O   UNL A   1      45.357  23.549  26.054  1.00  0.00    -0.460 OA
BRANCH  27  28
ATOM     28  C   UNL A   1      45.278  24.759  25.447  1.00  0.00     0.338 C 
ATOM     29  O   UNL A   1      45.751  25.070  24.365  1.00  0.00    -0.246 OA
BRANCH  28  30
ATOM     30  C   UNL A   1      44.367  25.649  26.196  1.00  0.00     0.060 A 
ATOM     31  C   UNL A   1      44.721  27.001  26.314  1.00  0.00     0.016 A 
ATOM     32  C   UNL A   1      43.230  25.158  26.842  1.00  0.00     0.016 A 
ATOM     33  C   UNL A   1      43.976  27.854  27.128  1.00  0.00     0.010 A 
ATOM     34  C   UNL A   1      42.497  26.010  27.675  1.00  0.00     0.010 A 
ATOM     35  C   UNL A   1      42.893  27.348  27.857  1.00  0.00    -0.014 A 
BRANCH  35  36
ATOM     36  C   UNL A   1      42.316  28.151  28.963  1.00  0.00     0.031 A 
ATOM     37  C   UNL A   1      43.035  28.166  30.286  1.00  0.00     0.074 A 
ATOM     38  C   UNL A   1      41.178  28.849  28.806  1.00  0.00     0.049 A 
ATOM     39  N   UNL A   1      42.706  28.762  31.402  1.00  0.00    -0.248 NA
ATOM     40  C   UNL A   1      44.292  27.400  30.360  1.00  0.00     0.031 C 
ATOM     41  C   UNL A   1      40.394  28.928  27.577  1.00  0.00     0.029 A 
ATOM     42  N   UNL A   1      40.471  29.605  29.709  1.00  0.00    -0.354 N 
ATOM     43  C   UNL A   1      43.698  28.427  32.316  1.00  0.00     0.074 A 
ATOM     44  C   UNL A   1      44.636  27.567  31.628  1.00  0.00     0.031 C 
ATOM     45  C   UNL A   1      39.291  29.663  27.811  1.00  0.00     0.029 A 
ATOM     46  C   UNL A   1      39.286  30.091  29.210  1.00  0.00     0.049 A 
ATOM     47  H   UNL A   1      40.783  29.783  30.625  1.00  0.00     0.167 HD
ATOM     48  C   UNL A   1      43.827  28.809  33.608  1.00  0.00     0.034 A 
ATOM     49  C   UNL A   1      38.302  30.784  29.820  1.00  0.00     0.034 A 
ATOM     50  C   UNL A   1      42.910  29.677  34.290  1.00  0.00     0.049 A 
ATOM     51  C   UNL A   1      38.454  31.171  31.270  1.00  0.00     0.074 A 
ATOM     52  C   UNL A   1      42.984  30.158  35.586  1.00  0.00     0.029 A 
ATOM     53  N   UNL A   1      41.744  30.183  33.740  1.00  0.00    -0.354 N 
ATOM     54  N   UNL A   1      39.462  30.956  32.082  1.00  0.00    -0.248 NA
ATOM     55  C   UNL A   1      37.346  31.923  31.879  1.00  0.00     0.031 C 
ATOM     56  C   UNL A   1      41.850  30.943  35.824  1.00  0.00     0.029 A 
ATOM     57  C   UNL A   1      41.080  30.963  34.672  1.00  0.00     0.049 A 
ATOM     58  H   UNL A   1      41.432  30.015  32.822  1.00  0.00     0.167 HD
ATOM     59  C   UNL A   1      39.125  31.577  33.282  1.00  0.00     0.074 A 
ATOM     60  C   UNL A   1      37.828  32.191  33.085  1.00  0.00     0.031 C 
ATOM     61  C   UNL A   1      39.821  31.622  34.445  1.00  0.00     0.034 A 
BRANCH  48  62
ATOM     62  C   UNL A   1      45.031  28.309  34.361  1.00  0.00     0.023 A 
ATOM     63  C   UNL A   1      44.950  27.091  35.065  1.00  0.00     0.012 A 
ATOM     64  C   UNL A   1      46.245  29.018  34.339  1.00  0.00     0.148 A 
ATOM     65  C   UNL A   1      46.054  26.599  35.758  1.00  0.00     0.002 A 
ATOM     66  C   UNL A   1      47.353  28.503  35.001  1.00  0.00     0.091 A 
ATOM     67  F   UNL A   1      46.292  30.189  33.688  1.00  0.00    -0.205 F 
ATOM     68  C   UNL A   1      47.258  27.299  35.718  1.00  0.00     0.022 A 
BRANCH  66  69
ATOM     69  S   UNL A   1      48.963  29.300  34.948  1.00  0.00     0.127 S 
ATOM     70  O   UNL A   1      48.678  30.582  35.590  1.00  0.00    -0.237 OA
ATOM     71  O   UNL A   1      49.787  28.390  35.744  1.00  0.00    -0.237 OA
ATOM     72  O   UNL A   1      49.326  29.368  33.540  1.00  0.00    -0.744 OA
ENDBRANCH  66  69
ENDBRANCH  48  62
BRANCH  49  73
ATOM     73  C   UNL A   1      37.094  31.195  29.051  1.00  0.00     0.023 A 
ATOM     74  C   UNL A   1      36.853  32.563  28.819  1.00  0.00     0.012 A 
ATOM     75  C   UNL A   1      36.187  30.242  28.546  1.00  0.00     0.148 A 
ATOM     76  C   UNL A   1      35.719  32.977  28.120  1.00  0.00     0.002 A 
ATOM     77  C   UNL A   1      35.085  30.659  27.809  1.00  0.00     0.091 A 
ATOM     78  F   UNL A   1      36.420  28.947  28.799  1.00  0.00    -0.205 F 
ATOM     79  C   UNL A   1      34.841  32.026  27.607  1.00  0.00     0.022 A 
BRANCH  77  80
ATOM     80  S   UNL A   1      33.966  29.499  27.016  1.00  0.00     0.127 S 
ATOM     81  O   UNL A   1      34.870  28.769  26.130  1.00  0.00    -0.237 OA
ATOM     82  O   UNL A   1      33.466  28.729  28.155  1.00  0.00    -0.237 OA
ATOM     83  O   UNL A   1      32.957  30.318  26.358  1.00  0.00    -0.744 OA
ENDBRANCH  77  80
ENDBRANCH  49  73
BRANCH  61  84
ATOM     84  C   UNL A   1      39.221  32.387  35.598  1.00  0.00     0.023 A 
ATOM     85  C   UNL A   1      38.231  31.781  36.396  1.00  0.00     0.012 A 
ATOM     86  C   UNL A   1      39.703  33.664  35.946  1.00  0.00     0.148 A 
ATOM     87  C   UNL A   1      37.712  32.444  37.507  1.00  0.00     0.002 A 
ATOM     88  C   UNL A   1      39.212  34.301  37.080  1.00  0.00     0.091 A 
ATOM     89  F   UNL A   1      40.631  34.234  35.163  1.00  0.00    -0.205 F 
ATOM     90  C   UNL A   1      38.210  33.697  37.857  1.00  0.00     0.022 A 
BRANCH  88  91
ATOM     91  S   UNL A   1      39.867  35.874  37.654  1.00  0.00     0.127 S 
ATOM     92  O   UNL A   1      41.254  35.527  37.956  1.00  0.00    -0.237 OA
ATOM     93  O   UNL A   1      39.695  36.733  36.482  1.00  0.00    -0.237 OA
ATOM     94  O   UNL A   1      39.049  36.251  38.799  1.00  0.00    -0.744 OA
ENDBRANCH  88  91
ENDBRANCH  61  84
ENDBRANCH  35  36
ENDBRANCH  28  30
ENDBRANCH  27  28
ENDBRANCH  26  27
ENDBRANCH  25  26
ENDBRANCH  24  25
ENDBRANCH  23  24
ENDBRANCH   1  23
TORSDOF 24
ENDMDL
MODEL 3
REMARK VINA RESULT:      -8.5      5.270     10.628
REMARK SMILES COc1ccc(OCc2cccs2)c(C(=O)OCCOCCOCCOC(=O)c2ccc(-c3c4nc(c(-c5cccc(S(=O)(=O)[O-])c5F)c5ccc([nH]5)c(-c5cccc(S(=O)(=O)[O-])c5F)c5nc(c(-c6cccc(S(=O)(=O)[O-])c6F)c6ccc3[nH]6)C=C5)C=C4)cc2)c1
REMARK SMILES IDX 21 1 20 2 19 3 18 4 17 5 15 6 16 7 14 8 3 9 4 10 92 11 5 12
REMARK SMILES IDX 6 13 2 14 1 15 7 16 8 17 9 18 10 19 13 20 11 21 12 22 22 23
REMARK SMILES IDX 23 24 24 25 25 26 26 27 27 28 28 29 29 30 30 31 91 32 31 33
REMARK SMILES IDX 90 34 32 35 33 36 34 37 84 38 35 39 89 40 83 41 85 42 36 43
REMARK SMILES IDX 88 44 82 45 81 46 37 48 69 49 49 50 68 51 50 52 53 53 67 54
REMARK SMILES IDX 86 55 51 56 52 57 66 59 87 60 54 61 38 62 39 63 47 64 40 65
REMARK SMILES IDX 42 66 48 67 41 68 43 69 44 70 45 71 46 72 70 73 71 74 79 75
REMARK SMILES IDX 72 76 74 77 80 78 73 79 75 80 76 81 77 82 78 83 55 84 56 85
REMARK SMILES IDX 64 86 57 87 59 88 65 89 58 90 60 91 61 92 62 93 63 94
REMARK H PARENT 85 47 53 58
REMARK Flexibility Score: inf
ROOT
ATOM      1  C   UNL A   1      35.594  30.642  28.326  1.00  0.00     0.188 C 
ENDROOT
BRANCH   1   2
ATOM      2  O   UNL A   1      35.867  29.550  27.456  1.00  0.00    -0.376 OA
BRANCH   2   3
ATOM      3  C   UNL A   1      34.738  28.944  26.839  1.00  0.00     0.202 C 
BRANCH   3   4
ATOM      4  C   UNL A   1      33.414  29.589  27.255  1.00  0.00     0.261 C 
BRANCH   4   5
ATOM      5  O   UNL A   1      32.318  29.163  26.430  1.00  0.00    -0.460 OA
BRANCH   5   6
ATOM      6  C   UNL A   1      31.563  28.148  26.923  1.00  0.00     0.342 C 
ATOM      7  O   UNL A   1      31.206  28.075  28.080  1.00  0.00    -0.246 OA
BRANCH   6   8
ATOM      8  C   UNL A   1      31.283  27.199  25.811  1.00  0.00     0.105 A 
ATOM      9  C   UNL A   1      31.469  24.835  25.177  1.00  0.00     0.119 A 
ATOM     10  C   UNL A   1      31.085  25.157  23.887  1.00  0.00     0.050 A 
ATOM     11  C   UNL A   1      31.591  25.851  26.123  1.00  0.00     0.066 A 
ATOM     12  C   UNL A   1      30.746  26.473  23.577  1.00  0.00     0.051 A 
ATOM     13  C   UNL A   1      30.804  27.511  24.530  1.00  0.00     0.134 A 
BRANCH   9  14
ATOM     14  O   UNL A   1      31.745  23.517  25.412  1.00  0.00    -0.497 OA
ATOM     15  C   UNL A   1      30.652  22.770  25.937  1.00  0.00     0.278 C 
ENDBRANCH   9  14
BRANCH  13  16
ATOM     16  O   UNL A   1      30.338  28.657  23.958  1.00  0.00    -0.487 OA
BRANCH  16  17
ATOM     17  C   UNL A   1      29.303  28.755  22.985  1.00  0.00     0.276 C 
BRANCH  17  18
ATOM     18  C   UNL A   1      28.807  30.160  22.834  1.00  0.00     0.042 A 
ATOM     19  C   UNL A   1      28.741  31.203  23.741  1.00  0.00     0.019 A 
ATOM     20  S   UNL A   1      28.336  30.679  21.261  1.00  0.00    -0.145 S 
ATOM     21  C   UNL A   1      28.538  32.458  23.097  1.00  0.00     0.012 A 
ATOM     22  C   UNL A   1      28.324  32.317  21.746  1.00  0.00     0.065 A 
ENDBRANCH  17  18
ENDBRANCH  16  17
ENDBRANCH  13  16
ENDBRANCH   6   8
ENDBRANCH   5   6
ENDBRANCH   4   5
ENDBRANCH   3   4
ENDBRANCH   2   3
ENDBRANCH   1   2
BRANCH   1  23
ATOM     23  C   UNL A   1      36.221  31.990  27.909  1.00  0.00     0.188 C 
BRANCH  23  24
ATOM     24  O   UNL A   1      35.404  33.148  27.782  1.00  0.00    -0.376 OA
BRANCH  24  25
ATOM     25  C   UNL A   1      35.571  34.213  28.706  1.00  0.00     0.202 C 
BRANCH  25  26
ATOM     26  C   UNL A   1      35.292  33.927  30.184  1.00  0.00     0.261 C 
BRANCH  26  27
ATOM     27  O   UNL A   1      36.454  33.517  30.926  1.00  0.00    -0.460 OA
BRANCH  27  28
ATOM     28  C   UNL A   1      36.345  32.320  31.555  1.00  0.00     0.338 C 
ATOM     29  O   UNL A   1      35.330  31.659  31.703  1.00  0.00    -0.246 OA
BRANCH  28  30
ATOM     30  C   UNL A   1      37.684  31.803  31.906  1.00  0.00     0.060 A 
ATOM     31  C   UNL A   1      38.796  32.393  31.291  1.00  0.00     0.016 A 
ATOM     32  C   UNL A   1      37.845  30.706  32.755  1.00  0.00     0.016 A 
ATOM     33  C   UNL A   1      40.070  31.852  31.473  1.00  0.00     0.010 A 
ATOM     34  C   UNL A   1      39.120  30.152  32.920  1.00  0.00     0.010 A 
ATOM     35  C   UNL A   1      40.228  30.695  32.245  1.00  0.00    -0.014 A 
BRANCH  35  36
ATOM     36  C   UNL A   1      41.498  29.933  32.169  1.00  0.00     0.031 A 
ATOM     37  C   UNL A   1      42.573  30.232  33.181  1.00  0.00     0.074 A 
ATOM     38  C   UNL A   1      41.704  28.999  31.223  1.00  0.00     0.049 A 
ATOM     39  N   UNL A   1      43.772  29.724  33.292  1.00  0.00    -0.248 NA
ATOM     40  C   UNL A   1      42.251  31.245  34.201  1.00  0.00     0.031 C 
ATOM     41  C   UNL A   1      40.743  28.607  30.196  1.00  0.00     0.029 A 
ATOM     42  N   UNL A   1      42.812  28.231  30.963  1.00  0.00    -0.354 N 
ATOM     43  C   UNL A   1      44.357  30.369  34.375  1.00  0.00     0.074 A 
ATOM     44  C   UNL A   1      43.385  31.312  34.883  1.00  0.00     0.031 C 
ATOM     45  C   UNL A   1      41.317  27.694  29.391  1.00  0.00     0.029 A 
ATOM     46  C   UNL A   1      42.688  27.451  29.838  1.00  0.00     0.049 A 
ATOM     47  H   UNL A   1      43.618  28.237  31.528  1.00  0.00     0.167 HD
ATOM     48  C   UNL A   1      45.586  30.185  34.911  1.00  0.00     0.034 A 
ATOM     49  C   UNL A   1      43.587  26.650  29.229  1.00  0.00     0.034 A 
ATOM     50  C   UNL A   1      46.548  29.237  34.424  1.00  0.00     0.049 A 
ATOM     51  C   UNL A   1      44.962  26.485  29.828  1.00  0.00     0.074 A 
ATOM     52  C   UNL A   1      47.802  28.946  34.932  1.00  0.00     0.029 A 
ATOM     53  N   UNL A   1      46.371  28.435  33.309  1.00  0.00    -0.354 N 
ATOM     54  N   UNL A   1      45.452  27.004  30.928  1.00  0.00    -0.248 NA
ATOM     55  C   UNL A   1      45.897  25.601  29.116  1.00  0.00     0.031 C 
ATOM     56  C   UNL A   1      48.391  27.979  34.111  1.00  0.00     0.029 A 
ATOM     57  C   UNL A   1      47.497  27.657  33.102  1.00  0.00     0.049 A 
ATOM     58  H   UNL A   1      45.564  28.420  32.746  1.00  0.00     0.167 HD
ATOM     59  C   UNL A   1      46.736  26.481  31.059  1.00  0.00     0.074 A 
ATOM     60  C   UNL A   1      46.941  25.592  29.935  1.00  0.00     0.031 C 
ATOM     61  C   UNL A   1      47.665  26.726  32.016  1.00  0.00     0.034 A 
BRANCH  48  62
ATOM     62  C   UNL A   1      45.948  31.014  36.114  1.00  0.00     0.023 A 
ATOM     63  C   UNL A   1      45.689  30.510  37.405  1.00  0.00     0.012 A 
ATOM     64  C   UNL A   1      46.579  32.263  35.971  1.00  0.00     0.148 A 
ATOM     65  C   UNL A   1      46.028  31.251  38.536  1.00  0.00     0.002 A 
ATOM     66  C   UNL A   1      46.948  32.979  37.103  1.00  0.00     0.091 A 
ATOM     67  F   UNL A   1      46.790  32.736  34.734  1.00  0.00    -0.205 F 
ATOM     68  C   UNL A   1      46.667  32.480  38.385  1.00  0.00     0.022 A 
BRANCH  66  69
ATOM     69  S   UNL A   1      47.836  34.539  37.007  1.00  0.00     0.127 S 
ATOM     70  O   UNL A   1      46.760  35.471  36.674  1.00  0.00    -0.237 OA
ATOM     71  O   UNL A   1      48.366  34.680  38.364  1.00  0.00    -0.237 OA
ATOM     72  O   UNL A   1      48.852  34.355  35.980  1.00  0.00    -0.744 OA
ENDBRANCH  66  69
ENDBRANCH  48  62
BRANCH  49  73
ATOM     73  C   UNL A   1      43.206  25.905  27.997  1.00  0.00     0.023 A 
ATOM     74  C   UNL A   1      43.435  26.489  26.736  1.00  0.00     0.012 A 
ATOM     75  C   UNL A   1      42.624  24.624  28.065  1.00  0.00     0.148 A 
ATOM     76  C   UNL A   1      43.068  25.823  25.567  1.00  0.00     0.002 A 
ATOM     77  C   UNL A   1      42.305  23.945  26.895  1.00  0.00     0.091 A 
ATOM     78  F   UNL A   1      42.390  24.095  29.275  1.00  0.00    -0.205 F 
ATOM     79  C   UNL A   1      42.514  24.549  25.645  1.00  0.00     0.022 A 
BRANCH  77  80
ATOM     80  S   UNL A   1      41.694  22.256  26.900  1.00  0.00     0.127 S 
ATOM     81  O   UNL A   1      40.307  22.441  27.320  1.00  0.00    -0.237 OA
ATOM     82  O   UNL A   1      41.866  21.865  25.501  1.00  0.00    -0.237 OA
ATOM     83  O   UNL A   1      42.549  21.535  27.832  1.00  0.00    -0.744 OA
ENDBRANCH  77  80
ENDBRANCH  49  73
BRANCH  61  84
ATOM     84  C   UNL A   1      48.985  26.003  31.921  1.00  0.00     0.023 A 
ATOM     85  C   UNL A   1      49.997  26.509  31.083  1.00  0.00     0.012 A 
ATOM     86  C   UNL A   1      49.253  24.881  32.730  1.00  0.00     0.148 A 
ATOM     87  C   UNL A   1      51.248  25.894  31.032  1.00  0.00     0.002 A 
ATOM     88  C   UNL A   1      50.515  24.299  32.707  1.00  0.00     0.091 A 
ATOM     89  F   UNL A   1      48.270  24.402  33.507  1.00  0.00    -0.205 F 
ATOM     90  C   UNL A   1      51.512  24.799  31.852  1.00  0.00     0.022 A 
BRANCH  88  91
ATOM     91  S   UNL A   1      50.967  22.946  33.800  1.00  0.00     0.127 S 
ATOM     92  O   UNL A   1      50.515  23.447  35.097  1.00  0.00    -0.237 OA
ATOM     93  O   UNL A   1      50.178  21.834  33.267  1.00  0.00    -0.237 OA
ATOM     94  O   UNL A   1      52.408  22.782  33.656  1.00  0.00    -0.744 OA
ENDBRANCH  88  91
ENDBRANCH  61  84
ENDBRANCH  35  36
ENDBRANCH  28  30
ENDBRANCH  27  28
ENDBRANCH  26  27
ENDBRANCH  25  26
ENDBRANCH  24  25
ENDBRANCH  23  24
ENDBRANCH   1  23
TORSDOF 24
ENDMDL
