MODEL 1
REMARK VINA RESULT:     -10.8      0.000      0.000
REMARK SMILES O=C(OCCOCCOCCOC(=O)c1cc(F)ccc1NS(=O)(=O)c1ccc(Cl)s1)c1ccc(-c2c3nc(c(-c4cccc(S(=O)(=O)[O-])c4F)c4ccc([nH]4)c(-c4cccc(S(=O)(=O)[O-])c4F)c4nc(c(-c5cccc(S(=O)(=O)[O-])c5F)c5ccc2[nH]5)C=C4)C=C3)cc1
REMARK SMILES IDX 7 1 6 2 5 3 4 4 3 5 2 6 1 7 32 8 33 9 94 10 34 11 93 12
REMARK SMILES IDX 35 13 36 14 37 15 87 16 38 17 92 18 86 19 88 20 39 21 91 22
REMARK SMILES IDX 85 23 84 24 40 26 72 27 52 28 71 29 53 30 56 31 70 32 89 33
REMARK SMILES IDX 54 34 55 35 69 37 90 38 57 39 41 40 42 41 50 42 43 43 45 44
REMARK SMILES IDX 51 45 44 46 46 47 47 48 48 49 49 50 73 51 74 52 82 53 75 54
REMARK SMILES IDX 77 55 83 56 76 57 78 58 79 59 80 60 81 61 58 62 59 63 67 64
REMARK SMILES IDX 60 65 62 66 68 67 61 68 63 69 64 70 65 71 66 72 8 73 9 74
REMARK SMILES IDX 10 75 11 76 12 77 13 78 14 79 15 80 16 81 21 82 17 83 20 84
REMARK SMILES IDX 18 85 19 86 22 87 23 89 24 90 25 91 26 92 27 93 31 94 28 95
REMARK SMILES IDX 29 96 30 97
REMARK H PARENT 88 25 56 36 22 88
REMARK Flexibility Score: inf
ROOT
ATOM      1  C   UNL A   1      34.363  20.859  25.053  1.00  0.00     0.188 C 
ENDROOT
BRANCH   1   2
ATOM      2  O   UNL A   1      35.014  19.686  24.571  1.00  0.00    -0.376 OA
BRANCH   2   3
ATOM      3  C   UNL A   1      36.395  19.573  24.917  1.00  0.00     0.202 C 
BRANCH   3   4
ATOM      4  C   UNL A   1      37.206  20.870  24.757  1.00  0.00     0.261 C 
BRANCH   4   5
ATOM      5  O   UNL A   1      37.952  21.307  25.919  1.00  0.00    -0.460 OA
BRANCH   5   6
ATOM      6  C   UNL A   1      39.244  21.603  26.179  1.00  0.00     0.338 C 
ATOM      7  O   UNL A   1      40.087  20.734  25.968  1.00  0.00    -0.246 OA
BRANCH   6   8
ATOM      8  C   UNL A   1      39.696  22.896  26.768  1.00  0.00     0.060 A 
ATOM      9  C   UNL A   1      39.163  24.139  26.446  1.00  0.00     0.016 A 
ATOM     10  C   UNL A   1      40.679  22.858  27.767  1.00  0.00     0.016 A 
ATOM     11  C   UNL A   1      39.660  25.325  26.977  1.00  0.00     0.010 A 
ATOM     12  C   UNL A   1      41.163  24.040  28.343  1.00  0.00     0.010 A 
ATOM     13  C   UNL A   1      40.689  25.286  27.906  1.00  0.00    -0.014 A 
BRANCH  13  14
ATOM     14  C   UNL A   1      41.412  26.526  28.258  1.00  0.00     0.031 A 
ATOM     15  C   UNL A   1      40.632  27.605  28.945  1.00  0.00     0.074 A 
ATOM     16  C   UNL A   1      42.737  26.669  28.062  1.00  0.00     0.049 A 
ATOM     17  N   UNL A   1      40.976  28.835  29.201  1.00  0.00    -0.248 NA
ATOM     18  C   UNL A   1      39.294  27.234  29.443  1.00  0.00     0.031 C 
ATOM     19  C   UNL A   1      43.645  25.616  27.621  1.00  0.00     0.029 A 
ATOM     20  N   UNL A   1      43.549  27.768  28.192  1.00  0.00    -0.354 N 
ATOM     21  C   UNL A   1      39.891  29.392  29.862  1.00  0.00     0.074 A 
ATOM     22  C   UNL A   1      38.869  28.377  29.959  1.00  0.00     0.031 C 
ATOM     23  C   UNL A   1      44.869  26.136  27.439  1.00  0.00     0.029 A 
ATOM     24  C   UNL A   1      44.816  27.563  27.694  1.00  0.00     0.049 A 
ATOM     25  H   UNL A   1      43.256  28.614  28.600  1.00  0.00     0.167 HD
ATOM     26  C   UNL A   1      39.777  30.639  30.364  1.00  0.00     0.034 A 
ATOM     27  C   UNL A   1      45.805  28.436  27.424  1.00  0.00     0.034 A 
ATOM     28  C   UNL A   1      40.817  31.623  30.275  1.00  0.00     0.049 A 
ATOM     29  C   UNL A   1      45.593  29.865  27.833  1.00  0.00     0.074 A 
ATOM     30  C   UNL A   1      40.799  32.933  30.709  1.00  0.00     0.029 A 
ATOM     31  N   UNL A   1      42.063  31.398  29.710  1.00  0.00    -0.354 N 
ATOM     32  N   UNL A   1      44.557  30.394  28.438  1.00  0.00    -0.248 NA
ATOM     33  C   UNL A   1      46.695  30.801  27.584  1.00  0.00     0.031 C 
ATOM     34  C   UNL A   1      42.029  33.510  30.382  1.00  0.00     0.029 A 
ATOM     35  C   UNL A   1      42.826  32.548  29.781  1.00  0.00     0.049 A 
ATOM     36  H   UNL A   1      42.361  30.546  29.319  1.00  0.00     0.167 HD
ATOM     37  C   UNL A   1      44.905  31.710  28.701  1.00  0.00     0.074 A 
ATOM     38  C   UNL A   1      46.251  31.892  28.193  1.00  0.00     0.031 C 
ATOM     39  C   UNL A   1      44.179  32.682  29.306  1.00  0.00     0.034 A 
BRANCH  26  40
ATOM     40  C   UNL A   1      38.489  31.003  31.043  1.00  0.00     0.023 A 
ATOM     41  C   UNL A   1      38.336  30.786  32.426  1.00  0.00     0.012 A 
ATOM     42  C   UNL A   1      37.453  31.617  30.315  1.00  0.00     0.148 A 
ATOM     43  C   UNL A   1      37.162  31.168  33.075  1.00  0.00     0.002 A 
ATOM     44  C   UNL A   1      36.307  32.038  30.975  1.00  0.00     0.091 A 
ATOM     45  F   UNL A   1      37.615  31.783  28.994  1.00  0.00    -0.205 F 
ATOM     46  C   UNL A   1      36.155  31.805  32.353  1.00  0.00     0.022 A 
BRANCH  44  47
ATOM     47  S   UNL A   1      34.989  32.933  30.152  1.00  0.00     0.127 S 
ATOM     48  O   UNL A   1      34.074  33.203  31.263  1.00  0.00    -0.237 OA
ATOM     49  O   UNL A   1      35.695  34.108  29.643  1.00  0.00    -0.237 OA
ATOM     50  O   UNL A   1      34.463  32.037  29.132  1.00  0.00    -0.744 OA
ENDBRANCH  44  47
ENDBRANCH  26  40
BRANCH  27  51
ATOM     51  C   UNL A   1      47.060  27.995  26.748  1.00  0.00     0.023 A 
ATOM     52  C   UNL A   1      48.163  27.575  27.514  1.00  0.00     0.012 A 
ATOM     53  C   UNL A   1      47.171  28.004  25.342  1.00  0.00     0.148 A 
ATOM     54  C   UNL A   1      49.363  27.212  26.898  1.00  0.00     0.002 A 
ATOM     55  C   UNL A   1      48.354  27.595  24.731  1.00  0.00     0.091 A 
ATOM     56  F   UNL A   1      46.118  28.419  24.623  1.00  0.00    -0.205 F 
ATOM     57  C   UNL A   1      49.457  27.215  25.509  1.00  0.00     0.022 A 
BRANCH  55  58
ATOM     58  S   UNL A   1      48.519  27.478  22.945  1.00  0.00     0.127 S 
ATOM     59  O   UNL A   1      49.827  28.087  22.725  1.00  0.00    -0.237 OA
ATOM     60  O   UNL A   1      48.468  26.034  22.723  1.00  0.00    -0.237 OA
ATOM     61  O   UNL A   1      47.379  28.210  22.403  1.00  0.00    -0.744 OA
ENDBRANCH  55  58
ENDBRANCH  27  51
BRANCH  39  62
ATOM     62  C   UNL A   1      44.844  34.014  29.498  1.00  0.00     0.023 A 
ATOM     63  C   UNL A   1      45.544  34.285  30.689  1.00  0.00     0.012 A 
ATOM     64  C   UNL A   1      44.836  34.964  28.460  1.00  0.00     0.148 A 
ATOM     65  C   UNL A   1      46.192  35.505  30.860  1.00  0.00     0.002 A 
ATOM     66  C   UNL A   1      45.539  36.151  28.613  1.00  0.00     0.091 A 
ATOM     67  F   UNL A   1      44.145  34.690  27.343  1.00  0.00    -0.205 F 
ATOM     68  C   UNL A   1      46.202  36.431  29.819  1.00  0.00     0.022 A 
BRANCH  66  69
ATOM     69  S   UNL A   1      45.707  37.340  27.281  1.00  0.00     0.127 S 
ATOM     70  O   UNL A   1      46.640  38.304  27.860  1.00  0.00    -0.237 OA
ATOM     71  O   UNL A   1      46.265  36.521  26.204  1.00  0.00    -0.237 OA
ATOM     72  O   UNL A   1      44.365  37.845  27.022  1.00  0.00    -0.744 OA
ENDBRANCH  66  69
ENDBRANCH  39  62
ENDBRANCH  13  14
ENDBRANCH   6   8
ENDBRANCH   5   6
ENDBRANCH   4   5
ENDBRANCH   3   4
ENDBRANCH   2   3
ENDBRANCH   1   2
BRANCH   1  73
ATOM     73  C   UNL A   1      33.040  20.585  25.776  1.00  0.00     0.188 C 
BRANCH  73  74
ATOM     74  O   UNL A   1      31.935  21.458  25.613  1.00  0.00    -0.376 OA
BRANCH  74  75
ATOM     75  C   UNL A   1      31.766  22.531  26.517  1.00  0.00     0.202 C 
BRANCH  75  76
ATOM     76  C   UNL A   1      31.822  23.966  25.981  1.00  0.00     0.261 C 
BRANCH  76  77
ATOM     77  O   UNL A   1      32.811  24.857  26.530  1.00  0.00    -0.460 OA
BRANCH  77  78
ATOM     78  C   UNL A   1      33.792  25.208  25.656  1.00  0.00     0.340 C 
ATOM     79  O   UNL A   1      34.766  24.540  25.354  1.00  0.00    -0.246 OA
BRANCH  78  80
ATOM     80  C   UNL A   1      33.683  26.637  25.321  1.00  0.00     0.087 A 
ATOM     81  C   UNL A   1      33.591  27.459  26.460  1.00  0.00     0.057 A 
ATOM     82  C   UNL A   1      33.698  27.194  24.026  1.00  0.00     0.064 A 
ATOM     83  C   UNL A   1      33.523  28.833  26.319  1.00  0.00     0.124 A 
ATOM     84  C   UNL A   1      33.480  28.572  23.941  1.00  0.00     0.030 A 
ATOM     85  F   UNL A   1      33.384  29.599  27.405  1.00  0.00    -0.207 F 
ATOM     86  C   UNL A   1      33.487  29.400  25.063  1.00  0.00     0.041 A 
BRANCH  82  87
ATOM     87  N   UNL A   1      33.700  26.412  22.810  1.00  0.00    -0.278 N 
ATOM     88  H   UNL A   1      34.540  26.281  22.315  1.00  0.00     0.180 HD
BRANCH  87  89
ATOM     89  S   UNL A   1      32.245  25.705  22.218  1.00  0.00     0.271 S 
ATOM     90  O   UNL A   1      32.174  26.070  20.812  1.00  0.00    -0.200 OA
ATOM     91  O   UNL A   1      32.289  24.315  22.597  1.00  0.00    -0.200 OA
BRANCH  89  92
ATOM     92  C   UNL A   1      30.767  26.398  22.927  1.00  0.00     0.141 A 
ATOM     93  C   UNL A   1      29.830  25.858  23.797  1.00  0.00     0.036 A 
ATOM     94  S   UNL A   1      30.312  27.980  22.442  1.00  0.00    -0.110 S 
ATOM     95  C   UNL A   1      28.665  26.673  23.916  1.00  0.00     0.034 A 
ATOM     96  C   UNL A   1      28.813  27.842  23.218  1.00  0.00     0.094 A 
ATOM     97  Cl  UNL A   1      27.652  29.097  23.064  1.00  0.00    -0.072 Cl
ENDBRANCH  89  92
ENDBRANCH  87  89
ENDBRANCH  82  87
ENDBRANCH  78  80
ENDBRANCH  77  78
ENDBRANCH  76  77
ENDBRANCH  75  76
ENDBRANCH  74  75
ENDBRANCH  73  74
ENDBRANCH   1  73
TORSDOF 23
ENDMDL
MODEL 2
REMARK VINA RESULT:     -10.4      1.750      7.636
REMARK SMILES O=C(OCCOCCOCCOC(=O)c1cc(F)ccc1NS(=O)(=O)c1ccc(Cl)s1)c1ccc(-c2c3nc(c(-c4cccc(S(=O)(=O)[O-])c4F)c4ccc([nH]4)c(-c4cccc(S(=O)(=O)[O-])c4F)c4nc(c(-c5cccc(S(=O)(=O)[O-])c5F)c5ccc2[nH]5)C=C4)C=C3)cc1
REMARK SMILES IDX 7 1 6 2 5 3 4 4 3 5 2 6 1 7 32 8 33 9 94 10 34 11 93 12
REMARK SMILES IDX 35 13 36 14 37 15 87 16 38 17 92 18 86 19 88 20 39 21 91 22
REMARK SMILES IDX 85 23 84 24 40 26 72 27 52 28 71 29 53 30 56 31 70 32 89 33
REMARK SMILES IDX 54 34 55 35 69 37 90 38 57 39 41 40 42 41 50 42 43 43 45 44
REMARK SMILES IDX 51 45 44 46 46 47 47 48 48 49 49 50 73 51 74 52 82 53 75 54
REMARK SMILES IDX 77 55 83 56 76 57 78 58 79 59 80 60 81 61 58 62 59 63 67 64
REMARK SMILES IDX 60 65 62 66 68 67 61 68 63 69 64 70 65 71 66 72 8 73 9 74
REMARK SMILES IDX 10 75 11 76 12 77 13 78 14 79 15 80 16 81 21 82 17 83 20 84
REMARK SMILES IDX 18 85 19 86 22 87 23 89 24 90 25 91 26 92 27 93 31 94 28 95
REMARK SMILES IDX 29 96 30 97
REMARK H PARENT 88 25 56 36 22 88
REMARK Flexibility Score: inf
ROOT
ATOM      1  C   UNL A   1      34.789  21.530  25.538  1.00  0.00     0.188 C 
ENDROOT
BRANCH   1   2
ATOM      2  O   UNL A   1      34.867  20.326  24.778  1.00  0.00    -0.376 OA
BRANCH   2   3
ATOM      3  C   UNL A   1      36.082  19.591  24.931  1.00  0.00     0.202 C 
BRANCH   3   4
ATOM      4  C   UNL A   1      37.363  20.420  24.746  1.00  0.00     0.261 C 
BRANCH   4   5
ATOM      5  O   UNL A   1      38.109  20.725  25.949  1.00  0.00    -0.460 OA
BRANCH   5   6
ATOM      6  C   UNL A   1      39.363  21.147  26.224  1.00  0.00     0.338 C 
ATOM      7  O   UNL A   1      40.278  20.334  26.123  1.00  0.00    -0.246 OA
BRANCH   6   8
ATOM      8  C   UNL A   1      39.687  22.520  26.707  1.00  0.00     0.060 A 
ATOM      9  C   UNL A   1      38.918  23.649  26.450  1.00  0.00     0.016 A 
ATOM     10  C   UNL A   1      40.806  22.680  27.536  1.00  0.00     0.016 A 
ATOM     11  C   UNL A   1      39.295  24.921  26.871  1.00  0.00     0.010 A 
ATOM     12  C   UNL A   1      41.178  23.947  28.003  1.00  0.00     0.010 A 
ATOM     13  C   UNL A   1      40.449  25.084  27.623  1.00  0.00    -0.014 A 
BRANCH  13  14
ATOM     14  C   UNL A   1      41.010  26.435  27.829  1.00  0.00     0.031 A 
ATOM     15  C   UNL A   1      42.419  26.671  27.377  1.00  0.00     0.074 A 
ATOM     16  C   UNL A   1      40.277  27.454  28.318  1.00  0.00     0.049 A 
ATOM     17  N   UNL A   1      43.193  27.696  27.594  1.00  0.00    -0.248 NA
ATOM     18  C   UNL A   1      43.024  25.622  26.534  1.00  0.00     0.031 C 
ATOM     19  C   UNL A   1      38.842  27.416  28.575  1.00  0.00     0.029 A 
ATOM     20  N   UNL A   1      40.644  28.719  28.702  1.00  0.00    -0.354 N 
ATOM     21  C   UNL A   1      44.383  27.404  26.942  1.00  0.00     0.074 A 
ATOM     22  C   UNL A   1      44.240  26.103  26.331  1.00  0.00     0.031 C 
ATOM     23  C   UNL A   1      38.464  28.569  29.149  1.00  0.00     0.029 A 
ATOM     24  C   UNL A   1      39.638  29.398  29.350  1.00  0.00     0.049 A 
ATOM     25  H   UNL A   1      41.535  29.102  28.532  1.00  0.00     0.167 HD
ATOM     26  C   UNL A   1      45.486  28.174  26.845  1.00  0.00     0.034 A 
ATOM     27  C   UNL A   1      39.668  30.536  30.070  1.00  0.00     0.034 A 
ATOM     28  C   UNL A   1      45.595  29.474  27.442  1.00  0.00     0.049 A 
ATOM     29  C   UNL A   1      40.960  31.299  30.098  1.00  0.00     0.074 A 
ATOM     30  C   UNL A   1      46.679  30.329  27.447  1.00  0.00     0.029 A 
ATOM     31  N   UNL A   1      44.576  30.104  28.141  1.00  0.00    -0.354 N 
ATOM     32  N   UNL A   1      42.090  31.011  29.499  1.00  0.00    -0.248 NA
ATOM     33  C   UNL A   1      40.973  32.565  30.841  1.00  0.00     0.031 C 
ATOM     34  C   UNL A   1      46.324  31.467  28.176  1.00  0.00     0.029 A 
ATOM     35  C   UNL A   1      45.006  31.339  28.588  1.00  0.00     0.049 A 
ATOM     36  H   UNL A   1      43.680  29.728  28.296  1.00  0.00     0.167 HD
ATOM     37  C   UNL A   1      42.930  32.087  29.737  1.00  0.00     0.074 A 
ATOM     38  C   UNL A   1      42.173  33.036  30.531  1.00  0.00     0.031 C 
ATOM     39  C   UNL A   1      44.211  32.277  29.338  1.00  0.00     0.034 A 
BRANCH  26  40
ATOM     40  C   UNL A   1      46.653  27.629  26.075  1.00  0.00     0.023 A 
ATOM     41  C   UNL A   1      46.766  27.882  24.694  1.00  0.00     0.012 A 
ATOM     42  C   UNL A   1      47.669  26.916  26.739  1.00  0.00     0.148 A 
ATOM     43  C   UNL A   1      47.873  27.422  23.980  1.00  0.00     0.002 A 
ATOM     44  C   UNL A   1      48.790  26.503  26.032  1.00  0.00     0.091 A 
ATOM     45  F   UNL A   1      47.519  26.664  28.047  1.00  0.00    -0.205 F 
ATOM     46  C   UNL A   1      48.890  26.746  24.652  1.00  0.00     0.022 A 
BRANCH  44  47
ATOM     47  S   UNL A   1      50.185  25.694  26.818  1.00  0.00     0.127 S 
ATOM     48  O   UNL A   1      51.039  25.391  25.668  1.00  0.00    -0.237 OA
ATOM     49  O   UNL A   1      50.691  26.749  27.693  1.00  0.00    -0.237 OA
ATOM     50  O   UNL A   1      49.646  24.527  27.502  1.00  0.00    -0.744 OA
ENDBRANCH  44  47
ENDBRANCH  26  40
BRANCH  27  51
ATOM     51  C   UNL A   1      38.462  31.015  30.806  1.00  0.00     0.023 A 
ATOM     52  C   UNL A   1      38.345  30.789  32.190  1.00  0.00     0.012 A 
ATOM     53  C   UNL A   1      37.418  31.686  30.135  1.00  0.00     0.148 A 
ATOM     54  C   UNL A   1      37.197  31.182  32.883  1.00  0.00     0.002 A 
ATOM     55  C   UNL A   1      36.298  32.119  30.840  1.00  0.00     0.091 A 
ATOM     56  F   UNL A   1      37.535  31.884  28.814  1.00  0.00    -0.205 F 
ATOM     57  C   UNL A   1      36.178  31.853  32.211  1.00  0.00     0.022 A 
BRANCH  55  58
ATOM     58  S   UNL A   1      34.988  33.075  30.063  1.00  0.00     0.127 S 
ATOM     59  O   UNL A   1      34.407  32.097  29.148  1.00  0.00    -0.237 OA
ATOM     60  O   UNL A   1      34.144  33.428  31.203  1.00  0.00    -0.237 OA
ATOM     61  O   UNL A   1      35.657  34.210  29.437  1.00  0.00    -0.744 OA
ENDBRANCH  55  58
ENDBRANCH  27  51
BRANCH  39  62
ATOM     62  C   UNL A   1      44.858  33.580  29.710  1.00  0.00     0.023 A 
ATOM     63  C   UNL A   1      45.637  33.669  30.880  1.00  0.00     0.012 A 
ATOM     64  C   UNL A   1      44.752  34.692  28.854  1.00  0.00     0.148 A 
ATOM     65  C   UNL A   1      46.267  34.865  31.214  1.00  0.00     0.002 A 
ATOM     66  C   UNL A   1      45.437  35.859  29.161  1.00  0.00     0.091 A 
ATOM     67  F   UNL A   1      43.988  34.587  27.756  1.00  0.00    -0.205 F 
ATOM     68  C   UNL A   1      46.180  35.953  30.348  1.00  0.00     0.022 A 
BRANCH  66  69
ATOM     69  S   UNL A   1      45.480  37.262  28.044  1.00  0.00     0.127 S 
ATOM     70  O   UNL A   1      46.577  36.898  27.151  1.00  0.00    -0.237 OA
ATOM     71  O   UNL A   1      44.152  37.211  27.433  1.00  0.00    -0.237 OA
ATOM     72  O   UNL A   1      45.715  38.433  28.880  1.00  0.00    -0.744 OA
ENDBRANCH  66  69
ENDBRANCH  39  62
ENDBRANCH  13  14
ENDBRANCH   6   8
ENDBRANCH   5   6
ENDBRANCH   4   5
ENDBRANCH   3   4
ENDBRANCH   2   3
ENDBRANCH   1   2
BRANCH   1  73
ATOM     73  C   UNL A   1      33.435  21.747  26.223  1.00  0.00     0.188 C 
BRANCH  73  74
ATOM     74  O   UNL A   1      32.465  22.606  25.647  1.00  0.00    -0.376 OA
BRANCH  74  75
ATOM     75  C   UNL A   1      31.624  23.361  26.494  1.00  0.00     0.202 C 
BRANCH  75  76
ATOM     76  C   UNL A   1      31.763  24.888  26.506  1.00  0.00     0.261 C 
BRANCH  76  77
ATOM     77  O   UNL A   1      31.757  25.579  25.242  1.00  0.00    -0.460 OA
BRANCH  77  78
ATOM     78  C   UNL A   1      32.927  26.203  24.941  1.00  0.00     0.340 C 
ATOM     79  O   UNL A   1      33.911  25.691  24.435  1.00  0.00    -0.246 OA
BRANCH  78  80
ATOM     80  C   UNL A   1      32.965  27.535  25.565  1.00  0.00     0.087 A 
ATOM     81  C   UNL A   1      34.172  27.784  26.245  1.00  0.00     0.057 A 
ATOM     82  C   UNL A   1      31.956  28.518  25.499  1.00  0.00     0.064 A 
ATOM     83  C   UNL A   1      34.385  29.008  26.852  1.00  0.00     0.124 A 
ATOM     84  C   UNL A   1      32.167  29.675  26.254  1.00  0.00     0.030 A 
ATOM     85  F   UNL A   1      35.514  29.214  27.538  1.00  0.00    -0.207 F 
ATOM     86  C   UNL A   1      33.396  29.968  26.845  1.00  0.00     0.041 A 
BRANCH  82  87
ATOM     87  N   UNL A   1      30.658  28.303  24.899  1.00  0.00    -0.278 N 
ATOM     88  H   UNL A   1      29.917  27.962  25.449  1.00  0.00     0.180 HD
BRANCH  87  89
ATOM     89  S   UNL A   1      30.396  28.638  23.230  1.00  0.00     0.271 S 
ATOM     90  O   UNL A   1      31.715  28.871  22.664  1.00  0.00    -0.200 OA
ATOM     91  O   UNL A   1      29.578  27.563  22.727  1.00  0.00    -0.200 OA
BRANCH  89  92
ATOM     92  C   UNL A   1      29.514  30.155  22.929  1.00  0.00     0.141 A 
ATOM     93  C   UNL A   1      28.761  30.958  23.773  1.00  0.00     0.036 A 
ATOM     94  S   UNL A   1      29.480  30.755  21.320  1.00  0.00    -0.110 S 
ATOM     95  C   UNL A   1      28.021  31.950  23.063  1.00  0.00     0.034 A 
ATOM     96  C   UNL A   1      28.327  31.926  21.728  1.00  0.00     0.094 A 
ATOM     97  Cl  UNL A   1      27.653  32.924  20.505  1.00  0.00    -0.072 Cl
ENDBRANCH  89  92
ENDBRANCH  87  89
ENDBRANCH  82  87
ENDBRANCH  78  80
ENDBRANCH  77  78
ENDBRANCH  76  77
ENDBRANCH  75  76
ENDBRANCH  74  75
ENDBRANCH  73  74
ENDBRANCH   1  73
TORSDOF 23
ENDMDL
MODEL 3
REMARK VINA RESULT:     -10.4      2.167      2.572
REMARK SMILES O=C(OCCOCCOCCOC(=O)c1cc(F)ccc1NS(=O)(=O)c1ccc(Cl)s1)c1ccc(-c2c3nc(c(-c4cccc(S(=O)(=O)[O-])c4F)c4ccc([nH]4)c(-c4cccc(S(=O)(=O)[O-])c4F)c4nc(c(-c5cccc(S(=O)(=O)[O-])c5F)c5ccc2[nH]5)C=C4)C=C3)cc1
REMARK SMILES IDX 7 1 6 2 5 3 4 4 3 5 2 6 1 7 32 8 33 9 94 10 34 11 93 12
REMARK SMILES IDX 35 13 36 14 37 15 87 16 38 17 92 18 86 19 88 20 39 21 91 22
REMARK SMILES IDX 85 23 84 24 40 26 72 27 52 28 71 29 53 30 56 31 70 32 89 33
REMARK SMILES IDX 54 34 55 35 69 37 90 38 57 39 41 40 42 41 50 42 43 43 45 44
REMARK SMILES IDX 51 45 44 46 46 47 47 48 48 49 49 50 73 51 74 52 82 53 75 54
REMARK SMILES IDX 77 55 83 56 76 57 78 58 79 59 80 60 81 61 58 62 59 63 67 64
REMARK SMILES IDX 60 65 62 66 68 67 61 68 63 69 64 70 65 71 66 72 8 73 9 74
REMARK SMILES IDX 10 75 11 76 12 77 13 78 14 79 15 80 16 81 21 82 17 83 20 84
REMARK SMILES IDX 18 85 19 86 22 87 23 89 24 90 25 91 26 92 27 93 31 94 28 95
REMARK SMILES IDX 29 96 30 97
REMARK H PARENT 88 25 56 36 22 88
REMARK Flexibility Score: inf
ROOT
ATOM      1  C   UNL A   1      34.355  21.558  25.644  1.00  0.00     0.188 C 
ENDROOT
BRANCH   1   2
ATOM      2  O   UNL A   1      34.480  20.332  24.927  1.00  0.00    -0.376 OA
BRANCH   2   3
ATOM      3  C   UNL A   1      35.803  19.797  24.867  1.00  0.00     0.202 C 
BRANCH   3   4
ATOM      4  C   UNL A   1      36.908  20.838  24.625  1.00  0.00     0.261 C 
BRANCH   4   5
ATOM      5  O   UNL A   1      37.653  21.266  25.791  1.00  0.00    -0.460 OA
BRANCH   5   6
ATOM      6  C   UNL A   1      38.957  21.465  26.081  1.00  0.00     0.338 C 
ATOM      7  O   UNL A   1      39.734  20.529  25.910  1.00  0.00    -0.246 OA
BRANCH   6   8
ATOM      8  C   UNL A   1      39.493  22.732  26.658  1.00  0.00     0.060 A 
ATOM      9  C   UNL A   1      39.019  24.002  26.352  1.00  0.00     0.016 A 
ATOM     10  C   UNL A   1      40.501  22.639  27.629  1.00  0.00     0.016 A 
ATOM     11  C   UNL A   1      39.593  25.159  26.870  1.00  0.00     0.010 A 
ATOM     12  C   UNL A   1      41.063  23.791  28.192  1.00  0.00     0.010 A 
ATOM     13  C   UNL A   1      40.645  25.062  27.770  1.00  0.00    -0.014 A 
BRANCH  13  14
ATOM     14  C   UNL A   1      41.443  26.261  28.102  1.00  0.00     0.031 A 
ATOM     15  C   UNL A   1      40.757  27.353  28.865  1.00  0.00     0.074 A 
ATOM     16  C   UNL A   1      42.756  26.354  27.822  1.00  0.00     0.049 A 
ATOM     17  N   UNL A   1      41.170  28.560  29.127  1.00  0.00    -0.248 NA
ATOM     18  C   UNL A   1      39.439  27.026  29.443  1.00  0.00     0.031 C 
ATOM     19  C   UNL A   1      43.587  25.276  27.297  1.00  0.00     0.029 A 
ATOM     20  N   UNL A   1      43.622  27.414  27.924  1.00  0.00    -0.354 N 
ATOM     21  C   UNL A   1      40.156  29.144  29.872  1.00  0.00     0.074 A 
ATOM     22  C   UNL A   1      39.099  28.171  30.012  1.00  0.00     0.031 C 
ATOM     23  C   UNL A   1      44.818  25.749  27.045  1.00  0.00     0.029 A 
ATOM     24  C   UNL A   1      44.844  27.169  27.337  1.00  0.00     0.049 A 
ATOM     25  H   UNL A   1      43.394  28.260  28.371  1.00  0.00     0.167 HD
ATOM     26  C   UNL A   1      40.129  30.381  30.410  1.00  0.00     0.034 A 
ATOM     27  C   UNL A   1      45.850  28.007  27.024  1.00  0.00     0.034 A 
ATOM     28  C   UNL A   1      41.203  31.323  30.275  1.00  0.00     0.049 A 
ATOM     29  C   UNL A   1      45.728  29.432  27.480  1.00  0.00     0.074 A 
ATOM     30  C   UNL A   1      41.271  32.620  30.741  1.00  0.00     0.029 A 
ATOM     31  N   UNL A   1      42.399  31.061  29.624  1.00  0.00    -0.354 N 
ATOM     32  N   UNL A   1      44.758  29.988  28.165  1.00  0.00    -0.248 NA
ATOM     33  C   UNL A   1      46.851  30.328  27.181  1.00  0.00     0.031 C 
ATOM     34  C   UNL A   1      42.500  33.154  30.346  1.00  0.00     0.029 A 
ATOM     35  C   UNL A   1      43.214  32.176  29.671  1.00  0.00     0.049 A 
ATOM     36  H   UNL A   1      42.633  30.208  29.193  1.00  0.00     0.167 HD
ATOM     37  C   UNL A   1      45.179  31.281  28.435  1.00  0.00     0.074 A 
ATOM     38  C   UNL A   1      46.496  31.420  27.844  1.00  0.00     0.031 C 
ATOM     39  C   UNL A   1      44.537  32.265  29.110  1.00  0.00     0.034 A 
BRANCH  26  40
ATOM     40  C   UNL A   1      38.905  30.780  31.182  1.00  0.00     0.023 A 
ATOM     41  C   UNL A   1      38.873  30.623  32.581  1.00  0.00     0.012 A 
ATOM     42  C   UNL A   1      37.811  31.369  30.521  1.00  0.00     0.148 A 
ATOM     43  C   UNL A   1      37.760  31.039  33.313  1.00  0.00     0.002 A 
ATOM     44  C   UNL A   1      36.728  31.823  31.259  1.00  0.00     0.091 A 
ATOM     45  F   UNL A   1      37.858  31.477  29.185  1.00  0.00    -0.205 F 
ATOM     46  C   UNL A   1      36.696  31.650  32.653  1.00  0.00     0.022 A 
BRANCH  44  47
ATOM     47  S   UNL A   1      35.344  32.690  30.516  1.00  0.00     0.127 S 
ATOM     48  O   UNL A   1      35.965  33.955  30.119  1.00  0.00    -0.237 OA
ATOM     49  O   UNL A   1      34.997  31.805  29.405  1.00  0.00    -0.237 OA
ATOM     50  O   UNL A   1      34.331  32.805  31.555  1.00  0.00    -0.744 OA
ENDBRANCH  44  47
ENDBRANCH  26  40
BRANCH  27  51
ATOM     51  C   UNL A   1      47.038  27.532  26.255  1.00  0.00     0.023 A 
ATOM     52  C   UNL A   1      47.127  27.777  24.873  1.00  0.00     0.012 A 
ATOM     53  C   UNL A   1      48.079  26.823  26.890  1.00  0.00     0.148 A 
ATOM     54  C   UNL A   1      48.205  27.291  24.130  1.00  0.00     0.002 A 
ATOM     55  C   UNL A   1      49.175  26.382  26.153  1.00  0.00     0.091 A 
ATOM     56  F   UNL A   1      47.976  26.583  28.205  1.00  0.00    -0.205 F 
ATOM     57  C   UNL A   1      49.232  26.600  24.769  1.00  0.00     0.022 A 
BRANCH  55  58
ATOM     58  S   UNL A   1      50.583  25.571  26.923  1.00  0.00     0.127 S 
ATOM     59  O   UNL A   1      51.037  26.591  27.864  1.00  0.00    -0.237 OA
ATOM     60  O   UNL A   1      49.967  24.397  27.538  1.00  0.00    -0.237 OA
ATOM     61  O   UNL A   1      51.499  25.265  25.829  1.00  0.00    -0.744 OA
ENDBRANCH  55  58
ENDBRANCH  27  51
BRANCH  39  62
ATOM     62  C   UNL A   1      45.271  33.563  29.289  1.00  0.00     0.023 A 
ATOM     63  C   UNL A   1      45.109  34.598  28.349  1.00  0.00     0.012 A 
ATOM     64  C   UNL A   1      46.062  33.776  30.434  1.00  0.00     0.148 A 
ATOM     65  C   UNL A   1      45.760  35.816  28.526  1.00  0.00     0.002 A 
ATOM     66  C   UNL A   1      46.655  35.014  30.635  1.00  0.00     0.091 A 
ATOM     67  F   UNL A   1      46.218  32.766  31.303  1.00  0.00    -0.205 F 
ATOM     68  C   UNL A   1      46.519  36.029  29.674  1.00  0.00     0.022 A 
BRANCH  66  69
ATOM     69  S   UNL A   1      47.545  35.414  32.141  1.00  0.00     0.127 S 
ATOM     70  O   UNL A   1      47.570  36.874  32.091  1.00  0.00    -0.237 OA
ATOM     71  O   UNL A   1      46.673  34.852  33.172  1.00  0.00    -0.237 OA
ATOM     72  O   UNL A   1      48.842  34.760  32.025  1.00  0.00    -0.744 OA
ENDBRANCH  66  69
ENDBRANCH  39  62
ENDBRANCH  13  14
ENDBRANCH   6   8
ENDBRANCH   5   6
ENDBRANCH   4   5
ENDBRANCH   3   4
ENDBRANCH   2   3
ENDBRANCH   1   2
BRANCH   1  73
ATOM     73  C   UNL A   1      32.970  21.781  26.260  1.00  0.00     0.188 C 
BRANCH  73  74
ATOM     74  O   UNL A   1      32.071  22.720  25.693  1.00  0.00    -0.376 OA
BRANCH  74  75
ATOM     75  C   UNL A   1      31.293  23.532  26.549  1.00  0.00     0.202 C 
BRANCH  75  76
ATOM     76  C   UNL A   1      31.561  25.041  26.583  1.00  0.00     0.261 C 
BRANCH  76  77
ATOM     77  O   UNL A   1      31.777  25.720  25.332  1.00  0.00    -0.460 OA
BRANCH  77  78
ATOM     78  C   UNL A   1      33.022  26.247  25.190  1.00  0.00     0.340 C 
ATOM     79  O   UNL A   1      34.037  25.638  24.898  1.00  0.00    -0.246 OA
BRANCH  78  80
ATOM     80  C   UNL A   1      33.052  27.623  25.711  1.00  0.00     0.087 A 
ATOM     81  C   UNL A   1      34.270  27.940  26.342  1.00  0.00     0.057 A 
ATOM     82  C   UNL A   1      32.026  28.582  25.596  1.00  0.00     0.064 A 
ATOM     83  C   UNL A   1      34.476  29.209  26.850  1.00  0.00     0.124 A 
ATOM     84  C   UNL A   1      32.234  29.797  26.256  1.00  0.00     0.030 A 
ATOM     85  F   UNL A   1      35.616  29.483  27.492  1.00  0.00    -0.207 F 
ATOM     86  C   UNL A   1      33.471  30.151  26.794  1.00  0.00     0.041 A 
BRANCH  82  87
ATOM     87  N   UNL A   1      30.718  28.304  25.043  1.00  0.00    -0.278 N 
ATOM     88  H   UNL A   1      30.005  27.961  25.628  1.00  0.00     0.180 HD
BRANCH  87  89
ATOM     89  S   UNL A   1      30.396  28.567  23.372  1.00  0.00     0.271 S 
ATOM     90  O   UNL A   1      31.697  28.696  22.737  1.00  0.00    -0.200 OA
ATOM     91  O   UNL A   1      29.499  27.515  22.964  1.00  0.00    -0.200 OA
BRANCH  89  92
ATOM     92  C   UNL A   1      29.583  30.113  23.029  1.00  0.00     0.141 A 
ATOM     93  C   UNL A   1      28.949  31.018  23.868  1.00  0.00     0.036 A 
ATOM     94  S   UNL A   1      29.454  30.602  21.389  1.00  0.00    -0.110 S 
ATOM     95  C   UNL A   1      28.213  32.005  23.146  1.00  0.00     0.034 A 
ATOM     96  C   UNL A   1      28.408  31.870  21.797  1.00  0.00     0.094 A 
ATOM     97  Cl  UNL A   1      27.697  32.824  20.559  1.00  0.00    -0.072 Cl
ENDBRANCH  89  92
ENDBRANCH  87  89
ENDBRANCH  82  87
ENDBRANCH  78  80
ENDBRANCH  77  78
ENDBRANCH  76  77
ENDBRANCH  75  76
ENDBRANCH  74  75
ENDBRANCH  73  74
ENDBRANCH   1  73
TORSDOF 23
ENDMDL
