MODEL 1
REMARK VINA RESULT:      -9.8      0.000      0.000
REMARK SMILES O=C(OCCOCCOCCOC(=O)C1CCN(S(=O)(=O)C2CC2)CC1)c1ccc(-c2c3nc(c(-c4cccc(S(=O)(=O)[O-])c4F)c4ccc([nH]4)c(-c4cccc(S(=O)(=O)[O-])c4F)c4nc(c(-c5cccc(S(=O)(=O)[O-])c5F)c5ccc2[nH]5)C=C4)C=C3)cc1
REMARK SMILES IDX 7 1 6 2 5 3 4 4 3 5 2 6 1 7 27 8 28 9 89 10 29 11 88 12
REMARK SMILES IDX 30 13 31 14 32 15 82 16 33 17 87 18 81 19 83 20 34 21 86 22
REMARK SMILES IDX 80 23 79 24 35 26 67 27 47 28 66 29 48 30 51 31 65 32 84 33
REMARK SMILES IDX 49 34 50 35 64 37 85 38 52 39 36 40 37 41 45 42 38 43 40 44
REMARK SMILES IDX 46 45 39 46 41 47 42 48 43 49 44 50 68 51 69 52 77 53 70 54
REMARK SMILES IDX 72 55 78 56 71 57 73 58 74 59 75 60 76 61 53 62 54 63 62 64
REMARK SMILES IDX 55 65 57 66 63 67 56 68 58 69 59 70 60 71 61 72 8 73 9 74
REMARK SMILES IDX 10 75 11 76 12 77 13 78 14 79 15 80 16 81 26 82 17 83 25 84
REMARK SMILES IDX 18 85 19 86 20 87 21 88 22 89 23 90 24 91
REMARK H PARENT 83 25 51 36
REMARK Flexibility Score: inf
ROOT
ATOM      1  C   UNL A   1      31.596  30.384  25.962  1.00  0.00     0.188 C 
ENDROOT
BRANCH   1   2
ATOM      2  O   UNL A   1      32.602  30.456  26.962  1.00  0.00    -0.376 OA
BRANCH   2   3
ATOM      3  C   UNL A   1      33.097  31.748  27.262  1.00  0.00     0.202 C 
BRANCH   3   4
ATOM      4  C   UNL A   1      32.099  32.910  27.137  1.00  0.00     0.261 C 
BRANCH   4   5
ATOM      5  O   UNL A   1      32.366  34.115  27.920  1.00  0.00    -0.460 OA
BRANCH   5   6
ATOM      6  C   UNL A   1      33.131  34.548  28.960  1.00  0.00     0.338 C 
ATOM      7  O   UNL A   1      32.717  35.527  29.581  1.00  0.00    -0.246 OA
BRANCH   6   8
ATOM      8  C   UNL A   1      34.482  34.020  29.371  1.00  0.00     0.060 A 
ATOM      9  C   UNL A   1      34.624  33.027  30.289  1.00  0.00     0.016 A 
ATOM     10  C   UNL A   1      35.697  34.403  28.758  1.00  0.00     0.016 A 
ATOM     11  C   UNL A   1      35.907  32.494  30.629  1.00  0.00     0.010 A 
ATOM     12  C   UNL A   1      36.997  33.853  29.128  1.00  0.00     0.010 A 
ATOM     13  C   UNL A   1      37.132  32.887  30.124  1.00  0.00    -0.014 A 
BRANCH  13  14
ATOM     14  C   UNL A   1      38.350  32.184  30.739  1.00  0.00     0.031 A 
ATOM     15  C   UNL A   1      38.623  32.211  32.226  1.00  0.00     0.074 A 
ATOM     16  C   UNL A   1      38.895  31.065  30.207  1.00  0.00     0.049 A 
ATOM     17  N   UNL A   1      39.705  32.275  32.950  1.00  0.00    -0.248 NA
ATOM     18  C   UNL A   1      37.452  32.017  33.049  1.00  0.00     0.031 C 
ATOM     19  C   UNL A   1      38.600  30.526  28.891  1.00  0.00     0.029 A 
ATOM     20  N   UNL A   1      39.756  30.136  30.763  1.00  0.00    -0.354 N 
ATOM     21  C   UNL A   1      39.258  32.470  34.264  1.00  0.00     0.074 A 
ATOM     22  C   UNL A   1      37.811  32.459  34.240  1.00  0.00     0.031 C 
ATOM     23  C   UNL A   1      39.251  29.360  28.737  1.00  0.00     0.029 A 
ATOM     24  C   UNL A   1      40.087  29.108  29.912  1.00  0.00     0.049 A 
ATOM     25  H   UNL A   1      40.100  30.204  31.683  1.00  0.00     0.167 HD
ATOM     26  C   UNL A   1      39.893  32.325  35.451  1.00  0.00     0.034 A 
ATOM     27  C   UNL A   1      41.018  28.131  30.036  1.00  0.00     0.034 A 
ATOM     28  C   UNL A   1      41.049  31.505  35.616  1.00  0.00     0.049 A 
ATOM     29  C   UNL A   1      41.868  28.072  31.286  1.00  0.00     0.074 A 
ATOM     30  C   UNL A   1      41.854  31.343  36.726  1.00  0.00     0.029 A 
ATOM     31  N   UNL A   1      41.446  30.564  34.681  1.00  0.00    -0.354 N 
ATOM     32  N   UNL A   1      41.737  28.732  32.414  1.00  0.00    -0.248 NA
ATOM     33  C   UNL A   1      43.024  27.160  31.266  1.00  0.00     0.031 C 
ATOM     34  C   UNL A   1      42.751  30.304  36.455  1.00  0.00     0.029 A 
ATOM     35  C   UNL A   1      42.487  29.813  35.184  1.00  0.00     0.049 A 
ATOM     36  H   UNL A   1      41.044  30.448  33.790  1.00  0.00     0.167 HD
ATOM     37  C   UNL A   1      42.794  28.322  33.226  1.00  0.00     0.074 A 
ATOM     38  C   UNL A   1      43.532  27.325  32.481  1.00  0.00     0.031 C 
ATOM     39  C   UNL A   1      43.152  28.762  34.459  1.00  0.00     0.034 A 
BRANCH  26  40
ATOM     40  C   UNL A   1      39.360  33.120  36.614  1.00  0.00     0.023 A 
ATOM     41  C   UNL A   1      39.690  34.466  36.862  1.00  0.00     0.012 A 
ATOM     42  C   UNL A   1      38.503  32.450  37.512  1.00  0.00     0.148 A 
ATOM     43  C   UNL A   1      39.269  35.093  38.038  1.00  0.00     0.002 A 
ATOM     44  C   UNL A   1      38.044  33.095  38.651  1.00  0.00     0.091 A 
ATOM     45  F   UNL A   1      38.168  31.180  37.241  1.00  0.00    -0.205 F 
ATOM     46  C   UNL A   1      38.450  34.407  38.933  1.00  0.00     0.022 A 
BRANCH  44  47
ATOM     47  S   UNL A   1      36.916  32.311  39.806  1.00  0.00     0.127 S 
ATOM     48  O   UNL A   1      37.675  31.123  40.198  1.00  0.00    -0.237 OA
ATOM     49  O   UNL A   1      36.792  33.328  40.850  1.00  0.00    -0.237 OA
ATOM     50  O   UNL A   1      35.691  32.053  39.062  1.00  0.00    -0.744 OA
ENDBRANCH  44  47
ENDBRANCH  26  40
BRANCH  27  51
ATOM     51  C   UNL A   1      41.294  27.215  28.884  1.00  0.00     0.023 A 
ATOM     52  C   UNL A   1      40.576  26.016  28.706  1.00  0.00     0.012 A 
ATOM     53  C   UNL A   1      42.288  27.549  27.943  1.00  0.00     0.148 A 
ATOM     54  C   UNL A   1      40.841  25.181  27.614  1.00  0.00     0.002 A 
ATOM     55  C   UNL A   1      42.470  26.775  26.806  1.00  0.00     0.091 A 
ATOM     56  F   UNL A   1      43.042  28.635  28.170  1.00  0.00    -0.205 F 
ATOM     57  C   UNL A   1      41.767  25.575  26.648  1.00  0.00     0.022 A 
BRANCH  55  58
ATOM     58  S   UNL A   1      43.465  27.365  25.433  1.00  0.00     0.127 S 
ATOM     59  O   UNL A   1      42.468  28.018  24.592  1.00  0.00    -0.237 OA
ATOM     60  O   UNL A   1      44.401  28.268  26.102  1.00  0.00    -0.237 OA
ATOM     61  O   UNL A   1      44.093  26.171  24.879  1.00  0.00    -0.744 OA
ENDBRANCH  55  58
ENDBRANCH  27  51
BRANCH  39  62
ATOM     62  C   UNL A   1      44.372  28.175  35.114  1.00  0.00     0.023 A 
ATOM     63  C   UNL A   1      44.240  27.007  35.887  1.00  0.00     0.012 A 
ATOM     64  C   UNL A   1      45.655  28.666  34.806  1.00  0.00     0.148 A 
ATOM     65  C   UNL A   1      45.370  26.332  36.344  1.00  0.00     0.002 A 
ATOM     66  C   UNL A   1      46.778  27.959  35.220  1.00  0.00     0.091 A 
ATOM     67  F   UNL A   1      45.753  29.790  34.080  1.00  0.00    -0.205 F 
ATOM     68  C   UNL A   1      46.637  26.796  35.995  1.00  0.00     0.022 A 
BRANCH  66  69
ATOM     69  S   UNL A   1      48.440  28.408  34.705  1.00  0.00     0.127 S 
ATOM     70  O   UNL A   1      49.237  27.344  35.313  1.00  0.00    -0.237 OA
ATOM     71  O   UNL A   1      48.341  28.340  33.247  1.00  0.00    -0.237 OA
ATOM     72  O   UNL A   1      48.676  29.744  35.233  1.00  0.00    -0.744 OA
ENDBRANCH  66  69
ENDBRANCH  39  62
ENDBRANCH  13  14
ENDBRANCH   6   8
ENDBRANCH   5   6
ENDBRANCH   4   5
ENDBRANCH   3   4
ENDBRANCH   2   3
ENDBRANCH   1   2
BRANCH   1  73
ATOM     73  C   UNL A   1      31.848  29.200  25.026  1.00  0.00     0.188 C 
BRANCH  73  74
ATOM     74  O   UNL A   1      31.314  29.340  23.710  1.00  0.00    -0.376 OA
BRANCH  74  75
ATOM     75  C   UNL A   1      30.036  28.754  23.468  1.00  0.00     0.202 C 
BRANCH  75  76
ATOM     76  C   UNL A   1      29.993  27.233  23.272  1.00  0.00     0.261 C 
BRANCH  76  77
ATOM     77  O   UNL A   1      31.015  26.700  22.415  1.00  0.00    -0.463 OA
BRANCH  77  78
ATOM     78  C   UNL A   1      31.746  25.670  22.928  1.00  0.00     0.309 C 
ATOM     79  O   UNL A   1      32.671  25.129  22.357  1.00  0.00    -0.252 OA
BRANCH  78  80
ATOM     80  C   UNL A   1      31.300  25.279  24.333  1.00  0.00     0.102 C 
ATOM     81  C   UNL A   1      32.324  25.425  25.444  1.00  0.00     0.032 C 
ATOM     82  C   UNL A   1      30.738  23.891  24.398  1.00  0.00     0.032 C 
ATOM     83  C   UNL A   1      33.377  24.315  25.543  1.00  0.00     0.103 C 
ATOM     84  C   UNL A   1      31.816  22.806  24.398  1.00  0.00     0.103 C 
ATOM     85  N   UNL A   1      32.882  22.863  25.455  1.00  0.00    -0.202 NA
BRANCH  85  86
ATOM     86  S   UNL A   1      34.424  21.827  25.289  1.00  0.00     0.216 S 
ATOM     87  O   UNL A   1      34.895  21.631  26.648  1.00  0.00    -0.212 OA
ATOM     88  O   UNL A   1      33.885  20.675  24.580  1.00  0.00    -0.212 OA
BRANCH  86  89
ATOM     89  C   UNL A   1      36.008  21.972  24.289  1.00  0.00     0.124 C 
ATOM     90  C   UNL A   1      36.641  22.895  23.275  1.00  0.00     0.022 C 
ATOM     91  C   UNL A   1      37.013  23.043  24.690  1.00  0.00     0.022 C 
ENDBRANCH  86  89
ENDBRANCH  85  86
ENDBRANCH  78  80
ENDBRANCH  77  78
ENDBRANCH  76  77
ENDBRANCH  75  76
ENDBRANCH  74  75
ENDBRANCH  73  74
ENDBRANCH   1  73
TORSDOF 22
ENDMDL
MODEL 2
REMARK VINA RESULT:      -9.8      2.537      7.985
REMARK SMILES O=C(OCCOCCOCCOC(=O)C1CCN(S(=O)(=O)C2CC2)CC1)c1ccc(-c2c3nc(c(-c4cccc(S(=O)(=O)[O-])c4F)c4ccc([nH]4)c(-c4cccc(S(=O)(=O)[O-])c4F)c4nc(c(-c5cccc(S(=O)(=O)[O-])c5F)c5ccc2[nH]5)C=C4)C=C3)cc1
REMARK SMILES IDX 7 1 6 2 5 3 4 4 3 5 2 6 1 7 27 8 28 9 89 10 29 11 88 12
REMARK SMILES IDX 30 13 31 14 32 15 82 16 33 17 87 18 81 19 83 20 34 21 86 22
REMARK SMILES IDX 80 23 79 24 35 26 67 27 47 28 66 29 48 30 51 31 65 32 84 33
REMARK SMILES IDX 49 34 50 35 64 37 85 38 52 39 36 40 37 41 45 42 38 43 40 44
REMARK SMILES IDX 46 45 39 46 41 47 42 48 43 49 44 50 68 51 69 52 77 53 70 54
REMARK SMILES IDX 72 55 78 56 71 57 73 58 74 59 75 60 76 61 53 62 54 63 62 64
REMARK SMILES IDX 55 65 57 66 63 67 56 68 58 69 59 70 60 71 61 72 8 73 9 74
REMARK SMILES IDX 10 75 11 76 12 77 13 78 14 79 15 80 16 81 26 82 17 83 25 84
REMARK SMILES IDX 18 85 19 86 20 87 21 88 22 89 23 90 24 91
REMARK H PARENT 83 25 51 36
REMARK Flexibility Score: inf
ROOT
ATOM      1  C   UNL A   1      32.027  28.144  26.854  1.00  0.00     0.188 C 
ENDROOT
BRANCH   1   2
ATOM      2  O   UNL A   1      32.501  28.941  25.780  1.00  0.00    -0.376 OA
BRANCH   2   3
ATOM      3  C   UNL A   1      31.592  29.888  25.251  1.00  0.00     0.202 C 
BRANCH   3   4
ATOM      4  C   UNL A   1      31.170  31.031  26.189  1.00  0.00     0.261 C 
BRANCH   4   5
ATOM      5  O   UNL A   1      32.140  32.097  26.430  1.00  0.00    -0.460 OA
BRANCH   5   6
ATOM      6  C   UNL A   1      32.888  32.634  27.433  1.00  0.00     0.338 C 
ATOM      7  O   UNL A   1      32.664  33.810  27.722  1.00  0.00    -0.246 OA
BRANCH   6   8
ATOM      8  C   UNL A   1      34.032  31.975  28.161  1.00  0.00     0.060 A 
ATOM      9  C   UNL A   1      34.535  32.471  29.323  1.00  0.00     0.016 A 
ATOM     10  C   UNL A   1      34.592  30.731  27.786  1.00  0.00     0.016 A 
ATOM     11  C   UNL A   1      35.581  31.805  30.035  1.00  0.00     0.010 A 
ATOM     12  C   UNL A   1      35.667  30.075  28.522  1.00  0.00     0.010 A 
ATOM     13  C   UNL A   1      36.221  30.635  29.673  1.00  0.00    -0.014 A 
BRANCH  13  14
ATOM     14  C   UNL A   1      37.366  30.200  30.598  1.00  0.00     0.031 A 
ATOM     15  C   UNL A   1      38.646  29.599  30.060  1.00  0.00     0.074 A 
ATOM     16  C   UNL A   1      37.623  30.808  31.780  1.00  0.00     0.049 A 
ATOM     17  N   UNL A   1      39.457  28.667  30.476  1.00  0.00    -0.248 NA
ATOM     18  C   UNL A   1      39.162  30.257  28.883  1.00  0.00     0.031 C 
ATOM     19  C   UNL A   1      36.744  31.745  32.456  1.00  0.00     0.029 A 
ATOM     20  N   UNL A   1      38.755  30.780  32.575  1.00  0.00    -0.354 N 
ATOM     21  C   UNL A   1      40.344  28.450  29.413  1.00  0.00     0.074 A 
ATOM     22  C   UNL A   1      40.002  29.382  28.360  1.00  0.00     0.031 C 
ATOM     23  C   UNL A   1      37.362  32.216  33.553  1.00  0.00     0.029 A 
ATOM     24  C   UNL A   1      38.653  31.545  33.713  1.00  0.00     0.049 A 
ATOM     25  H   UNL A   1      39.560  30.260  32.347  1.00  0.00     0.167 HD
ATOM     26  C   UNL A   1      41.544  27.825  29.368  1.00  0.00     0.034 A 
ATOM     27  C   UNL A   1      39.467  31.625  34.793  1.00  0.00     0.034 A 
ATOM     28  C   UNL A   1      42.362  27.638  30.522  1.00  0.00     0.049 A 
ATOM     29  C   UNL A   1      40.724  30.785  34.837  1.00  0.00     0.074 A 
ATOM     30  C   UNL A   1      43.546  26.939  30.649  1.00  0.00     0.029 A 
ATOM     31  N   UNL A   1      42.161  28.322  31.709  1.00  0.00    -0.354 N 
ATOM     32  N   UNL A   1      41.290  30.082  33.882  1.00  0.00    -0.248 NA
ATOM     33  C   UNL A   1      41.437  30.715  36.124  1.00  0.00     0.031 C 
ATOM     34  C   UNL A   1      44.058  27.195  31.926  1.00  0.00     0.029 A 
ATOM     35  C   UNL A   1      43.198  28.064  32.580  1.00  0.00     0.049 A 
ATOM     36  H   UNL A   1      41.392  28.905  31.901  1.00  0.00     0.167 HD
ATOM     37  C   UNL A   1      42.412  29.484  34.456  1.00  0.00     0.074 A 
ATOM     38  C   UNL A   1      42.473  29.940  35.828  1.00  0.00     0.031 C 
ATOM     39  C   UNL A   1      43.287  28.600  33.913  1.00  0.00     0.034 A 
BRANCH  26  40
ATOM     40  C   UNL A   1      41.979  27.271  28.037  1.00  0.00     0.023 A 
ATOM     41  C   UNL A   1      42.472  28.061  26.982  1.00  0.00     0.012 A 
ATOM     42  C   UNL A   1      41.850  25.879  27.847  1.00  0.00     0.148 A 
ATOM     43  C   UNL A   1      42.720  27.494  25.729  1.00  0.00     0.002 A 
ATOM     44  C   UNL A   1      42.151  25.313  26.616  1.00  0.00     0.091 A 
ATOM     45  F   UNL A   1      41.416  25.136  28.874  1.00  0.00    -0.205 F 
ATOM     46  C   UNL A   1      42.557  26.123  25.545  1.00  0.00     0.022 A 
BRANCH  44  47
ATOM     47  S   UNL A   1      42.052  23.545  26.326  1.00  0.00     0.127 S 
ATOM     48  O   UNL A   1      42.803  23.017  27.465  1.00  0.00    -0.237 OA
ATOM     49  O   UNL A   1      40.609  23.307  26.384  1.00  0.00    -0.237 OA
ATOM     50  O   UNL A   1      42.652  23.315  25.019  1.00  0.00    -0.744 OA
ENDBRANCH  44  47
ENDBRANCH  26  40
BRANCH  27  51
ATOM     51  C   UNL A   1      39.046  32.428  35.984  1.00  0.00     0.023 A 
ATOM     52  C   UNL A   1      38.217  31.883  36.985  1.00  0.00     0.012 A 
ATOM     53  C   UNL A   1      39.484  33.759  36.127  1.00  0.00     0.148 A 
ATOM     54  C   UNL A   1      37.846  32.647  38.098  1.00  0.00     0.002 A 
ATOM     55  C   UNL A   1      39.204  34.473  37.283  1.00  0.00     0.091 A 
ATOM     56  F   UNL A   1      40.185  34.310  35.124  1.00  0.00    -0.205 F 
ATOM     57  C   UNL A   1      38.364  33.931  38.262  1.00  0.00     0.022 A 
BRANCH  55  58
ATOM     58  S   UNL A   1      40.042  36.020  37.642  1.00  0.00     0.127 S 
ATOM     59  O   UNL A   1      39.804  36.786  36.423  1.00  0.00    -0.237 OA
ATOM     60  O   UNL A   1      39.316  36.491  38.822  1.00  0.00    -0.237 OA
ATOM     61  O   UNL A   1      41.426  35.650  37.911  1.00  0.00    -0.744 OA
ENDBRANCH  55  58
ENDBRANCH  27  51
BRANCH  39  62
ATOM     62  C   UNL A   1      44.406  28.070  34.767  1.00  0.00     0.023 A 
ATOM     63  C   UNL A   1      45.663  28.701  34.720  1.00  0.00     0.012 A 
ATOM     64  C   UNL A   1      44.157  27.084  35.741  1.00  0.00     0.148 A 
ATOM     65  C   UNL A   1      46.658  28.360  35.634  1.00  0.00     0.002 A 
ATOM     66  C   UNL A   1      45.136  26.787  36.682  1.00  0.00     0.091 A 
ATOM     67  F   UNL A   1      42.955  26.488  35.755  1.00  0.00    -0.205 F 
ATOM     68  C   UNL A   1      46.389  27.419  36.625  1.00  0.00     0.022 A 
BRANCH  66  69
ATOM     69  S   UNL A   1      44.831  25.689  38.072  1.00  0.00     0.127 S 
ATOM     70  O   UNL A   1      46.113  25.731  38.771  1.00  0.00    -0.237 OA
ATOM     71  O   UNL A   1      43.733  26.365  38.765  1.00  0.00    -0.237 OA
ATOM     72  O   UNL A   1      44.477  24.400  37.494  1.00  0.00    -0.744 OA
ENDBRANCH  66  69
ENDBRANCH  39  62
ENDBRANCH  13  14
ENDBRANCH   6   8
ENDBRANCH   5   6
ENDBRANCH   4   5
ENDBRANCH   3   4
ENDBRANCH   2   3
ENDBRANCH   1   2
BRANCH   1  73
ATOM     73  C   UNL A   1      31.101  27.039  26.342  1.00  0.00     0.188 C 
BRANCH  73  74
ATOM     74  O   UNL A   1      31.525  25.707  26.630  1.00  0.00    -0.376 OA
BRANCH  74  75
ATOM     75  C   UNL A   1      30.762  24.650  26.053  1.00  0.00     0.202 C 
BRANCH  75  76
ATOM     76  C   UNL A   1      30.857  23.274  26.727  1.00  0.00     0.261 C 
BRANCH  76  77
ATOM     77  O   UNL A   1      31.976  22.471  26.319  1.00  0.00    -0.463 OA
BRANCH  77  78
ATOM     78  C   UNL A   1      33.034  22.443  27.177  1.00  0.00     0.309 C 
ATOM     79  O   UNL A   1      32.940  22.383  28.386  1.00  0.00    -0.252 OA
BRANCH  78  80
ATOM     80  C   UNL A   1      34.376  22.459  26.452  1.00  0.00     0.102 C 
ATOM     81  C   UNL A   1      34.892  23.811  25.992  1.00  0.00     0.032 C 
ATOM     82  C   UNL A   1      34.414  21.523  25.283  1.00  0.00     0.032 C 
ATOM     83  C   UNL A   1      34.268  24.370  24.707  1.00  0.00     0.103 C 
ATOM     84  C   UNL A   1      33.699  22.075  24.049  1.00  0.00     0.103 C 
ATOM     85  N   UNL A   1      34.130  23.410  23.514  1.00  0.00    -0.202 NA
BRANCH  85  86
ATOM     86  S   UNL A   1      33.066  24.315  22.277  1.00  0.00     0.216 S 
ATOM     87  O   UNL A   1      33.466  23.794  20.983  1.00  0.00    -0.212 OA
ATOM     88  O   UNL A   1      31.743  23.967  22.773  1.00  0.00    -0.212 OA
BRANCH  86  89
ATOM     89  C   UNL A   1      32.696  26.124  21.930  1.00  0.00     0.124 C 
ATOM     90  C   UNL A   1      31.989  27.291  22.576  1.00  0.00     0.022 C 
ATOM     91  C   UNL A   1      33.446  27.176  22.735  1.00  0.00     0.022 C 
ENDBRANCH  86  89
ENDBRANCH  85  86
ENDBRANCH  78  80
ENDBRANCH  77  78
ENDBRANCH  76  77
ENDBRANCH  75  76
ENDBRANCH  74  75
ENDBRANCH  73  74
ENDBRANCH   1  73
TORSDOF 22
ENDMDL
MODEL 3
REMARK VINA RESULT:      -9.5      1.755      2.129
REMARK SMILES O=C(OCCOCCOCCOC(=O)C1CCN(S(=O)(=O)C2CC2)CC1)c1ccc(-c2c3nc(c(-c4cccc(S(=O)(=O)[O-])c4F)c4ccc([nH]4)c(-c4cccc(S(=O)(=O)[O-])c4F)c4nc(c(-c5cccc(S(=O)(=O)[O-])c5F)c5ccc2[nH]5)C=C4)C=C3)cc1
REMARK SMILES IDX 7 1 6 2 5 3 4 4 3 5 2 6 1 7 27 8 28 9 89 10 29 11 88 12
REMARK SMILES IDX 30 13 31 14 32 15 82 16 33 17 87 18 81 19 83 20 34 21 86 22
REMARK SMILES IDX 80 23 79 24 35 26 67 27 47 28 66 29 48 30 51 31 65 32 84 33
REMARK SMILES IDX 49 34 50 35 64 37 85 38 52 39 36 40 37 41 45 42 38 43 40 44
REMARK SMILES IDX 46 45 39 46 41 47 42 48 43 49 44 50 68 51 69 52 77 53 70 54
REMARK SMILES IDX 72 55 78 56 71 57 73 58 74 59 75 60 76 61 53 62 54 63 62 64
REMARK SMILES IDX 55 65 57 66 63 67 56 68 58 69 59 70 60 71 61 72 8 73 9 74
REMARK SMILES IDX 10 75 11 76 12 77 13 78 14 79 15 80 16 81 26 82 17 83 25 84
REMARK SMILES IDX 18 85 19 86 20 87 21 88 22 89 23 90 24 91
REMARK H PARENT 83 25 51 36
REMARK Flexibility Score: inf
ROOT
ATOM      1  C   UNL A   1      31.884  29.730  25.525  1.00  0.00     0.188 C 
ENDROOT
BRANCH   1   2
ATOM      2  O   UNL A   1      31.765  30.332  26.805  1.00  0.00    -0.376 OA
BRANCH   2   3
ATOM      3  C   UNL A   1      32.462  31.549  26.994  1.00  0.00     0.202 C 
BRANCH   3   4
ATOM      4  C   UNL A   1      31.698  32.837  26.646  1.00  0.00     0.261 C 
BRANCH   4   5
ATOM      5  O   UNL A   1      31.907  33.998  27.510  1.00  0.00    -0.460 OA
BRANCH   5   6
ATOM      6  C   UNL A   1      32.865  34.577  28.284  1.00  0.00     0.338 C 
ATOM      7  O   UNL A   1      32.821  35.802  28.397  1.00  0.00    -0.246 OA
BRANCH   6   8
ATOM      8  C   UNL A   1      34.037  33.888  28.939  1.00  0.00     0.060 A 
ATOM      9  C   UNL A   1      35.311  34.041  28.490  1.00  0.00     0.016 A 
ATOM     10  C   UNL A   1      33.943  33.142  30.136  1.00  0.00     0.016 A 
ATOM     11  C   UNL A   1      36.421  33.429  29.153  1.00  0.00     0.010 A 
ATOM     12  C   UNL A   1      35.087  32.518  30.790  1.00  0.00     0.010 A 
ATOM     13  C   UNL A   1      36.379  32.623  30.275  1.00  0.00    -0.014 A 
BRANCH  13  14
ATOM     14  C   UNL A   1      37.730  32.043  30.716  1.00  0.00     0.031 A 
ATOM     15  C   UNL A   1      38.135  31.975  32.172  1.00  0.00     0.074 A 
ATOM     16  C   UNL A   1      38.364  31.062  30.032  1.00  0.00     0.049 A 
ATOM     17  N   UNL A   1      39.262  32.124  32.809  1.00  0.00    -0.248 NA
ATOM     18  C   UNL A   1      37.081  31.549  33.062  1.00  0.00     0.031 C 
ATOM     19  C   UNL A   1      38.020  30.607  28.697  1.00  0.00     0.029 A 
ATOM     20  N   UNL A   1      39.386  30.215  30.421  1.00  0.00    -0.354 N 
ATOM     21  C   UNL A   1      38.919  32.138  34.168  1.00  0.00     0.074 A 
ATOM     22  C   UNL A   1      37.489  31.930  34.259  1.00  0.00     0.031 C 
ATOM     23  C   UNL A   1      38.800  29.560  28.375  1.00  0.00     0.029 A 
ATOM     24  C   UNL A   1      39.768  29.322  29.447  1.00  0.00     0.049 A 
ATOM     25  H   UNL A   1      39.802  30.248  31.313  1.00  0.00     0.167 HD
ATOM     26  C   UNL A   1      39.675  31.978  35.279  1.00  0.00     0.034 A 
ATOM     27  C   UNL A   1      40.824  28.476  29.397  1.00  0.00     0.034 A 
ATOM     28  C   UNL A   1      40.938  31.313  35.267  1.00  0.00     0.049 A 
ATOM     29  C   UNL A   1      41.788  28.425  30.562  1.00  0.00     0.074 A 
ATOM     30  C   UNL A   1      41.857  31.167  36.287  1.00  0.00     0.029 A 
ATOM     31  N   UNL A   1      41.365  30.523  34.214  1.00  0.00    -0.354 N 
ATOM     32  N   UNL A   1      41.678  28.958  31.758  1.00  0.00    -0.248 NA
ATOM     33  C   UNL A   1      43.046  27.686  30.357  1.00  0.00     0.031 C 
ATOM     34  C   UNL A   1      42.852  30.289  35.841  1.00  0.00     0.029 A 
ATOM     35  C   UNL A   1      42.537  29.882  34.553  1.00  0.00     0.049 A 
ATOM     36  H   UNL A   1      40.900  30.432  33.351  1.00  0.00     0.167 HD
ATOM     37  C   UNL A   1      42.851  28.626  32.437  1.00  0.00     0.074 A 
ATOM     38  C   UNL A   1      43.639  27.811  31.538  1.00  0.00     0.031 C 
ATOM     39  C   UNL A   1      43.261  29.001  33.675  1.00  0.00     0.034 A 
BRANCH  26  40
ATOM     40  C   UNL A   1      39.154  32.585  36.555  1.00  0.00     0.023 A 
ATOM     41  C   UNL A   1      39.489  33.876  37.004  1.00  0.00     0.012 A 
ATOM     42  C   UNL A   1      38.304  31.785  37.347  1.00  0.00     0.148 A 
ATOM     43  C   UNL A   1      39.080  34.315  38.266  1.00  0.00     0.002 A 
ATOM     44  C   UNL A   1      37.856  32.248  38.577  1.00  0.00     0.091 A 
ATOM     45  F   UNL A   1      37.963  30.573  36.888  1.00  0.00    -0.205 F 
ATOM     46  C   UNL A   1      38.268  33.501  39.053  1.00  0.00     0.022 A 
BRANCH  44  47
ATOM     47  S   UNL A   1      36.738  31.297  39.608  1.00  0.00     0.127 S 
ATOM     48  O   UNL A   1      37.084  29.927  39.232  1.00  0.00    -0.237 OA
ATOM     49  O   UNL A   1      37.158  31.685  40.954  1.00  0.00    -0.237 OA
ATOM     50  O   UNL A   1      35.393  31.724  39.246  1.00  0.00    -0.744 OA
ENDBRANCH  44  47
ENDBRANCH  26  40
BRANCH  27  51
ATOM     51  C   UNL A   1      41.108  27.713  28.140  1.00  0.00     0.023 A 
ATOM     52  C   UNL A   1      41.652  28.341  27.003  1.00  0.00     0.012 A 
ATOM     53  C   UNL A   1      40.835  26.332  28.079  1.00  0.00     0.148 A 
ATOM     54  C   UNL A   1      41.922  27.605  25.842  1.00  0.00     0.002 A 
ATOM     55  C   UNL A   1      41.206  25.589  26.968  1.00  0.00     0.091 A 
ATOM     56  F   UNL A   1      40.221  25.757  29.124  1.00  0.00    -0.205 F 
ATOM     57  C   UNL A   1      41.727  26.225  25.835  1.00  0.00     0.022 A 
BRANCH  55  58
ATOM     58  S   UNL A   1      41.199  23.794  27.009  1.00  0.00     0.127 S 
ATOM     59  O   UNL A   1      41.664  23.518  28.363  1.00  0.00    -0.237 OA
ATOM     60  O   UNL A   1      39.789  23.491  26.763  1.00  0.00    -0.237 OA
ATOM     61  O   UNL A   1      42.087  23.387  25.926  1.00  0.00    -0.744 OA
ENDBRANCH  55  58
ENDBRANCH  27  51
BRANCH  39  62
ATOM     62  C   UNL A   1      44.603  28.532  34.167  1.00  0.00     0.023 A 
ATOM     63  C   UNL A   1      45.724  29.368  34.005  1.00  0.00     0.012 A 
ATOM     64  C   UNL A   1      44.710  27.367  34.951  1.00  0.00     0.148 A 
ATOM     65  C   UNL A   1      46.934  29.051  34.618  1.00  0.00     0.002 A 
ATOM     66  C   UNL A   1      45.905  27.085  35.602  1.00  0.00     0.091 A 
ATOM     67  F   UNL A   1      43.630  26.580  35.077  1.00  0.00    -0.205 F 
ATOM     68  C   UNL A   1      47.020  27.922  35.431  1.00  0.00     0.022 A 
BRANCH  66  69
ATOM     69  S   UNL A   1      46.065  25.731  36.772  1.00  0.00     0.127 S 
ATOM     70  O   UNL A   1      44.912  25.951  37.642  1.00  0.00    -0.237 OA
ATOM     71  O   UNL A   1      45.960  24.557  35.903  1.00  0.00    -0.237 OA
ATOM     72  O   UNL A   1      47.365  25.899  37.405  1.00  0.00    -0.744 OA
ENDBRANCH  66  69
ENDBRANCH  39  62
ENDBRANCH  13  14
ENDBRANCH   6   8
ENDBRANCH   5   6
ENDBRANCH   4   5
ENDBRANCH   3   4
ENDBRANCH   2   3
ENDBRANCH   1   2
BRANCH   1  73
ATOM     73  C   UNL A   1      31.654  28.220  25.613  1.00  0.00     0.188 C 
BRANCH  73  74
ATOM     74  O   UNL A   1      32.754  27.411  25.196  1.00  0.00    -0.376 OA
BRANCH  74  75
ATOM     75  C   UNL A   1      33.122  27.484  23.820  1.00  0.00     0.202 C 
BRANCH  75  76
ATOM     76  C   UNL A   1      32.024  27.192  22.789  1.00  0.00     0.261 C 
BRANCH  76  77
ATOM     77  O   UNL A   1      32.285  26.081  21.918  1.00  0.00    -0.463 OA
BRANCH  77  78
ATOM     78  C   UNL A   1      32.752  24.950  22.517  1.00  0.00     0.309 C 
ATOM     79  O   UNL A   1      33.916  24.605  22.526  1.00  0.00    -0.252 OA
BRANCH  78  80
ATOM     80  C   UNL A   1      31.651  24.163  23.221  1.00  0.00     0.102 C 
ATOM     81  C   UNL A   1      31.714  24.097  24.736  1.00  0.00     0.032 C 
ATOM     82  C   UNL A   1      31.515  22.764  22.699  1.00  0.00     0.032 C 
ATOM     83  C   UNL A   1      32.714  23.096  25.328  1.00  0.00     0.103 C 
ATOM     84  C   UNL A   1      32.587  21.816  23.237  1.00  0.00     0.103 C 
ATOM     85  N   UNL A   1      32.736  21.682  24.726  1.00  0.00    -0.202 NA
BRANCH  85  86
ATOM     86  S   UNL A   1      34.250  20.865  25.448  1.00  0.00     0.216 S 
ATOM     87  O   UNL A   1      34.064  20.930  26.886  1.00  0.00    -0.212 OA
ATOM     88  O   UNL A   1      34.168  19.560  24.807  1.00  0.00    -0.212 OA
BRANCH  86  89
ATOM     89  C   UNL A   1      36.102  21.095  25.231  1.00  0.00     0.124 C 
ATOM     90  C   UNL A   1      37.066  21.848  24.345  1.00  0.00     0.022 C 
ATOM     91  C   UNL A   1      36.714  22.424  25.651  1.00  0.00     0.022 C 
ENDBRANCH  86  89
ENDBRANCH  85  86
ENDBRANCH  78  80
ENDBRANCH  77  78
ENDBRANCH  76  77
ENDBRANCH  75  76
ENDBRANCH  74  75
ENDBRANCH  73  74
ENDBRANCH   1  73
TORSDOF 22
ENDMDL
