MODEL 1
REMARK VINA RESULT:     -11.2      0.000      0.000
REMARK SMILES O=C(OCCOCCOCCOC(=O)c1cc(-c2ccn(C(F)F)c(=O)c2)ccc1O)c1ccc(-c2c3nc(c(-c4cccc(S(=O)(=O)[O-])c4F)c4ccc([nH]4)c(-c4cccc(S(=O)(=O)[O-])c4F)c4nc(c(-c5cccc(S(=O)(=O)[O-])c5F)c5ccc2[nH]5)C=C4)C=C3)cc1
REMARK SMILES IDX 7 1 6 2 5 3 4 4 3 5 2 6 1 7 32 8 33 9 94 10 34 11 93 12
REMARK SMILES IDX 35 13 36 14 37 15 87 16 38 17 92 18 86 19 88 20 39 21 91 22
REMARK SMILES IDX 85 23 84 24 40 26 72 27 52 28 71 29 53 30 56 31 70 32 89 33
REMARK SMILES IDX 54 34 55 35 69 37 90 38 57 39 41 40 42 41 50 42 43 43 45 44
REMARK SMILES IDX 51 45 44 46 46 47 47 48 48 49 49 50 73 51 74 52 82 53 75 54
REMARK SMILES IDX 77 55 83 56 76 57 78 58 79 59 80 60 81 61 58 62 59 63 67 64
REMARK SMILES IDX 60 65 62 66 68 67 61 68 63 69 64 70 65 71 66 72 8 73 9 74
REMARK SMILES IDX 10 75 11 76 12 77 13 78 14 79 15 80 16 81 30 82 17 83 29 84
REMARK SMILES IDX 28 85 31 86 18 88 19 89 27 90 20 91 25 92 21 93 26 94 22 95
REMARK SMILES IDX 23 96 24 97
REMARK H PARENT 88 25 56 36 31 87
REMARK Flexibility Score: inf
ROOT
ATOM      1  C   UNL A   1      32.351  30.072  25.954  1.00  0.00     0.188 C 
ENDROOT
BRANCH   1   2
ATOM      2  O   UNL A   1      31.170  30.793  25.578  1.00  0.00    -0.376 OA
BRANCH   2   3
ATOM      3  C   UNL A   1      31.078  32.094  26.166  1.00  0.00     0.202 C 
BRANCH   3   4
ATOM      4  C   UNL A   1      32.345  32.524  26.910  1.00  0.00     0.261 C 
BRANCH   4   5
ATOM      5  O   UNL A   1      32.192  33.813  27.513  1.00  0.00    -0.460 OA
BRANCH   5   6
ATOM      6  C   UNL A   1      33.019  34.418  28.401  1.00  0.00     0.338 C 
ATOM      7  O   UNL A   1      32.713  35.552  28.773  1.00  0.00    -0.246 OA
BRANCH   6   8
ATOM      8  C   UNL A   1      34.272  33.809  28.968  1.00  0.00     0.060 A 
ATOM      9  C   UNL A   1      34.085  32.808  29.935  1.00  0.00     0.016 A 
ATOM     10  C   UNL A   1      35.590  34.185  28.693  1.00  0.00     0.016 A 
ATOM     11  C   UNL A   1      35.168  32.233  30.615  1.00  0.00     0.010 A 
ATOM     12  C   UNL A   1      36.680  33.565  29.318  1.00  0.00     0.010 A 
ATOM     13  C   UNL A   1      36.482  32.601  30.305  1.00  0.00    -0.014 A 
BRANCH  13  14
ATOM     14  C   UNL A   1      37.639  31.900  30.911  1.00  0.00     0.031 A 
ATOM     15  C   UNL A   1      38.197  32.262  32.258  1.00  0.00     0.074 A 
ATOM     16  C   UNL A   1      38.261  30.962  30.174  1.00  0.00     0.049 A 
ATOM     17  N   UNL A   1      39.124  31.647  32.949  1.00  0.00    -0.248 NA
ATOM     18  C   UNL A   1      37.665  33.465  32.916  1.00  0.00     0.031 C 
ATOM     19  C   UNL A   1      37.895  30.593  28.806  1.00  0.00     0.029 A 
ATOM     20  N   UNL A   1      39.349  30.179  30.456  1.00  0.00    -0.354 N 
ATOM     21  C   UNL A   1      39.232  32.339  34.146  1.00  0.00     0.074 A 
ATOM     22  C   UNL A   1      38.366  33.486  34.043  1.00  0.00     0.031 C 
ATOM     23  C   UNL A   1      38.754  29.667  28.360  1.00  0.00     0.029 A 
ATOM     24  C   UNL A   1      39.735  29.388  29.404  1.00  0.00     0.049 A 
ATOM     25  H   UNL A   1      39.809  30.184  31.326  1.00  0.00     0.167 HD
ATOM     26  C   UNL A   1      39.939  32.010  35.251  1.00  0.00     0.034 A 
ATOM     27  C   UNL A   1      40.770  28.536  29.280  1.00  0.00     0.034 A 
ATOM     28  C   UNL A   1      40.889  30.936  35.308  1.00  0.00     0.049 A 
ATOM     29  C   UNL A   1      41.668  28.294  30.451  1.00  0.00     0.074 A 
ATOM     30  C   UNL A   1      41.636  30.500  36.388  1.00  0.00     0.029 A 
ATOM     31  N   UNL A   1      41.271  30.172  34.218  1.00  0.00    -0.354 N 
ATOM     32  N   UNL A   1      41.585  28.793  31.660  1.00  0.00    -0.248 NA
ATOM     33  C   UNL A   1      42.782  27.358  30.257  1.00  0.00     0.031 C 
ATOM     34  C   UNL A   1      42.498  29.492  35.940  1.00  0.00     0.029 A 
ATOM     35  C   UNL A   1      42.278  29.300  34.585  1.00  0.00     0.049 A 
ATOM     36  H   UNL A   1      40.883  30.241  33.317  1.00  0.00     0.167 HD
ATOM     37  C   UNL A   1      42.622  28.217  32.381  1.00  0.00     0.074 A 
ATOM     38  C   UNL A   1      43.319  27.329  31.472  1.00  0.00     0.031 C 
ATOM     39  C   UNL A   1      42.962  28.414  33.678  1.00  0.00     0.034 A 
BRANCH  26  40
ATOM     40  C   UNL A   1      39.629  32.734  36.531  1.00  0.00     0.023 A 
ATOM     41  C   UNL A   1      40.315  33.943  36.778  1.00  0.00     0.012 A 
ATOM     42  C   UNL A   1      38.632  32.310  37.423  1.00  0.00     0.148 A 
ATOM     43  C   UNL A   1      40.020  34.717  37.898  1.00  0.00     0.002 A 
ATOM     44  C   UNL A   1      38.338  33.092  38.537  1.00  0.00     0.091 A 
ATOM     45  F   UNL A   1      38.007  31.149  37.182  1.00  0.00    -0.205 F 
ATOM     46  C   UNL A   1      39.029  34.293  38.776  1.00  0.00     0.022 A 
BRANCH  44  47
ATOM     47  S   UNL A   1      37.083  32.635  39.736  1.00  0.00     0.127 S 
ATOM     48  O   UNL A   1      37.478  31.260  40.036  1.00  0.00    -0.237 OA
ATOM     49  O   UNL A   1      37.320  33.594  40.816  1.00  0.00    -0.237 OA
ATOM     50  O   UNL A   1      35.806  32.789  39.052  1.00  0.00    -0.744 OA
ENDBRANCH  44  47
ENDBRANCH  26  40
BRANCH  27  51
ATOM     51  C   UNL A   1      40.919  27.822  27.987  1.00  0.00     0.023 A 
ATOM     52  C   UNL A   1      41.500  28.497  26.899  1.00  0.00     0.012 A 
ATOM     53  C   UNL A   1      40.687  26.434  27.905  1.00  0.00     0.148 A 
ATOM     54  C   UNL A   1      41.872  27.795  25.753  1.00  0.00     0.002 A 
ATOM     55  C   UNL A   1      41.101  25.734  26.779  1.00  0.00     0.091 A 
ATOM     56  F   UNL A   1      40.133  25.822  28.962  1.00  0.00    -0.205 F 
ATOM     57  C   UNL A   1      41.690  26.413  25.701  1.00  0.00     0.022 A 
BRANCH  55  58
ATOM     58  S   UNL A   1      41.044  23.941  26.682  1.00  0.00     0.127 S 
ATOM     59  O   UNL A   1      39.623  23.701  26.439  1.00  0.00    -0.237 OA
ATOM     60  O   UNL A   1      41.918  23.674  25.539  1.00  0.00    -0.237 OA
ATOM     61  O   UNL A   1      41.552  23.456  27.957  1.00  0.00    -0.744 OA
ENDBRANCH  55  58
ENDBRANCH  27  51
BRANCH  39  62
ATOM     62  C   UNL A   1      44.163  27.685  34.205  1.00  0.00     0.023 A 
ATOM     63  C   UNL A   1      45.437  28.263  34.050  1.00  0.00     0.012 A 
ATOM     64  C   UNL A   1      44.021  26.495  34.941  1.00  0.00     0.148 A 
ATOM     65  C   UNL A   1      46.559  27.657  34.613  1.00  0.00     0.002 A 
ATOM     66  C   UNL A   1      45.139  25.916  35.530  1.00  0.00     0.091 A 
ATOM     67  F   UNL A   1      42.799  25.956  35.060  1.00  0.00    -0.205 F 
ATOM     68  C   UNL A   1      46.409  26.492  35.362  1.00  0.00     0.022 A 
BRANCH  66  69
ATOM     69  S   UNL A   1      45.018  24.466  36.584  1.00  0.00     0.127 S 
ATOM     70  O   UNL A   1      44.466  23.474  35.664  1.00  0.00    -0.237 OA
ATOM     71  O   UNL A   1      46.412  24.238  36.966  1.00  0.00    -0.237 OA
ATOM     72  O   UNL A   1      44.151  24.853  37.689  1.00  0.00    -0.744 OA
ENDBRANCH  66  69
ENDBRANCH  39  62
ENDBRANCH  13  14
ENDBRANCH   6   8
ENDBRANCH   5   6
ENDBRANCH   4   5
ENDBRANCH   3   4
ENDBRANCH   2   3
ENDBRANCH   1   2
BRANCH   1  73
ATOM     73  C   UNL A   1      32.907  29.283  24.767  1.00  0.00     0.188 C 
BRANCH  73  74
ATOM     74  O   UNL A   1      32.570  27.895  24.749  1.00  0.00    -0.376 OA
BRANCH  74  75
ATOM     75  C   UNL A   1      31.753  27.416  25.814  1.00  0.00     0.202 C 
BRANCH  75  76
ATOM     76  C   UNL A   1      31.803  25.916  26.134  1.00  0.00     0.261 C 
BRANCH  76  77
ATOM     77  O   UNL A   1      30.643  25.155  25.766  1.00  0.00    -0.460 OA
BRANCH  77  78
ATOM     78  C   UNL A   1      30.320  25.248  24.453  1.00  0.00     0.342 C 
ATOM     79  O   UNL A   1      29.423  25.921  23.955  1.00  0.00    -0.246 OA
BRANCH  78  80
ATOM     80  C   UNL A   1      31.212  24.413  23.644  1.00  0.00     0.102 A 
ATOM     81  C   UNL A   1      31.366  23.043  23.928  1.00  0.00     0.028 A 
ATOM     82  C   UNL A   1      32.008  25.038  22.683  1.00  0.00     0.130 A 
ATOM     83  C   UNL A   1      32.331  22.285  23.242  1.00  0.00    -0.017 A 
ATOM     84  C   UNL A   1      32.981  24.307  22.020  1.00  0.00     0.048 A 
ATOM     85  C   UNL A   1      33.127  22.942  22.284  1.00  0.00     0.012 A 
BRANCH  82  86
ATOM     86  O   UNL A   1      31.820  26.358  22.390  1.00  0.00    -0.507 OA
ATOM     87  H   UNL A   1      32.246  26.737  21.645  1.00  0.00     0.293 HD
ENDBRANCH  82  86
BRANCH  83  88
ATOM     88  C   UNL A   1      32.567  20.835  23.484  1.00  0.00    -0.011 A 
ATOM     89  C   UNL A   1      33.297  20.351  24.649  1.00  0.00     0.027 A 
ATOM     90  C   UNL A   1      32.167  19.926  22.577  1.00  0.00     0.080 A 
ATOM     91  C   UNL A   1      33.658  19.067  24.760  1.00  0.00     0.095 A 
ATOM     92  C   UNL A   1      32.532  18.481  22.702  1.00  0.00     0.255 A 
ATOM     93  N   UNL A   1      33.309  18.145  23.796  1.00  0.00    -0.258 N 
ATOM     94  O   UNL A   1      32.153  17.692  21.843  1.00  0.00    -0.269 OA
BRANCH  93  95
ATOM     95  C   UNL A   1      33.768  16.782  23.880  1.00  0.00     0.451 C 
ATOM     96  F   UNL A   1      34.889  16.681  24.635  1.00  0.00    -0.185 F 
ATOM     97  F   UNL A   1      32.822  15.979  24.426  1.00  0.00    -0.185 F 
ENDBRANCH  93  95
ENDBRANCH  83  88
ENDBRANCH  78  80
ENDBRANCH  77  78
ENDBRANCH  76  77
ENDBRANCH  75  76
ENDBRANCH  74  75
ENDBRANCH  73  74
ENDBRANCH   1  73
TORSDOF 23
ENDMDL
MODEL 2
REMARK VINA RESULT:     -10.1      2.541      7.973
REMARK SMILES O=C(OCCOCCOCCOC(=O)c1cc(-c2ccn(C(F)F)c(=O)c2)ccc1O)c1ccc(-c2c3nc(c(-c4cccc(S(=O)(=O)[O-])c4F)c4ccc([nH]4)c(-c4cccc(S(=O)(=O)[O-])c4F)c4nc(c(-c5cccc(S(=O)(=O)[O-])c5F)c5ccc2[nH]5)C=C4)C=C3)cc1
REMARK SMILES IDX 7 1 6 2 5 3 4 4 3 5 2 6 1 7 32 8 33 9 94 10 34 11 93 12
REMARK SMILES IDX 35 13 36 14 37 15 87 16 38 17 92 18 86 19 88 20 39 21 91 22
REMARK SMILES IDX 85 23 84 24 40 26 72 27 52 28 71 29 53 30 56 31 70 32 89 33
REMARK SMILES IDX 54 34 55 35 69 37 90 38 57 39 41 40 42 41 50 42 43 43 45 44
REMARK SMILES IDX 51 45 44 46 46 47 47 48 48 49 49 50 73 51 74 52 82 53 75 54
REMARK SMILES IDX 77 55 83 56 76 57 78 58 79 59 80 60 81 61 58 62 59 63 67 64
REMARK SMILES IDX 60 65 62 66 68 67 61 68 63 69 64 70 65 71 66 72 8 73 9 74
REMARK SMILES IDX 10 75 11 76 12 77 13 78 14 79 15 80 16 81 30 82 17 83 29 84
REMARK SMILES IDX 28 85 31 86 18 88 19 89 27 90 20 91 25 92 21 93 26 94 22 95
REMARK SMILES IDX 23 96 24 97
REMARK H PARENT 88 25 56 36 31 87
REMARK Flexibility Score: inf
ROOT
ATOM      1  C   UNL A   1      31.803  29.121  26.415  1.00  0.00     0.188 C 
ENDROOT
BRANCH   1   2
ATOM      2  O   UNL A   1      31.765  30.264  27.280  1.00  0.00    -0.376 OA
BRANCH   2   3
ATOM      3  C   UNL A   1      32.439  31.409  26.751  1.00  0.00     0.202 C 
BRANCH   3   4
ATOM      4  C   UNL A   1      31.755  32.736  27.088  1.00  0.00     0.261 C 
BRANCH   4   5
ATOM      5  O   UNL A   1      32.704  33.794  27.253  1.00  0.00    -0.460 OA
BRANCH   5   6
ATOM      6  C   UNL A   1      33.229  34.267  28.410  1.00  0.00     0.338 C 
ATOM      7  O   UNL A   1      32.731  35.292  28.877  1.00  0.00    -0.246 OA
BRANCH   6   8
ATOM      8  C   UNL A   1      34.364  33.632  29.166  1.00  0.00     0.060 A 
ATOM      9  C   UNL A   1      35.633  34.198  28.959  1.00  0.00     0.016 A 
ATOM     10  C   UNL A   1      34.301  32.502  29.986  1.00  0.00     0.016 A 
ATOM     11  C   UNL A   1      36.786  33.637  29.523  1.00  0.00     0.010 A 
ATOM     12  C   UNL A   1      35.442  31.979  30.610  1.00  0.00     0.010 A 
ATOM     13  C   UNL A   1      36.701  32.522  30.365  1.00  0.00    -0.014 A 
BRANCH  13  14
ATOM     14  C   UNL A   1      37.892  32.008  31.082  1.00  0.00     0.031 A 
ATOM     15  C   UNL A   1      38.873  31.059  30.456  1.00  0.00     0.074 A 
ATOM     16  C   UNL A   1      38.040  32.345  32.377  1.00  0.00     0.049 A 
ATOM     17  N   UNL A   1      40.016  30.634  30.935  1.00  0.00    -0.248 NA
ATOM     18  C   UNL A   1      38.538  30.502  29.137  1.00  0.00     0.031 C 
ATOM     19  C   UNL A   1      37.100  33.166  33.141  1.00  0.00     0.029 A 
ATOM     20  N   UNL A   1      39.010  32.008  33.283  1.00  0.00    -0.354 N 
ATOM     21  C   UNL A   1      40.566  29.827  29.950  1.00  0.00     0.074 A 
ATOM     22  C   UNL A   1      39.586  29.724  28.900  1.00  0.00     0.031 C 
ATOM     23  C   UNL A   1      37.529  33.257  34.406  1.00  0.00     0.029 A 
ATOM     24  C   UNL A   1      38.764  32.491  34.543  1.00  0.00     0.049 A 
ATOM     25  H   UNL A   1      39.803  31.473  33.054  1.00  0.00     0.167 HD
ATOM     26  C   UNL A   1      41.802  29.277  29.901  1.00  0.00     0.034 A 
ATOM     27  C   UNL A   1      39.448  32.333  35.693  1.00  0.00     0.034 A 
ATOM     28  C   UNL A   1      42.729  29.284  30.997  1.00  0.00     0.049 A 
ATOM     29  C   UNL A   1      40.737  31.574  35.683  1.00  0.00     0.074 A 
ATOM     30  C   UNL A   1      44.017  28.782  31.040  1.00  0.00     0.029 A 
ATOM     31  N   UNL A   1      42.438  29.761  32.263  1.00  0.00    -0.354 N 
ATOM     32  N   UNL A   1      41.355  31.028  34.664  1.00  0.00    -0.248 NA
ATOM     33  C   UNL A   1      41.436  31.429  36.965  1.00  0.00     0.031 C 
ATOM     34  C   UNL A   1      44.493  28.925  32.349  1.00  0.00     0.029 A 
ATOM     35  C   UNL A   1      43.503  29.521  33.112  1.00  0.00     0.049 A 
ATOM     36  H   UNL A   1      41.598  30.203  32.521  1.00  0.00     0.167 HD
ATOM     37  C   UNL A   1      42.529  30.492  35.176  1.00  0.00     0.074 A 
ATOM     38  C   UNL A   1      42.536  30.781  36.596  1.00  0.00     0.031 C 
ATOM     39  C   UNL A   1      43.506  29.818  34.521  1.00  0.00     0.034 A 
BRANCH  26  40
ATOM     40  C   UNL A   1      42.282  28.732  28.586  1.00  0.00     0.023 A 
ATOM     41  C   UNL A   1      43.054  29.588  27.770  1.00  0.00     0.012 A 
ATOM     42  C   UNL A   1      42.079  27.400  28.193  1.00  0.00     0.148 A 
ATOM     43  C   UNL A   1      43.610  29.130  26.578  1.00  0.00     0.002 A 
ATOM     44  C   UNL A   1      42.643  26.948  27.003  1.00  0.00     0.091 A 
ATOM     45  F   UNL A   1      41.326  26.611  28.970  1.00  0.00    -0.205 F 
ATOM     46  C   UNL A   1      43.408  27.810  26.196  1.00  0.00     0.022 A 
BRANCH  44  47
ATOM     47  S   UNL A   1      42.439  25.265  26.414  1.00  0.00     0.127 S 
ATOM     48  O   UNL A   1      41.022  25.271  26.054  1.00  0.00    -0.237 OA
ATOM     49  O   UNL A   1      43.362  25.218  25.279  1.00  0.00    -0.237 OA
ATOM     50  O   UNL A   1      42.802  24.407  27.533  1.00  0.00    -0.744 OA
ENDBRANCH  44  47
ENDBRANCH  26  40
BRANCH  27  51
ATOM     51  C   UNL A   1      38.908  32.991  36.909  1.00  0.00     0.023 A 
ATOM     52  C   UNL A   1      38.061  32.260  37.760  1.00  0.00     0.012 A 
ATOM     53  C   UNL A   1      39.399  34.246  37.321  1.00  0.00     0.148 A 
ATOM     54  C   UNL A   1      37.730  32.758  39.019  1.00  0.00     0.002 A 
ATOM     55  C   UNL A   1      39.102  34.715  38.594  1.00  0.00     0.091 A 
ATOM     56  F   UNL A   1      40.206  34.916  36.484  1.00  0.00    -0.205 F 
ATOM     57  C   UNL A   1      38.264  33.975  39.443  1.00  0.00     0.022 A 
BRANCH  55  58
ATOM     58  S   UNL A   1      39.860  36.193  39.280  1.00  0.00     0.127 S 
ATOM     59  O   UNL A   1      39.631  37.167  38.215  1.00  0.00    -0.237 OA
ATOM     60  O   UNL A   1      39.064  36.404  40.490  1.00  0.00    -0.237 OA
ATOM     61  O   UNL A   1      41.253  35.849  39.525  1.00  0.00    -0.744 OA
ENDBRANCH  55  58
ENDBRANCH  27  51
BRANCH  39  62
ATOM     62  C   UNL A   1      44.665  29.309  35.328  1.00  0.00     0.023 A 
ATOM     63  C   UNL A   1      45.792  30.134  35.502  1.00  0.00     0.012 A 
ATOM     64  C   UNL A   1      44.595  28.074  35.996  1.00  0.00     0.148 A 
ATOM     65  C   UNL A   1      46.842  29.729  36.324  1.00  0.00     0.002 A 
ATOM     66  C   UNL A   1      45.628  27.692  36.843  1.00  0.00     0.091 A 
ATOM     67  F   UNL A   1      43.518  27.300  35.801  1.00  0.00    -0.205 F 
ATOM     68  C   UNL A   1      46.755  28.516  37.002  1.00  0.00     0.022 A 
BRANCH  66  69
ATOM     69  S   UNL A   1      45.554  26.188  37.822  1.00  0.00     0.127 S 
ATOM     70  O   UNL A   1      45.362  25.171  36.790  1.00  0.00    -0.237 OA
ATOM     71  O   UNL A   1      46.867  26.167  38.466  1.00  0.00    -0.237 OA
ATOM     72  O   UNL A   1      44.439  26.372  38.743  1.00  0.00    -0.744 OA
ENDBRANCH  66  69
ENDBRANCH  39  62
ENDBRANCH  13  14
ENDBRANCH   6   8
ENDBRANCH   5   6
ENDBRANCH   4   5
ENDBRANCH   3   4
ENDBRANCH   2   3
ENDBRANCH   1   2
BRANCH   1  73
ATOM     73  C   UNL A   1      32.044  29.544  24.965  1.00  0.00     0.188 C 
BRANCH  73  74
ATOM     74  O   UNL A   1      31.003  29.198  24.050  1.00  0.00    -0.376 OA
BRANCH  74  75
ATOM     75  C   UNL A   1      31.329  28.264  23.024  1.00  0.00     0.202 C 
BRANCH  75  76
ATOM     76  C   UNL A   1      31.854  26.887  23.452  1.00  0.00     0.261 C 
BRANCH  76  77
ATOM     77  O   UNL A   1      33.222  26.605  23.120  1.00  0.00    -0.460 OA
BRANCH  77  78
ATOM     78  C   UNL A   1      33.377  25.542  22.292  1.00  0.00     0.342 C 
ATOM     79  O   UNL A   1      33.365  25.549  21.065  1.00  0.00    -0.246 OA
BRANCH  78  80
ATOM     80  C   UNL A   1      33.577  24.313  23.065  1.00  0.00     0.102 A 
ATOM     81  C   UNL A   1      34.808  24.056  23.699  1.00  0.00     0.028 A 
ATOM     82  C   UNL A   1      32.572  23.346  23.036  1.00  0.00     0.130 A 
ATOM     83  C   UNL A   1      35.038  22.813  24.313  1.00  0.00    -0.017 A 
ATOM     84  C   UNL A   1      32.798  22.107  23.615  1.00  0.00     0.048 A 
ATOM     85  C   UNL A   1      34.011  21.851  24.262  1.00  0.00     0.012 A 
BRANCH  82  86
ATOM     86  O   UNL A   1      31.370  23.623  22.453  1.00  0.00    -0.507 OA
ATOM     87  H   UNL A   1      31.308  24.295  21.802  1.00  0.00     0.293 HD
ENDBRANCH  82  86
BRANCH  83  88
ATOM     88  C   UNL A   1      36.311  22.454  24.998  1.00  0.00    -0.011 A 
ATOM     89  C   UNL A   1      37.071  23.420  25.781  1.00  0.00     0.027 A 
ATOM     90  C   UNL A   1      36.836  21.225  24.844  1.00  0.00     0.080 A 
ATOM     91  C   UNL A   1      38.297  23.136  26.235  1.00  0.00     0.095 A 
ATOM     92  C   UNL A   1      38.191  20.880  25.375  1.00  0.00     0.255 A 
ATOM     93  N   UNL A   1      38.867  21.900  26.019  1.00  0.00    -0.258 N 
ATOM     94  O   UNL A   1      38.631  19.749  25.200  1.00  0.00    -0.269 OA
BRANCH  93  95
ATOM     95  C   UNL A   1      40.217  21.627  26.441  1.00  0.00     0.451 C 
ATOM     96  F   UNL A   1      41.123  22.159  25.585  1.00  0.00    -0.185 F 
ATOM     97  F   UNL A   1      40.458  22.136  27.674  1.00  0.00    -0.185 F 
ENDBRANCH  93  95
ENDBRANCH  83  88
ENDBRANCH  78  80
ENDBRANCH  77  78
ENDBRANCH  76  77
ENDBRANCH  75  76
ENDBRANCH  74  75
ENDBRANCH  73  74
ENDBRANCH   1  73
TORSDOF 23
ENDMDL
MODEL 3
REMARK VINA RESULT:     -10.1      3.028      4.316
REMARK SMILES O=C(OCCOCCOCCOC(=O)c1cc(-c2ccn(C(F)F)c(=O)c2)ccc1O)c1ccc(-c2c3nc(c(-c4cccc(S(=O)(=O)[O-])c4F)c4ccc([nH]4)c(-c4cccc(S(=O)(=O)[O-])c4F)c4nc(c(-c5cccc(S(=O)(=O)[O-])c5F)c5ccc2[nH]5)C=C4)C=C3)cc1
REMARK SMILES IDX 7 1 6 2 5 3 4 4 3 5 2 6 1 7 32 8 33 9 94 10 34 11 93 12
REMARK SMILES IDX 35 13 36 14 37 15 87 16 38 17 92 18 86 19 88 20 39 21 91 22
REMARK SMILES IDX 85 23 84 24 40 26 72 27 52 28 71 29 53 30 56 31 70 32 89 33
REMARK SMILES IDX 54 34 55 35 69 37 90 38 57 39 41 40 42 41 50 42 43 43 45 44
REMARK SMILES IDX 51 45 44 46 46 47 47 48 48 49 49 50 73 51 74 52 82 53 75 54
REMARK SMILES IDX 77 55 83 56 76 57 78 58 79 59 80 60 81 61 58 62 59 63 67 64
REMARK SMILES IDX 60 65 62 66 68 67 61 68 63 69 64 70 65 71 66 72 8 73 9 74
REMARK SMILES IDX 10 75 11 76 12 77 13 78 14 79 15 80 16 81 30 82 17 83 29 84
REMARK SMILES IDX 28 85 31 86 18 88 19 89 27 90 20 91 25 92 21 93 26 94 22 95
REMARK SMILES IDX 23 96 24 97
REMARK H PARENT 88 25 56 36 31 87
REMARK Flexibility Score: inf
ROOT
ATOM      1  C   UNL A   1      30.171  29.779  23.734  1.00  0.00     0.188 C 
ENDROOT
BRANCH   1   2
ATOM      2  O   UNL A   1      30.990  30.104  24.865  1.00  0.00    -0.376 OA
BRANCH   2   3
ATOM      3  C   UNL A   1      31.819  29.026  25.305  1.00  0.00     0.202 C 
BRANCH   3   4
ATOM      4  C   UNL A   1      33.314  29.271  25.086  1.00  0.00     0.261 C 
BRANCH   4   5
ATOM      5  O   UNL A   1      34.059  29.114  26.298  1.00  0.00    -0.460 OA
BRANCH   5   6
ATOM      6  C   UNL A   1      34.521  30.088  27.121  1.00  0.00     0.338 C 
ATOM      7  O   UNL A   1      33.846  31.113  27.215  1.00  0.00    -0.246 OA
BRANCH   6   8
ATOM      8  C   UNL A   1      35.787  30.006  27.930  1.00  0.00     0.060 A 
ATOM      9  C   UNL A   1      35.670  29.407  29.195  1.00  0.00     0.016 A 
ATOM     10  C   UNL A   1      37.038  30.528  27.590  1.00  0.00     0.016 A 
ATOM     11  C   UNL A   1      36.749  29.362  30.087  1.00  0.00     0.010 A 
ATOM     12  C   UNL A   1      38.140  30.422  28.449  1.00  0.00     0.010 A 
ATOM     13  C   UNL A   1      38.003  29.863  29.718  1.00  0.00    -0.014 A 
BRANCH  13  14
ATOM     14  C   UNL A   1      39.187  29.691  30.593  1.00  0.00     0.031 A 
ATOM     15  C   UNL A   1      39.427  30.533  31.814  1.00  0.00     0.074 A 
ATOM     16  C   UNL A   1      40.122  28.800  30.217  1.00  0.00     0.049 A 
ATOM     17  N   UNL A   1      40.357  30.400  32.727  1.00  0.00    -0.248 NA
ATOM     18  C   UNL A   1      38.526  31.673  32.045  1.00  0.00     0.031 C 
ATOM     19  C   UNL A   1      40.072  27.999  28.994  1.00  0.00     0.029 A 
ATOM     20  N   UNL A   1      41.310  28.449  30.803  1.00  0.00    -0.354 N 
ATOM     21  C   UNL A   1      40.109  31.385  33.671  1.00  0.00     0.074 A 
ATOM     22  C   UNL A   1      39.019  32.181  33.167  1.00  0.00     0.031 C 
ATOM     23  C   UNL A   1      41.186  27.261  28.910  1.00  0.00     0.029 A 
ATOM     24  C   UNL A   1      42.032  27.547  30.064  1.00  0.00     0.049 A 
ATOM     25  H   UNL A   1      41.615  28.809  31.666  1.00  0.00     0.167 HD
ATOM     26  C   UNL A   1      40.695  31.566  34.877  1.00  0.00     0.034 A 
ATOM     27  C   UNL A   1      43.248  27.010  30.279  1.00  0.00     0.034 A 
ATOM     28  C   UNL A   1      41.855  30.848  35.323  1.00  0.00     0.049 A 
ATOM     29  C   UNL A   1      43.986  27.341  31.537  1.00  0.00     0.074 A 
ATOM     30  C   UNL A   1      42.508  30.934  36.539  1.00  0.00     0.029 A 
ATOM     31  N   UNL A   1      42.573  29.960  34.541  1.00  0.00    -0.354 N 
ATOM     32  N   UNL A   1      43.600  28.097  32.535  1.00  0.00    -0.248 NA
ATOM     33  C   UNL A   1      45.308  26.730  31.716  1.00  0.00     0.031 C 
ATOM     34  C   UNL A   1      43.646  30.120  36.478  1.00  0.00     0.029 A 
ATOM     35  C   UNL A   1      43.692  29.525  35.226  1.00  0.00     0.049 A 
ATOM     36  H   UNL A   1      42.323  29.679  33.631  1.00  0.00     0.167 HD
ATOM     37  C   UNL A   1      44.621  28.039  33.474  1.00  0.00     0.074 A 
ATOM     38  C   UNL A   1      45.643  27.170  32.924  1.00  0.00     0.031 C 
ATOM     39  C   UNL A   1      44.700  28.656  34.678  1.00  0.00     0.034 A 
BRANCH  26  40
ATOM     40  C   UNL A   1      40.026  32.486  35.859  1.00  0.00     0.023 A 
ATOM     41  C   UNL A   1      39.060  31.924  36.722  1.00  0.00     0.012 A 
ATOM     42  C   UNL A   1      40.390  33.833  36.011  1.00  0.00     0.148 A 
ATOM     43  C   UNL A   1      38.459  32.691  37.718  1.00  0.00     0.002 A 
ATOM     44  C   UNL A   1      39.790  34.591  37.013  1.00  0.00     0.091 A 
ATOM     45  F   UNL A   1      41.293  34.352  35.168  1.00  0.00    -0.205 F 
ATOM     46  C   UNL A   1      38.826  34.023  37.866  1.00  0.00     0.022 A 
BRANCH  44  47
ATOM     47  S   UNL A   1      40.186  36.320  37.286  1.00  0.00     0.127 S 
ATOM     48  O   UNL A   1      39.909  36.877  35.963  1.00  0.00    -0.237 OA
ATOM     49  O   UNL A   1      39.228  36.699  38.326  1.00  0.00    -0.237 OA
ATOM     50  O   UNL A   1      41.581  36.347  37.702  1.00  0.00    -0.744 OA
ENDBRANCH  44  47
ENDBRANCH  26  40
BRANCH  27  51
ATOM     51  C   UNL A   1      43.762  26.050  29.270  1.00  0.00     0.023 A 
ATOM     52  C   UNL A   1      43.399  24.695  29.370  1.00  0.00     0.012 A 
ATOM     53  C   UNL A   1      44.421  26.514  28.113  1.00  0.00     0.148 A 
ATOM     54  C   UNL A   1      43.663  23.818  28.319  1.00  0.00     0.002 A 
ATOM     55  C   UNL A   1      44.639  25.644  27.053  1.00  0.00     0.091 A 
ATOM     56  F   UNL A   1      44.751  27.812  28.051  1.00  0.00    -0.205 F 
ATOM     57  C   UNL A   1      44.265  24.295  27.156  1.00  0.00     0.022 A 
BRANCH  55  58
ATOM     58  S   UNL A   1      45.271  26.197  25.464  1.00  0.00     0.127 S 
ATOM     59  O   UNL A   1      46.661  26.510  25.789  1.00  0.00    -0.237 OA
ATOM     60  O   UNL A   1      45.085  25.006  24.635  1.00  0.00    -0.237 OA
ATOM     61  O   UNL A   1      44.446  27.335  25.082  1.00  0.00    -0.744 OA
ENDBRANCH  55  58
ENDBRANCH  27  51
BRANCH  39  62
ATOM     62  C   UNL A   1      45.944  28.449  35.490  1.00  0.00     0.023 A 
ATOM     63  C   UNL A   1      47.003  29.369  35.366  1.00  0.00     0.012 A 
ATOM     64  C   UNL A   1      46.023  27.420  36.445  1.00  0.00     0.148 A 
ATOM     65  C   UNL A   1      48.131  29.259  36.176  1.00  0.00     0.002 A 
ATOM     66  C   UNL A   1      47.135  27.337  37.274  1.00  0.00     0.091 A 
ATOM     67  F   UNL A   1      45.009  26.547  36.531  1.00  0.00    -0.205 F 
ATOM     68  C   UNL A   1      48.192  28.252  37.137  1.00  0.00     0.022 A 
BRANCH  66  69
ATOM     69  S   UNL A   1      47.251  26.126  38.595  1.00  0.00     0.127 S 
ATOM     70  O   UNL A   1      47.634  24.921  37.862  1.00  0.00    -0.237 OA
ATOM     71  O   UNL A   1      48.303  26.686  39.444  1.00  0.00    -0.237 OA
ATOM     72  O   UNL A   1      45.934  26.094  39.218  1.00  0.00    -0.744 OA
ENDBRANCH  66  69
ENDBRANCH  39  62
ENDBRANCH  13  14
ENDBRANCH   6   8
ENDBRANCH   5   6
ENDBRANCH   4   5
ENDBRANCH   3   4
ENDBRANCH   2   3
ENDBRANCH   1   2
BRANCH   1  73
ATOM     73  C   UNL A   1      30.955  28.950  22.715  1.00  0.00     0.188 C 
BRANCH  73  74
ATOM     74  O   UNL A   1      30.238  27.855  22.143  1.00  0.00    -0.376 OA
BRANCH  74  75
ATOM     75  C   UNL A   1      30.977  26.662  21.887  1.00  0.00     0.202 C 
BRANCH  75  76
ATOM     76  C   UNL A   1      31.936  26.169  22.979  1.00  0.00     0.261 C 
BRANCH  76  77
ATOM     77  O   UNL A   1      33.263  25.833  22.545  1.00  0.00    -0.460 OA
BRANCH  77  78
ATOM     78  C   UNL A   1      33.361  24.603  21.982  1.00  0.00     0.342 C 
ATOM     79  O   UNL A   1      33.123  24.299  20.818  1.00  0.00    -0.246 OA
BRANCH  78  80
ATOM     80  C   UNL A   1      33.813  23.621  22.971  1.00  0.00     0.102 A 
ATOM     81  C   UNL A   1      35.096  23.717  23.544  1.00  0.00     0.028 A 
ATOM     82  C   UNL A   1      33.000  22.514  23.220  1.00  0.00     0.130 A 
ATOM     83  C   UNL A   1      35.574  22.691  24.378  1.00  0.00    -0.017 A 
ATOM     84  C   UNL A   1      33.472  21.485  24.019  1.00  0.00     0.048 A 
ATOM     85  C   UNL A   1      34.737  21.582  24.606  1.00  0.00     0.012 A 
BRANCH  82  86
ATOM     86  O   UNL A   1      31.744  22.453  22.690  1.00  0.00    -0.507 OA
ATOM     87  H   UNL A   1      30.996  22.552  23.246  1.00  0.00     0.293 HD
ENDBRANCH  82  86
BRANCH  83  88
ATOM     88  C   UNL A   1      36.919  22.708  25.019  1.00  0.00    -0.011 A 
ATOM     89  C   UNL A   1      37.747  21.513  25.116  1.00  0.00     0.027 A 
ATOM     90  C   UNL A   1      37.375  23.832  25.598  1.00  0.00     0.080 A 
ATOM     91  C   UNL A   1      38.866  21.500  25.850  1.00  0.00     0.095 A 
ATOM     92  C   UNL A   1      38.641  23.845  26.395  1.00  0.00     0.255 A 
ATOM     93  N   UNL A   1      39.300  22.634  26.504  1.00  0.00    -0.258 N 
ATOM     94  O   UNL A   1      39.010  24.893  26.914  1.00  0.00    -0.269 OA
BRANCH  93  95
ATOM     95  C   UNL A   1      40.460  22.593  27.357  1.00  0.00     0.451 C 
ATOM     96  F   UNL A   1      40.329  23.429  28.416  1.00  0.00    -0.185 F 
ATOM     97  F   UNL A   1      40.675  21.343  27.834  1.00  0.00    -0.185 F 
ENDBRANCH  93  95
ENDBRANCH  83  88
ENDBRANCH  78  80
ENDBRANCH  77  78
ENDBRANCH  76  77
ENDBRANCH  75  76
ENDBRANCH  74  75
ENDBRANCH  73  74
ENDBRANCH   1  73
TORSDOF 23
ENDMDL
