MODEL 1
REMARK VINA RESULT:      -9.4      0.000      0.000
REMARK SMILES CCn1c(C)cc(/C=C(/C(=O)OCCOCCOCCOC(=O)c2ccc(-c3c4nc(c(-c5cccc(S(=O)(=O)[O-])c5F)c5ccc([nH]5)c(-c5cccc(S(=O)(=O)[O-])c5F)c5nc(c(-c6cccc(S(=O)(=O)[O-])c6F)c6ccc3[nH]6)C=C5)C=C4)cc2)c2ccccc2)c1C
REMARK SMILES IDX 17 1 16 2 15 3 14 4 13 5 12 6 10 7 11 8 9 9 8 10 7 11 3 12
REMARK SMILES IDX 4 13 93 14 5 15 6 16 94 17 2 18 1 19 87 20 88 21 92 22 89 23
REMARK SMILES IDX 91 24 90 25 18 26 19 27 20 28 21 29 22 30 23 31 24 32 25 33
REMARK SMILES IDX 86 34 26 35 85 36 27 37 28 38 29 39 79 40 30 41 84 42 78 43
REMARK SMILES IDX 80 44 31 45 83 46 77 47 76 48 32 50 64 51 44 52 63 53 45 54
REMARK SMILES IDX 48 55 62 56 81 57 46 58 47 59 61 61 82 62 49 63 33 64 34 65
REMARK SMILES IDX 42 66 35 67 37 68 43 69 36 70 38 71 39 72 40 73 41 74 65 75
REMARK SMILES IDX 66 76 74 77 67 78 69 79 75 80 68 81 70 82 71 83 72 84 73 85
REMARK SMILES IDX 50 86 51 87 59 88 52 89 54 90 60 91 53 92 55 93 56 94 57 95
REMARK SMILES IDX 58 96
REMARK H PARENT 80 49 48 60
REMARK Flexibility Score: inf
ROOT
ATOM      1  C   UNL A   1      41.198  22.187  26.734  1.00  0.00     0.188 C 
ENDROOT
BRANCH   1   2
ATOM      2  C   UNL A   1      39.775  21.598  26.702  1.00  0.00     0.188 C 
BRANCH   2   3
ATOM      3  O   UNL A   1      39.189  21.592  25.422  1.00  0.00    -0.376 OA
BRANCH   3   4
ATOM      4  C   UNL A   1      37.792  21.734  25.255  1.00  0.00     0.202 C 
BRANCH   4   5
ATOM      5  C   UNL A   1      37.026  23.074  25.204  1.00  0.00     0.261 C 
BRANCH   5   6
ATOM      6  O   UNL A   1      35.597  23.020  25.105  1.00  0.00    -0.460 OA
BRANCH   6   7
ATOM      7  C   UNL A   1      35.038  23.769  24.129  1.00  0.00     0.338 C 
ATOM      8  O   UNL A   1      35.342  23.724  22.927  1.00  0.00    -0.246 OA
BRANCH   7   9
ATOM      9  C   UNL A   1      33.918  24.612  24.640  1.00  0.00     0.067 C 
ATOM     10  C   UNL A   1      33.999  25.946  24.428  1.00  0.00     0.026 C 
BRANCH  10  11
ATOM     11  C   UNL A   1      33.022  27.005  24.536  1.00  0.00    -0.004 A 
ATOM     12  N   UNL A   1      31.343  28.468  24.266  1.00  0.00    -0.349 N 
ATOM     13  C   UNL A   1      32.213  29.048  25.162  1.00  0.00     0.015 A 
ATOM     14  C   UNL A   1      31.729  27.152  24.045  1.00  0.00     0.022 A 
ATOM     15  C   UNL A   1      31.996  30.375  25.795  1.00  0.00     0.064 C 
ATOM     16  C   UNL A   1      33.274  28.178  25.308  1.00  0.00     0.031 A 
ATOM     17  C   UNL A   1      30.785  26.198  23.404  1.00  0.00     0.065 C 
BRANCH  12  18
ATOM     18  C   UNL A   1      30.152  29.103  23.707  1.00  0.00     0.118 C 
ATOM     19  C   UNL A   1      30.303  29.567  22.265  1.00  0.00     0.027 C 
ENDBRANCH  12  18
ENDBRANCH  10  11
BRANCH   9  20
ATOM     20  C   UNL A   1      32.747  23.892  25.158  1.00  0.00    -0.011 A 
ATOM     21  C   UNL A   1      32.245  24.199  26.433  1.00  0.00     0.009 A 
ATOM     22  C   UNL A   1      32.113  22.910  24.394  1.00  0.00     0.009 A 
ATOM     23  C   UNL A   1      31.096  23.578  26.916  1.00  0.00     0.001 A 
ATOM     24  C   UNL A   1      30.962  22.286  24.879  1.00  0.00     0.001 A 
ATOM     25  C   UNL A   1      30.447  22.629  26.131  1.00  0.00     0.000 A 
ENDBRANCH   9  20
ENDBRANCH   7   9
ENDBRANCH   6   7
ENDBRANCH   5   6
ENDBRANCH   4   5
ENDBRANCH   3   4
ENDBRANCH   2   3
ENDBRANCH   1   2
BRANCH   1  26
ATOM     26  O   UNL A   1      42.252  21.313  27.099  1.00  0.00    -0.376 OA
BRANCH  26  27
ATOM     27  C   UNL A   1      42.968  20.661  26.046  1.00  0.00     0.202 C 
BRANCH  27  28
ATOM     28  C   UNL A   1      44.140  21.389  25.318  1.00  0.00     0.261 C 
BRANCH  28  29
ATOM     29  O   UNL A   1      44.900  22.493  25.943  1.00  0.00    -0.460 OA
BRANCH  29  30
ATOM     30  C   UNL A   1      44.695  23.756  25.413  1.00  0.00     0.338 C 
ATOM     31  O   UNL A   1      45.219  24.100  24.359  1.00  0.00    -0.246 OA
BRANCH  30  32
ATOM     32  C   UNL A   1      43.710  24.695  26.160  1.00  0.00     0.060 A 
ATOM     33  C   UNL A   1      43.126  25.758  25.480  1.00  0.00     0.016 A 
ATOM     34  C   UNL A   1      43.553  24.777  27.564  1.00  0.00     0.016 A 
ATOM     35  C   UNL A   1      42.357  26.781  26.167  1.00  0.00     0.010 A 
ATOM     36  C   UNL A   1      42.822  25.871  28.269  1.00  0.00     0.010 A 
ATOM     37  C   UNL A   1      42.171  26.925  27.600  1.00  0.00    -0.014 A 
BRANCH  37  38
ATOM     38  C   UNL A   1      41.683  28.425  28.168  1.00  0.00     0.031 A 
ATOM     39  C   UNL A   1      42.963  29.188  28.090  1.00  0.00     0.074 A 
ATOM     40  C   UNL A   1      40.640  29.172  28.773  1.00  0.00     0.049 A 
ATOM     41  N   UNL A   1      44.034  28.715  28.669  1.00  0.00    -0.248 NA
ATOM     42  C   UNL A   1      43.240  30.216  27.083  1.00  0.00     0.031 C 
ATOM     43  C   UNL A   1      39.344  28.681  29.286  1.00  0.00     0.029 A 
ATOM     44  N   UNL A   1      40.463  30.586  29.098  1.00  0.00    -0.354 N 
ATOM     45  C   UNL A   1      45.019  29.628  28.443  1.00  0.00     0.074 A 
ATOM     46  C   UNL A   1      44.565  30.326  27.248  1.00  0.00     0.031 C 
ATOM     47  C   UNL A   1      38.502  29.696  29.666  1.00  0.00     0.029 A 
ATOM     48  C   UNL A   1      39.126  31.013  29.518  1.00  0.00     0.049 A 
ATOM     49  H   UNL A   1      41.211  31.224  29.037  1.00  0.00     0.167 HD
ATOM     50  C   UNL A   1      45.583  30.149  29.572  1.00  0.00     0.034 A 
ATOM     51  C   UNL A   1      38.572  32.274  29.818  1.00  0.00     0.034 A 
ATOM     52  C   UNL A   1      45.166  31.500  29.820  1.00  0.00     0.049 A 
ATOM     53  C   UNL A   1      39.698  33.097  30.274  1.00  0.00     0.074 A 
ATOM     54  C   UNL A   1      44.934  32.585  28.996  1.00  0.00     0.029 A 
ATOM     55  N   UNL A   1      44.467  31.728  30.983  1.00  0.00    -0.354 N 
ATOM     56  N   UNL A   1      40.163  32.996  31.484  1.00  0.00    -0.248 NA
ATOM     57  C   UNL A   1      40.244  34.192  29.478  1.00  0.00     0.031 C 
ATOM     58  C   UNL A   1      43.717  33.128  29.455  1.00  0.00     0.029 A 
ATOM     59  C   UNL A   1      43.491  32.678  30.747  1.00  0.00     0.049 A 
ATOM     60  H   UNL A   1      44.634  31.286  31.847  1.00  0.00     0.167 HD
ATOM     61  C   UNL A   1      41.380  33.597  31.379  1.00  0.00     0.074 A 
ATOM     62  C   UNL A   1      41.261  34.528  30.273  1.00  0.00     0.031 C 
ATOM     63  C   UNL A   1      42.437  32.824  31.715  1.00  0.00     0.034 A 
BRANCH  50  64
ATOM     64  C   UNL A   1      45.909  29.135  30.649  1.00  0.00     0.023 A 
ATOM     65  C   UNL A   1      45.069  29.100  31.772  1.00  0.00     0.012 A 
ATOM     66  C   UNL A   1      47.090  28.345  30.659  1.00  0.00     0.148 A 
ATOM     67  C   UNL A   1      45.428  28.362  32.903  1.00  0.00     0.002 A 
ATOM     68  C   UNL A   1      47.499  27.711  31.828  1.00  0.00     0.091 A 
ATOM     69  F   UNL A   1      47.796  28.206  29.526  1.00  0.00    -0.205 F 
ATOM     70  C   UNL A   1      46.660  27.707  32.948  1.00  0.00     0.022 A 
BRANCH  68  71
ATOM     71  S   UNL A   1      49.178  27.083  32.035  1.00  0.00     0.127 S 
ATOM     72  O   UNL A   1      49.205  25.945  31.111  1.00  0.00    -0.237 OA
ATOM     73  O   UNL A   1      50.003  28.213  31.620  1.00  0.00    -0.237 OA
ATOM     74  O   UNL A   1      49.302  26.693  33.436  1.00  0.00    -0.744 OA
ENDBRANCH  68  71
ENDBRANCH  50  64
BRANCH  51  75
ATOM     75  C   UNL A   1      37.260  33.146  30.113  1.00  0.00     0.023 A 
ATOM     76  C   UNL A   1      36.254  33.263  29.077  1.00  0.00     0.012 A 
ATOM     77  C   UNL A   1      36.765  33.426  31.410  1.00  0.00     0.148 A 
ATOM     78  C   UNL A   1      34.880  33.502  29.305  1.00  0.00     0.002 A 
ATOM     79  C   UNL A   1      35.379  33.697  31.635  1.00  0.00     0.091 A 
ATOM     80  F   UNL A   1      37.614  33.331  32.441  1.00  0.00    -0.205 F 
ATOM     81  C   UNL A   1      34.438  33.705  30.593  1.00  0.00     0.022 A 
BRANCH  79  82
ATOM     82  S   UNL A   1      34.654  33.959  33.274  1.00  0.00     0.127 S 
ATOM     83  O   UNL A   1      35.129  35.297  33.629  1.00  0.00    -0.237 OA
ATOM     84  O   UNL A   1      33.222  33.887  32.985  1.00  0.00    -0.237 OA
ATOM     85  O   UNL A   1      35.187  32.888  34.105  1.00  0.00    -0.744 OA
ENDBRANCH  79  82
ENDBRANCH  51  75
BRANCH  63  86
ATOM     86  C   UNL A   1      42.336  32.004  32.978  1.00  0.00     0.023 A 
ATOM     87  C   UNL A   1      42.603  32.469  34.284  1.00  0.00     0.012 A 
ATOM     88  C   UNL A   1      41.929  30.673  32.821  1.00  0.00     0.148 A 
ATOM     89  C   UNL A   1      42.472  31.622  35.392  1.00  0.00     0.002 A 
ATOM     90  C   UNL A   1      41.745  29.848  33.922  1.00  0.00     0.091 A 
ATOM     91  F   UNL A   1      41.727  30.226  31.571  1.00  0.00    -0.205 F 
ATOM     92  C   UNL A   1      42.020  30.315  35.213  1.00  0.00     0.022 A 
BRANCH  90  93
ATOM     93  S   UNL A   1      41.106  28.190  33.700  1.00  0.00     0.127 S 
ATOM     94  O   UNL A   1      42.056  27.626  32.743  1.00  0.00    -0.237 OA
ATOM     95  O   UNL A   1      41.176  27.620  35.042  1.00  0.00    -0.237 OA
ATOM     96  O   UNL A   1      39.747  28.368  33.198  1.00  0.00    -0.744 OA
ENDBRANCH  90  93
ENDBRANCH  63  86
ENDBRANCH  37  38
ENDBRANCH  30  32
ENDBRANCH  29  30
ENDBRANCH  28  29
ENDBRANCH  27  28
ENDBRANCH  26  27
ENDBRANCH   1  26
TORSDOF 23
ENDMDL
MODEL 2
REMARK VINA RESULT:      -8.6      8.482     13.631
REMARK SMILES CCn1c(C)cc(/C=C(/C(=O)OCCOCCOCCOC(=O)c2ccc(-c3c4nc(c(-c5cccc(S(=O)(=O)[O-])c5F)c5ccc([nH]5)c(-c5cccc(S(=O)(=O)[O-])c5F)c5nc(c(-c6cccc(S(=O)(=O)[O-])c6F)c6ccc3[nH]6)C=C5)C=C4)cc2)c2ccccc2)c1C
REMARK SMILES IDX 17 1 16 2 15 3 14 4 13 5 12 6 10 7 11 8 9 9 8 10 7 11 3 12
REMARK SMILES IDX 4 13 93 14 5 15 6 16 94 17 2 18 1 19 87 20 88 21 92 22 89 23
REMARK SMILES IDX 91 24 90 25 18 26 19 27 20 28 21 29 22 30 23 31 24 32 25 33
REMARK SMILES IDX 86 34 26 35 85 36 27 37 28 38 29 39 79 40 30 41 84 42 78 43
REMARK SMILES IDX 80 44 31 45 83 46 77 47 76 48 32 50 64 51 44 52 63 53 45 54
REMARK SMILES IDX 48 55 62 56 81 57 46 58 47 59 61 61 82 62 49 63 33 64 34 65
REMARK SMILES IDX 42 66 35 67 37 68 43 69 36 70 38 71 39 72 40 73 41 74 65 75
REMARK SMILES IDX 66 76 74 77 67 78 69 79 75 80 68 81 70 82 71 83 72 84 73 85
REMARK SMILES IDX 50 86 51 87 59 88 52 89 54 90 60 91 53 92 55 93 56 94 57 95
REMARK SMILES IDX 58 96
REMARK H PARENT 80 49 48 60
REMARK Flexibility Score: inf
ROOT
ATOM      1  C   UNL A   1      46.519  19.420  37.694  1.00  0.00     0.188 C 
ENDROOT
BRANCH   1   2
ATOM      2  C   UNL A   1      47.156  20.094  38.923  1.00  0.00     0.188 C 
BRANCH   2   3
ATOM      3  O   UNL A   1      48.492  19.712  39.155  1.00  0.00    -0.376 OA
BRANCH   3   4
ATOM      4  C   UNL A   1      49.237  20.263  40.222  1.00  0.00     0.202 C 
BRANCH   4   5
ATOM      5  C   UNL A   1      50.074  19.460  41.241  1.00  0.00     0.261 C 
BRANCH   5   6
ATOM      6  O   UNL A   1      49.439  18.358  41.903  1.00  0.00    -0.460 OA
BRANCH   6   7
ATOM      7  C   UNL A   1      48.598  18.674  42.913  1.00  0.00     0.338 C 
ATOM      8  O   UNL A   1      48.781  19.578  43.743  1.00  0.00    -0.246 OA
BRANCH   7   9
ATOM      9  C   UNL A   1      47.343  17.868  42.872  1.00  0.00     0.067 C 
ATOM     10  C   UNL A   1      46.429  18.190  41.928  1.00  0.00     0.026 C 
BRANCH  10  11
ATOM     11  C   UNL A   1      45.264  17.496  41.430  1.00  0.00    -0.004 A 
ATOM     12  N   UNL A   1      43.409  16.269  41.136  1.00  0.00    -0.349 N 
ATOM     13  C   UNL A   1      43.980  16.401  39.890  1.00  0.00     0.015 A 
ATOM     14  C   UNL A   1      44.073  17.099  42.030  1.00  0.00     0.022 A 
ATOM     15  C   UNL A   1      43.405  15.831  38.644  1.00  0.00     0.064 C 
ATOM     16  C   UNL A   1      45.146  17.119  40.060  1.00  0.00     0.031 A 
ATOM     17  C   UNL A   1      43.457  17.418  43.347  1.00  0.00     0.065 C 
BRANCH  12  18
ATOM     18  C   UNL A   1      42.235  15.458  41.450  1.00  0.00     0.118 C 
ATOM     19  C   UNL A   1      42.554  14.076  42.004  1.00  0.00     0.027 C 
ENDBRANCH  12  18
ENDBRANCH  10  11
BRANCH   9  20
ATOM     20  C   UNL A   1      47.304  16.683  43.740  1.00  0.00    -0.011 A 
ATOM     21  C   UNL A   1      47.785  16.764  45.057  1.00  0.00     0.009 A 
ATOM     22  C   UNL A   1      46.781  15.474  43.279  1.00  0.00     0.009 A 
ATOM     23  C   UNL A   1      47.694  15.674  45.918  1.00  0.00     0.001 A 
ATOM     24  C   UNL A   1      46.691  14.380  44.142  1.00  0.00     0.001 A 
ATOM     25  C   UNL A   1      47.134  14.484  45.462  1.00  0.00     0.000 A 
ENDBRANCH   9  20
ENDBRANCH   7   9
ENDBRANCH   6   7
ENDBRANCH   5   6
ENDBRANCH   4   5
ENDBRANCH   3   4
ENDBRANCH   2   3
ENDBRANCH   1   2
BRANCH   1  26
ATOM     26  O   UNL A   1      45.652  20.211  36.899  1.00  0.00    -0.376 OA
BRANCH  26  27
ATOM     27  C   UNL A   1      45.901  20.256  35.490  1.00  0.00     0.202 C 
BRANCH  27  28
ATOM     28  C   UNL A   1      45.639  21.566  34.683  1.00  0.00     0.261 C 
BRANCH  28  29
ATOM     29  O   UNL A   1      44.322  22.237  34.665  1.00  0.00    -0.460 OA
BRANCH  29  30
ATOM     30  C   UNL A   1      44.197  23.367  35.458  1.00  0.00     0.338 C 
ATOM     31  O   UNL A   1      44.850  23.500  36.487  1.00  0.00    -0.246 OA
BRANCH  30  32
ATOM     32  C   UNL A   1      43.260  24.496  34.952  1.00  0.00     0.060 A 
ATOM     33  C   UNL A   1      43.781  25.522  34.171  1.00  0.00     0.016 A 
ATOM     34  C   UNL A   1      41.962  24.774  35.444  1.00  0.00     0.016 A 
ATOM     35  C   UNL A   1      43.006  26.703  33.836  1.00  0.00     0.010 A 
ATOM     36  C   UNL A   1      41.199  26.023  35.154  1.00  0.00     0.010 A 
ATOM     37  C   UNL A   1      41.679  27.049  34.318  1.00  0.00    -0.014 A 
BRANCH  37  38
ATOM     38  C   UNL A   1      41.210  28.654  34.200  1.00  0.00     0.031 A 
ATOM     39  C   UNL A   1      40.271  28.591  33.041  1.00  0.00     0.074 A 
ATOM     40  C   UNL A   1      41.433  29.981  34.649  1.00  0.00     0.049 A 
ATOM     41  N   UNL A   1      40.670  28.062  31.915  1.00  0.00    -0.248 NA
ATOM     42  C   UNL A   1      38.816  28.696  33.165  1.00  0.00     0.031 C 
ATOM     43  C   UNL A   1      42.492  30.474  35.554  1.00  0.00     0.029 A 
ATOM     44  N   UNL A   1      40.764  31.257  34.407  1.00  0.00    -0.354 N 
ATOM     45  C   UNL A   1      39.616  28.165  31.058  1.00  0.00     0.074 A 
ATOM     46  C   UNL A   1      38.465  28.262  31.946  1.00  0.00     0.031 C 
ATOM     47  C   UNL A   1      42.324  31.788  35.907  1.00  0.00     0.029 A 
ATOM     48  C   UNL A   1      41.160  32.389  35.250  1.00  0.00     0.049 A 
ATOM     49  H   UNL A   1      40.077  31.353  33.708  1.00  0.00     0.167 HD
ATOM     50  C   UNL A   1      39.875  28.872  29.919  1.00  0.00     0.034 A 
ATOM     51  C   UNL A   1      40.687  33.713  35.363  1.00  0.00     0.034 A 
ATOM     52  C   UNL A   1      39.267  30.172  29.930  1.00  0.00     0.049 A 
ATOM     53  C   UNL A   1      40.119  34.038  34.050  1.00  0.00     0.074 A 
ATOM     54  C   UNL A   1      38.047  30.642  30.379  1.00  0.00     0.029 A 
ATOM     55  N   UNL A   1      40.116  31.253  29.884  1.00  0.00    -0.354 N 
ATOM     56  N   UNL A   1      40.878  34.379  33.051  1.00  0.00    -0.248 NA
ATOM     57  C   UNL A   1      38.683  34.178  33.828  1.00  0.00     0.031 C 
ATOM     58  C   UNL A   1      38.357  31.823  31.082  1.00  0.00     0.029 A 
ATOM     59  C   UNL A   1      39.608  32.263  30.677  1.00  0.00     0.049 A 
ATOM     60  H   UNL A   1      40.953  31.301  29.367  1.00  0.00     0.167 HD
ATOM     61  C   UNL A   1      40.048  34.213  31.985  1.00  0.00     0.074 A 
ATOM     62  C   UNL A   1      38.704  34.374  32.508  1.00  0.00     0.031 C 
ATOM     63  C   UNL A   1      40.483  33.345  31.043  1.00  0.00     0.034 A 
BRANCH  50  64
ATOM     64  C   UNL A   1      41.194  28.541  29.250  1.00  0.00     0.023 A 
ATOM     65  C   UNL A   1      42.366  28.940  29.910  1.00  0.00     0.012 A 
ATOM     66  C   UNL A   1      41.302  28.006  27.938  1.00  0.00     0.148 A 
ATOM     67  C   UNL A   1      43.601  28.879  29.260  1.00  0.00     0.002 A 
ATOM     68  C   UNL A   1      42.512  28.061  27.256  1.00  0.00     0.091 A 
ATOM     69  F   UNL A   1      40.227  27.435  27.372  1.00  0.00    -0.205 F 
ATOM     70  C   UNL A   1      43.668  28.485  27.923  1.00  0.00     0.022 A 
BRANCH  68  71
ATOM     71  S   UNL A   1      42.614  27.823  25.471  1.00  0.00     0.127 S 
ATOM     72  O   UNL A   1      41.914  26.548  25.282  1.00  0.00    -0.237 OA
ATOM     73  O   UNL A   1      41.900  28.982  24.945  1.00  0.00    -0.237 OA
ATOM     74  O   UNL A   1      44.034  27.756  25.144  1.00  0.00    -0.744 OA
ENDBRANCH  68  71
ENDBRANCH  50  64
BRANCH  51  75
ATOM     75  C   UNL A   1      40.692  35.092  36.179  1.00  0.00     0.023 A 
ATOM     76  C   UNL A   1      39.571  35.393  37.047  1.00  0.00     0.012 A 
ATOM     77  C   UNL A   1      41.862  35.822  36.500  1.00  0.00     0.148 A 
ATOM     78  C   UNL A   1      39.631  36.224  38.188  1.00  0.00     0.002 A 
ATOM     79  C   UNL A   1      41.911  36.687  37.638  1.00  0.00     0.091 A 
ATOM     80  F   UNL A   1      42.960  35.605  35.765  1.00  0.00    -0.205 F 
ATOM     81  C   UNL A   1      40.811  36.863  38.493  1.00  0.00     0.022 A 
BRANCH  79  82
ATOM     82  S   UNL A   1      43.399  37.570  38.174  1.00  0.00     0.127 S 
ATOM     83  O   UNL A   1      42.913  38.370  39.299  1.00  0.00    -0.237 OA
ATOM     84  O   UNL A   1      44.281  36.469  38.556  1.00  0.00    -0.237 OA
ATOM     85  O   UNL A   1      43.821  38.348  37.017  1.00  0.00    -0.744 OA
ENDBRANCH  79  82
ENDBRANCH  51  75
BRANCH  63  86
ATOM     86  C   UNL A   1      41.924  33.445  30.607  1.00  0.00     0.023 A 
ATOM     87  C   UNL A   1      43.002  32.716  31.153  1.00  0.00     0.012 A 
ATOM     88  C   UNL A   1      42.193  34.334  29.558  1.00  0.00     0.148 A 
ATOM     89  C   UNL A   1      44.305  32.881  30.666  1.00  0.00     0.002 A 
ATOM     90  C   UNL A   1      43.472  34.458  29.037  1.00  0.00     0.091 A 
ATOM     91  F   UNL A   1      41.169  35.061  29.078  1.00  0.00    -0.205 F 
ATOM     92  C   UNL A   1      44.537  33.737  29.591  1.00  0.00     0.022 A 
BRANCH  90  93
ATOM     93  S   UNL A   1      43.763  35.510  27.616  1.00  0.00     0.127 S 
ATOM     94  O   UNL A   1      44.671  34.691  26.816  1.00  0.00    -0.237 OA
ATOM     95  O   UNL A   1      42.430  35.680  27.046  1.00  0.00    -0.237 OA
ATOM     96  O   UNL A   1      44.341  36.736  28.159  1.00  0.00    -0.744 OA
ENDBRANCH  90  93
ENDBRANCH  63  86
ENDBRANCH  37  38
ENDBRANCH  30  32
ENDBRANCH  29  30
ENDBRANCH  28  29
ENDBRANCH  27  28
ENDBRANCH  26  27
ENDBRANCH   1  26
TORSDOF 23
ENDMDL
MODEL 3
REMARK VINA RESULT:      -8.5      9.182     13.944
REMARK SMILES CCn1c(C)cc(/C=C(/C(=O)OCCOCCOCCOC(=O)c2ccc(-c3c4nc(c(-c5cccc(S(=O)(=O)[O-])c5F)c5ccc([nH]5)c(-c5cccc(S(=O)(=O)[O-])c5F)c5nc(c(-c6cccc(S(=O)(=O)[O-])c6F)c6ccc3[nH]6)C=C5)C=C4)cc2)c2ccccc2)c1C
REMARK SMILES IDX 17 1 16 2 15 3 14 4 13 5 12 6 10 7 11 8 9 9 8 10 7 11 3 12
REMARK SMILES IDX 4 13 93 14 5 15 6 16 94 17 2 18 1 19 87 20 88 21 92 22 89 23
REMARK SMILES IDX 91 24 90 25 18 26 19 27 20 28 21 29 22 30 23 31 24 32 25 33
REMARK SMILES IDX 86 34 26 35 85 36 27 37 28 38 29 39 79 40 30 41 84 42 78 43
REMARK SMILES IDX 80 44 31 45 83 46 77 47 76 48 32 50 64 51 44 52 63 53 45 54
REMARK SMILES IDX 48 55 62 56 81 57 46 58 47 59 61 61 82 62 49 63 33 64 34 65
REMARK SMILES IDX 42 66 35 67 37 68 43 69 36 70 38 71 39 72 40 73 41 74 65 75
REMARK SMILES IDX 66 76 74 77 67 78 69 79 75 80 68 81 70 82 71 83 72 84 73 85
REMARK SMILES IDX 50 86 51 87 59 88 52 89 54 90 60 91 53 92 55 93 56 94 57 95
REMARK SMILES IDX 58 96
REMARK H PARENT 80 49 48 60
REMARK Flexibility Score: inf
ROOT
ATOM      1  C   UNL A   1      46.395  19.206  37.796  1.00  0.00     0.188 C 
ENDROOT
BRANCH   1   2
ATOM      2  C   UNL A   1      47.648  19.240  38.690  1.00  0.00     0.188 C 
BRANCH   2   3
ATOM      3  O   UNL A   1      47.425  19.792  39.966  1.00  0.00    -0.376 OA
BRANCH   3   4
ATOM      4  C   UNL A   1      46.313  19.402  40.748  1.00  0.00     0.202 C 
BRANCH   4   5
ATOM      5  C   UNL A   1      45.662  18.003  40.748  1.00  0.00     0.261 C 
BRANCH   5   6
ATOM      6  O   UNL A   1      44.286  17.909  41.142  1.00  0.00    -0.460 OA
BRANCH   6   7
ATOM      7  C   UNL A   1      44.020  18.165  42.442  1.00  0.00     0.338 C 
ATOM      8  O   UNL A   1      43.707  19.273  42.904  1.00  0.00    -0.246 OA
BRANCH   7   9
ATOM      9  C   UNL A   1      44.045  16.928  43.275  1.00  0.00     0.067 C 
ATOM     10  C   UNL A   1      43.088  16.001  43.039  1.00  0.00     0.026 C 
BRANCH  10  11
ATOM     11  C   UNL A   1      42.956  14.621  43.444  1.00  0.00    -0.004 A 
ATOM     12  N   UNL A   1      43.069  12.612  44.437  1.00  0.00    -0.349 N 
ATOM     13  C   UNL A   1      42.618  12.379  43.157  1.00  0.00     0.015 A 
ATOM     14  C   UNL A   1      43.079  13.981  44.673  1.00  0.00     0.022 A 
ATOM     15  C   UNL A   1      42.275  11.035  42.625  1.00  0.00     0.064 C 
ATOM     16  C   UNL A   1      42.582  13.602  42.518  1.00  0.00     0.031 A 
ATOM     17  C   UNL A   1      43.187  14.494  46.066  1.00  0.00     0.065 C 
BRANCH  12  18
ATOM     18  C   UNL A   1      43.399  11.584  45.421  1.00  0.00     0.118 C 
ATOM     19  C   UNL A   1      44.770  10.949  45.235  1.00  0.00     0.027 C 
ENDBRANCH  12  18
ENDBRANCH  10  11
BRANCH   9  20
ATOM     20  C   UNL A   1      45.217  16.755  44.144  1.00  0.00    -0.011 A 
ATOM     21  C   UNL A   1      45.292  17.447  45.364  1.00  0.00     0.009 A 
ATOM     22  C   UNL A   1      46.258  15.898  43.782  1.00  0.00     0.009 A 
ATOM     23  C   UNL A   1      46.360  17.243  46.235  1.00  0.00     0.001 A 
ATOM     24  C   UNL A   1      47.329  15.696  44.654  1.00  0.00     0.001 A 
ATOM     25  C   UNL A   1      47.373  16.357  45.883  1.00  0.00     0.000 A 
ENDBRANCH   9  20
ENDBRANCH   7   9
ENDBRANCH   6   7
ENDBRANCH   5   6
ENDBRANCH   4   5
ENDBRANCH   3   4
ENDBRANCH   2   3
ENDBRANCH   1   2
BRANCH   1  26
ATOM     26  O   UNL A   1      46.121  20.360  37.020  1.00  0.00    -0.376 OA
BRANCH  26  27
ATOM     27  C   UNL A   1      45.654  20.165  35.682  1.00  0.00     0.202 C 
BRANCH  27  28
ATOM     28  C   UNL A   1      45.444  21.385  34.732  1.00  0.00     0.261 C 
BRANCH  28  29
ATOM     29  O   UNL A   1      44.221  22.215  34.764  1.00  0.00    -0.460 OA
BRANCH  29  30
ATOM     30  C   UNL A   1      44.343  23.467  35.344  1.00  0.00     0.338 C 
ATOM     31  O   UNL A   1      45.208  23.703  36.179  1.00  0.00    -0.246 OA
BRANCH  30  32
ATOM     32  C   UNL A   1      43.396  24.587  34.834  1.00  0.00     0.060 A 
ATOM     33  C   UNL A   1      43.919  25.649  34.105  1.00  0.00     0.016 A 
ATOM     34  C   UNL A   1      42.072  24.815  35.282  1.00  0.00     0.016 A 
ATOM     35  C   UNL A   1      43.125  26.819  33.774  1.00  0.00     0.010 A 
ATOM     36  C   UNL A   1      41.288  26.052  34.998  1.00  0.00     0.010 A 
ATOM     37  C   UNL A   1      41.772  27.115  34.212  1.00  0.00    -0.014 A 
BRANCH  37  38
ATOM     38  C   UNL A   1      41.264  28.710  34.122  1.00  0.00     0.031 A 
ATOM     39  C   UNL A   1      40.273  28.630  33.009  1.00  0.00     0.074 A 
ATOM     40  C   UNL A   1      41.479  30.040  34.566  1.00  0.00     0.049 A 
ATOM     41  N   UNL A   1      40.629  28.113  31.864  1.00  0.00    -0.248 NA
ATOM     42  C   UNL A   1      38.823  28.704  33.201  1.00  0.00     0.031 C 
ATOM     43  C   UNL A   1      42.569  30.553  35.422  1.00  0.00     0.029 A 
ATOM     44  N   UNL A   1      40.773  31.303  34.361  1.00  0.00    -0.354 N 
ATOM     45  C   UNL A   1      39.535  28.196  31.057  1.00  0.00     0.074 A 
ATOM     46  C   UNL A   1      38.425  28.266  31.999  1.00  0.00     0.031 C 
ATOM     47  C   UNL A   1      42.389  31.863  35.788  1.00  0.00     0.029 A 
ATOM     48  C   UNL A   1      41.184  32.440  35.189  1.00  0.00     0.049 A 
ATOM     49  H   UNL A   1      40.052  31.386  33.695  1.00  0.00     0.167 HD
ATOM     50  C   UNL A   1      39.725  28.912  29.910  1.00  0.00     0.034 A 
ATOM     51  C   UNL A   1      40.688  33.753  35.329  1.00  0.00     0.034 A 
ATOM     52  C   UNL A   1      39.090  30.199  29.954  1.00  0.00     0.049 A 
ATOM     53  C   UNL A   1      40.053  34.070  34.045  1.00  0.00     0.074 A 
ATOM     54  C   UNL A   1      37.883  30.641  30.462  1.00  0.00     0.029 A 
ATOM     55  N   UNL A   1      39.913  31.298  29.872  1.00  0.00    -0.354 N 
ATOM     56  N   UNL A   1      40.757  34.430  33.013  1.00  0.00    -0.248 NA
ATOM     57  C   UNL A   1      38.606  34.180  33.891  1.00  0.00     0.031 C 
ATOM     58  C   UNL A   1      38.200  31.827  31.154  1.00  0.00     0.029 A 
ATOM     59  C   UNL A   1      39.421  32.294  30.693  1.00  0.00     0.049 A 
ATOM     60  H   UNL A   1      40.724  31.365  29.317  1.00  0.00     0.167 HD
ATOM     61  C   UNL A   1      39.881  34.249  31.986  1.00  0.00     0.074 A 
ATOM     62  C   UNL A   1      38.561  34.380  32.572  1.00  0.00     0.031 C 
ATOM     63  C   UNL A   1      40.290  33.394  31.022  1.00  0.00     0.034 A 
BRANCH  50  64
ATOM     64  C   UNL A   1      41.017  28.611  29.178  1.00  0.00     0.023 A 
ATOM     65  C   UNL A   1      42.149  29.356  29.542  1.00  0.00     0.012 A 
ATOM     66  C   UNL A   1      41.106  27.749  28.053  1.00  0.00     0.148 A 
ATOM     67  C   UNL A   1      43.311  29.304  28.769  1.00  0.00     0.002 A 
ATOM     68  C   UNL A   1      42.220  27.793  27.222  1.00  0.00     0.091 A 
ATOM     69  F   UNL A   1      40.110  26.882  27.811  1.00  0.00    -0.205 F 
ATOM     70  C   UNL A   1      43.332  28.561  27.588  1.00  0.00     0.022 A 
BRANCH  68  71
ATOM     71  S   UNL A   1      42.205  27.075  25.566  1.00  0.00     0.127 S 
ATOM     72  O   UNL A   1      43.410  26.239  25.575  1.00  0.00    -0.237 OA
ATOM     73  O   UNL A   1      40.954  26.323  25.547  1.00  0.00    -0.237 OA
ATOM     74  O   UNL A   1      42.284  28.192  24.632  1.00  0.00    -0.744 OA
ENDBRANCH  68  71
ENDBRANCH  50  64
BRANCH  51  75
ATOM     75  C   UNL A   1      40.703  35.130  36.148  1.00  0.00     0.023 A 
ATOM     76  C   UNL A   1      39.580  35.439  37.011  1.00  0.00     0.012 A 
ATOM     77  C   UNL A   1      41.878  35.848  36.479  1.00  0.00     0.148 A 
ATOM     78  C   UNL A   1      39.641  36.267  38.155  1.00  0.00     0.002 A 
ATOM     79  C   UNL A   1      41.929  36.708  37.619  1.00  0.00     0.091 A 
ATOM     80  F   UNL A   1      42.978  35.622  35.750  1.00  0.00    -0.205 F 
ATOM     81  C   UNL A   1      40.826  36.893  38.469  1.00  0.00     0.022 A 
BRANCH  79  82
ATOM     82  S   UNL A   1      43.423  37.575  38.166  1.00  0.00     0.127 S 
ATOM     83  O   UNL A   1      44.333  36.476  38.493  1.00  0.00    -0.237 OA
ATOM     84  O   UNL A   1      43.792  38.325  36.967  1.00  0.00    -0.237 OA
ATOM     85  O   UNL A   1      43.006  38.374  39.310  1.00  0.00    -0.744 OA
ENDBRANCH  79  82
ENDBRANCH  51  75
BRANCH  63  86
ATOM     86  C   UNL A   1      41.706  33.526  30.518  1.00  0.00     0.023 A 
ATOM     87  C   UNL A   1      42.157  34.465  29.566  1.00  0.00     0.012 A 
ATOM     88  C   UNL A   1      42.643  32.638  31.065  1.00  0.00     0.148 A 
ATOM     89  C   UNL A   1      43.501  34.505  29.172  1.00  0.00     0.002 A 
ATOM     90  C   UNL A   1      43.984  32.713  30.718  1.00  0.00     0.091 A 
ATOM     91  F   UNL A   1      42.195  31.715  31.932  1.00  0.00    -0.205 F 
ATOM     92  C   UNL A   1      44.421  33.642  29.766  1.00  0.00     0.022 A 
BRANCH  90  93
ATOM     93  S   UNL A   1      45.177  31.648  31.525  1.00  0.00     0.127 S 
ATOM     94  O   UNL A   1      45.890  31.076  30.384  1.00  0.00    -0.237 OA
ATOM     95  O   UNL A   1      45.961  32.575  32.335  1.00  0.00    -0.237 OA
ATOM     96  O   UNL A   1      44.382  30.701  32.302  1.00  0.00    -0.744 OA
ENDBRANCH  90  93
ENDBRANCH  63  86
ENDBRANCH  37  38
ENDBRANCH  30  32
ENDBRANCH  29  30
ENDBRANCH  28  29
ENDBRANCH  27  28
ENDBRANCH  26  27
ENDBRANCH   1  26
TORSDOF 23
ENDMDL
