MODEL 1
REMARK VINA RESULT:      -7.7      0.000      0.000
REMARK SMILES COc1ccc(NC(=O)[C@H](CC(=O)OCCOCCOCCOC(=O)c2ccc(-c3c4nc(c(-c5cccc(S(=O)(=O)[O-])c5F)c5ccc([nH]5)c(-c5cccc(S(=O)(=O)[O-])c5F)c5nc(c(-c6cccc(S(=O)(=O)[O-])c6F)c6ccc3[nH]6)C=C5)C=C4)cc2)Cc2ccccc2)cc1
REMARK SMILES IDX 18 1 17 2 16 3 15 4 14 5 12 6 13 7 11 8 10 9 8 10 7 11 9 13
REMARK SMILES IDX 6 14 3 15 4 16 97 17 5 18 96 19 2 20 1 21 89 22 90 23 91 24
REMARK SMILES IDX 95 25 92 26 94 27 93 28 19 29 20 30 21 31 22 32 23 33 24 34
REMARK SMILES IDX 25 35 26 36 27 37 88 38 28 39 87 40 29 41 30 42 31 43 81 44
REMARK SMILES IDX 32 45 86 46 80 47 82 48 33 49 85 50 79 51 78 52 34 54 66 55
REMARK SMILES IDX 46 56 65 57 47 58 50 59 64 60 83 61 48 62 49 63 63 65 84 66
REMARK SMILES IDX 51 67 35 68 36 69 44 70 37 71 39 72 45 73 38 74 40 75 41 76
REMARK SMILES IDX 42 77 43 78 67 79 68 80 76 81 69 82 71 83 77 84 70 85 72 86
REMARK SMILES IDX 73 87 74 88 75 89 52 90 53 91 61 92 54 93 56 94 62 95 55 96
REMARK SMILES IDX 57 97 58 98 59 99 60 100
REMARK H PARENT 7 12 82 53 50 64
REMARK Flexibility Score: inf
ROOT
ATOM      1  C   UNL A   1      47.197  27.484  29.006  1.00  0.00     0.188 C 
ENDROOT
BRANCH   1   2
ATOM      2  O   UNL A   1      47.829  27.760  30.235  1.00  0.00    -0.376 OA
BRANCH   2   3
ATOM      3  C   UNL A   1      46.988  28.236  31.272  1.00  0.00     0.202 C 
BRANCH   3   4
ATOM      4  C   UNL A   1      46.028  29.418  30.974  1.00  0.00     0.261 C 
BRANCH   4   5
ATOM      5  O   UNL A   1      44.973  29.680  31.958  1.00  0.00    -0.463 OA
BRANCH   5   6
ATOM      6  C   UNL A   1      44.000  28.747  32.079  1.00  0.00     0.306 C 
ATOM      7  O   UNL A   1      43.971  27.740  31.370  1.00  0.00    -0.252 OA
BRANCH   6   8
ATOM      8  C   UNL A   1      42.864  28.945  33.115  1.00  0.00     0.136 C 
BRANCH   8   9
ATOM      9  C   UNL A   1      41.460  28.251  33.294  1.00  0.00     0.094 C 
BRANCH   9  10
ATOM     10  C   UNL A   1      41.187  28.355  34.805  1.00  0.00     0.228 C 
ATOM     11  N   UNL A   1      41.561  27.401  35.721  1.00  0.00    -0.326 N 
ATOM     12  H   UNL A   1      41.224  27.610  36.622  1.00  0.00     0.169 HD
ATOM     13  O   UNL A   1      40.560  29.329  35.240  1.00  0.00    -0.274 OA
BRANCH  11  14
ATOM     14  C   UNL A   1      42.303  26.193  35.707  1.00  0.00     0.041 A 
ATOM     15  C   UNL A   1      43.941  23.882  35.775  1.00  0.00     0.119 A 
ATOM     16  C   UNL A   1      42.685  23.833  35.199  1.00  0.00     0.048 A 
ATOM     17  C   UNL A   1      44.409  25.084  36.295  1.00  0.00     0.048 A 
ATOM     18  C   UNL A   1      41.884  24.979  35.170  1.00  0.00     0.030 A 
ATOM     19  C   UNL A   1      43.594  26.229  36.257  1.00  0.00     0.030 A 
BRANCH  15  20
ATOM     20  O   UNL A   1      44.698  22.749  35.697  1.00  0.00    -0.497 OA
ATOM     21  C   UNL A   1      46.095  23.019  35.659  1.00  0.00     0.278 C 
ENDBRANCH  15  20
ENDBRANCH  11  14
ENDBRANCH   9  10
BRANCH   9  22
ATOM     22  C   UNL A   1      40.021  28.606  32.657  1.00  0.00     0.049 C 
BRANCH  22  23
ATOM     23  C   UNL A   1      39.722  28.794  31.175  1.00  0.00    -0.047 A 
ATOM     24  C   UNL A   1      39.801  27.411  30.026  1.00  0.00     0.004 A 
ATOM     25  C   UNL A   1      39.023  30.349  30.717  1.00  0.00     0.004 A 
ATOM     26  C   UNL A   1      39.140  27.664  28.343  1.00  0.00     0.000 A 
ATOM     27  C   UNL A   1      38.395  30.751  29.169  1.00  0.00     0.000 A 
ATOM     28  C   UNL A   1      38.393  29.499  27.934  1.00  0.00     0.000 A 
ENDBRANCH  22  23
ENDBRANCH   9  22
ENDBRANCH   8   9
ENDBRANCH   6   8
ENDBRANCH   5   6
ENDBRANCH   4   5
ENDBRANCH   3   4
ENDBRANCH   2   3
ENDBRANCH   1   2
BRANCH   1  29
ATOM     29  C   UNL A   1      47.584  28.350  27.793  1.00  0.00     0.188 C 
BRANCH  29  30
ATOM     30  O   UNL A   1      46.914  28.249  26.568  1.00  0.00    -0.376 OA
BRANCH  30  31
ATOM     31  C   UNL A   1      45.901  29.197  26.324  1.00  0.00     0.202 C 
BRANCH  31  32
ATOM     32  C   UNL A   1      46.168  30.717  26.368  1.00  0.00     0.261 C 
BRANCH  32  33
ATOM     33  O   UNL A   1      45.444  31.567  25.461  1.00  0.00    -0.460 OA
BRANCH  33  34
ATOM     34  C   UNL A   1      45.132  32.818  25.929  1.00  0.00     0.338 C 
ATOM     35  O   UNL A   1      45.382  33.856  25.337  1.00  0.00    -0.246 OA
BRANCH  34  36
ATOM     36  C   UNL A   1      44.574  32.653  27.366  1.00  0.00     0.060 A 
ATOM     37  C   UNL A   1      43.743  31.297  28.623  1.00  0.00     0.016 A 
ATOM     38  C   UNL A   1      44.233  34.401  27.727  1.00  0.00     0.016 A 
ATOM     39  C   UNL A   1      42.737  31.843  29.969  1.00  0.00     0.010 A 
ATOM     40  C   UNL A   1      43.248  34.797  29.123  1.00  0.00     0.010 A 
ATOM     41  C   UNL A   1      42.561  33.560  30.202  1.00  0.00    -0.014 A 
BRANCH  41  42
ATOM     42  C   UNL A   1      41.985  33.894  31.507  1.00  0.00     0.031 A 
ATOM     43  C   UNL A   1      40.512  33.924  31.602  1.00  0.00     0.074 A 
ATOM     44  C   UNL A   1      42.819  33.971  32.569  1.00  0.00     0.049 A 
ATOM     45  N   UNL A   1      39.774  33.904  32.670  1.00  0.00    -0.248 NA
ATOM     46  C   UNL A   1      39.762  33.951  30.336  1.00  0.00     0.031 C 
ATOM     47  C   UNL A   1      44.291  33.951  32.513  1.00  0.00     0.029 A 
ATOM     48  N   UNL A   1      42.565  34.009  33.913  1.00  0.00    -0.354 N 
ATOM     49  C   UNL A   1      38.472  33.921  32.205  1.00  0.00     0.074 A 
ATOM     50  C   UNL A   1      38.514  33.982  30.765  1.00  0.00     0.031 C 
ATOM     51  C   UNL A   1      44.796  33.878  33.751  1.00  0.00     0.029 A 
ATOM     52  C   UNL A   1      43.699  33.927  34.698  1.00  0.00     0.049 A 
ATOM     53  H   UNL A   1      41.657  34.086  34.287  1.00  0.00     0.167 HD
ATOM     54  C   UNL A   1      37.343  33.881  32.937  1.00  0.00     0.034 A 
ATOM     55  C   UNL A   1      43.827  33.900  36.037  1.00  0.00     0.034 A 
ATOM     56  C   UNL A   1      37.361  33.881  34.368  1.00  0.00     0.049 A 
ATOM     57  C   UNL A   1      42.547  33.924  36.819  1.00  0.00     0.074 A 
ATOM     58  C   UNL A   1      36.298  33.929  35.243  1.00  0.00     0.029 A 
ATOM     59  N   UNL A   1      38.524  33.871  35.131  1.00  0.00    -0.354 N 
ATOM     60  N   UNL A   1      41.313  33.888  36.367  1.00  0.00    -0.248 NA
ATOM     61  C   UNL A   1      42.657  33.975  38.278  1.00  0.00     0.031 C 
ATOM     62  C   UNL A   1      36.820  34.010  36.536  1.00  0.00     0.029 A 
ATOM     63  C   UNL A   1      38.207  33.937  36.471  1.00  0.00     0.049 A 
ATOM     64  H   UNL A   1      39.437  33.824  34.769  1.00  0.00     0.167 HD
ATOM     65  C   UNL A   1      40.498  33.895  37.485  1.00  0.00     0.074 A 
ATOM     66  C   UNL A   1      41.384  33.903  38.636  1.00  0.00     0.031 C 
ATOM     67  C   UNL A   1      39.146  33.913  37.566  1.00  0.00     0.034 A 
BRANCH  54  68
ATOM     68  C   UNL A   1      36.056  33.936  32.173  1.00  0.00     0.023 A 
ATOM     69  C   UNL A   1      35.699  32.894  31.292  1.00  0.00     0.012 A 
ATOM     70  C   UNL A   1      35.246  35.080  32.264  1.00  0.00     0.148 A 
ATOM     71  C   UNL A   1      34.575  33.014  30.476  1.00  0.00     0.002 A 
ATOM     72  C   UNL A   1      34.099  35.169  31.490  1.00  0.00     0.091 A 
ATOM     73  F   UNL A   1      35.637  36.076  33.069  1.00  0.00    -0.205 F 
ATOM     74  C   UNL A   1      33.771  34.147  30.582  1.00  0.00     0.022 A 
BRANCH  72  75
ATOM     75  S   UNL A   1      32.974  36.561  31.595  1.00  0.00     0.127 S 
ATOM     76  O   UNL A   1      31.673  35.892  31.610  1.00  0.00    -0.237 OA
ATOM     77  O   UNL A   1      33.367  37.165  32.868  1.00  0.00    -0.237 OA
ATOM     78  O   UNL A   1      33.230  37.380  30.419  1.00  0.00    -0.744 OA
ENDBRANCH  72  75
ENDBRANCH  54  68
BRANCH  55  79
ATOM     79  C   UNL A   1      45.168  33.868  36.701  1.00  0.00     0.023 A 
ATOM     80  C   UNL A   1      45.871  35.062  36.961  1.00  0.00     0.012 A 
ATOM     81  C   UNL A   1      45.767  32.642  37.062  1.00  0.00     0.148 A 
ATOM     82  C   UNL A   1      47.153  35.032  37.520  1.00  0.00     0.002 A 
ATOM     83  C   UNL A   1      47.017  32.622  37.670  1.00  0.00     0.091 A 
ATOM     84  F   UNL A   1      45.098  31.509  36.799  1.00  0.00    -0.205 F 
ATOM     85  C   UNL A   1      47.723  33.814  37.880  1.00  0.00     0.022 A 
BRANCH  83  86
ATOM     86  S   UNL A   1      47.772  31.104  38.267  1.00  0.00     0.127 S 
ATOM     87  O   UNL A   1      48.167  30.456  37.018  1.00  0.00    -0.237 OA
ATOM     88  O   UNL A   1      48.881  31.616  39.073  1.00  0.00    -0.237 OA
ATOM     89  O   UNL A   1      46.737  30.423  39.032  1.00  0.00    -0.744 OA
ENDBRANCH  83  86
ENDBRANCH  55  79
BRANCH  67  90
ATOM     90  C   UNL A   1      38.557  33.893  38.943  1.00  0.00     0.023 A 
ATOM     91  C   UNL A   1      38.689  35.012  39.786  1.00  0.00     0.012 A 
ATOM     92  C   UNL A   1      37.786  32.790  39.349  1.00  0.00     0.148 A 
ATOM     93  C   UNL A   1      38.083  35.016  41.039  1.00  0.00     0.002 A 
ATOM     94  C   UNL A   1      37.130  32.830  40.567  1.00  0.00     0.091 A 
ATOM     95  F   UNL A   1      37.696  31.734  38.527  1.00  0.00    -0.205 F 
ATOM     96  C   UNL A   1      37.291  33.934  41.421  1.00  0.00     0.022 A 
BRANCH  94  97
ATOM     97  S   UNL A   1      35.993  31.543  41.078  1.00  0.00     0.127 S 
ATOM     98  O   UNL A   1      34.756  32.298  41.266  1.00  0.00    -0.237 OA
ATOM     99  O   UNL A   1      35.996  30.652  39.917  1.00  0.00    -0.237 OA
ATOM    100  O   UNL A   1      36.557  30.960  42.288  1.00  0.00    -0.744 OA
ENDBRANCH  94  97
ENDBRANCH  67  90
ENDBRANCH  41  42
ENDBRANCH  34  36
ENDBRANCH  33  34
ENDBRANCH  32  33
ENDBRANCH  31  32
ENDBRANCH  30  31
ENDBRANCH  29  30
ENDBRANCH   1  29
TORSDOF 26
ENDMDL
MODEL 2
REMARK VINA RESULT:      -7.6      4.564      9.201
REMARK SMILES COc1ccc(NC(=O)[C@H](CC(=O)OCCOCCOCCOC(=O)c2ccc(-c3c4nc(c(-c5cccc(S(=O)(=O)[O-])c5F)c5ccc([nH]5)c(-c5cccc(S(=O)(=O)[O-])c5F)c5nc(c(-c6cccc(S(=O)(=O)[O-])c6F)c6ccc3[nH]6)C=C5)C=C4)cc2)Cc2ccccc2)cc1
REMARK SMILES IDX 18 1 17 2 16 3 15 4 14 5 12 6 13 7 11 8 10 9 8 10 7 11 9 13
REMARK SMILES IDX 6 14 3 15 4 16 97 17 5 18 96 19 2 20 1 21 89 22 90 23 91 24
REMARK SMILES IDX 95 25 92 26 94 27 93 28 19 29 20 30 21 31 22 32 23 33 24 34
REMARK SMILES IDX 25 35 26 36 27 37 88 38 28 39 87 40 29 41 30 42 31 43 81 44
REMARK SMILES IDX 32 45 86 46 80 47 82 48 33 49 85 50 79 51 78 52 34 54 66 55
REMARK SMILES IDX 46 56 65 57 47 58 50 59 64 60 83 61 48 62 49 63 63 65 84 66
REMARK SMILES IDX 51 67 35 68 36 69 44 70 37 71 39 72 45 73 38 74 40 75 41 76
REMARK SMILES IDX 42 77 43 78 67 79 68 80 76 81 69 82 71 83 77 84 70 85 72 86
REMARK SMILES IDX 73 87 74 88 75 89 52 90 53 91 61 92 54 93 56 94 62 95 55 96
REMARK SMILES IDX 57 97 58 98 59 99 60 100
REMARK H PARENT 7 12 82 53 50 64
REMARK Flexibility Score: inf
ROOT
ATOM      1  C   UNL A   1      45.950  40.685  29.161  1.00  0.00     0.188 C 
ENDROOT
BRANCH   1   2
ATOM      2  O   UNL A   1      45.335  40.622  27.894  1.00  0.00    -0.376 OA
BRANCH   2   3
ATOM      3  C   UNL A   1      45.095  39.320  27.386  1.00  0.00     0.202 C 
BRANCH   3   4
ATOM      4  C   UNL A   1      43.629  38.840  27.218  1.00  0.00     0.261 C 
BRANCH   4   5
ATOM      5  O   UNL A   1      43.425  37.555  26.544  1.00  0.00    -0.463 OA
BRANCH   5   6
ATOM      6  C   UNL A   1      43.541  36.438  27.301  1.00  0.00     0.306 C 
ATOM      7  O   UNL A   1      44.526  35.702  27.226  1.00  0.00    -0.252 OA
BRANCH   6   8
ATOM      8  C   UNL A   1      42.403  36.041  28.274  1.00  0.00     0.136 C 
BRANCH   8   9
ATOM      9  C   UNL A   1      42.173  34.768  29.175  1.00  0.00     0.094 C 
BRANCH   9  10
ATOM     10  C   UNL A   1      43.534  34.553  29.862  1.00  0.00     0.228 C 
ATOM     11  N   UNL A   1      44.333  33.453  29.659  1.00  0.00    -0.326 N 
ATOM     12  H   UNL A   1      45.119  33.461  30.250  1.00  0.00     0.169 HD
ATOM     13  O   UNL A   1      43.934  35.388  30.683  1.00  0.00    -0.274 OA
BRANCH  11  14
ATOM     14  C   UNL A   1      44.319  32.311  28.820  1.00  0.00     0.041 A 
ATOM     15  C   UNL A   1      44.456  30.107  27.043  1.00  0.00     0.119 A 
ATOM     16  C   UNL A   1      43.475  30.163  28.016  1.00  0.00     0.048 A 
ATOM     17  C   UNL A   1      45.360  31.157  26.923  1.00  0.00     0.048 A 
ATOM     18  C   UNL A   1      43.415  31.255  28.887  1.00  0.00     0.030 A 
ATOM     19  C   UNL A   1      45.287  32.251  27.805  1.00  0.00     0.030 A 
BRANCH  15  20
ATOM     20  O   UNL A   1      44.407  29.053  26.178  1.00  0.00    -0.497 OA
ATOM     21  C   UNL A   1      43.130  28.424  26.145  1.00  0.00     0.278 C 
ENDBRANCH  15  20
ENDBRANCH  11  14
ENDBRANCH   9  10
BRANCH   9  22
ATOM     22  C   UNL A   1      41.131  34.504  30.378  1.00  0.00     0.049 C 
BRANCH  22  23
ATOM     23  C   UNL A   1      39.887  33.627  30.305  1.00  0.00    -0.047 A 
ATOM     24  C   UNL A   1      38.271  34.331  29.940  1.00  0.00     0.004 A 
ATOM     25  C   UNL A   1      40.168  31.885  30.307  1.00  0.00     0.004 A 
ATOM     26  C   UNL A   1      36.903  33.178  29.578  1.00  0.00     0.000 A 
ATOM     27  C   UNL A   1      38.980  30.675  30.021  1.00  0.00     0.000 A 
ATOM     28  C   UNL A   1      37.346  31.205  29.641  1.00  0.00     0.000 A 
ENDBRANCH  22  23
ENDBRANCH   9  22
ENDBRANCH   8   9
ENDBRANCH   6   8
ENDBRANCH   5   6
ENDBRANCH   4   5
ENDBRANCH   3   4
ENDBRANCH   2   3
ENDBRANCH   1   2
BRANCH   1  29
ATOM     29  C   UNL A   1      45.929  42.036  29.900  1.00  0.00     0.188 C 
BRANCH  29  30
ATOM     30  O   UNL A   1      46.332  42.154  31.235  1.00  0.00    -0.376 OA
BRANCH  30  31
ATOM     31  C   UNL A   1      45.675  43.131  32.008  1.00  0.00     0.202 C 
BRANCH  31  32
ATOM     32  C   UNL A   1      45.771  43.163  33.549  1.00  0.00     0.261 C 
BRANCH  32  33
ATOM     33  O   UNL A   1      44.581  43.447  34.304  1.00  0.00    -0.460 OA
BRANCH  33  34
ATOM     34  C   UNL A   1      43.446  42.785  33.909  1.00  0.00     0.338 C 
ATOM     35  O   UNL A   1      42.476  43.325  33.402  1.00  0.00    -0.246 OA
BRANCH  34  36
ATOM     36  C   UNL A   1      43.583  41.310  34.367  1.00  0.00     0.060 A 
ATOM     37  C   UNL A   1      44.378  40.146  35.824  1.00  0.00     0.016 A 
ATOM     38  C   UNL A   1      43.264  40.499  32.772  1.00  0.00     0.016 A 
ATOM     39  C   UNL A   1      44.735  38.447  35.498  1.00  0.00     0.010 A 
ATOM     40  C   UNL A   1      43.632  38.792  32.605  1.00  0.00     0.010 A 
ATOM     41  C   UNL A   1      44.313  37.818  33.930  1.00  0.00    -0.014 A 
BRANCH  41  42
ATOM     42  C   UNL A   1      44.354  36.355  33.881  1.00  0.00     0.031 A 
ATOM     43  C   UNL A   1      43.087  35.639  34.129  1.00  0.00     0.074 A 
ATOM     44  C   UNL A   1      45.488  35.765  33.437  1.00  0.00     0.049 A 
ATOM     45  N   UNL A   1      42.796  34.402  33.864  1.00  0.00    -0.248 NA
ATOM     46  C   UNL A   1      41.988  36.416  34.726  1.00  0.00     0.031 C 
ATOM     47  C   UNL A   1      46.771  36.443  33.185  1.00  0.00     0.029 A 
ATOM     48  N   UNL A   1      45.741  34.478  33.046  1.00  0.00    -0.354 N 
ATOM     49  C   UNL A   1      41.482  34.250  34.267  1.00  0.00     0.074 A 
ATOM     50  C   UNL A   1      41.037  35.506  34.818  1.00  0.00     0.031 C 
ATOM     51  C   UNL A   1      47.629  35.598  32.598  1.00  0.00     0.029 A 
ATOM     52  C   UNL A   1      46.997  34.297  32.502  1.00  0.00     0.049 A 
ATOM     53  H   UNL A   1      45.086  33.749  33.143  1.00  0.00     0.167 HD
ATOM     54  C   UNL A   1      40.721  33.144  34.168  1.00  0.00     0.034 A 
ATOM     55  C   UNL A   1      47.569  33.193  31.986  1.00  0.00     0.034 A 
ATOM     56  C   UNL A   1      41.234  31.906  33.665  1.00  0.00     0.049 A 
ATOM     57  C   UNL A   1      46.709  31.963  31.956  1.00  0.00     0.074 A 
ATOM     58  C   UNL A   1      40.607  30.682  33.587  1.00  0.00     0.029 A 
ATOM     59  N   UNL A   1      42.530  31.739  33.189  1.00  0.00    -0.354 N 
ATOM     60  N   UNL A   1      45.444  31.842  32.293  1.00  0.00    -0.248 NA
ATOM     61  C   UNL A   1      47.330  30.727  31.474  1.00  0.00     0.031 C 
ATOM     62  C   UNL A   1      41.545  29.758  33.120  1.00  0.00     0.029 A 
ATOM     63  C   UNL A   1      42.733  30.421  32.836  1.00  0.00     0.049 A 
ATOM     64  H   UNL A   1      43.202  32.453  33.115  1.00  0.00     0.167 HD
ATOM     65  C   UNL A   1      45.110  30.521  32.049  1.00  0.00     0.074 A 
ATOM     66  C   UNL A   1      46.300  29.894  31.502  1.00  0.00     0.031 C 
ATOM     67  C   UNL A   1      43.941  29.874  32.270  1.00  0.00     0.034 A 
BRANCH  54  68
ATOM     68  C   UNL A   1      39.328  33.249  34.708  1.00  0.00     0.023 A 
ATOM     69  C   UNL A   1      38.279  33.738  33.899  1.00  0.00     0.012 A 
ATOM     70  C   UNL A   1      39.083  32.947  36.058  1.00  0.00     0.148 A 
ATOM     71  C   UNL A   1      37.018  33.970  34.445  1.00  0.00     0.002 A 
ATOM     72  C   UNL A   1      37.812  33.128  36.580  1.00  0.00     0.091 A 
ATOM     73  F   UNL A   1      40.109  32.535  36.815  1.00  0.00    -0.205 F 
ATOM     74  C   UNL A   1      36.782  33.657  35.782  1.00  0.00     0.022 A 
BRANCH  72  75
ATOM     75  S   UNL A   1      37.398  32.704  38.272  1.00  0.00     0.127 S 
ATOM     76  O   UNL A   1      37.950  31.353  38.383  1.00  0.00    -0.237 OA
ATOM     77  O   UNL A   1      38.127  33.727  39.022  1.00  0.00    -0.237 OA
ATOM     78  O   UNL A   1      35.948  32.785  38.369  1.00  0.00    -0.744 OA
ENDBRANCH  72  75
ENDBRANCH  54  68
BRANCH  55  79
ATOM     79  C   UNL A   1      48.981  33.192  31.495  1.00  0.00     0.023 A 
ATOM     80  C   UNL A   1      50.037  32.783  32.335  1.00  0.00     0.012 A 
ATOM     81  C   UNL A   1      49.291  33.620  30.186  1.00  0.00     0.148 A 
ATOM     82  C   UNL A   1      51.365  32.845  31.901  1.00  0.00     0.002 A 
ATOM     83  C   UNL A   1      50.609  33.625  29.740  1.00  0.00     0.091 A 
ATOM     84  F   UNL A   1      48.284  34.021  29.396  1.00  0.00    -0.205 F 
ATOM     85  C   UNL A   1      51.651  33.259  30.603  1.00  0.00     0.022 A 
BRANCH  83  86
ATOM     86  S   UNL A   1      51.051  34.037  28.048  1.00  0.00     0.127 S 
ATOM     87  O   UNL A   1      52.334  34.711  28.230  1.00  0.00    -0.237 OA
ATOM     88  O   UNL A   1      51.133  32.714  27.427  1.00  0.00    -0.237 OA
ATOM     89  O   UNL A   1      49.965  34.869  27.548  1.00  0.00    -0.744 OA
ENDBRANCH  83  86
ENDBRANCH  55  79
BRANCH  67  90
ATOM     90  C   UNL A   1      43.890  28.430  31.872  1.00  0.00     0.023 A 
ATOM     91  C   UNL A   1      43.572  28.070  30.550  1.00  0.00     0.012 A 
ATOM     92  C   UNL A   1      44.259  27.443  32.804  1.00  0.00     0.148 A 
ATOM     93  C   UNL A   1      43.592  26.732  30.168  1.00  0.00     0.002 A 
ATOM     94  C   UNL A   1      44.342  26.123  32.398  1.00  0.00     0.091 A 
ATOM     95  F   UNL A   1      44.538  27.821  34.060  1.00  0.00    -0.205 F 
ATOM     96  C   UNL A   1      43.993  25.762  31.086  1.00  0.00     0.022 A 
BRANCH  94  97
ATOM     97  S   UNL A   1      44.970  24.835  33.475  1.00  0.00     0.127 S 
ATOM     98  O   UNL A   1      44.274  25.130  34.726  1.00  0.00    -0.237 OA
ATOM     99  O   UNL A   1      44.521  23.621  32.795  1.00  0.00    -0.237 OA
ATOM    100  O   UNL A   1      46.416  25.008  33.513  1.00  0.00    -0.744 OA
ENDBRANCH  94  97
ENDBRANCH  67  90
ENDBRANCH  41  42
ENDBRANCH  34  36
ENDBRANCH  33  34
ENDBRANCH  32  33
ENDBRANCH  31  32
ENDBRANCH  30  31
ENDBRANCH  29  30
ENDBRANCH   1  29
TORSDOF 26
ENDMDL
MODEL 3
REMARK VINA RESULT:      -7.5      6.044     12.269
REMARK SMILES COc1ccc(NC(=O)[C@H](CC(=O)OCCOCCOCCOC(=O)c2ccc(-c3c4nc(c(-c5cccc(S(=O)(=O)[O-])c5F)c5ccc([nH]5)c(-c5cccc(S(=O)(=O)[O-])c5F)c5nc(c(-c6cccc(S(=O)(=O)[O-])c6F)c6ccc3[nH]6)C=C5)C=C4)cc2)Cc2ccccc2)cc1
REMARK SMILES IDX 18 1 17 2 16 3 15 4 14 5 12 6 13 7 11 8 10 9 8 10 7 11 9 13
REMARK SMILES IDX 6 14 3 15 4 16 97 17 5 18 96 19 2 20 1 21 89 22 90 23 91 24
REMARK SMILES IDX 95 25 92 26 94 27 93 28 19 29 20 30 21 31 22 32 23 33 24 34
REMARK SMILES IDX 25 35 26 36 27 37 88 38 28 39 87 40 29 41 30 42 31 43 81 44
REMARK SMILES IDX 32 45 86 46 80 47 82 48 33 49 85 50 79 51 78 52 34 54 66 55
REMARK SMILES IDX 46 56 65 57 47 58 50 59 64 60 83 61 48 62 49 63 63 65 84 66
REMARK SMILES IDX 51 67 35 68 36 69 44 70 37 71 39 72 45 73 38 74 40 75 41 76
REMARK SMILES IDX 42 77 43 78 67 79 68 80 76 81 69 82 71 83 77 84 70 85 72 86
REMARK SMILES IDX 73 87 74 88 75 89 52 90 53 91 61 92 54 93 56 94 62 95 55 96
REMARK SMILES IDX 57 97 58 98 59 99 60 100
REMARK H PARENT 7 12 82 53 50 64
REMARK Flexibility Score: inf
ROOT
ATOM      1  C   UNL A   1      48.917  37.256  25.027  1.00  0.00     0.188 C 
ENDROOT
BRANCH   1   2
ATOM      2  O   UNL A   1      48.196  37.428  26.226  1.00  0.00    -0.376 OA
BRANCH   2   3
ATOM      3  C   UNL A   1      46.897  37.982  26.095  1.00  0.00     0.202 C 
BRANCH   3   4
ATOM      4  C   UNL A   1      45.732  37.358  26.907  1.00  0.00     0.261 C 
BRANCH   4   5
ATOM      5  O   UNL A   1      45.001  38.251  27.811  1.00  0.00    -0.463 OA
BRANCH   5   6
ATOM      6  C   UNL A   1      43.669  38.380  27.603  1.00  0.00     0.306 C 
ATOM      7  O   UNL A   1      42.848  37.664  28.176  1.00  0.00    -0.252 OA
BRANCH   6   8
ATOM      8  C   UNL A   1      43.143  39.435  26.597  1.00  0.00     0.136 C 
BRANCH   8   9
ATOM      9  C   UNL A   1      43.692  40.845  26.155  1.00  0.00     0.094 C 
BRANCH   9  10
ATOM     10  C   UNL A   1      42.559  41.427  25.291  1.00  0.00     0.228 C 
ATOM     11  N   UNL A   1      42.719  42.479  24.420  1.00  0.00    -0.326 N 
ATOM     12  H   UNL A   1      41.862  42.757  24.024  1.00  0.00     0.169 HD
ATOM     13  O   UNL A   1      41.418  40.963  25.399  1.00  0.00    -0.274 OA
BRANCH  11  14
ATOM     14  C   UNL A   1      43.796  43.269  23.944  1.00  0.00     0.041 A 
ATOM     15  C   UNL A   1      46.051  44.669  22.950  1.00  0.00     0.119 A 
ATOM     16  C   UNL A   1      44.955  45.359  23.436  1.00  0.00     0.048 A 
ATOM     17  C   UNL A   1      46.051  43.279  22.981  1.00  0.00     0.048 A 
ATOM     18  C   UNL A   1      43.848  44.659  23.925  1.00  0.00     0.030 A 
ATOM     19  C   UNL A   1      44.931  42.587  23.478  1.00  0.00     0.030 A 
BRANCH  15  20
ATOM     20  O   UNL A   1      47.126  45.414  22.564  1.00  0.00    -0.497 OA
ATOM     21  C   UNL A   1      46.773  46.485  21.694  1.00  0.00     0.278 C 
ENDBRANCH  15  20
ENDBRANCH  11  14
ENDBRANCH   9  10
BRANCH   9  22
ATOM     22  C   UNL A   1      44.150  42.119  27.032  1.00  0.00     0.049 C 
BRANCH  22  23
ATOM     23  C   UNL A   1      45.586  42.556  27.290  1.00  0.00    -0.047 A 
ATOM     24  C   UNL A   1      46.854  41.365  27.752  1.00  0.00     0.004 A 
ATOM     25  C   UNL A   1      45.985  44.213  26.832  1.00  0.00     0.004 A 
ATOM     26  C   UNL A   1      48.591  41.927  27.747  1.00  0.00     0.000 A 
ATOM     27  C   UNL A   1      47.561  44.899  26.811  1.00  0.00     0.000 A 
ATOM     28  C   UNL A   1      48.913  43.856  27.232  1.00  0.00     0.000 A 
ENDBRANCH  22  23
ENDBRANCH   9  22
ENDBRANCH   8   9
ENDBRANCH   6   8
ENDBRANCH   5   6
ENDBRANCH   4   5
ENDBRANCH   3   4
ENDBRANCH   2   3
ENDBRANCH   1   2
BRANCH   1  29
ATOM     29  C   UNL A   1      49.468  35.851  24.719  1.00  0.00     0.188 C 
BRANCH  29  30
ATOM     30  O   UNL A   1      50.833  35.622  24.515  1.00  0.00    -0.376 OA
BRANCH  30  31
ATOM     31  C   UNL A   1      51.352  34.413  25.018  1.00  0.00     0.202 C 
BRANCH  31  32
ATOM     32  C   UNL A   1      52.543  34.372  25.999  1.00  0.00     0.261 C 
BRANCH  32  33
ATOM     33  O   UNL A   1      52.335  33.809  27.306  1.00  0.00    -0.460 OA
BRANCH  33  34
ATOM     34  C   UNL A   1      52.039  34.701  28.305  1.00  0.00     0.338 C 
ATOM     35  O   UNL A   1      52.679  35.715  28.533  1.00  0.00    -0.246 OA
BRANCH  34  36
ATOM     36  C   UNL A   1      50.881  34.098  29.142  1.00  0.00     0.060 A 
ATOM     37  C   UNL A   1      50.443  32.601  30.436  1.00  0.00     0.016 A 
ATOM     38  C   UNL A   1      49.483  34.797  28.214  1.00  0.00     0.016 A 
ATOM     39  C   UNL A   1      48.776  32.036  30.598  1.00  0.00     0.010 A 
ATOM     40  C   UNL A   1      47.875  34.163  28.508  1.00  0.00     0.010 A 
ATOM     41  C   UNL A   1      47.551  32.857  29.673  1.00  0.00    -0.014 A 
BRANCH  41  42
ATOM     42  C   UNL A   1      46.195  32.528  30.119  1.00  0.00     0.031 A 
ATOM     43  C   UNL A   1      45.557  33.459  31.071  1.00  0.00     0.074 A 
ATOM     44  C   UNL A   1      45.551  31.511  29.502  1.00  0.00     0.049 A 
ATOM     45  N   UNL A   1      44.301  33.556  31.384  1.00  0.00    -0.248 NA
ATOM     46  C   UNL A   1      46.435  34.433  31.740  1.00  0.00     0.031 C 
ATOM     47  C   UNL A   1      46.154  30.558  28.554  1.00  0.00     0.029 A 
ATOM     48  N   UNL A   1      44.234  31.139  29.512  1.00  0.00    -0.354 N 
ATOM     49  C   UNL A   1      44.237  34.597  32.291  1.00  0.00     0.074 A 
ATOM     50  C   UNL A   1      45.577  35.085  32.503  1.00  0.00     0.031 C 
ATOM     51  C   UNL A   1      45.203  29.789  28.009  1.00  0.00     0.029 A 
ATOM     52  C   UNL A   1      43.933  30.128  28.621  1.00  0.00     0.049 A 
ATOM     53  H   UNL A   1      43.563  31.555  30.101  1.00  0.00     0.167 HD
ATOM     54  C   UNL A   1      43.137  35.097  32.884  1.00  0.00     0.034 A 
ATOM     55  C   UNL A   1      42.754  29.543  28.338  1.00  0.00     0.034 A 
ATOM     56  C   UNL A   1      41.837  34.534  32.681  1.00  0.00     0.049 A 
ATOM     57  C   UNL A   1      41.562  30.085  29.071  1.00  0.00     0.074 A 
ATOM     58  C   UNL A   1      40.645  34.879  33.279  1.00  0.00     0.029 A 
ATOM     59  N   UNL A   1      41.577  33.466  31.828  1.00  0.00    -0.354 N 
ATOM     60  N   UNL A   1      41.503  31.109  29.892  1.00  0.00    -0.248 NA
ATOM     61  C   UNL A   1      40.279  29.415  28.843  1.00  0.00     0.031 C 
ATOM     62  C   UNL A   1      39.674  33.978  32.833  1.00  0.00     0.029 A 
ATOM     63  C   UNL A   1      40.245  33.120  31.901  1.00  0.00     0.049 A 
ATOM     64  H   UNL A   1      42.245  33.023  31.257  1.00  0.00     0.167 HD
ATOM     65  C   UNL A   1      40.176  31.220  30.268  1.00  0.00     0.074 A 
ATOM     66  C   UNL A   1      39.461  30.177  29.554  1.00  0.00     0.031 C 
ATOM     67  C   UNL A   1      39.596  32.084  31.135  1.00  0.00     0.034 A 
BRANCH  54  68
ATOM     68  C   UNL A   1      43.358  36.219  33.851  1.00  0.00     0.023 A 
ATOM     69  C   UNL A   1      43.333  37.560  33.413  1.00  0.00     0.012 A 
ATOM     70  C   UNL A   1      43.687  35.929  35.186  1.00  0.00     0.148 A 
ATOM     71  C   UNL A   1      43.680  38.592  34.282  1.00  0.00     0.002 A 
ATOM     72  C   UNL A   1      43.977  36.965  36.059  1.00  0.00     0.091 A 
ATOM     73  F   UNL A   1      43.754  34.644  35.560  1.00  0.00    -0.205 F 
ATOM     74  C   UNL A   1      43.993  38.296  35.607  1.00  0.00     0.022 A 
BRANCH  72  75
ATOM     75  S   UNL A   1      44.339  36.687  37.793  1.00  0.00     0.127 S 
ATOM     76  O   UNL A   1      43.476  37.674  38.440  1.00  0.00    -0.237 OA
ATOM     77  O   UNL A   1      43.917  35.297  37.966  1.00  0.00    -0.237 OA
ATOM     78  O   UNL A   1      45.768  36.921  37.953  1.00  0.00    -0.744 OA
ENDBRANCH  72  75
ENDBRANCH  54  68
BRANCH  55  79
ATOM     79  C   UNL A   1      42.648  28.409  27.369  1.00  0.00     0.023 A 
ATOM     80  C   UNL A   1      42.413  28.650  26.000  1.00  0.00     0.012 A 
ATOM     81  C   UNL A   1      42.760  27.071  27.807  1.00  0.00     0.148 A 
ATOM     82  C   UNL A   1      42.247  27.590  25.103  1.00  0.00     0.002 A 
ATOM     83  C   UNL A   1      42.650  26.022  26.900  1.00  0.00     0.091 A 
ATOM     84  F   UNL A   1      42.969  26.848  29.112  1.00  0.00    -0.205 F 
ATOM     85  C   UNL A   1      42.372  26.278  25.550  1.00  0.00     0.022 A 
BRANCH  83  86
ATOM     86  S   UNL A   1      42.910  24.309  27.375  1.00  0.00     0.127 S 
ATOM     87  O   UNL A   1      44.284  24.342  27.872  1.00  0.00    -0.237 OA
ATOM     88  O   UNL A   1      41.887  24.123  28.403  1.00  0.00    -0.237 OA
ATOM     89  O   UNL A   1      42.695  23.527  26.165  1.00  0.00    -0.744 OA
ENDBRANCH  83  86
ENDBRANCH  55  79
BRANCH  67  90
ATOM     90  C   UNL A   1      38.114  31.961  31.312  1.00  0.00     0.023 A 
ATOM     91  C   UNL A   1      37.587  31.324  32.451  1.00  0.00     0.012 A 
ATOM     92  C   UNL A   1      37.253  32.572  30.383  1.00  0.00     0.148 A 
ATOM     93  C   UNL A   1      36.210  31.271  32.646  1.00  0.00     0.002 A 
ATOM     94  C   UNL A   1      35.890  32.574  30.619  1.00  0.00     0.091 A 
ATOM     95  F   UNL A   1      37.789  33.153  29.301  1.00  0.00    -0.205 F 
ATOM     96  C   UNL A   1      35.364  31.910  31.740  1.00  0.00     0.022 A 
BRANCH  94  97
ATOM     97  S   UNL A   1      34.746  33.479  29.577  1.00  0.00     0.127 S 
ATOM     98  O   UNL A   1      34.237  32.420  28.708  1.00  0.00    -0.237 OA
ATOM     99  O   UNL A   1      33.782  33.989  30.552  1.00  0.00    -0.237 OA
ATOM    100  O   UNL A   1      35.532  34.507  28.909  1.00  0.00    -0.744 OA
ENDBRANCH  94  97
ENDBRANCH  67  90
ENDBRANCH  41  42
ENDBRANCH  34  36
ENDBRANCH  33  34
ENDBRANCH  32  33
ENDBRANCH  31  32
ENDBRANCH  30  31
ENDBRANCH  29  30
ENDBRANCH   1  29
TORSDOF 26
ENDMDL
