MODEL 1
REMARK VINA RESULT:     -10.0      0.000      0.000
REMARK SMILES Cc1ccc(C(=O)OCCOCCOCCOC(=O)c2ccc(-c3c4nc(c(-c5cccc(S(=O)(=O)[O-])c5F)c5ccc([nH]5)c(-c5cccc(S(=O)(=O)[O-])c5F)c5nc(c(-c6cccc(S(=O)(=O)[O-])c6F)c6ccc3[nH]6)C=C5)C=C4)cc2)cc1/[NH+]=C1\NCCS1
REMARK SMILES IDX 13 1 12 2 11 3 10 4 9 5 8 6 6 7 7 8 5 9 1 10 2 11 3 12 84 13
REMARK SMILES IDX 4 14 83 15 85 16 86 17 87 19 90 20 88 21 89 23 14 24 15 25
REMARK SMILES IDX 16 26 17 27 18 28 19 29 20 30 21 31 82 32 22 33 81 34 23 35
REMARK SMILES IDX 24 36 25 37 75 38 26 39 80 40 74 41 76 42 27 43 79 44 73 45
REMARK SMILES IDX 72 46 28 48 60 49 40 50 59 51 41 52 44 53 58 54 77 55 42 56
REMARK SMILES IDX 43 57 57 59 78 60 45 61 29 62 30 63 38 64 31 65 33 66 39 67
REMARK SMILES IDX 32 68 34 69 35 70 36 71 37 72 61 73 62 74 70 75 63 76 65 77
REMARK SMILES IDX 71 78 64 79 66 80 67 81 68 82 69 83 46 84 47 85 55 86 48 87
REMARK SMILES IDX 50 88 56 89 49 90 51 91 52 92 53 93 54 94
REMARK H PARENT 85 18 87 22 76 47 44 58
REMARK Flexibility Score: inf
ROOT
ATOM      1  C   UNL A   1      33.273  28.937  24.928  1.00  0.00     0.188 C 
ENDROOT
BRANCH   1   2
ATOM      2  C   UNL A   1      33.651  27.635  24.221  1.00  0.00     0.188 C 
BRANCH   2   3
ATOM      3  O   UNL A   1      33.440  26.489  25.043  1.00  0.00    -0.376 OA
BRANCH   3   4
ATOM      4  C   UNL A   1      34.111  25.341  24.497  1.00  0.00     0.202 C 
BRANCH   4   5
ATOM      5  C   UNL A   1      35.022  24.574  25.535  1.00  0.00     0.261 C 
BRANCH   5   6
ATOM      6  O   UNL A   1      35.561  23.186  25.310  1.00  0.00    -0.460 OA
BRANCH   6   7
ATOM      7  C   UNL A   1      36.842  23.167  24.874  1.00  0.00     0.338 C 
ATOM      8  O   UNL A   1      36.958  23.173  23.658  1.00  0.00    -0.246 OA
BRANCH   7   9
ATOM      9  C   UNL A   1      38.130  22.874  25.723  1.00  0.00     0.064 A 
ATOM     10  C   UNL A   1      41.487  22.670  28.543  1.00  0.00     0.049 C 
ATOM     11  C   UNL A   1      40.450  22.736  27.459  1.00  0.00    -0.004 A 
ATOM     12  C   UNL A   1      39.760  23.904  27.390  1.00  0.00     0.008 A 
ATOM     13  C   UNL A   1      40.014  21.663  26.624  1.00  0.00     0.129 A 
ATOM     14  C   UNL A   1      38.651  23.916  26.568  1.00  0.00     0.016 A 
ATOM     15  C   UNL A   1      38.893  21.743  25.733  1.00  0.00     0.067 A 
BRANCH  13  16
ATOM     16  N   UNL A   1      40.596  20.406  26.774  1.00  0.00    -0.235 N 
ATOM     17  C   UNL A   1      41.773  20.306  26.275  1.00  0.00     0.309 C 
ATOM     18  H   UNL A   1      40.142  19.658  27.225  1.00  0.00     0.313 HD
ATOM     19  N   UNL A   1      42.534  21.218  25.598  1.00  0.00    -0.268 N 
ATOM     20  S   UNL A   1      42.609  18.770  26.381  1.00  0.00    -0.035 SA
ATOM     21  C   UNL A   1      43.817  20.781  25.133  1.00  0.00     0.246 C 
ATOM     22  H   UNL A   1      42.214  22.135  25.436  1.00  0.00     0.305 HD
ATOM     23  C   UNL A   1      43.726  19.261  25.038  1.00  0.00     0.128 C 
ENDBRANCH  13  16
ENDBRANCH   7   9
ENDBRANCH   6   7
ENDBRANCH   5   6
ENDBRANCH   4   5
ENDBRANCH   3   4
ENDBRANCH   2   3
ENDBRANCH   1   2
BRANCH   1  24
ATOM     24  O   UNL A   1      33.938  29.290  26.142  1.00  0.00    -0.376 OA
BRANCH  24  25
ATOM     25  C   UNL A   1      33.148  29.899  27.154  1.00  0.00     0.202 C 
BRANCH  25  26
ATOM     26  C   UNL A   1      33.592  31.283  27.678  1.00  0.00     0.261 C 
BRANCH  26  27
ATOM     27  O   UNL A   1      35.009  31.486  27.634  1.00  0.00    -0.460 OA
BRANCH  27  28
ATOM     28  C   UNL A   1      35.656  31.268  28.832  1.00  0.00     0.338 C 
ATOM     29  O   UNL A   1      35.720  32.025  29.747  1.00  0.00    -0.246 OA
BRANCH  28  30
ATOM     30  C   UNL A   1      36.530  30.079  28.579  1.00  0.00     0.060 A 
ATOM     31  C   UNL A   1      36.898  29.216  29.596  1.00  0.00     0.016 A 
ATOM     32  C   UNL A   1      37.203  29.950  27.402  1.00  0.00     0.016 A 
ATOM     33  C   UNL A   1      38.146  28.520  29.543  1.00  0.00     0.010 A 
ATOM     34  C   UNL A   1      38.425  29.263  27.415  1.00  0.00     0.010 A 
ATOM     35  C   UNL A   1      39.100  28.745  28.550  1.00  0.00    -0.014 A 
BRANCH  35  36
ATOM     36  C   UNL A   1      40.729  28.766  28.926  1.00  0.00     0.031 A 
ATOM     37  C   UNL A   1      42.035  27.725  28.921  1.00  0.00     0.074 A 
ATOM     38  C   UNL A   1      41.151  30.012  29.248  1.00  0.00     0.049 A 
ATOM     39  N   UNL A   1      43.032  27.684  29.792  1.00  0.00    -0.248 NA
ATOM     40  C   UNL A   1      42.379  26.656  27.947  1.00  0.00     0.031 C 
ATOM     41  C   UNL A   1      42.510  30.512  29.376  1.00  0.00     0.029 A 
ATOM     42  N   UNL A   1      40.395  31.068  29.725  1.00  0.00    -0.354 N 
ATOM     43  C   UNL A   1      44.005  26.800  29.237  1.00  0.00     0.074 A 
ATOM     44  C   UNL A   1      43.274  25.844  28.502  1.00  0.00     0.031 C 
ATOM     45  C   UNL A   1      42.485  31.618  30.137  1.00  0.00     0.029 A 
ATOM     46  C   UNL A   1      41.137  31.772  30.655  1.00  0.00     0.049 A 
ATOM     47  H   UNL A   1      39.475  31.284  29.445  1.00  0.00     0.167 HD
ATOM     48  C   UNL A   1      45.322  27.133  29.023  1.00  0.00     0.034 A 
ATOM     49  C   UNL A   1      40.760  31.728  31.973  1.00  0.00     0.034 A 
ATOM     50  C   UNL A   1      45.666  28.213  29.907  1.00  0.00     0.049 A 
ATOM     51  C   UNL A   1      41.797  31.065  32.877  1.00  0.00     0.074 A 
ATOM     52  C   UNL A   1      46.010  29.538  29.774  1.00  0.00     0.029 A 
ATOM     53  N   UNL A   1      45.413  27.992  31.240  1.00  0.00    -0.354 N 
ATOM     54  N   UNL A   1      43.006  30.720  32.508  1.00  0.00    -0.248 NA
ATOM     55  C   UNL A   1      41.555  30.722  34.278  1.00  0.00     0.031 C 
ATOM     56  C   UNL A   1      45.694  30.160  31.023  1.00  0.00     0.029 A 
ATOM     57  C   UNL A   1      45.241  29.187  31.904  1.00  0.00     0.049 A 
ATOM     58  H   UNL A   1      45.363  27.104  31.662  1.00  0.00     0.167 HD
ATOM     59  C   UNL A   1      43.575  29.922  33.474  1.00  0.00     0.074 A 
ATOM     60  C   UNL A   1      42.684  30.072  34.608  1.00  0.00     0.031 C 
ATOM     61  C   UNL A   1      44.659  29.112  33.240  1.00  0.00     0.034 A 
BRANCH  48  62
ATOM     62  C   UNL A   1      46.318  26.591  27.950  1.00  0.00     0.023 A 
ATOM     63  C   UNL A   1      47.162  25.531  28.365  1.00  0.00     0.012 A 
ATOM     64  C   UNL A   1      46.595  27.092  26.638  1.00  0.00     0.148 A 
ATOM     65  C   UNL A   1      48.207  25.020  27.572  1.00  0.00     0.002 A 
ATOM     66  C   UNL A   1      47.596  26.528  25.815  1.00  0.00     0.091 A 
ATOM     67  F   UNL A   1      45.970  28.186  26.191  1.00  0.00    -0.205 F 
ATOM     68  C   UNL A   1      48.418  25.508  26.293  1.00  0.00     0.022 A 
BRANCH  66  69
ATOM     69  S   UNL A   1      47.924  27.057  24.112  1.00  0.00     0.127 S 
ATOM     70  O   UNL A   1      49.093  27.921  24.276  1.00  0.00    -0.237 OA
ATOM     71  O   UNL A   1      48.204  25.788  23.436  1.00  0.00    -0.237 OA
ATOM     72  O   UNL A   1      46.717  27.735  23.659  1.00  0.00    -0.744 OA
ENDBRANCH  66  69
ENDBRANCH  48  62
BRANCH  49  73
ATOM     73  C   UNL A   1      39.261  31.814  32.173  1.00  0.00     0.023 A 
ATOM     74  C   UNL A   1      38.607  30.570  32.398  1.00  0.00     0.012 A 
ATOM     75  C   UNL A   1      38.533  32.989  32.464  1.00  0.00     0.148 A 
ATOM     76  C   UNL A   1      37.339  30.487  32.979  1.00  0.00     0.002 A 
ATOM     77  C   UNL A   1      37.255  32.900  33.053  1.00  0.00     0.091 A 
ATOM     78  F   UNL A   1      39.121  34.178  32.277  1.00  0.00    -0.205 F 
ATOM     79  C   UNL A   1      36.665  31.653  33.315  1.00  0.00     0.022 A 
BRANCH  77  80
ATOM     80  S   UNL A   1      36.418  34.343  33.768  1.00  0.00     0.127 S 
ATOM     81  O   UNL A   1      37.529  35.048  34.399  1.00  0.00    -0.237 OA
ATOM     82  O   UNL A   1      35.862  35.011  32.590  1.00  0.00    -0.237 OA
ATOM     83  O   UNL A   1      35.413  33.788  34.663  1.00  0.00    -0.744 OA
ENDBRANCH  77  80
ENDBRANCH  49  73
BRANCH  61  84
ATOM     84  C   UNL A   1      45.169  28.007  34.174  1.00  0.00     0.023 A 
ATOM     85  C   UNL A   1      46.371  28.120  34.896  1.00  0.00     0.012 A 
ATOM     86  C   UNL A   1      44.317  26.925  34.538  1.00  0.00     0.148 A 
ATOM     87  C   UNL A   1      46.731  27.194  35.888  1.00  0.00     0.002 A 
ATOM     88  C   UNL A   1      44.612  26.100  35.624  1.00  0.00     0.091 A 
ATOM     89  F   UNL A   1      43.183  26.709  33.854  1.00  0.00    -0.205 F 
ATOM     90  C   UNL A   1      45.838  26.204  36.277  1.00  0.00     0.022 A 
BRANCH  88  91
ATOM     91  S   UNL A   1      43.320  25.068  36.339  1.00  0.00     0.127 S 
ATOM     92  O   UNL A   1      43.888  24.696  37.630  1.00  0.00    -0.237 OA
ATOM     93  O   UNL A   1      42.177  25.981  36.420  1.00  0.00    -0.237 OA
ATOM     94  O   UNL A   1      43.156  23.997  35.363  1.00  0.00    -0.744 OA
ENDBRANCH  88  91
ENDBRANCH  61  84
ENDBRANCH  35  36
ENDBRANCH  28  30
ENDBRANCH  27  28
ENDBRANCH  26  27
ENDBRANCH  25  26
ENDBRANCH  24  25
ENDBRANCH   1  24
TORSDOF 21
ENDMDL
MODEL 2
REMARK VINA RESULT:      -9.9      1.628      2.498
REMARK SMILES Cc1ccc(C(=O)OCCOCCOCCOC(=O)c2ccc(-c3c4nc(c(-c5cccc(S(=O)(=O)[O-])c5F)c5ccc([nH]5)c(-c5cccc(S(=O)(=O)[O-])c5F)c5nc(c(-c6cccc(S(=O)(=O)[O-])c6F)c6ccc3[nH]6)C=C5)C=C4)cc2)cc1/[NH+]=C1\NCCS1
REMARK SMILES IDX 13 1 12 2 11 3 10 4 9 5 8 6 6 7 7 8 5 9 1 10 2 11 3 12 84 13
REMARK SMILES IDX 4 14 83 15 85 16 86 17 87 19 90 20 88 21 89 23 14 24 15 25
REMARK SMILES IDX 16 26 17 27 18 28 19 29 20 30 21 31 82 32 22 33 81 34 23 35
REMARK SMILES IDX 24 36 25 37 75 38 26 39 80 40 74 41 76 42 27 43 79 44 73 45
REMARK SMILES IDX 72 46 28 48 60 49 40 50 59 51 41 52 44 53 58 54 77 55 42 56
REMARK SMILES IDX 43 57 57 59 78 60 45 61 29 62 30 63 38 64 31 65 33 66 39 67
REMARK SMILES IDX 32 68 34 69 35 70 36 71 37 72 61 73 62 74 70 75 63 76 65 77
REMARK SMILES IDX 71 78 64 79 66 80 67 81 68 82 69 83 46 84 47 85 55 86 48 87
REMARK SMILES IDX 50 88 56 89 49 90 51 91 52 92 53 93 54 94
REMARK H PARENT 85 18 87 22 76 47 44 58
REMARK Flexibility Score: inf
ROOT
ATOM      1  C   UNL A   1      32.047  29.614  25.265  1.00  0.00     0.188 C 
ENDROOT
BRANCH   1   2
ATOM      2  C   UNL A   1      32.178  28.497  24.230  1.00  0.00     0.188 C 
BRANCH   2   3
ATOM      3  O   UNL A   1      32.694  27.292  24.792  1.00  0.00    -0.376 OA
BRANCH   3   4
ATOM      4  C   UNL A   1      31.634  26.351  25.035  1.00  0.00     0.202 C 
BRANCH   4   5
ATOM      5  C   UNL A   1      31.654  25.722  26.484  1.00  0.00     0.261 C 
BRANCH   5   6
ATOM      6  O   UNL A   1      31.181  24.327  26.797  1.00  0.00    -0.460 OA
BRANCH   6   7
ATOM      7  C   UNL A   1      32.185  23.429  26.928  1.00  0.00     0.338 C 
ATOM      8  O   UNL A   1      32.135  22.765  27.951  1.00  0.00    -0.246 OA
BRANCH   7   9
ATOM      9  C   UNL A   1      33.501  23.345  26.073  1.00  0.00     0.064 A 
ATOM     10  C   UNL A   1      36.681  23.002  23.068  1.00  0.00     0.049 C 
ATOM     11  C   UNL A   1      35.675  23.008  24.184  1.00  0.00    -0.004 A 
ATOM     12  C   UNL A   1      34.454  22.506  23.864  1.00  0.00     0.008 A 
ATOM     13  C   UNL A   1      35.819  23.626  25.462  1.00  0.00     0.129 A 
ATOM     14  C   UNL A   1      33.445  22.709  24.783  1.00  0.00     0.016 A 
ATOM     15  C   UNL A   1      34.755  23.756  26.417  1.00  0.00     0.067 A 
BRANCH  13  16
ATOM     16  N   UNL A   1      37.007  24.287  25.768  1.00  0.00    -0.235 N 
ATOM     17  C   UNL A   1      37.990  23.508  26.034  1.00  0.00     0.309 C 
ATOM     18  H   UNL A   1      37.085  25.268  25.780  1.00  0.00     0.313 HD
ATOM     19  N   UNL A   1      38.056  22.143  26.093  1.00  0.00    -0.268 N 
ATOM     20  S   UNL A   1      39.538  24.214  26.453  1.00  0.00    -0.035 SA
ATOM     21  C   UNL A   1      39.316  21.565  26.455  1.00  0.00     0.246 C 
ATOM     22  H   UNL A   1      37.270  21.583  25.898  1.00  0.00     0.305 HD
ATOM     23  C   UNL A   1      40.066  22.654  27.216  1.00  0.00     0.128 C 
ENDBRANCH  13  16
ENDBRANCH   7   9
ENDBRANCH   6   7
ENDBRANCH   5   6
ENDBRANCH   4   5
ENDBRANCH   3   4
ENDBRANCH   2   3
ENDBRANCH   1   2
BRANCH   1  24
ATOM     24  O   UNL A   1      33.215  30.075  25.947  1.00  0.00    -0.376 OA
BRANCH  24  25
ATOM     25  C   UNL A   1      33.064  30.429  27.315  1.00  0.00     0.202 C 
BRANCH  25  26
ATOM     26  C   UNL A   1      33.797  31.692  27.815  1.00  0.00     0.261 C 
BRANCH  26  27
ATOM     27  O   UNL A   1      35.218  31.640  27.642  1.00  0.00    -0.460 OA
BRANCH  27  28
ATOM     28  C   UNL A   1      35.929  31.418  28.802  1.00  0.00     0.338 C 
ATOM     29  O   UNL A   1      36.068  32.183  29.701  1.00  0.00    -0.246 OA
BRANCH  28  30
ATOM     30  C   UNL A   1      36.752  30.200  28.515  1.00  0.00     0.060 A 
ATOM     31  C   UNL A   1      37.089  29.298  29.509  1.00  0.00     0.016 A 
ATOM     32  C   UNL A   1      37.413  30.073  27.332  1.00  0.00     0.016 A 
ATOM     33  C   UNL A   1      38.307  28.553  29.431  1.00  0.00     0.010 A 
ATOM     34  C   UNL A   1      38.606  29.337  27.320  1.00  0.00     0.010 A 
ATOM     35  C   UNL A   1      39.264  28.764  28.438  1.00  0.00    -0.014 A 
BRANCH  35  36
ATOM     36  C   UNL A   1      40.895  28.709  28.804  1.00  0.00     0.031 A 
ATOM     37  C   UNL A   1      42.173  27.639  28.697  1.00  0.00     0.074 A 
ATOM     38  C   UNL A   1      41.351  29.909  29.235  1.00  0.00     0.049 A 
ATOM     39  N   UNL A   1      43.172  27.494  29.555  1.00  0.00    -0.248 NA
ATOM     40  C   UNL A   1      42.485  26.655  27.629  1.00  0.00     0.031 C 
ATOM     41  C   UNL A   1      42.722  30.360  29.399  1.00  0.00     0.029 A 
ATOM     42  N   UNL A   1      40.624  30.936  29.810  1.00  0.00    -0.354 N 
ATOM     43  C   UNL A   1      44.120  26.640  28.916  1.00  0.00     0.074 A 
ATOM     44  C   UNL A   1      43.362  25.773  28.102  1.00  0.00     0.031 C 
ATOM     45  C   UNL A   1      42.730  31.393  30.258  1.00  0.00     0.029 A 
ATOM     46  C   UNL A   1      41.387  31.534  30.796  1.00  0.00     0.049 A 
ATOM     47  H   UNL A   1      39.709  31.200  29.557  1.00  0.00     0.167 HD
ATOM     48  C   UNL A   1      45.444  26.956  28.725  1.00  0.00     0.034 A 
ATOM     49  C   UNL A   1      41.015  31.381  32.106  1.00  0.00     0.034 A 
ATOM     50  C   UNL A   1      45.819  27.942  29.701  1.00  0.00     0.049 A 
ATOM     51  C   UNL A   1      42.037  30.612  32.941  1.00  0.00     0.074 A 
ATOM     52  C   UNL A   1      46.198  29.264  29.687  1.00  0.00     0.029 A 
ATOM     53  N   UNL A   1      45.566  27.608  31.010  1.00  0.00    -0.354 N 
ATOM     54  N   UNL A   1      43.236  30.271  32.534  1.00  0.00    -0.248 NA
ATOM     55  C   UNL A   1      41.791  30.150  34.306  1.00  0.00     0.031 C 
ATOM     56  C   UNL A   1      45.903  29.779  30.989  1.00  0.00     0.029 A 
ATOM     57  C   UNL A   1      45.428  28.742  31.780  1.00  0.00     0.049 A 
ATOM     58  H   UNL A   1      45.494  26.688  31.350  1.00  0.00     0.167 HD
ATOM     59  C   UNL A   1      43.788  29.374  33.420  1.00  0.00     0.074 A 
ATOM     60  C   UNL A   1      42.905  29.444  34.569  1.00  0.00     0.031 C 
ATOM     61  C   UNL A   1      44.848  28.562  33.108  1.00  0.00     0.034 A 
BRANCH  48  62
ATOM     62  C   UNL A   1      46.421  26.488  27.601  1.00  0.00     0.023 A 
ATOM     63  C   UNL A   1      47.253  25.386  27.920  1.00  0.00     0.012 A 
ATOM     64  C   UNL A   1      46.694  27.090  26.331  1.00  0.00     0.148 A 
ATOM     65  C   UNL A   1      48.282  24.926  27.078  1.00  0.00     0.002 A 
ATOM     66  C   UNL A   1      47.678  26.579  25.455  1.00  0.00     0.091 A 
ATOM     67  F   UNL A   1      46.082  28.226  25.981  1.00  0.00    -0.205 F 
ATOM     68  C   UNL A   1      48.489  25.512  25.840  1.00  0.00     0.022 A 
BRANCH  66  69
ATOM     69  S   UNL A   1      48.000  27.240  23.797  1.00  0.00     0.127 S 
ATOM     70  O   UNL A   1      49.162  28.099  24.026  1.00  0.00    -0.237 OA
ATOM     71  O   UNL A   1      48.289  26.030  23.025  1.00  0.00    -0.237 OA
ATOM     72  O   UNL A   1      46.786  27.940  23.399  1.00  0.00    -0.744 OA
ENDBRANCH  66  69
ENDBRANCH  48  62
BRANCH  49  73
ATOM     73  C   UNL A   1      39.519  31.487  32.322  1.00  0.00     0.023 A 
ATOM     74  C   UNL A   1      38.865  30.265  32.646  1.00  0.00     0.012 A 
ATOM     75  C   UNL A   1      38.799  32.682  32.539  1.00  0.00     0.148 A 
ATOM     76  C   UNL A   1      37.606  30.228  33.251  1.00  0.00     0.002 A 
ATOM     77  C   UNL A   1      37.530  32.641  33.153  1.00  0.00     0.091 A 
ATOM     78  F   UNL A   1      39.387  33.853  32.259  1.00  0.00    -0.205 F 
ATOM     79  C   UNL A   1      36.941  31.417  33.513  1.00  0.00     0.022 A 
BRANCH  77  80
ATOM     80  S   UNL A   1      36.709  34.134  33.776  1.00  0.00     0.127 S 
ATOM     81  O   UNL A   1      37.806  34.816  34.453  1.00  0.00    -0.237 OA
ATOM     82  O   UNL A   1      36.250  34.787  32.548  1.00  0.00    -0.237 OA
ATOM     83  O   UNL A   1      35.630  33.644  34.622  1.00  0.00    -0.744 OA
ENDBRANCH  77  80
ENDBRANCH  49  73
BRANCH  61  84
ATOM     84  C   UNL A   1      45.334  27.363  33.935  1.00  0.00     0.023 A 
ATOM     85  C   UNL A   1      46.266  27.492  34.980  1.00  0.00     0.012 A 
ATOM     86  C   UNL A   1      44.668  26.108  33.838  1.00  0.00     0.148 A 
ATOM     87  C   UNL A   1      46.556  26.429  35.851  1.00  0.00     0.002 A 
ATOM     88  C   UNL A   1      44.852  25.111  34.796  1.00  0.00     0.091 A 
ATOM     89  F   UNL A   1      43.811  25.883  32.829  1.00  0.00    -0.205 F 
ATOM     90  C   UNL A   1      45.826  25.250  35.782  1.00  0.00     0.022 A 
BRANCH  88  91
ATOM     91  S   UNL A   1      43.671  23.754  34.911  1.00  0.00     0.127 S 
ATOM     92  O   UNL A   1      42.442  24.435  35.306  1.00  0.00    -0.237 OA
ATOM     93  O   UNL A   1      43.656  23.215  33.550  1.00  0.00    -0.237 OA
ATOM     94  O   UNL A   1      44.270  22.861  35.897  1.00  0.00    -0.744 OA
ENDBRANCH  88  91
ENDBRANCH  61  84
ENDBRANCH  35  36
ENDBRANCH  28  30
ENDBRANCH  27  28
ENDBRANCH  26  27
ENDBRANCH  25  26
ENDBRANCH  24  25
ENDBRANCH   1  24
TORSDOF 21
ENDMDL
MODEL 3
REMARK VINA RESULT:      -9.5      4.032     10.720
REMARK SMILES Cc1ccc(C(=O)OCCOCCOCCOC(=O)c2ccc(-c3c4nc(c(-c5cccc(S(=O)(=O)[O-])c5F)c5ccc([nH]5)c(-c5cccc(S(=O)(=O)[O-])c5F)c5nc(c(-c6cccc(S(=O)(=O)[O-])c6F)c6ccc3[nH]6)C=C5)C=C4)cc2)cc1/[NH+]=C1\NCCS1
REMARK SMILES IDX 13 1 12 2 11 3 10 4 9 5 8 6 6 7 7 8 5 9 1 10 2 11 3 12 84 13
REMARK SMILES IDX 4 14 83 15 85 16 86 17 87 19 90 20 88 21 89 23 14 24 15 25
REMARK SMILES IDX 16 26 17 27 18 28 19 29 20 30 21 31 82 32 22 33 81 34 23 35
REMARK SMILES IDX 24 36 25 37 75 38 26 39 80 40 74 41 76 42 27 43 79 44 73 45
REMARK SMILES IDX 72 46 28 48 60 49 40 50 59 51 41 52 44 53 58 54 77 55 42 56
REMARK SMILES IDX 43 57 57 59 78 60 45 61 29 62 30 63 38 64 31 65 33 66 39 67
REMARK SMILES IDX 32 68 34 69 35 70 36 71 37 72 61 73 62 74 70 75 63 76 65 77
REMARK SMILES IDX 71 78 64 79 66 80 67 81 68 82 69 83 46 84 47 85 55 86 48 87
REMARK SMILES IDX 50 88 56 89 49 90 51 91 52 92 53 93 54 94
REMARK H PARENT 85 18 87 22 76 47 44 58
REMARK Flexibility Score: inf
ROOT
ATOM      1  C   UNL A   1      42.001  20.395  26.423  1.00  0.00     0.188 C 
ENDROOT
BRANCH   1   2
ATOM      2  C   UNL A   1      40.594  20.622  26.975  1.00  0.00     0.188 C 
BRANCH   2   3
ATOM      3  O   UNL A   1      39.872  21.606  26.238  1.00  0.00    -0.376 OA
BRANCH   3   4
ATOM      4  C   UNL A   1      39.677  22.792  27.028  1.00  0.00     0.202 C 
BRANCH   4   5
ATOM      5  C   UNL A   1      38.832  23.914  26.305  1.00  0.00     0.261 C 
BRANCH   5   6
ATOM      6  O   UNL A   1      37.336  24.039  26.419  1.00  0.00    -0.460 OA
BRANCH   6   7
ATOM      7  C   UNL A   1      36.662  23.408  25.429  1.00  0.00     0.338 C 
ATOM      8  O   UNL A   1      37.224  23.431  24.345  1.00  0.00    -0.246 OA
BRANCH   7   9
ATOM      9  C   UNL A   1      35.173  22.909  25.462  1.00  0.00     0.064 A 
ATOM     10  C   UNL A   1      30.865  22.208  25.919  1.00  0.00     0.049 C 
ATOM     11  C   UNL A   1      32.361  22.300  25.828  1.00  0.00    -0.004 A 
ATOM     12  C   UNL A   1      32.934  23.231  26.635  1.00  0.00     0.008 A 
ATOM     13  C   UNL A   1      33.203  21.640  24.883  1.00  0.00     0.129 A 
ATOM     14  C   UNL A   1      34.268  23.504  26.410  1.00  0.00     0.016 A 
ATOM     15  C   UNL A   1      34.604  21.909  24.729  1.00  0.00     0.067 A 
BRANCH  13  16
ATOM     16  N   UNL A   1      32.630  20.792  23.937  1.00  0.00    -0.235 N 
ATOM     17  C   UNL A   1      32.982  19.564  24.048  1.00  0.00     0.309 C 
ATOM     18  H   UNL A   1      32.007  21.109  23.244  1.00  0.00     0.313 HD
ATOM     19  N   UNL A   1      33.845  18.959  24.918  1.00  0.00    -0.268 N 
ATOM     20  S   UNL A   1      32.345  18.397  22.906  1.00  0.00    -0.035 SA
ATOM     21  C   UNL A   1      34.053  17.550  24.759  1.00  0.00     0.246 C 
ATOM     22  H   UNL A   1      34.306  19.470  25.623  1.00  0.00     0.305 HD
ATOM     23  C   UNL A   1      33.683  17.240  23.311  1.00  0.00     0.128 C 
ENDBRANCH  13  16
ENDBRANCH   7   9
ENDBRANCH   6   7
ENDBRANCH   5   6
ENDBRANCH   4   5
ENDBRANCH   3   4
ENDBRANCH   2   3
ENDBRANCH   1   2
BRANCH   1  24
ATOM     24  O   UNL A   1      42.190  19.468  25.352  1.00  0.00    -0.376 OA
BRANCH  24  25
ATOM     25  C   UNL A   1      43.389  18.705  25.367  1.00  0.00     0.202 C 
BRANCH  25  26
ATOM     26  C   UNL A   1      44.567  19.200  24.500  1.00  0.00     0.261 C 
BRANCH  26  27
ATOM     27  O   UNL A   1      44.550  20.611  24.260  1.00  0.00    -0.460 OA
BRANCH  27  28
ATOM     28  C   UNL A   1      45.730  21.258  24.562  1.00  0.00     0.338 C 
ATOM     29  O   UNL A   1      46.672  20.786  25.112  1.00  0.00    -0.246 OA
BRANCH  28  30
ATOM     30  C   UNL A   1      45.420  22.713  24.386  1.00  0.00     0.060 A 
ATOM     31  C   UNL A   1      46.376  23.692  24.594  1.00  0.00     0.016 A 
ATOM     32  C   UNL A   1      44.132  23.139  24.272  1.00  0.00     0.016 A 
ATOM     33  C   UNL A   1      45.997  24.993  25.047  1.00  0.00     0.010 A 
ATOM     34  C   UNL A   1      43.819  24.422  24.741  1.00  0.00     0.010 A 
ATOM     35  C   UNL A   1      44.690  25.320  25.410  1.00  0.00    -0.014 A 
BRANCH  35  36
ATOM     36  C   UNL A   1      44.396  26.313  26.724  1.00  0.00     0.031 A 
ATOM     37  C   UNL A   1      43.245  27.409  27.240  1.00  0.00     0.074 A 
ATOM     38  C   UNL A   1      45.304  26.119  27.709  1.00  0.00     0.049 A 
ATOM     39  N   UNL A   1      43.449  28.520  27.931  1.00  0.00    -0.248 NA
ATOM     40  C   UNL A   1      41.770  27.369  27.070  1.00  0.00     0.031 C 
ATOM     41  C   UNL A   1      45.262  26.568  29.091  1.00  0.00     0.029 A 
ATOM     42  N   UNL A   1      46.586  25.611  27.595  1.00  0.00    -0.354 N 
ATOM     43  C   UNL A   1      42.158  28.979  28.330  1.00  0.00     0.074 A 
ATOM     44  C   UNL A   1      41.280  28.585  27.299  1.00  0.00     0.031 C 
ATOM     45  C   UNL A   1      46.516  26.572  29.573  1.00  0.00     0.029 A 
ATOM     46  C   UNL A   1      47.418  26.283  28.471  1.00  0.00     0.049 A 
ATOM     47  H   UNL A   1      46.861  24.887  26.986  1.00  0.00     0.167 HD
ATOM     48  C   UNL A   1      41.794  29.239  29.630  1.00  0.00     0.034 A 
ATOM     49  C   UNL A   1      48.379  27.118  27.964  1.00  0.00     0.034 A 
ATOM     50  C   UNL A   1      42.986  29.511  30.388  1.00  0.00     0.049 A 
ATOM     51  C   UNL A   1      48.172  28.582  28.346  1.00  0.00     0.074 A 
ATOM     52  C   UNL A   1      43.676  28.904  31.411  1.00  0.00     0.029 A 
ATOM     53  N   UNL A   1      43.796  30.501  29.885  1.00  0.00    -0.354 N 
ATOM     54  N   UNL A   1      47.285  29.016  29.208  1.00  0.00    -0.248 NA
ATOM     55  C   UNL A   1      48.940  29.688  27.776  1.00  0.00     0.031 C 
ATOM     56  C   UNL A   1      45.021  29.383  31.325  1.00  0.00     0.029 A 
ATOM     57  C   UNL A   1      45.095  30.323  30.306  1.00  0.00     0.049 A 
ATOM     58  H   UNL A   1      43.490  31.236  29.305  1.00  0.00     0.167 HD
ATOM     59  C   UNL A   1      47.186  30.386  29.121  1.00  0.00     0.074 A 
ATOM     60  C   UNL A   1      48.333  30.760  28.317  1.00  0.00     0.031 C 
ATOM     61  C   UNL A   1      46.118  31.097  29.609  1.00  0.00     0.034 A 
BRANCH  48  62
ATOM     62  C   UNL A   1      40.387  29.152  30.300  1.00  0.00     0.023 A 
ATOM     63  C   UNL A   1      40.057  27.908  30.893  1.00  0.00     0.012 A 
ATOM     64  C   UNL A   1      39.322  30.108  30.294  1.00  0.00     0.148 A 
ATOM     65  C   UNL A   1      38.784  27.615  31.416  1.00  0.00     0.002 A 
ATOM     66  C   UNL A   1      38.068  29.838  30.886  1.00  0.00     0.091 A 
ATOM     67  F   UNL A   1      39.459  31.262  29.632  1.00  0.00    -0.205 F 
ATOM     68  C   UNL A   1      37.792  28.582  31.425  1.00  0.00     0.022 A 
BRANCH  66  69
ATOM     69  S   UNL A   1      36.717  31.044  30.995  1.00  0.00     0.127 S 
ATOM     70  O   UNL A   1      36.111  30.949  29.666  1.00  0.00    -0.237 OA
ATOM     71  O   UNL A   1      35.893  30.497  32.074  1.00  0.00    -0.237 OA
ATOM     72  O   UNL A   1      37.343  32.324  31.295  1.00  0.00    -0.744 OA
ENDBRANCH  66  69
ENDBRANCH  48  62
BRANCH  49  73
ATOM     73  C   UNL A   1      49.078  26.558  26.742  1.00  0.00     0.023 A 
ATOM     74  C   UNL A   1      48.517  26.944  25.493  1.00  0.00     0.012 A 
ATOM     75  C   UNL A   1      50.367  25.979  26.721  1.00  0.00     0.148 A 
ATOM     76  C   UNL A   1      49.231  26.861  24.295  1.00  0.00     0.002 A 
ATOM     77  C   UNL A   1      51.085  25.900  25.510  1.00  0.00     0.091 A 
ATOM     78  F   UNL A   1      50.932  25.615  27.879  1.00  0.00    -0.205 F 
ATOM     79  C   UNL A   1      50.520  26.346  24.304  1.00  0.00     0.022 A 
BRANCH  77  80
ATOM     80  S   UNL A   1      52.854  25.499  25.460  1.00  0.00     0.127 S 
ATOM     81  O   UNL A   1      53.370  26.294  26.569  1.00  0.00    -0.237 OA
ATOM     82  O   UNL A   1      52.864  24.052  25.692  1.00  0.00    -0.237 OA
ATOM     83  O   UNL A   1      53.289  25.887  24.127  1.00  0.00    -0.744 OA
ENDBRANCH  77  80
ENDBRANCH  49  73
BRANCH  61  84
ATOM     84  C   UNL A   1      45.810  32.570  29.309  1.00  0.00     0.023 A 
ATOM     85  C   UNL A   1      46.274  33.622  30.121  1.00  0.00     0.012 A 
ATOM     86  C   UNL A   1      45.250  32.945  28.055  1.00  0.00     0.148 A 
ATOM     87  C   UNL A   1      46.152  34.965  29.735  1.00  0.00     0.002 A 
ATOM     88  C   UNL A   1      45.268  34.269  27.617  1.00  0.00     0.091 A 
ATOM     89  F   UNL A   1      44.724  32.007  27.251  1.00  0.00    -0.205 F 
ATOM     90  C   UNL A   1      45.681  35.290  28.470  1.00  0.00     0.022 A 
BRANCH  88  91
ATOM     91  S   UNL A   1      44.993  34.637  25.874  1.00  0.00     0.127 S 
ATOM     92  O   UNL A   1      45.182  33.336  25.241  1.00  0.00    -0.237 OA
ATOM     93  O   UNL A   1      43.613  35.127  25.855  1.00  0.00    -0.237 OA
ATOM     94  O   UNL A   1      45.990  35.660  25.578  1.00  0.00    -0.744 OA
ENDBRANCH  88  91
ENDBRANCH  61  84
ENDBRANCH  35  36
ENDBRANCH  28  30
ENDBRANCH  27  28
ENDBRANCH  26  27
ENDBRANCH  25  26
ENDBRANCH  24  25
ENDBRANCH   1  24
TORSDOF 21
ENDMDL
