MODEL 1
REMARK VINA RESULT:     -10.8      0.000      0.000
REMARK SMILES O=C(OCCOCCOCCOC(=O)c1ccnc(S[C@@H]2CCO[C@]3(CCOC3)C2)c1)c1ccc(-c2c3nc(c(-c4cccc(S(=O)(=O)[O-])c4F)c4ccc([nH]4)c(-c4cccc(S(=O)(=O)[O-])c4F)c4nc(c(-c5cccc(S(=O)(=O)[O-])c5F)c5ccc2[nH]5)C=C4)C=C3)cc1
REMARK SMILES IDX 7 1 6 2 5 3 4 4 3 5 2 6 1 7 32 8 33 9 94 10 34 11 93 12
REMARK SMILES IDX 35 13 36 14 37 15 87 16 38 17 92 18 86 19 88 20 39 21 91 22
REMARK SMILES IDX 85 23 84 24 40 26 72 27 52 28 71 29 53 30 56 31 70 32 89 33
REMARK SMILES IDX 54 34 55 35 69 37 90 38 57 39 41 40 42 41 50 42 43 43 45 44
REMARK SMILES IDX 51 45 44 46 46 47 47 48 48 49 49 50 73 51 74 52 82 53 75 54
REMARK SMILES IDX 77 55 83 56 76 57 78 58 79 59 80 60 81 61 58 62 59 63 67 64
REMARK SMILES IDX 60 65 62 66 68 67 61 68 63 69 64 70 65 71 66 72 8 73 9 74
REMARK SMILES IDX 10 75 11 76 12 77 13 78 14 79 15 80 16 81 31 82 17 83 19 84
REMARK SMILES IDX 18 85 20 86 21 87 22 88 30 89 23 90 25 91 24 92 26 93 29 94
REMARK SMILES IDX 27 95 28 96
REMARK H PARENT 88 25 56 36
REMARK Flexibility Score: inf
ROOT
ATOM      1  C   UNL A   1      36.556  22.974  23.904  1.00  0.00     0.188 C 
ENDROOT
BRANCH   1   2
ATOM      2  O   UNL A   1      36.207  22.554  25.227  1.00  0.00    -0.376 OA
BRANCH   2   3
ATOM      3  C   UNL A   1      36.536  21.186  25.496  1.00  0.00     0.202 C 
BRANCH   3   4
ATOM      4  C   UNL A   1      37.873  20.725  24.902  1.00  0.00     0.261 C 
BRANCH   4   5
ATOM      5  O   UNL A   1      38.728  20.128  25.887  1.00  0.00    -0.460 OA
BRANCH   5   6
ATOM      6  C   UNL A   1      39.930  20.574  26.325  1.00  0.00     0.338 C 
ATOM      7  O   UNL A   1      40.827  19.742  26.468  1.00  0.00    -0.246 OA
BRANCH   6   8
ATOM      8  C   UNL A   1      40.225  21.998  26.714  1.00  0.00     0.060 A 
ATOM      9  C   UNL A   1      39.588  23.140  26.223  1.00  0.00     0.016 A 
ATOM     10  C   UNL A   1      41.188  22.184  27.726  1.00  0.00     0.016 A 
ATOM     11  C   UNL A   1      39.940  24.420  26.647  1.00  0.00     0.010 A 
ATOM     12  C   UNL A   1      41.511  23.460  28.197  1.00  0.00     0.010 A 
ATOM     13  C   UNL A   1      40.919  24.589  27.620  1.00  0.00    -0.014 A 
BRANCH  13  14
ATOM     14  C   UNL A   1      41.446  25.944  27.879  1.00  0.00     0.031 A 
ATOM     15  C   UNL A   1      42.849  26.240  27.451  1.00  0.00     0.074 A 
ATOM     16  C   UNL A   1      40.678  26.904  28.423  1.00  0.00     0.049 A 
ATOM     17  N   UNL A   1      43.534  27.342  27.581  1.00  0.00    -0.248 NA
ATOM     18  C   UNL A   1      43.568  25.158  26.756  1.00  0.00     0.031 C 
ATOM     19  C   UNL A   1      39.273  26.742  28.777  1.00  0.00     0.029 A 
ATOM     20  N   UNL A   1      40.965  28.190  28.794  1.00  0.00    -0.354 N 
ATOM     21  C   UNL A   1      44.769  27.078  27.008  1.00  0.00     0.074 A 
ATOM     22  C   UNL A   1      44.751  25.710  26.546  1.00  0.00     0.031 C 
ATOM     23  C   UNL A   1      38.837  27.851  29.394  1.00  0.00     0.029 A 
ATOM     24  C   UNL A   1      39.936  28.802  29.475  1.00  0.00     0.049 A 
ATOM     25  H   UNL A   1      41.821  28.633  28.596  1.00  0.00     0.167 HD
ATOM     26  C   UNL A   1      45.819  27.915  26.862  1.00  0.00     0.034 A 
ATOM     27  C   UNL A   1      39.897  29.988  30.110  1.00  0.00     0.034 A 
ATOM     28  C   UNL A   1      45.816  29.273  27.321  1.00  0.00     0.049 A 
ATOM     29  C   UNL A   1      41.105  30.877  30.006  1.00  0.00     0.074 A 
ATOM     30  C   UNL A   1      46.815  30.220  27.220  1.00  0.00     0.029 A 
ATOM     31  N   UNL A   1      44.756  29.870  27.990  1.00  0.00    -0.354 N 
ATOM     32  N   UNL A   1      42.236  30.652  29.379  1.00  0.00    -0.248 NA
ATOM     33  C   UNL A   1      41.022  32.196  30.645  1.00  0.00     0.031 C 
ATOM     34  C   UNL A   1      46.369  31.385  27.854  1.00  0.00     0.029 A 
ATOM     35  C   UNL A   1      45.082  31.170  28.327  1.00  0.00     0.049 A 
ATOM     36  H   UNL A   1      43.899  29.432  28.196  1.00  0.00     0.167 HD
ATOM     37  C   UNL A   1      42.984  31.813  29.511  1.00  0.00     0.074 A 
ATOM     38  C   UNL A   1      42.174  32.743  30.274  1.00  0.00     0.031 C 
ATOM     39  C   UNL A   1      44.229  32.085  29.046  1.00  0.00     0.034 A 
BRANCH  26  40
ATOM     40  C   UNL A   1      47.036  27.352  26.185  1.00  0.00     0.023 A 
ATOM     41  C   UNL A   1      47.140  27.397  24.779  1.00  0.00     0.012 A 
ATOM     42  C   UNL A   1      48.044  26.722  26.936  1.00  0.00     0.148 A 
ATOM     43  C   UNL A   1      48.208  26.781  24.129  1.00  0.00     0.002 A 
ATOM     44  C   UNL A   1      49.124  26.143  26.283  1.00  0.00     0.091 A 
ATOM     45  F   UNL A   1      47.904  26.657  28.268  1.00  0.00    -0.205 F 
ATOM     46  C   UNL A   1      49.202  26.159  24.880  1.00  0.00     0.022 A 
BRANCH  44  47
ATOM     47  S   UNL A   1      50.472  25.359  27.172  1.00  0.00     0.127 S 
ATOM     48  O   UNL A   1      50.904  26.434  28.062  1.00  0.00    -0.237 OA
ATOM     49  O   UNL A   1      49.796  24.246  27.841  1.00  0.00    -0.237 OA
ATOM     50  O   UNL A   1      51.434  24.954  26.155  1.00  0.00    -0.744 OA
ENDBRANCH  44  47
ENDBRANCH  26  40
BRANCH  27  51
ATOM     51  C   UNL A   1      38.666  30.407  30.840  1.00  0.00     0.023 A 
ATOM     52  C   UNL A   1      38.539  30.116  32.211  1.00  0.00     0.012 A 
ATOM     53  C   UNL A   1      37.641  31.132  30.195  1.00  0.00     0.148 A 
ATOM     54  C   UNL A   1      37.407  30.517  32.923  1.00  0.00     0.002 A 
ATOM     55  C   UNL A   1      36.532  31.558  30.918  1.00  0.00     0.091 A 
ATOM     56  F   UNL A   1      37.784  31.408  28.891  1.00  0.00    -0.205 F 
ATOM     57  C   UNL A   1      36.408  31.241  32.279  1.00  0.00     0.022 A 
BRANCH  55  58
ATOM     58  S   UNL A   1      35.221  32.569  30.218  1.00  0.00     0.127 S 
ATOM     59  O   UNL A   1      34.297  32.691  31.340  1.00  0.00    -0.237 OA
ATOM     60  O   UNL A   1      35.948  33.792  29.880  1.00  0.00    -0.237 OA
ATOM     61  O   UNL A   1      34.706  31.822  29.074  1.00  0.00    -0.744 OA
ENDBRANCH  55  58
ENDBRANCH  27  51
BRANCH  39  62
ATOM     62  C   UNL A   1      44.787  33.453  29.319  1.00  0.00     0.023 A 
ATOM     63  C   UNL A   1      45.511  33.686  30.502  1.00  0.00     0.012 A 
ATOM     64  C   UNL A   1      44.693  34.465  28.344  1.00  0.00     0.148 A 
ATOM     65  C   UNL A   1      46.126  34.917  30.719  1.00  0.00     0.002 A 
ATOM     66  C   UNL A   1      45.350  35.671  28.546  1.00  0.00     0.091 A 
ATOM     67  F   UNL A   1      43.978  34.222  27.236  1.00  0.00    -0.205 F 
ATOM     68  C   UNL A   1      46.059  35.902  29.735  1.00  0.00     0.022 A 
BRANCH  66  69
ATOM     69  S   UNL A   1      45.408  36.952  27.288  1.00  0.00     0.127 S 
ATOM     70  O   UNL A   1      46.108  36.270  26.201  1.00  0.00    -0.237 OA
ATOM     71  O   UNL A   1      43.988  37.205  27.038  1.00  0.00    -0.237 OA
ATOM     72  O   UNL A   1      46.123  38.072  27.887  1.00  0.00    -0.744 OA
ENDBRANCH  66  69
ENDBRANCH  39  62
ENDBRANCH  13  14
ENDBRANCH   6   8
ENDBRANCH   5   6
ENDBRANCH   4   5
ENDBRANCH   3   4
ENDBRANCH   2   3
ENDBRANCH   1   2
BRANCH   1  73
ATOM     73  C   UNL A   1      35.333  23.189  23.008  1.00  0.00     0.188 C 
BRANCH  73  74
ATOM     74  O   UNL A   1      34.071  23.054  23.662  1.00  0.00    -0.376 OA
BRANCH  74  75
ATOM     75  C   UNL A   1      33.228  22.007  23.187  1.00  0.00     0.202 C 
BRANCH  75  76
ATOM     76  C   UNL A   1      32.286  21.347  24.205  1.00  0.00     0.261 C 
BRANCH  76  77
ATOM     77  O   UNL A   1      32.919  20.759  25.364  1.00  0.00    -0.460 OA
BRANCH  77  78
ATOM     78  C   UNL A   1      32.961  21.584  26.439  1.00  0.00     0.338 C 
ATOM     79  O   UNL A   1      33.644  21.392  27.450  1.00  0.00    -0.246 OA
BRANCH  78  80
ATOM     80  C   UNL A   1      32.099  22.785  26.361  1.00  0.00     0.064 A 
ATOM     81  C   UNL A   1      30.723  22.553  26.405  1.00  0.00     0.036 A 
ATOM     82  C   UNL A   1      32.577  24.097  26.431  1.00  0.00     0.051 A 
ATOM     83  C   UNL A   1      29.888  23.628  26.605  1.00  0.00     0.113 A 
ATOM     84  C   UNL A   1      31.666  25.118  26.701  1.00  0.00     0.097 A 
ATOM     85  N   UNL A   1      30.343  24.883  26.790  1.00  0.00    -0.250 NA
BRANCH  84  86
ATOM     86  S   UNL A   1      32.094  26.837  26.759  1.00  0.00    -0.103 SA
BRANCH  86  87
ATOM     87  C   UNL A   1      33.545  27.132  25.642  1.00  0.00     0.058 C 
ATOM     88  C   UNL A   1      33.691  28.638  25.482  1.00  0.00     0.043 C 
ATOM     89  C   UNL A   1      33.715  26.521  24.246  1.00  0.00     0.053 C 
ATOM     90  C   UNL A   1      32.685  29.187  24.485  1.00  0.00     0.162 C 
ATOM     91  C   UNL A   1      32.770  27.120  23.189  1.00  0.00     0.095 C 
ATOM     92  O   UNL A   1      32.006  28.208  23.700  1.00  0.00    -0.372 OA
ATOM     93  C   UNL A   1      31.853  26.020  22.659  1.00  0.00     0.066 C 
ATOM     94  C   UNL A   1      33.429  27.530  21.871  1.00  0.00     0.195 C 
ATOM     95  C   UNL A   1      32.617  25.399  21.509  1.00  0.00     0.163 C 
ATOM     96  O   UNL A   1      33.613  26.342  21.093  1.00  0.00    -0.378 OA
ENDBRANCH  86  87
ENDBRANCH  84  86
ENDBRANCH  78  80
ENDBRANCH  77  78
ENDBRANCH  76  77
ENDBRANCH  75  76
ENDBRANCH  74  75
ENDBRANCH  73  74
ENDBRANCH   1  73
TORSDOF 22
ENDMDL
MODEL 2
REMARK VINA RESULT:     -10.2      1.664      2.168
REMARK SMILES O=C(OCCOCCOCCOC(=O)c1ccnc(S[C@@H]2CCO[C@]3(CCOC3)C2)c1)c1ccc(-c2c3nc(c(-c4cccc(S(=O)(=O)[O-])c4F)c4ccc([nH]4)c(-c4cccc(S(=O)(=O)[O-])c4F)c4nc(c(-c5cccc(S(=O)(=O)[O-])c5F)c5ccc2[nH]5)C=C4)C=C3)cc1
REMARK SMILES IDX 7 1 6 2 5 3 4 4 3 5 2 6 1 7 32 8 33 9 94 10 34 11 93 12
REMARK SMILES IDX 35 13 36 14 37 15 87 16 38 17 92 18 86 19 88 20 39 21 91 22
REMARK SMILES IDX 85 23 84 24 40 26 72 27 52 28 71 29 53 30 56 31 70 32 89 33
REMARK SMILES IDX 54 34 55 35 69 37 90 38 57 39 41 40 42 41 50 42 43 43 45 44
REMARK SMILES IDX 51 45 44 46 46 47 47 48 48 49 49 50 73 51 74 52 82 53 75 54
REMARK SMILES IDX 77 55 83 56 76 57 78 58 79 59 80 60 81 61 58 62 59 63 67 64
REMARK SMILES IDX 60 65 62 66 68 67 61 68 63 69 64 70 65 71 66 72 8 73 9 74
REMARK SMILES IDX 10 75 11 76 12 77 13 78 14 79 15 80 16 81 31 82 17 83 19 84
REMARK SMILES IDX 18 85 20 86 21 87 22 88 30 89 23 90 25 91 24 92 26 93 29 94
REMARK SMILES IDX 27 95 28 96
REMARK H PARENT 88 25 56 36
REMARK Flexibility Score: inf
ROOT
ATOM      1  C   UNL A   1      38.857  22.792  26.258  1.00  0.00     0.188 C 
ENDROOT
BRANCH   1   2
ATOM      2  O   UNL A   1      38.911  21.393  26.559  1.00  0.00    -0.376 OA
BRANCH   2   3
ATOM      3  C   UNL A   1      39.281  20.582  25.439  1.00  0.00     0.202 C 
BRANCH   3   4
ATOM      4  C   UNL A   1      39.840  19.202  25.810  1.00  0.00     0.261 C 
BRANCH   4   5
ATOM      5  O   UNL A   1      41.031  19.294  26.603  1.00  0.00    -0.460 OA
BRANCH   5   6
ATOM      6  C   UNL A   1      42.140  20.033  26.355  1.00  0.00     0.338 C 
ATOM      7  O   UNL A   1      43.152  19.432  25.990  1.00  0.00    -0.246 OA
BRANCH   6   8
ATOM      8  C   UNL A   1      42.243  21.520  26.561  1.00  0.00     0.060 A 
ATOM      9  C   UNL A   1      42.298  22.493  25.559  1.00  0.00     0.016 A 
ATOM     10  C   UNL A   1      42.206  21.972  27.894  1.00  0.00     0.016 A 
ATOM     11  C   UNL A   1      42.397  23.851  25.856  1.00  0.00     0.010 A 
ATOM     12  C   UNL A   1      42.251  23.336  28.202  1.00  0.00     0.010 A 
ATOM     13  C   UNL A   1      42.396  24.279  27.179  1.00  0.00    -0.014 A 
BRANCH  13  14
ATOM     14  C   UNL A   1      42.743  25.683  27.479  1.00  0.00     0.031 A 
ATOM     15  C   UNL A   1      44.109  26.160  27.098  1.00  0.00     0.074 A 
ATOM     16  C   UNL A   1      41.846  26.527  28.017  1.00  0.00     0.049 A 
ATOM     17  N   UNL A   1      44.648  27.335  27.269  1.00  0.00    -0.248 NA
ATOM     18  C   UNL A   1      44.976  25.191  26.405  1.00  0.00     0.031 C 
ATOM     19  C   UNL A   1      40.464  26.184  28.326  1.00  0.00     0.029 A 
ATOM     20  N   UNL A   1      41.960  27.831  28.421  1.00  0.00    -0.354 N 
ATOM     21  C   UNL A   1      45.921  27.240  26.729  1.00  0.00     0.074 A 
ATOM     22  C   UNL A   1      46.086  25.890  26.241  1.00  0.00     0.031 C 
ATOM     23  C   UNL A   1      39.876  27.217  28.950  1.00  0.00     0.029 A 
ATOM     24  C   UNL A   1      40.845  28.295  29.082  1.00  0.00     0.049 A 
ATOM     25  H   UNL A   1      42.760  28.381  28.256  1.00  0.00     0.167 HD
ATOM     26  C   UNL A   1      46.861  28.204  26.629  1.00  0.00     0.034 A 
ATOM     27  C   UNL A   1      40.641  29.453  29.737  1.00  0.00     0.034 A 
ATOM     28  C   UNL A   1      46.677  29.541  27.113  1.00  0.00     0.049 A 
ATOM     29  C   UNL A   1      41.730  30.487  29.686  1.00  0.00     0.074 A 
ATOM     30  C   UNL A   1      47.552  30.607  27.060  1.00  0.00     0.029 A 
ATOM     31  N   UNL A   1      45.533  29.986  27.762  1.00  0.00    -0.354 N 
ATOM     32  N   UNL A   1      42.897  30.418  29.089  1.00  0.00    -0.248 NA
ATOM     33  C   UNL A   1      41.466  31.771  30.346  1.00  0.00     0.031 C 
ATOM     34  C   UNL A   1      46.946  31.693  27.702  1.00  0.00     0.029 A 
ATOM     35  C   UNL A   1      45.684  31.309  28.132  1.00  0.00     0.049 A 
ATOM     36  H   UNL A   1      44.731  29.441  27.933  1.00  0.00     0.167 HD
ATOM     37  C   UNL A   1      43.491  31.660  29.264  1.00  0.00     0.074 A 
ATOM     38  C   UNL A   1      42.550  32.465  30.020  1.00  0.00     0.031 C 
ATOM     39  C   UNL A   1      44.704  32.094  28.842  1.00  0.00     0.034 A 
BRANCH  26  40
ATOM     40  C   UNL A   1      48.157  27.812  25.979  1.00  0.00     0.023 A 
ATOM     41  C   UNL A   1      49.292  27.554  26.778  1.00  0.00     0.012 A 
ATOM     42  C   UNL A   1      48.269  27.764  24.579  1.00  0.00     0.148 A 
ATOM     43  C   UNL A   1      50.528  27.299  26.188  1.00  0.00     0.002 A 
ATOM     44  C   UNL A   1      49.496  27.473  23.999  1.00  0.00     0.091 A 
ATOM     45  F   UNL A   1      47.188  28.052  23.840  1.00  0.00    -0.205 F 
ATOM     46  C   UNL A   1      50.630  27.253  24.800  1.00  0.00     0.022 A 
BRANCH  44  47
ATOM     47  S   UNL A   1      49.711  27.350  22.221  1.00  0.00     0.127 S 
ATOM     48  O   UNL A   1      51.113  26.950  22.119  1.00  0.00    -0.237 OA
ATOM     49  O   UNL A   1      48.750  26.305  21.864  1.00  0.00    -0.237 OA
ATOM     50  O   UNL A   1      49.390  28.669  21.691  1.00  0.00    -0.744 OA
ENDBRANCH  44  47
ENDBRANCH  26  40
BRANCH  27  51
ATOM     51  C   UNL A   1      39.348  29.699  30.438  1.00  0.00     0.023 A 
ATOM     52  C   UNL A   1      39.149  29.181  31.731  1.00  0.00     0.012 A 
ATOM     53  C   UNL A   1      38.331  30.482  29.849  1.00  0.00     0.148 A 
ATOM     54  C   UNL A   1      37.956  29.416  32.418  1.00  0.00     0.002 A 
ATOM     55  C   UNL A   1      37.160  30.741  30.552  1.00  0.00     0.091 A 
ATOM     56  F   UNL A   1      38.542  30.975  28.620  1.00  0.00    -0.205 F 
ATOM     57  C   UNL A   1      36.966  30.199  31.832  1.00  0.00     0.022 A 
BRANCH  55  58
ATOM     58  S   UNL A   1      35.849  31.805  29.937  1.00  0.00     0.127 S 
ATOM     59  O   UNL A   1      35.270  30.992  28.872  1.00  0.00    -0.237 OA
ATOM     60  O   UNL A   1      35.012  31.951  31.126  1.00  0.00    -0.237 OA
ATOM     61  O   UNL A   1      36.504  33.030  29.488  1.00  0.00    -0.744 OA
ENDBRANCH  55  58
ENDBRANCH  27  51
BRANCH  39  62
ATOM     62  C   UNL A   1      45.079  33.515  29.157  1.00  0.00     0.023 A 
ATOM     63  C   UNL A   1      45.755  33.807  30.356  1.00  0.00     0.012 A 
ATOM     64  C   UNL A   1      44.866  34.533  28.207  1.00  0.00     0.148 A 
ATOM     65  C   UNL A   1      46.205  35.100  30.612  1.00  0.00     0.002 A 
ATOM     66  C   UNL A   1      45.361  35.807  28.448  1.00  0.00     0.091 A 
ATOM     67  F   UNL A   1      44.200  34.229  27.083  1.00  0.00    -0.205 F 
ATOM     68  C   UNL A   1      46.022  36.095  29.652  1.00  0.00     0.022 A 
BRANCH  66  69
ATOM     69  S   UNL A   1      45.267  37.118  27.223  1.00  0.00     0.127 S 
ATOM     70  O   UNL A   1      46.128  36.596  26.163  1.00  0.00    -0.237 OA
ATOM     71  O   UNL A   1      43.841  37.138  26.899  1.00  0.00    -0.237 OA
ATOM     72  O   UNL A   1      45.752  38.322  27.886  1.00  0.00    -0.744 OA
ENDBRANCH  66  69
ENDBRANCH  39  62
ENDBRANCH  13  14
ENDBRANCH   6   8
ENDBRANCH   5   6
ENDBRANCH   4   5
ENDBRANCH   3   4
ENDBRANCH   2   3
ENDBRANCH   1   2
BRANCH   1  73
ATOM     73  C   UNL A   1      37.445  23.270  25.912  1.00  0.00     0.188 C 
BRANCH  73  74
ATOM     74  O   UNL A   1      37.248  23.644  24.549  1.00  0.00    -0.376 OA
BRANCH  74  75
ATOM     75  C   UNL A   1      36.745  22.628  23.685  1.00  0.00     0.202 C 
BRANCH  75  76
ATOM     76  C   UNL A   1      35.239  22.642  23.385  1.00  0.00     0.261 C 
BRANCH  76  77
ATOM     77  O   UNL A   1      34.375  22.956  24.500  1.00  0.00    -0.460 OA
BRANCH  77  78
ATOM     78  C   UNL A   1      33.132  22.425  24.392  1.00  0.00     0.338 C 
ATOM     79  O   UNL A   1      32.848  21.420  23.733  1.00  0.00    -0.246 OA
BRANCH  78  80
ATOM     80  C   UNL A   1      32.062  23.143  25.122  1.00  0.00     0.064 A 
ATOM     81  C   UNL A   1      31.124  22.341  25.774  1.00  0.00     0.036 A 
ATOM     82  C   UNL A   1      32.055  24.525  25.337  1.00  0.00     0.051 A 
ATOM     83  C   UNL A   1      30.276  22.938  26.679  1.00  0.00     0.113 A 
ATOM     84  C   UNL A   1      31.206  25.034  26.321  1.00  0.00     0.097 A 
ATOM     85  N   UNL A   1      30.334  24.249  26.982  1.00  0.00    -0.250 NA
BRANCH  84  86
ATOM     86  S   UNL A   1      31.026  26.761  26.674  1.00  0.00    -0.103 SA
BRANCH  86  87
ATOM     87  C   UNL A   1      32.605  27.631  26.235  1.00  0.00     0.058 C 
ATOM     88  C   UNL A   1      32.368  29.121  26.434  1.00  0.00     0.043 C 
ATOM     89  C   UNL A   1      33.350  27.477  24.905  1.00  0.00     0.053 C 
ATOM     90  C   UNL A   1      31.599  29.718  25.269  1.00  0.00     0.162 C 
ATOM     91  C   UNL A   1      32.641  28.149  23.716  1.00  0.00     0.095 C 
ATOM     92  O   UNL A   1      31.488  28.882  24.118  1.00  0.00    -0.372 OA
ATOM     93  C   UNL A   1      32.269  27.082  22.688  1.00  0.00     0.066 C 
ATOM     94  C   UNL A   1      33.525  29.028  22.830  1.00  0.00     0.195 C 
ATOM     95  C   UNL A   1      33.485  26.966  21.794  1.00  0.00     0.163 C 
ATOM     96  O   UNL A   1      34.257  28.163  21.957  1.00  0.00    -0.378 OA
ENDBRANCH  86  87
ENDBRANCH  84  86
ENDBRANCH  78  80
ENDBRANCH  77  78
ENDBRANCH  76  77
ENDBRANCH  75  76
ENDBRANCH  74  75
ENDBRANCH  73  74
ENDBRANCH   1  73
TORSDOF 22
ENDMDL
MODEL 3
REMARK VINA RESULT:     -10.1      2.508      3.730
REMARK SMILES O=C(OCCOCCOCCOC(=O)c1ccnc(S[C@@H]2CCO[C@]3(CCOC3)C2)c1)c1ccc(-c2c3nc(c(-c4cccc(S(=O)(=O)[O-])c4F)c4ccc([nH]4)c(-c4cccc(S(=O)(=O)[O-])c4F)c4nc(c(-c5cccc(S(=O)(=O)[O-])c5F)c5ccc2[nH]5)C=C4)C=C3)cc1
REMARK SMILES IDX 7 1 6 2 5 3 4 4 3 5 2 6 1 7 32 8 33 9 94 10 34 11 93 12
REMARK SMILES IDX 35 13 36 14 37 15 87 16 38 17 92 18 86 19 88 20 39 21 91 22
REMARK SMILES IDX 85 23 84 24 40 26 72 27 52 28 71 29 53 30 56 31 70 32 89 33
REMARK SMILES IDX 54 34 55 35 69 37 90 38 57 39 41 40 42 41 50 42 43 43 45 44
REMARK SMILES IDX 51 45 44 46 46 47 47 48 48 49 49 50 73 51 74 52 82 53 75 54
REMARK SMILES IDX 77 55 83 56 76 57 78 58 79 59 80 60 81 61 58 62 59 63 67 64
REMARK SMILES IDX 60 65 62 66 68 67 61 68 63 69 64 70 65 71 66 72 8 73 9 74
REMARK SMILES IDX 10 75 11 76 12 77 13 78 14 79 15 80 16 81 31 82 17 83 19 84
REMARK SMILES IDX 18 85 20 86 21 87 22 88 30 89 23 90 25 91 24 92 26 93 29 94
REMARK SMILES IDX 27 95 28 96
REMARK H PARENT 88 25 56 36
REMARK Flexibility Score: inf
ROOT
ATOM      1  C   UNL A   1      41.433  20.946  26.156  1.00  0.00     0.188 C 
ENDROOT
BRANCH   1   2
ATOM      2  O   UNL A   1      41.989  19.759  26.732  1.00  0.00    -0.376 OA
BRANCH   2   3
ATOM      3  C   UNL A   1      42.377  18.781  25.760  1.00  0.00     0.202 C 
BRANCH   3   4
ATOM      4  C   UNL A   1      43.743  18.133  26.021  1.00  0.00     0.261 C 
BRANCH   4   5
ATOM      5  O   UNL A   1      44.720  18.515  25.042  1.00  0.00    -0.460 OA
BRANCH   5   6
ATOM      6  C   UNL A   1      44.707  19.604  24.235  1.00  0.00     0.338 C 
ATOM      7  O   UNL A   1      44.813  19.414  23.023  1.00  0.00    -0.246 OA
BRANCH   6   8
ATOM      8  C   UNL A   1      44.642  21.028  24.718  1.00  0.00     0.060 A 
ATOM      9  C   UNL A   1      44.120  22.118  24.017  1.00  0.00     0.016 A 
ATOM     10  C   UNL A   1      45.085  21.263  26.034  1.00  0.00     0.016 A 
ATOM     11  C   UNL A   1      44.110  23.403  24.555  1.00  0.00     0.010 A 
ATOM     12  C   UNL A   1      45.030  22.540  26.603  1.00  0.00     0.010 A 
ATOM     13  C   UNL A   1      44.586  23.626  25.842  1.00  0.00    -0.014 A 
BRANCH  13  14
ATOM     14  C   UNL A   1      44.792  25.015  26.301  1.00  0.00     0.031 A 
ATOM     15  C   UNL A   1      46.146  25.620  26.105  1.00  0.00     0.074 A 
ATOM     16  C   UNL A   1      43.785  25.739  26.818  1.00  0.00     0.049 A 
ATOM     17  N   UNL A   1      46.573  26.807  26.434  1.00  0.00    -0.248 NA
ATOM     18  C   UNL A   1      47.148  24.784  25.420  1.00  0.00     0.031 C 
ATOM     19  C   UNL A   1      42.411  25.274  26.954  1.00  0.00     0.029 A 
ATOM     20  N   UNL A   1      43.758  27.002  27.347  1.00  0.00    -0.354 N 
ATOM     21  C   UNL A   1      47.895  26.852  26.020  1.00  0.00     0.074 A 
ATOM     22  C   UNL A   1      48.211  25.571  25.432  1.00  0.00     0.031 C 
ATOM     23  C   UNL A   1      41.688  26.198  27.604  1.00  0.00     0.029 A 
ATOM     24  C   UNL A   1      42.553  27.322  27.930  1.00  0.00     0.049 A 
ATOM     25  H   UNL A   1      44.524  27.620  27.315  1.00  0.00     0.167 HD
ATOM     26  C   UNL A   1      48.763  27.884  26.104  1.00  0.00     0.034 A 
ATOM     27  C   UNL A   1      42.198  28.394  28.663  1.00  0.00     0.034 A 
ATOM     28  C   UNL A   1      48.430  29.152  26.685  1.00  0.00     0.049 A 
ATOM     29  C   UNL A   1      43.203  29.501  28.816  1.00  0.00     0.074 A 
ATOM     30  C   UNL A   1      49.220  30.275  26.817  1.00  0.00     0.029 A 
ATOM     31  N   UNL A   1      47.198  29.452  27.251  1.00  0.00    -0.354 N 
ATOM     32  N   UNL A   1      44.423  29.571  28.337  1.00  0.00    -0.248 NA
ATOM     33  C   UNL A   1      42.778  30.694  29.559  1.00  0.00     0.031 C 
ATOM     34  C   UNL A   1      48.474  31.249  27.488  1.00  0.00     0.029 A 
ATOM     35  C   UNL A   1      47.210  30.740  27.752  1.00  0.00     0.049 A 
ATOM     36  H   UNL A   1      46.429  28.839  27.290  1.00  0.00     0.167 HD
ATOM     37  C   UNL A   1      44.899  30.828  28.682  1.00  0.00     0.074 A 
ATOM     38  C   UNL A   1      43.831  31.489  29.408  1.00  0.00     0.031 C 
ATOM     39  C   UNL A   1      46.109  31.383  28.426  1.00  0.00     0.034 A 
BRANCH  26  40
ATOM     40  C   UNL A   1      50.141  27.647  25.556  1.00  0.00     0.023 A 
ATOM     41  C   UNL A   1      51.211  27.386  26.439  1.00  0.00     0.012 A 
ATOM     42  C   UNL A   1      50.389  27.747  24.176  1.00  0.00     0.148 A 
ATOM     43  C   UNL A   1      52.514  27.275  25.958  1.00  0.00     0.002 A 
ATOM     44  C   UNL A   1      51.685  27.599  23.700  1.00  0.00     0.091 A 
ATOM     45  F   UNL A   1      49.365  28.035  23.360  1.00  0.00    -0.205 F 
ATOM     46  C   UNL A   1      52.751  27.375  24.589  1.00  0.00     0.022 A 
BRANCH  44  47
ATOM     47  S   UNL A   1      52.077  27.669  21.950  1.00  0.00     0.127 S 
ATOM     48  O   UNL A   1      51.778  29.065  21.637  1.00  0.00    -0.237 OA
ATOM     49  O   UNL A   1      53.502  27.332  21.938  1.00  0.00    -0.237 OA
ATOM     50  O   UNL A   1      51.219  26.680  21.312  1.00  0.00    -0.744 OA
ENDBRANCH  44  47
ENDBRANCH  26  40
BRANCH  27  51
ATOM     51  C   UNL A   1      40.829  28.482  29.247  1.00  0.00     0.023 A 
ATOM     52  C   UNL A   1      40.567  27.887  30.496  1.00  0.00     0.012 A 
ATOM     53  C   UNL A   1      39.796  29.190  28.596  1.00  0.00     0.148 A 
ATOM     54  C   UNL A   1      39.300  27.974  31.076  1.00  0.00     0.002 A 
ATOM     55  C   UNL A   1      38.546  29.302  29.195  1.00  0.00     0.091 A 
ATOM     56  F   UNL A   1      40.066  29.758  27.412  1.00  0.00    -0.205 F 
ATOM     57  C   UNL A   1      38.293  28.684  30.430  1.00  0.00     0.022 A 
BRANCH  55  58
ATOM     58  S   UNL A   1      37.195  30.262  28.499  1.00  0.00     0.127 S 
ATOM     59  O   UNL A   1      37.158  29.783  27.122  1.00  0.00    -0.237 OA
ATOM     60  O   UNL A   1      36.075  29.832  29.333  1.00  0.00    -0.237 OA
ATOM     61  O   UNL A   1      37.578  31.663  28.654  1.00  0.00    -0.744 OA
ENDBRANCH  55  58
ENDBRANCH  27  51
BRANCH  39  62
ATOM     62  C   UNL A   1      46.341  32.789  28.904  1.00  0.00     0.023 A 
ATOM     63  C   UNL A   1      46.951  33.009  30.152  1.00  0.00     0.012 A 
ATOM     64  C   UNL A   1      46.062  33.881  28.059  1.00  0.00     0.148 A 
ATOM     65  C   UNL A   1      47.271  34.301  30.561  1.00  0.00     0.002 A 
ATOM     66  C   UNL A   1      46.429  35.161  28.452  1.00  0.00     0.091 A 
ATOM     67  F   UNL A   1      45.461  33.643  26.884  1.00  0.00    -0.205 F 
ATOM     68  C   UNL A   1      47.024  35.374  29.706  1.00  0.00     0.022 A 
BRANCH  66  69
ATOM     69  S   UNL A   1      46.249  36.583  27.371  1.00  0.00     0.127 S 
ATOM     70  O   UNL A   1      44.799  36.645  27.200  1.00  0.00    -0.237 OA
ATOM     71  O   UNL A   1      46.816  37.662  28.181  1.00  0.00    -0.237 OA
ATOM     72  O   UNL A   1      47.008  36.271  26.166  1.00  0.00    -0.744 OA
ENDBRANCH  66  69
ENDBRANCH  39  62
ENDBRANCH  13  14
ENDBRANCH   6   8
ENDBRANCH   5   6
ENDBRANCH   4   5
ENDBRANCH   3   4
ENDBRANCH   2   3
ENDBRANCH   1   2
BRANCH   1  73
ATOM     73  C   UNL A   1      40.225  21.473  26.933  1.00  0.00     0.188 C 
BRANCH  73  74
ATOM     74  O   UNL A   1      39.337  22.304  26.184  1.00  0.00    -0.376 OA
BRANCH  74  75
ATOM     75  C   UNL A   1      38.138  21.687  25.724  1.00  0.00     0.202 C 
BRANCH  75  76
ATOM     76  C   UNL A   1      37.015  22.612  25.234  1.00  0.00     0.261 C 
BRANCH  76  77
ATOM     77  O   UNL A   1      36.252  23.281  26.262  1.00  0.00    -0.460 OA
BRANCH  77  78
ATOM     78  C   UNL A   1      35.020  22.749  26.461  1.00  0.00     0.338 C 
ATOM     79  O   UNL A   1      34.802  21.575  26.775  1.00  0.00    -0.246 OA
BRANCH  78  80
ATOM     80  C   UNL A   1      33.882  23.674  26.263  1.00  0.00     0.064 A 
ATOM     81  C   UNL A   1      32.629  23.191  26.643  1.00  0.00     0.036 A 
ATOM     82  C   UNL A   1      34.021  25.019  25.904  1.00  0.00     0.051 A 
ATOM     83  C   UNL A   1      31.588  24.086  26.735  1.00  0.00     0.113 A 
ATOM     84  C   UNL A   1      32.929  25.867  26.091  1.00  0.00     0.097 A 
ATOM     85  N   UNL A   1      31.734  25.405  26.503  1.00  0.00    -0.250 NA
BRANCH  84  86
ATOM     86  S   UNL A   1      32.916  27.578  25.629  1.00  0.00    -0.103 SA
BRANCH  86  87
ATOM     87  C   UNL A   1      33.553  27.736  23.893  1.00  0.00     0.058 C 
ATOM     88  C   UNL A   1      32.648  28.723  23.170  1.00  0.00     0.043 C 
ATOM     89  C   UNL A   1      33.782  26.563  22.934  1.00  0.00     0.053 C 
ATOM     90  C   UNL A   1      31.348  28.066  22.739  1.00  0.00     0.162 C 
ATOM     91  C   UNL A   1      32.483  25.930  22.407  1.00  0.00     0.095 C 
ATOM     92  O   UNL A   1      31.324  26.642  22.829  1.00  0.00    -0.372 OA
ATOM     93  C   UNL A   1      32.415  24.474  22.862  1.00  0.00     0.066 C 
ATOM     94  C   UNL A   1      32.423  25.704  20.896  1.00  0.00     0.195 C 
ATOM     95  C   UNL A   1      33.138  23.697  21.783  1.00  0.00     0.163 C 
ATOM     96  O   UNL A   1      33.167  24.516  20.607  1.00  0.00    -0.378 OA
ENDBRANCH  86  87
ENDBRANCH  84  86
ENDBRANCH  78  80
ENDBRANCH  77  78
ENDBRANCH  76  77
ENDBRANCH  75  76
ENDBRANCH  74  75
ENDBRANCH  73  74
ENDBRANCH   1  73
TORSDOF 22
ENDMDL
