MODEL 1
REMARK VINA RESULT:     -10.4      0.000      0.000
REMARK SMILES CCc1n[nH]c(C(=O)Nc2cc(C(=O)OCCOCCOCCOC(=O)c3ccc(-c4c5nc(c(-c6cccc(S(=O)(=O)[O-])c6F)c6ccc([nH]6)c(-c6cccc(S(=O)(=O)[O-])c6F)c6nc(c(-c7cccc(S(=O)(=O)[O-])c7F)c7ccc4[nH]7)C=C6)C=C5)cc3)ccc2Cl)n1
REMARK SMILES IDX 19 1 18 2 17 3 16 4 15 5 13 6 14 7 12 8 10 9 11 10 92 11
REMARK SMILES IDX 91 12 93 13 90 14 9 15 7 16 8 17 6 19 3 20 4 21 94 22 5 23
REMARK SMILES IDX 2 25 1 26 20 27 21 28 22 29 23 30 24 31 25 32 26 33 27 34
REMARK SMILES IDX 28 35 89 36 29 37 88 38 30 39 31 40 32 41 82 42 33 43 87 44
REMARK SMILES IDX 81 45 83 46 34 47 86 48 80 49 79 50 35 52 67 53 47 54 66 55
REMARK SMILES IDX 48 56 51 57 65 58 84 59 49 60 50 61 64 63 85 64 52 65 36 66
REMARK SMILES IDX 37 67 45 68 38 69 40 70 46 71 39 72 41 73 42 74 43 75 44 76
REMARK SMILES IDX 68 77 69 78 77 79 70 80 72 81 78 82 71 83 73 84 74 85 75 86
REMARK SMILES IDX 76 87 53 88 54 89 62 90 55 91 57 92 63 93 56 94 58 95 59 96
REMARK SMILES IDX 60 97 61 98
REMARK H PARENT 9 18 5 24 83 51 51 62
REMARK Flexibility Score: inf
ROOT
ATOM      1  C   UNL A   1      31.582  28.997  25.686  1.00  0.00     0.188 C 
ENDROOT
BRANCH   1   2
ATOM      2  O   UNL A   1      31.230  29.303  24.347  1.00  0.00    -0.376 OA
BRANCH   2   3
ATOM      3  C   UNL A   1      30.480  28.363  23.588  1.00  0.00     0.202 C 
BRANCH   3   4
ATOM      4  C   UNL A   1      31.137  27.671  22.392  1.00  0.00     0.261 C 
BRANCH   4   5
ATOM      5  O   UNL A   1      32.556  27.540  22.562  1.00  0.00    -0.460 OA
BRANCH   5   6
ATOM      6  C   UNL A   1      33.097  26.415  22.039  1.00  0.00     0.338 C 
ATOM      7  O   UNL A   1      33.321  26.183  20.863  1.00  0.00    -0.246 OA
BRANCH   6   8
ATOM      8  C   UNL A   1      33.573  25.551  23.138  1.00  0.00     0.062 A 
ATOM      9  C   UNL A   1      33.709  23.321  24.066  1.00  0.00     0.061 A 
ATOM     10  C   UNL A   1      33.321  24.176  23.034  1.00  0.00     0.043 A 
ATOM     11  C   UNL A   1      34.444  23.834  25.154  1.00  0.00     0.064 A 
ATOM     12  C   UNL A   1      34.723  25.203  25.233  1.00  0.00     0.023 A 
ATOM     13  Cl  UNL A   1      35.078  22.812  26.398  1.00  0.00    -0.082 Cl
ATOM     14  C   UNL A   1      34.272  26.068  24.234  1.00  0.00     0.017 A 
BRANCH   9  15
ATOM     15  N   UNL A   1      33.263  21.989  23.992  1.00  0.00    -0.318 N 
ATOM     16  C   UNL A   1      32.284  21.413  24.792  1.00  0.00     0.293 C 
ATOM     17  O   UNL A   1      32.060  20.207  24.680  1.00  0.00    -0.265 OA
ATOM     18  H   UNL A   1      33.682  21.412  23.311  1.00  0.00     0.170 HD
BRANCH  16  19
ATOM     19  C   UNL A   1      31.481  22.253  25.659  1.00  0.00     0.214 A 
ATOM     20  C   UNL A   1      30.172  23.702  26.475  1.00  0.00     0.151 A 
ATOM     21  N   UNL A   1      30.651  23.094  27.567  1.00  0.00    -0.158 NA
ATOM     22  N   UNL A   1      30.625  23.190  25.297  1.00  0.00    -0.207 NA
ATOM     23  N   UNL A   1      31.457  22.159  27.019  1.00  0.00    -0.255 N 
ATOM     24  H   UNL A   1      31.964  21.493  27.537  1.00  0.00     0.192 HD
BRANCH  20  25
ATOM     25  C   UNL A   1      29.306  24.909  26.512  1.00  0.00     0.076 C 
ATOM     26  C   UNL A   1      29.452  25.795  25.282  1.00  0.00     0.012 C 
ENDBRANCH  20  25
ENDBRANCH  16  19
ENDBRANCH   9  15
ENDBRANCH   6   8
ENDBRANCH   5   6
ENDBRANCH   4   5
ENDBRANCH   3   4
ENDBRANCH   2   3
ENDBRANCH   1   2
BRANCH   1  27
ATOM     27  C   UNL A   1      31.992  30.131  26.648  1.00  0.00     0.188 C 
BRANCH  27  28
ATOM     28  O   UNL A   1      33.348  30.333  26.968  1.00  0.00    -0.376 OA
BRANCH  28  29
ATOM     29  C   UNL A   1      33.763  31.420  27.773  1.00  0.00     0.202 C 
BRANCH  29  30
ATOM     30  C   UNL A   1      33.514  32.910  27.481  1.00  0.00     0.261 C 
BRANCH  30  31
ATOM     31  O   UNL A   1      32.568  33.601  28.293  1.00  0.00    -0.460 OA
BRANCH  31  32
ATOM     32  C   UNL A   1      33.059  34.685  28.944  1.00  0.00     0.338 C 
ATOM     33  O   UNL A   1      32.578  35.804  28.979  1.00  0.00    -0.246 OA
BRANCH  32  34
ATOM     34  C   UNL A   1      34.198  34.263  29.777  1.00  0.00     0.060 A 
ATOM     35  C   UNL A   1      35.492  34.560  29.332  1.00  0.00     0.016 A 
ATOM     36  C   UNL A   1      33.995  33.543  30.957  1.00  0.00     0.016 A 
ATOM     37  C   UNL A   1      36.594  34.099  30.047  1.00  0.00     0.010 A 
ATOM     38  C   UNL A   1      35.102  33.068  31.664  1.00  0.00     0.010 A 
ATOM     39  C   UNL A   1      36.404  33.312  31.193  1.00  0.00    -0.014 A 
BRANCH  39  40
ATOM     40  C   UNL A   1      37.557  32.596  31.782  1.00  0.00     0.031 A 
ATOM     41  C   UNL A   1      38.074  33.045  33.123  1.00  0.00     0.074 A 
ATOM     42  C   UNL A   1      38.136  31.564  31.144  1.00  0.00     0.049 A 
ATOM     43  N   UNL A   1      39.059  32.565  33.835  1.00  0.00    -0.248 NA
ATOM     44  C   UNL A   1      37.387  34.192  33.742  1.00  0.00     0.031 C 
ATOM     45  C   UNL A   1      37.735  31.042  29.840  1.00  0.00     0.029 A 
ATOM     46  N   UNL A   1      39.205  30.783  31.507  1.00  0.00    -0.354 N 
ATOM     47  C   UNL A   1      39.124  33.357  34.973  1.00  0.00     0.074 A 
ATOM     48  C   UNL A   1      38.090  34.362  34.851  1.00  0.00     0.031 C 
ATOM     49  C   UNL A   1      38.565  30.041  29.498  1.00  0.00     0.029 A 
ATOM     50  C   UNL A   1      39.561  29.861  30.553  1.00  0.00     0.049 A 
ATOM     51  H   UNL A   1      39.671  30.873  32.370  1.00  0.00     0.167 HD
ATOM     52  C   UNL A   1      39.954  33.250  36.037  1.00  0.00     0.034 A 
ATOM     53  C   UNL A   1      40.585  28.982  30.531  1.00  0.00     0.034 A 
ATOM     54  C   UNL A   1      40.974  32.245  36.165  1.00  0.00     0.049 A 
ATOM     55  C   UNL A   1      41.507  28.893  31.721  1.00  0.00     0.074 A 
ATOM     56  C   UNL A   1      41.840  32.028  37.223  1.00  0.00     0.029 A 
ATOM     57  N   UNL A   1      41.274  31.296  35.201  1.00  0.00    -0.354 N 
ATOM     58  N   UNL A   1      41.470  29.562  32.848  1.00  0.00    -0.248 NA
ATOM     59  C   UNL A   1      42.590  27.900  31.649  1.00  0.00     0.031 C 
ATOM     60  C   UNL A   1      42.677  30.959  36.889  1.00  0.00     0.029 A 
ATOM     61  C   UNL A   1      42.318  30.495  35.633  1.00  0.00     0.049 A 
ATOM     62  H   UNL A   1      40.814  31.206  34.336  1.00  0.00     0.167 HD
ATOM     63  C   UNL A   1      42.497  29.044  33.633  1.00  0.00     0.074 A 
ATOM     64  C   UNL A   1      43.125  27.994  32.859  1.00  0.00     0.031 C 
ATOM     65  C   UNL A   1      42.894  29.415  34.876  1.00  0.00     0.034 A 
BRANCH  52  66
ATOM     66  C   UNL A   1      39.769  34.230  37.163  1.00  0.00     0.023 A 
ATOM     67  C   UNL A   1      40.137  35.578  36.975  1.00  0.00     0.012 A 
ATOM     68  C   UNL A   1      39.196  33.832  38.385  1.00  0.00     0.148 A 
ATOM     69  C   UNL A   1      39.964  36.510  37.998  1.00  0.00     0.002 A 
ATOM     70  C   UNL A   1      38.988  34.775  39.386  1.00  0.00     0.091 A 
ATOM     71  F   UNL A   1      38.878  32.541  38.552  1.00  0.00    -0.205 F 
ATOM     72  C   UNL A   1      39.382  36.110  39.198  1.00  0.00     0.022 A 
BRANCH  70  73
ATOM     73  S   UNL A   1      38.180  34.373  40.938  1.00  0.00     0.127 S 
ATOM     74  O   UNL A   1      39.199  33.560  41.600  1.00  0.00    -0.237 OA
ATOM     75  O   UNL A   1      37.975  35.695  41.532  1.00  0.00    -0.237 OA
ATOM     76  O   UNL A   1      36.955  33.672  40.582  1.00  0.00    -0.744 OA
ENDBRANCH  70  73
ENDBRANCH  52  66
BRANCH  53  77
ATOM     77  C   UNL A   1      40.766  28.078  29.360  1.00  0.00     0.023 A 
ATOM     78  C   UNL A   1      40.001  26.900  29.269  1.00  0.00     0.012 A 
ATOM     79  C   UNL A   1      41.687  28.381  28.339  1.00  0.00     0.148 A 
ATOM     80  C   UNL A   1      40.171  26.023  28.197  1.00  0.00     0.002 A 
ATOM     81  C   UNL A   1      41.813  27.530  27.247  1.00  0.00     0.091 A 
ATOM     82  F   UNL A   1      42.419  29.498  28.454  1.00  0.00    -0.205 F 
ATOM     83  C   UNL A   1      41.068  26.342  27.181  1.00  0.00     0.022 A 
BRANCH  81  84
ATOM     84  S   UNL A   1      42.855  27.922  25.837  1.00  0.00     0.127 S 
ATOM     85  O   UNL A   1      42.247  27.116  24.782  1.00  0.00    -0.237 OA
ATOM     86  O   UNL A   1      42.653  29.365  25.704  1.00  0.00    -0.237 OA
ATOM     87  O   UNL A   1      44.204  27.539  26.230  1.00  0.00    -0.744 OA
ENDBRANCH  81  84
ENDBRANCH  53  77
BRANCH  65  88
ATOM     88  C   UNL A   1      44.037  28.658  35.505  1.00  0.00     0.023 A 
ATOM     89  C   UNL A   1      45.365  29.020  35.206  1.00  0.00     0.012 A 
ATOM     90  C   UNL A   1      43.795  27.639  36.447  1.00  0.00     0.148 A 
ATOM     91  C   UNL A   1      46.434  28.360  35.811  1.00  0.00     0.002 A 
ATOM     92  C   UNL A   1      44.864  27.017  37.082  1.00  0.00     0.091 A 
ATOM     93  F   UNL A   1      42.525  27.293  36.705  1.00  0.00    -0.205 F 
ATOM     94  C   UNL A   1      46.184  27.368  36.757  1.00  0.00     0.022 A 
BRANCH  92  95
ATOM     95  S   UNL A   1      44.630  25.799  38.381  1.00  0.00     0.127 S 
ATOM     96  O   UNL A   1      43.868  26.559  39.370  1.00  0.00    -0.237 OA
ATOM     97  O   UNL A   1      43.869  24.753  37.697  1.00  0.00    -0.237 OA
ATOM     98  O   UNL A   1      45.968  25.395  38.792  1.00  0.00    -0.744 OA
ENDBRANCH  92  95
ENDBRANCH  65  88
ENDBRANCH  39  40
ENDBRANCH  32  34
ENDBRANCH  31  32
ENDBRANCH  30  31
ENDBRANCH  29  30
ENDBRANCH  28  29
ENDBRANCH  27  28
ENDBRANCH   1  27
TORSDOF 23
ENDMDL
MODEL 2
REMARK VINA RESULT:     -10.1      1.417      2.191
REMARK SMILES CCc1n[nH]c(C(=O)Nc2cc(C(=O)OCCOCCOCCOC(=O)c3ccc(-c4c5nc(c(-c6cccc(S(=O)(=O)[O-])c6F)c6ccc([nH]6)c(-c6cccc(S(=O)(=O)[O-])c6F)c6nc(c(-c7cccc(S(=O)(=O)[O-])c7F)c7ccc4[nH]7)C=C6)C=C5)cc3)ccc2Cl)n1
REMARK SMILES IDX 19 1 18 2 17 3 16 4 15 5 13 6 14 7 12 8 10 9 11 10 92 11
REMARK SMILES IDX 91 12 93 13 90 14 9 15 7 16 8 17 6 19 3 20 4 21 94 22 5 23
REMARK SMILES IDX 2 25 1 26 20 27 21 28 22 29 23 30 24 31 25 32 26 33 27 34
REMARK SMILES IDX 28 35 89 36 29 37 88 38 30 39 31 40 32 41 82 42 33 43 87 44
REMARK SMILES IDX 81 45 83 46 34 47 86 48 80 49 79 50 35 52 67 53 47 54 66 55
REMARK SMILES IDX 48 56 51 57 65 58 84 59 49 60 50 61 64 63 85 64 52 65 36 66
REMARK SMILES IDX 37 67 45 68 38 69 40 70 46 71 39 72 41 73 42 74 43 75 44 76
REMARK SMILES IDX 68 77 69 78 77 79 70 80 72 81 78 82 71 83 73 84 74 85 75 86
REMARK SMILES IDX 76 87 53 88 54 89 62 90 55 91 57 92 63 93 56 94 58 95 59 96
REMARK SMILES IDX 60 97 61 98
REMARK H PARENT 9 18 5 24 83 51 51 62
REMARK Flexibility Score: inf
ROOT
ATOM      1  C   UNL A   1      32.058  29.452  26.113  1.00  0.00     0.188 C 
ENDROOT
BRANCH   1   2
ATOM      2  O   UNL A   1      31.473  29.840  24.880  1.00  0.00    -0.376 OA
BRANCH   2   3
ATOM      3  C   UNL A   1      31.031  28.841  23.970  1.00  0.00     0.202 C 
BRANCH   3   4
ATOM      4  C   UNL A   1      31.902  28.491  22.762  1.00  0.00     0.261 C 
BRANCH   4   5
ATOM      5  O   UNL A   1      33.026  27.679  23.130  1.00  0.00    -0.460 OA
BRANCH   5   6
ATOM      6  C   UNL A   1      33.057  26.449  22.565  1.00  0.00     0.338 C 
ATOM      7  O   UNL A   1      33.680  26.109  21.574  1.00  0.00    -0.246 OA
BRANCH   6   8
ATOM      8  C   UNL A   1      32.363  25.493  23.451  1.00  0.00     0.062 A 
ATOM      9  C   UNL A   1      32.397  24.228  25.512  1.00  0.00     0.061 A 
ATOM     10  C   UNL A   1      32.988  25.161  24.660  1.00  0.00     0.043 A 
ATOM     11  C   UNL A   1      31.125  23.707  25.197  1.00  0.00     0.064 A 
ATOM     12  C   UNL A   1      30.491  24.071  24.004  1.00  0.00     0.023 A 
ATOM     13  Cl  UNL A   1      30.271  22.654  26.273  1.00  0.00    -0.082 Cl
ATOM     14  C   UNL A   1      31.117  24.951  23.118  1.00  0.00     0.017 A 
BRANCH   9  15
ATOM     15  N   UNL A   1      33.159  23.797  26.613  1.00  0.00    -0.318 N 
ATOM     16  C   UNL A   1      33.585  22.495  26.848  1.00  0.00     0.293 C 
ATOM     17  O   UNL A   1      34.167  22.243  27.904  1.00  0.00    -0.265 OA
ATOM     18  H   UNL A   1      33.415  24.479  27.277  1.00  0.00     0.170 HD
BRANCH  16  19
ATOM     19  C   UNL A   1      33.433  21.493  25.813  1.00  0.00     0.214 A 
ATOM     20  C   UNL A   1      32.980  19.762  24.682  1.00  0.00     0.151 A 
ATOM     21  N   UNL A   1      33.653  20.516  23.804  1.00  0.00    -0.158 NA
ATOM     22  N   UNL A   1      32.794  20.342  25.901  1.00  0.00    -0.207 NA
ATOM     23  N   UNL A   1      33.903  21.620  24.539  1.00  0.00    -0.255 N 
ATOM     24  H   UNL A   1      34.367  22.419  24.197  1.00  0.00     0.192 HD
BRANCH  20  25
ATOM     25  C   UNL A   1      32.556  18.362  24.419  1.00  0.00     0.076 C 
ATOM     26  C   UNL A   1      32.902  17.881  23.016  1.00  0.00     0.012 C 
ENDBRANCH  20  25
ENDBRANCH  16  19
ENDBRANCH   9  15
ENDBRANCH   6   8
ENDBRANCH   5   6
ENDBRANCH   4   5
ENDBRANCH   3   4
ENDBRANCH   2   3
ENDBRANCH   1   2
BRANCH   1  27
ATOM     27  C   UNL A   1      33.592  29.464  26.270  1.00  0.00     0.188 C 
BRANCH  27  28
ATOM     28  O   UNL A   1      34.234  30.568  26.864  1.00  0.00    -0.376 OA
BRANCH  28  29
ATOM     29  C   UNL A   1      33.564  31.401  27.791  1.00  0.00     0.202 C 
BRANCH  29  30
ATOM     30  C   UNL A   1      32.812  32.702  27.460  1.00  0.00     0.261 C 
BRANCH  30  31
ATOM     31  O   UNL A   1      33.496  33.938  27.656  1.00  0.00    -0.460 OA
BRANCH  31  32
ATOM     32  C   UNL A   1      33.424  34.436  28.915  1.00  0.00     0.338 C 
ATOM     33  O   UNL A   1      32.492  35.040  29.417  1.00  0.00    -0.246 OA
BRANCH  32  34
ATOM     34  C   UNL A   1      34.598  33.973  29.676  1.00  0.00     0.060 A 
ATOM     35  C   UNL A   1      35.871  34.235  29.155  1.00  0.00     0.016 A 
ATOM     36  C   UNL A   1      34.444  33.252  30.862  1.00  0.00     0.016 A 
ATOM     37  C   UNL A   1      37.000  33.735  29.800  1.00  0.00     0.010 A 
ATOM     38  C   UNL A   1      35.576  32.739  31.498  1.00  0.00     0.010 A 
ATOM     39  C   UNL A   1      36.854  32.947  30.951  1.00  0.00    -0.014 A 
BRANCH  39  40
ATOM     40  C   UNL A   1      38.019  32.192  31.466  1.00  0.00     0.031 A 
ATOM     41  C   UNL A   1      38.649  32.636  32.760  1.00  0.00     0.074 A 
ATOM     42  C   UNL A   1      38.509  31.129  30.804  1.00  0.00     0.049 A 
ATOM     43  N   UNL A   1      39.664  32.125  33.405  1.00  0.00    -0.248 NA
ATOM     44  C   UNL A   1      38.055  33.817  33.409  1.00  0.00     0.031 C 
ATOM     45  C   UNL A   1      37.993  30.608  29.539  1.00  0.00     0.029 A 
ATOM     46  N   UNL A   1      39.569  30.310  31.100  1.00  0.00    -0.354 N 
ATOM     47  C   UNL A   1      39.843  32.928  34.524  1.00  0.00     0.074 A 
ATOM     48  C   UNL A   1      38.843  33.972  34.462  1.00  0.00     0.031 C 
ATOM     49  C   UNL A   1      38.756  29.571  29.154  1.00  0.00     0.029 A 
ATOM     50  C   UNL A   1      39.819  29.364  30.136  1.00  0.00     0.049 A 
ATOM     51  H   UNL A   1      40.100  30.393  31.925  1.00  0.00     0.167 HD
ATOM     52  C   UNL A   1      40.744  32.800  35.526  1.00  0.00     0.034 A 
ATOM     53  C   UNL A   1      40.803  28.444  30.053  1.00  0.00     0.034 A 
ATOM     54  C   UNL A   1      41.730  31.756  35.596  1.00  0.00     0.049 A 
ATOM     55  C   UNL A   1      41.805  28.332  31.175  1.00  0.00     0.074 A 
ATOM     56  C   UNL A   1      42.661  31.518  36.590  1.00  0.00     0.029 A 
ATOM     57  N   UNL A   1      41.921  30.785  34.626  1.00  0.00    -0.354 N 
ATOM     58  N   UNL A   1      41.877  29.016  32.292  1.00  0.00    -0.248 NA
ATOM     59  C   UNL A   1      42.840  27.296  31.039  1.00  0.00     0.031 C 
ATOM     60  C   UNL A   1      43.429  30.412  36.213  1.00  0.00     0.029 A 
ATOM     61  C   UNL A   1      42.961  29.948  34.994  1.00  0.00     0.049 A 
ATOM     62  H   UNL A   1      41.396  30.702  33.798  1.00  0.00     0.167 HD
ATOM     63  C   UNL A   1      42.938  28.466  33.008  1.00  0.00     0.074 A 
ATOM     64  C   UNL A   1      43.465  27.383  32.206  1.00  0.00     0.031 C 
ATOM     65  C   UNL A   1      43.438  28.836  34.213  1.00  0.00     0.034 A 
BRANCH  52  66
ATOM     66  C   UNL A   1      40.680  33.800  36.647  1.00  0.00     0.023 A 
ATOM     67  C   UNL A   1      41.315  35.050  36.498  1.00  0.00     0.012 A 
ATOM     68  C   UNL A   1      39.961  33.525  37.826  1.00  0.00     0.148 A 
ATOM     69  C   UNL A   1      41.260  36.000  37.517  1.00  0.00     0.002 A 
ATOM     70  C   UNL A   1      39.877  34.493  38.821  1.00  0.00     0.091 A 
ATOM     71  F   UNL A   1      39.388  32.321  37.960  1.00  0.00    -0.205 F 
ATOM     72  C   UNL A   1      40.534  35.725  38.673  1.00  0.00     0.022 A 
BRANCH  70  73
ATOM     73  S   UNL A   1      38.906  34.260  40.314  1.00  0.00     0.127 S 
ATOM     74  O   UNL A   1      37.667  33.701  39.777  1.00  0.00    -0.237 OA
ATOM     75  O   UNL A   1      39.726  33.312  41.070  1.00  0.00    -0.237 OA
ATOM     76  O   UNL A   1      38.786  35.577  40.923  1.00  0.00    -0.744 OA
ENDBRANCH  70  73
ENDBRANCH  52  66
BRANCH  53  77
ATOM     77  C   UNL A   1      40.863  27.519  28.886  1.00  0.00     0.023 A 
ATOM     78  C   UNL A   1      39.955  26.446  28.805  1.00  0.00     0.012 A 
ATOM     79  C   UNL A   1      41.809  27.700  27.859  1.00  0.00     0.148 A 
ATOM     80  C   UNL A   1      40.008  25.551  27.736  1.00  0.00     0.002 A 
ATOM     81  C   UNL A   1      41.821  26.835  26.771  1.00  0.00     0.091 A 
ATOM     82  F   UNL A   1      42.676  28.716  27.965  1.00  0.00    -0.205 F 
ATOM     83  C   UNL A   1      40.932  25.750  26.715  1.00  0.00     0.022 A 
BRANCH  81  84
ATOM     84  S   UNL A   1      42.897  27.087  25.354  1.00  0.00     0.127 S 
ATOM     85  O   UNL A   1      42.730  25.832  24.625  1.00  0.00    -0.237 OA
ATOM     86  O   UNL A   1      42.288  28.255  24.717  1.00  0.00    -0.237 OA
ATOM     87  O   UNL A   1      44.222  27.327  25.908  1.00  0.00    -0.744 OA
ENDBRANCH  81  84
ENDBRANCH  53  77
BRANCH  65  88
ATOM     88  C   UNL A   1      44.593  28.041  34.769  1.00  0.00     0.023 A 
ATOM     89  C   UNL A   1      45.912  28.506  34.593  1.00  0.00     0.012 A 
ATOM     90  C   UNL A   1      44.367  26.875  35.527  1.00  0.00     0.148 A 
ATOM     91  C   UNL A   1      46.988  27.807  35.137  1.00  0.00     0.002 A 
ATOM     92  C   UNL A   1      45.442  26.210  36.107  1.00  0.00     0.091 A 
ATOM     93  F   UNL A   1      43.108  26.436  35.668  1.00  0.00    -0.205 F 
ATOM     94  C   UNL A   1      46.754  26.666  35.903  1.00  0.00     0.022 A 
BRANCH  92  95
ATOM     95  S   UNL A   1      45.220  24.792  37.187  1.00  0.00     0.127 S 
ATOM     96  O   UNL A   1      44.296  23.966  36.411  1.00  0.00    -0.237 OA
ATOM     97  O   UNL A   1      46.580  24.257  37.285  1.00  0.00    -0.237 OA
ATOM     98  O   UNL A   1      44.693  25.322  38.437  1.00  0.00    -0.744 OA
ENDBRANCH  92  95
ENDBRANCH  65  88
ENDBRANCH  39  40
ENDBRANCH  32  34
ENDBRANCH  31  32
ENDBRANCH  30  31
ENDBRANCH  29  30
ENDBRANCH  28  29
ENDBRANCH  27  28
ENDBRANCH   1  27
TORSDOF 23
ENDMDL
MODEL 3
REMARK VINA RESULT:     -10.0      2.169      3.468
REMARK SMILES CCc1n[nH]c(C(=O)Nc2cc(C(=O)OCCOCCOCCOC(=O)c3ccc(-c4c5nc(c(-c6cccc(S(=O)(=O)[O-])c6F)c6ccc([nH]6)c(-c6cccc(S(=O)(=O)[O-])c6F)c6nc(c(-c7cccc(S(=O)(=O)[O-])c7F)c7ccc4[nH]7)C=C6)C=C5)cc3)ccc2Cl)n1
REMARK SMILES IDX 19 1 18 2 17 3 16 4 15 5 13 6 14 7 12 8 10 9 11 10 92 11
REMARK SMILES IDX 91 12 93 13 90 14 9 15 7 16 8 17 6 19 3 20 4 21 94 22 5 23
REMARK SMILES IDX 2 25 1 26 20 27 21 28 22 29 23 30 24 31 25 32 26 33 27 34
REMARK SMILES IDX 28 35 89 36 29 37 88 38 30 39 31 40 32 41 82 42 33 43 87 44
REMARK SMILES IDX 81 45 83 46 34 47 86 48 80 49 79 50 35 52 67 53 47 54 66 55
REMARK SMILES IDX 48 56 51 57 65 58 84 59 49 60 50 61 64 63 85 64 52 65 36 66
REMARK SMILES IDX 37 67 45 68 38 69 40 70 46 71 39 72 41 73 42 74 43 75 44 76
REMARK SMILES IDX 68 77 69 78 77 79 70 80 72 81 78 82 71 83 73 84 74 85 75 86
REMARK SMILES IDX 76 87 53 88 54 89 62 90 55 91 57 92 63 93 56 94 58 95 59 96
REMARK SMILES IDX 60 97 61 98
REMARK H PARENT 9 18 5 24 83 51 51 62
REMARK Flexibility Score: inf
ROOT
ATOM      1  C   UNL A   1      35.176  32.436  28.151  1.00  0.00     0.188 C 
ENDROOT
BRANCH   1   2
ATOM      2  O   UNL A   1      34.676  31.226  28.694  1.00  0.00    -0.376 OA
BRANCH   2   3
ATOM      3  C   UNL A   1      35.269  29.990  28.315  1.00  0.00     0.202 C 
BRANCH   3   4
ATOM      4  C   UNL A   1      35.145  29.513  26.866  1.00  0.00     0.261 C 
BRANCH   4   5
ATOM      5  O   UNL A   1      34.066  28.581  26.701  1.00  0.00    -0.460 OA
BRANCH   5   6
ATOM      6  C   UNL A   1      32.918  29.111  26.216  1.00  0.00     0.338 C 
ATOM      7  O   UNL A   1      32.608  30.290  26.181  1.00  0.00    -0.246 OA
BRANCH   6   8
ATOM      8  C   UNL A   1      32.145  28.052  25.536  1.00  0.00     0.062 A 
ATOM      9  C   UNL A   1      31.804  26.747  23.529  1.00  0.00     0.061 A 
ATOM     10  C   UNL A   1      32.529  27.708  24.233  1.00  0.00     0.043 A 
ATOM     11  C   UNL A   1      30.757  26.056  24.173  1.00  0.00     0.064 A 
ATOM     12  C   UNL A   1      30.403  26.381  25.487  1.00  0.00     0.023 A 
ATOM     13  Cl  UNL A   1      29.907  24.756  23.409  1.00  0.00    -0.082 Cl
ATOM     14  C   UNL A   1      31.084  27.394  26.166  1.00  0.00     0.017 A 
BRANCH   9  15
ATOM     15  N   UNL A   1      32.119  26.581  22.168  1.00  0.00    -0.318 N 
ATOM     16  C   UNL A   1      32.919  25.577  21.635  1.00  0.00     0.293 C 
ATOM     17  O   UNL A   1      33.188  25.610  20.433  1.00  0.00    -0.265 OA
ATOM     18  H   UNL A   1      31.738  27.234  21.536  1.00  0.00     0.170 HD
BRANCH  16  19
ATOM     19  C   UNL A   1      33.331  24.468  22.471  1.00  0.00     0.214 A 
ATOM     20  C   UNL A   1      34.405  23.047  23.614  1.00  0.00     0.151 A 
ATOM     21  N   UNL A   1      33.149  22.588  23.684  1.00  0.00    -0.158 NA
ATOM     22  N   UNL A   1      34.545  24.210  22.918  1.00  0.00    -0.207 NA
ATOM     23  N   UNL A   1      32.484  23.524  22.974  1.00  0.00    -0.255 N 
ATOM     24  H   UNL A   1      31.509  23.526  22.837  1.00  0.00     0.192 HD
BRANCH  20  25
ATOM     25  C   UNL A   1      35.585  22.316  24.144  1.00  0.00     0.076 C 
ATOM     26  C   UNL A   1      36.914  22.896  23.679  1.00  0.00     0.012 C 
ENDBRANCH  20  25
ENDBRANCH  16  19
ENDBRANCH   9  15
ENDBRANCH   6   8
ENDBRANCH   5   6
ENDBRANCH   4   5
ENDBRANCH   3   4
ENDBRANCH   2   3
ENDBRANCH   1   2
BRANCH   1  27
ATOM     27  C   UNL A   1      34.230  33.639  27.961  1.00  0.00     0.188 C 
BRANCH  27  28
ATOM     28  O   UNL A   1      34.725  34.953  28.065  1.00  0.00    -0.376 OA
BRANCH  28  29
ATOM     29  C   UNL A   1      33.866  36.048  28.325  1.00  0.00     0.202 C 
BRANCH  29  30
ATOM     30  C   UNL A   1      32.913  36.184  29.525  1.00  0.00     0.261 C 
BRANCH  30  31
ATOM     31  O   UNL A   1      32.764  35.062  30.392  1.00  0.00    -0.460 OA
BRANCH  31  32
ATOM     32  C   UNL A   1      33.371  35.189  31.597  1.00  0.00     0.338 C 
ATOM     33  O   UNL A   1      32.960  35.798  32.569  1.00  0.00    -0.246 OA
BRANCH  32  34
ATOM     34  C   UNL A   1      34.553  34.309  31.629  1.00  0.00     0.060 A 
ATOM     35  C   UNL A   1      34.408  33.024  32.165  1.00  0.00     0.016 A 
ATOM     36  C   UNL A   1      35.795  34.762  31.181  1.00  0.00     0.016 A 
ATOM     37  C   UNL A   1      35.522  32.197  32.294  1.00  0.00     0.010 A 
ATOM     38  C   UNL A   1      36.913  33.938  31.326  1.00  0.00     0.010 A 
ATOM     39  C   UNL A   1      36.788  32.668  31.916  1.00  0.00    -0.014 A 
BRANCH  39  40
ATOM     40  C   UNL A   1      37.994  31.905  32.311  1.00  0.00     0.031 A 
ATOM     41  C   UNL A   1      38.650  32.228  33.627  1.00  0.00     0.074 A 
ATOM     42  C   UNL A   1      38.498  30.941  31.520  1.00  0.00     0.049 A 
ATOM     43  N   UNL A   1      39.702  31.687  34.182  1.00  0.00    -0.248 NA
ATOM     44  C   UNL A   1      38.037  33.306  34.421  1.00  0.00     0.031 C 
ATOM     45  C   UNL A   1      37.960  30.544  30.221  1.00  0.00     0.029 A 
ATOM     46  N   UNL A   1      39.595  30.135  31.693  1.00  0.00    -0.354 N 
ATOM     47  C   UNL A   1      39.890  32.368  35.378  1.00  0.00     0.074 A 
ATOM     48  C   UNL A   1      38.853  33.374  35.462  1.00  0.00     0.031 C 
ATOM     49  C   UNL A   1      38.744  29.585  29.701  1.00  0.00     0.029 A 
ATOM     50  C   UNL A   1      39.845  29.311  30.623  1.00  0.00     0.049 A 
ATOM     51  H   UNL A   1      40.149  30.146  32.507  1.00  0.00     0.167 HD
ATOM     52  C   UNL A   1      40.827  32.164  36.333  1.00  0.00     0.034 A 
ATOM     53  C   UNL A   1      40.857  28.444  30.410  1.00  0.00     0.034 A 
ATOM     54  C   UNL A   1      41.850  31.157  36.258  1.00  0.00     0.049 A 
ATOM     55  C   UNL A   1      41.898  28.246  31.483  1.00  0.00     0.074 A 
ATOM     56  C   UNL A   1      42.820  30.845  37.193  1.00  0.00     0.029 A 
ATOM     57  N   UNL A   1      42.042  30.306  35.181  1.00  0.00    -0.354 N 
ATOM     58  N   UNL A   1      41.983  28.805  32.667  1.00  0.00    -0.248 NA
ATOM     59  C   UNL A   1      42.963  27.271  31.203  1.00  0.00     0.031 C 
ATOM     60  C   UNL A   1      43.614  29.817  36.673  1.00  0.00     0.029 A 
ATOM     61  C   UNL A   1      43.122  29.473  35.424  1.00  0.00     0.049 A 
ATOM     62  H   UNL A   1      41.494  30.296  34.365  1.00  0.00     0.167 HD
ATOM     63  C   UNL A   1      43.085  28.220  33.287  1.00  0.00     0.074 A 
ATOM     64  C   UNL A   1      43.623  27.253  32.355  1.00  0.00     0.031 C 
ATOM     65  C   UNL A   1      43.611  28.473  34.511  1.00  0.00     0.034 A 
BRANCH  52  66
ATOM     66  C   UNL A   1      40.765  33.031  37.561  1.00  0.00     0.023 A 
ATOM     67  C   UNL A   1      39.865  32.705  38.596  1.00  0.00     0.012 A 
ATOM     68  C   UNL A   1      41.623  34.137  37.712  1.00  0.00     0.148 A 
ATOM     69  C   UNL A   1      39.797  33.485  39.750  1.00  0.00     0.002 A 
ATOM     70  C   UNL A   1      41.578  34.886  38.884  1.00  0.00     0.091 A 
ATOM     71  F   UNL A   1      42.453  34.447  36.706  1.00  0.00    -0.205 F 
ATOM     72  C   UNL A   1      40.660  34.568  39.897  1.00  0.00     0.022 A 
BRANCH  70  73
ATOM     73  S   UNL A   1      42.697  36.255  39.197  1.00  0.00     0.127 S 
ATOM     74  O   UNL A   1      43.994  35.653  38.893  1.00  0.00    -0.237 OA
ATOM     75  O   UNL A   1      42.245  37.252  38.226  1.00  0.00    -0.237 OA
ATOM     76  O   UNL A   1      42.492  36.630  40.589  1.00  0.00    -0.744 OA
ENDBRANCH  70  73
ENDBRANCH  52  66
BRANCH  53  77
ATOM     77  C   UNL A   1      40.910  27.656  29.146  1.00  0.00     0.023 A 
ATOM     78  C   UNL A   1      40.088  26.523  29.000  1.00  0.00     0.012 A 
ATOM     79  C   UNL A   1      41.766  28.026  28.091  1.00  0.00     0.148 A 
ATOM     80  C   UNL A   1      40.139  25.754  27.837  1.00  0.00     0.002 A 
ATOM     81  C   UNL A   1      41.773  27.285  26.915  1.00  0.00     0.091 A 
ATOM     82  F   UNL A   1      42.555  29.097  28.258  1.00  0.00    -0.205 F 
ATOM     83  C   UNL A   1      40.972  26.140  26.791  1.00  0.00     0.022 A 
BRANCH  81  84
ATOM     84  S   UNL A   1      42.726  27.778  25.473  1.00  0.00     0.127 S 
ATOM     85  O   UNL A   1      42.618  26.595  24.624  1.00  0.00    -0.237 OA
ATOM     86  O   UNL A   1      41.978  28.945  25.002  1.00  0.00    -0.237 OA
ATOM     87  O   UNL A   1      44.060  28.082  25.972  1.00  0.00    -0.744 OA
ENDBRANCH  81  84
ENDBRANCH  53  77
BRANCH  65  88
ATOM     88  C   UNL A   1      44.810  27.666  34.941  1.00  0.00     0.023 A 
ATOM     89  C   UNL A   1      46.099  28.043  34.513  1.00  0.00     0.012 A 
ATOM     90  C   UNL A   1      44.668  26.581  35.828  1.00  0.00     0.148 A 
ATOM     91  C   UNL A   1      47.222  27.335  34.936  1.00  0.00     0.002 A 
ATOM     92  C   UNL A   1      45.796  25.908  36.283  1.00  0.00     0.091 A 
ATOM     93  F   UNL A   1      43.433  26.222  36.210  1.00  0.00    -0.205 F 
ATOM     94  C   UNL A   1      47.073  26.276  35.829  1.00  0.00     0.022 A 
BRANCH  92  95
ATOM     95  S   UNL A   1      45.702  24.598  37.508  1.00  0.00     0.127 S 
ATOM     96  O   UNL A   1      44.940  23.575  36.794  1.00  0.00    -0.237 OA
ATOM     97  O   UNL A   1      47.112  24.269  37.725  1.00  0.00    -0.237 OA
ATOM     98  O   UNL A   1      45.039  25.183  38.666  1.00  0.00    -0.744 OA
ENDBRANCH  92  95
ENDBRANCH  65  88
ENDBRANCH  39  40
ENDBRANCH  32  34
ENDBRANCH  31  32
ENDBRANCH  30  31
ENDBRANCH  29  30
ENDBRANCH  28  29
ENDBRANCH  27  28
ENDBRANCH   1  27
TORSDOF 23
ENDMDL
