MODEL 1
REMARK VINA RESULT:     -11.4      0.000      0.000
REMARK SMILES Cc1ccn2c([C@@H]3CCCC[C@@H]3C(=O)OCCOCCOCCOC(=O)c3ccc(-c4c5nc(c(-c6cccc(S(=O)(=O)[O-])c6F)c6ccc([nH]6)c(-c6cccc(S(=O)(=O)[O-])c6F)c6nc(c(-c7cccc(S(=O)(=O)[O-])c7F)c7ccc4[nH]7)C=C6)C=C5)cc3)nnc2c1
REMARK SMILES IDX 20 1 19 2 18 3 17 4 16 5 15 6 13 7 14 8 12 9 7 10 8 11 9 12
REMARK SMILES IDX 11 13 10 14 6 15 1 16 2 17 3 18 93 19 4 20 92 21 5 22 91 23
REMARK SMILES IDX 90 24 21 25 22 26 23 27 24 28 25 29 26 30 27 31 28 32 89 33
REMARK SMILES IDX 29 34 88 35 30 36 31 37 32 38 82 39 33 40 87 41 81 42 83 43
REMARK SMILES IDX 34 44 86 45 80 46 79 47 35 49 67 50 47 51 66 52 48 53 51 54
REMARK SMILES IDX 65 55 84 56 49 57 50 58 64 60 85 61 52 62 36 63 37 64 45 65
REMARK SMILES IDX 38 66 40 67 46 68 39 69 41 70 42 71 43 72 44 73 68 74 69 75
REMARK SMILES IDX 77 76 70 77 72 78 78 79 71 80 73 81 74 82 75 83 76 84 53 85
REMARK SMILES IDX 54 86 62 87 55 88 57 89 63 90 56 91 58 92 59 93 60 94 61 95
REMARK H PARENT 83 48 51 59
REMARK Flexibility Score: inf
ROOT
ATOM      1  C   UNL A   1      41.278  21.155  26.759  1.00  0.00     0.188 C 
ENDROOT
BRANCH   1   2
ATOM      2  C   UNL A   1      39.925  20.657  26.277  1.00  0.00     0.188 C 
BRANCH   2   3
ATOM      3  O   UNL A   1      38.998  21.556  25.690  1.00  0.00    -0.376 OA
BRANCH   3   4
ATOM      4  C   UNL A   1      38.917  22.836  26.335  1.00  0.00     0.202 C 
BRANCH   4   5
ATOM      5  C   UNL A   1      37.694  23.758  26.082  1.00  0.00     0.261 C 
BRANCH   5   6
ATOM      6  O   UNL A   1      37.010  23.557  24.812  1.00  0.00    -0.463 OA
BRANCH   6   7
ATOM      7  C   UNL A   1      35.662  23.522  24.921  1.00  0.00     0.309 C 
ATOM      8  O   UNL A   1      35.106  24.264  25.722  1.00  0.00    -0.252 OA
BRANCH   7   9
ATOM      9  C   UNL A   1      34.885  22.514  24.055  1.00  0.00     0.110 C 
ATOM     10  C   UNL A   1      33.427  22.712  23.602  1.00  0.00     0.072 C 
ATOM     11  C   UNL A   1      32.353  22.325  24.621  1.00  0.00     0.012 C 
ATOM     12  C   UNL A   1      32.542  20.896  25.129  1.00  0.00     0.001 C 
ATOM     13  C   UNL A   1      35.000  21.089  24.670  1.00  0.00     0.016 C 
ATOM     14  C   UNL A   1      33.933  20.696  25.680  1.00  0.00     0.001 C 
BRANCH  10  15
ATOM     15  C   UNL A   1      33.176  23.969  22.832  1.00  0.00     0.141 A 
ATOM     16  C   UNL A   1      33.080  29.332  24.240  1.00  0.00     0.044 C 
ATOM     17  C   UNL A   1      32.893  27.908  23.823  1.00  0.00    -0.046 A 
ATOM     18  C   UNL A   1      32.368  26.979  24.821  1.00  0.00     0.022 A 
ATOM     19  C   UNL A   1      33.216  27.472  22.587  1.00  0.00     0.053 A 
ATOM     20  C   UNL A   1      32.350  25.664  24.546  1.00  0.00     0.095 A 
ATOM     21  C   UNL A   1      33.161  26.085  22.290  1.00  0.00     0.161 A 
ATOM     22  N   UNL A   1      32.830  25.215  23.319  1.00  0.00    -0.286 N 
ATOM     23  N   UNL A   1      33.413  25.405  21.198  1.00  0.00    -0.130 NA
ATOM     24  N   UNL A   1      33.411  24.078  21.536  1.00  0.00    -0.134 NA
ENDBRANCH  10  15
ENDBRANCH   7   9
ENDBRANCH   6   7
ENDBRANCH   5   6
ENDBRANCH   4   5
ENDBRANCH   3   4
ENDBRANCH   2   3
ENDBRANCH   1   2
BRANCH   1  25
ATOM     25  O   UNL A   1      42.227  20.144  27.039  1.00  0.00    -0.376 OA
BRANCH  25  26
ATOM     26  C   UNL A   1      42.173  19.027  26.143  1.00  0.00     0.202 C 
BRANCH  26  27
ATOM     27  C   UNL A   1      43.538  18.525  25.632  1.00  0.00     0.261 C 
BRANCH  27  28
ATOM     28  O   UNL A   1      43.892  19.190  24.394  1.00  0.00    -0.460 OA
BRANCH  28  29
ATOM     29  C   UNL A   1      45.052  19.904  24.392  1.00  0.00     0.338 C 
ATOM     30  O   UNL A   1      46.075  19.593  23.809  1.00  0.00    -0.246 OA
BRANCH  29  31
ATOM     31  C   UNL A   1      44.798  21.266  24.950  1.00  0.00     0.060 A 
ATOM     32  C   UNL A   1      43.871  22.160  24.403  1.00  0.00     0.016 A 
ATOM     33  C   UNL A   1      45.605  21.687  26.014  1.00  0.00     0.016 A 
ATOM     34  C   UNL A   1      43.777  23.479  24.895  1.00  0.00     0.010 A 
ATOM     35  C   UNL A   1      45.526  23.006  26.479  1.00  0.00     0.010 A 
ATOM     36  C   UNL A   1      44.633  23.933  25.909  1.00  0.00    -0.014 A 
BRANCH  36  37
ATOM     37  C   UNL A   1      44.438  25.227  26.612  1.00  0.00     0.031 A 
ATOM     38  C   UNL A   1      45.539  26.147  26.317  1.00  0.00     0.074 A 
ATOM     39  C   UNL A   1      43.521  25.722  27.484  1.00  0.00     0.049 A 
ATOM     40  N   UNL A   1      46.587  26.220  27.071  1.00  0.00    -0.248 NA
ATOM     41  C   UNL A   1      45.584  26.951  25.098  1.00  0.00     0.031 C 
ATOM     42  C   UNL A   1      42.463  25.029  28.196  1.00  0.00     0.029 A 
ATOM     43  N   UNL A   1      43.285  27.024  27.885  1.00  0.00    -0.354 N 
ATOM     44  C   UNL A   1      47.259  27.321  26.604  1.00  0.00     0.074 A 
ATOM     45  C   UNL A   1      46.749  27.586  25.276  1.00  0.00     0.031 C 
ATOM     46  C   UNL A   1      41.511  25.874  28.636  1.00  0.00     0.029 A 
ATOM     47  C   UNL A   1      42.023  27.220  28.453  1.00  0.00     0.049 A 
ATOM     48  H   UNL A   1      43.945  27.746  27.781  1.00  0.00     0.167 HD
ATOM     49  C   UNL A   1      47.912  28.130  27.475  1.00  0.00     0.034 A 
ATOM     50  C   UNL A   1      41.574  28.224  29.238  1.00  0.00     0.034 A 
ATOM     51  C   UNL A   1      47.954  27.611  28.820  1.00  0.00     0.049 A 
ATOM     52  C   UNL A   1      42.682  28.553  30.156  1.00  0.00     0.074 A 
ATOM     53  C   UNL A   1      48.566  26.567  29.477  1.00  0.00     0.029 A 
ATOM     54  N   UNL A   1      46.930  28.049  29.622  1.00  0.00    -0.354 N 
ATOM     55  N   UNL A   1      43.142  27.753  31.082  1.00  0.00    -0.248 NA
ATOM     56  C   UNL A   1      43.481  29.740  29.891  1.00  0.00     0.031 C 
ATOM     57  C   UNL A   1      47.794  26.311  30.650  1.00  0.00     0.029 A 
ATOM     58  C   UNL A   1      46.720  27.197  30.677  1.00  0.00     0.049 A 
ATOM     59  H   UNL A   1      46.412  28.870  29.460  1.00  0.00     0.167 HD
ATOM     60  C   UNL A   1      44.477  28.104  31.176  1.00  0.00     0.074 A 
ATOM     61  C   UNL A   1      44.577  29.427  30.581  1.00  0.00     0.031 C 
ATOM     62  C   UNL A   1      45.449  27.170  31.382  1.00  0.00     0.034 A 
BRANCH  49  63
ATOM     63  C   UNL A   1      48.116  29.580  27.204  1.00  0.00     0.023 A 
ATOM     64  C   UNL A   1      49.418  30.100  27.278  1.00  0.00     0.012 A 
ATOM     65  C   UNL A   1      47.044  30.485  27.070  1.00  0.00     0.148 A 
ATOM     66  C   UNL A   1      49.645  31.473  27.161  1.00  0.00     0.002 A 
ATOM     67  C   UNL A   1      47.281  31.831  26.852  1.00  0.00     0.091 A 
ATOM     68  F   UNL A   1      45.789  30.056  27.271  1.00  0.00    -0.205 F 
ATOM     69  C   UNL A   1      48.581  32.336  26.912  1.00  0.00     0.022 A 
BRANCH  67  70
ATOM     70  S   UNL A   1      45.934  32.932  26.416  1.00  0.00     0.127 S 
ATOM     71  O   UNL A   1      46.651  34.050  25.813  1.00  0.00    -0.237 OA
ATOM     72  O   UNL A   1      45.158  32.113  25.485  1.00  0.00    -0.237 OA
ATOM     73  O   UNL A   1      45.257  33.199  27.679  1.00  0.00    -0.744 OA
ENDBRANCH  67  70
ENDBRANCH  49  63
BRANCH  50  74
ATOM     74  C   UNL A   1      40.219  28.823  29.314  1.00  0.00     0.023 A 
ATOM     75  C   UNL A   1      39.430  28.909  28.149  1.00  0.00     0.012 A 
ATOM     76  C   UNL A   1      39.593  29.079  30.557  1.00  0.00     0.148 A 
ATOM     77  C   UNL A   1      38.054  29.156  28.219  1.00  0.00     0.002 A 
ATOM     78  C   UNL A   1      38.220  29.323  30.621  1.00  0.00     0.091 A 
ATOM     79  F   UNL A   1      40.325  29.007  31.679  1.00  0.00    -0.205 F 
ATOM     80  C   UNL A   1      37.445  29.344  29.455  1.00  0.00     0.022 A 
BRANCH  78  81
ATOM     81  S   UNL A   1      37.373  29.562  32.192  1.00  0.00     0.127 S 
ATOM     82  O   UNL A   1      36.007  29.884  31.775  1.00  0.00    -0.237 OA
ATOM     83  O   UNL A   1      37.521  28.254  32.823  1.00  0.00    -0.237 OA
ATOM     84  O   UNL A   1      38.071  30.668  32.837  1.00  0.00    -0.744 OA
ENDBRANCH  78  81
ENDBRANCH  50  74
BRANCH  62  85
ATOM     85  C   UNL A   1      45.110  25.942  32.176  1.00  0.00     0.023 A 
ATOM     86  C   UNL A   1      44.724  24.733  31.572  1.00  0.00     0.012 A 
ATOM     87  C   UNL A   1      45.312  25.978  33.568  1.00  0.00     0.148 A 
ATOM     88  C   UNL A   1      44.536  23.580  32.341  1.00  0.00     0.002 A 
ATOM     89  C   UNL A   1      45.161  24.822  34.326  1.00  0.00     0.091 A 
ATOM     90  F   UNL A   1      45.677  27.143  34.126  1.00  0.00    -0.205 F 
ATOM     91  C   UNL A   1      44.767  23.621  33.716  1.00  0.00     0.022 A 
BRANCH  89  92
ATOM     92  S   UNL A   1      45.541  24.772  36.081  1.00  0.00     0.127 S 
ATOM     93  O   UNL A   1      44.318  25.308  36.676  1.00  0.00    -0.237 OA
ATOM     94  O   UNL A   1      45.753  23.342  36.309  1.00  0.00    -0.237 OA
ATOM     95  O   UNL A   1      46.732  25.591  36.263  1.00  0.00    -0.744 OA
ENDBRANCH  89  92
ENDBRANCH  62  85
ENDBRANCH  36  37
ENDBRANCH  29  31
ENDBRANCH  28  29
ENDBRANCH  27  28
ENDBRANCH  26  27
ENDBRANCH  25  26
ENDBRANCH   1  25
TORSDOF 21
ENDMDL
MODEL 2
REMARK VINA RESULT:     -11.2      2.908      9.487
REMARK SMILES Cc1ccn2c([C@@H]3CCCC[C@@H]3C(=O)OCCOCCOCCOC(=O)c3ccc(-c4c5nc(c(-c6cccc(S(=O)(=O)[O-])c6F)c6ccc([nH]6)c(-c6cccc(S(=O)(=O)[O-])c6F)c6nc(c(-c7cccc(S(=O)(=O)[O-])c7F)c7ccc4[nH]7)C=C6)C=C5)cc3)nnc2c1
REMARK SMILES IDX 20 1 19 2 18 3 17 4 16 5 15 6 13 7 14 8 12 9 7 10 8 11 9 12
REMARK SMILES IDX 11 13 10 14 6 15 1 16 2 17 3 18 93 19 4 20 92 21 5 22 91 23
REMARK SMILES IDX 90 24 21 25 22 26 23 27 24 28 25 29 26 30 27 31 28 32 89 33
REMARK SMILES IDX 29 34 88 35 30 36 31 37 32 38 82 39 33 40 87 41 81 42 83 43
REMARK SMILES IDX 34 44 86 45 80 46 79 47 35 49 67 50 47 51 66 52 48 53 51 54
REMARK SMILES IDX 65 55 84 56 49 57 50 58 64 60 85 61 52 62 36 63 37 64 45 65
REMARK SMILES IDX 38 66 40 67 46 68 39 69 41 70 42 71 43 72 44 73 68 74 69 75
REMARK SMILES IDX 77 76 70 77 72 78 78 79 71 80 73 81 74 82 75 83 76 84 53 85
REMARK SMILES IDX 54 86 62 87 55 88 57 89 63 90 56 91 58 92 59 93 60 94 61 95
REMARK H PARENT 83 48 51 59
REMARK Flexibility Score: inf
ROOT
ATOM      1  C   UNL A   1      32.100  30.013  25.981  1.00  0.00     0.188 C 
ENDROOT
BRANCH   1   2
ATOM      2  C   UNL A   1      33.034  28.945  25.435  1.00  0.00     0.188 C 
BRANCH   2   3
ATOM      3  O   UNL A   1      32.561  27.991  24.497  1.00  0.00    -0.376 OA
BRANCH   3   4
ATOM      4  C   UNL A   1      32.890  26.630  24.815  1.00  0.00     0.202 C 
BRANCH   4   5
ATOM      5  C   UNL A   1      33.659  25.756  23.787  1.00  0.00     0.261 C 
BRANCH   5   6
ATOM      6  O   UNL A   1      34.073  24.444  24.265  1.00  0.00    -0.463 OA
BRANCH   6   7
ATOM      7  C   UNL A   1      34.349  23.567  23.273  1.00  0.00     0.309 C 
ATOM      8  O   UNL A   1      33.739  23.648  22.214  1.00  0.00    -0.252 OA
BRANCH   7   9
ATOM      9  C   UNL A   1      35.400  22.473  23.537  1.00  0.00     0.110 C 
ATOM     10  C   UNL A   1      35.294  21.432  24.667  1.00  0.00     0.072 C 
ATOM     11  C   UNL A   1      35.758  21.899  26.049  1.00  0.00     0.012 C 
ATOM     12  C   UNL A   1      37.175  22.469  26.009  1.00  0.00     0.001 C 
ATOM     13  C   UNL A   1      36.819  23.109  23.610  1.00  0.00     0.016 C 
ATOM     14  C   UNL A   1      37.287  23.570  24.982  1.00  0.00     0.001 C 
BRANCH  10  15
ATOM     15  C   UNL A   1      34.050  20.602  24.638  1.00  0.00     0.141 A 
ATOM     16  C   UNL A   1      33.036  15.241  25.631  1.00  0.00     0.044 C 
ATOM     17  C   UNL A   1      33.256  16.643  25.157  1.00  0.00    -0.046 A 
ATOM     18  C   UNL A   1      34.525  16.938  24.497  1.00  0.00     0.022 A 
ATOM     19  C   UNL A   1      32.341  17.618  25.346  1.00  0.00     0.053 A 
ATOM     20  C   UNL A   1      34.835  18.215  24.215  1.00  0.00     0.095 A 
ATOM     21  C   UNL A   1      32.660  18.960  25.014  1.00  0.00     0.161 A 
ATOM     22  N   UNL A   1      33.942  19.227  24.556  1.00  0.00    -0.286 N 
ATOM     23  N   UNL A   1      31.976  20.076  25.092  1.00  0.00    -0.130 NA
ATOM     24  N   UNL A   1      32.845  21.104  24.845  1.00  0.00    -0.134 NA
ENDBRANCH  10  15
ENDBRANCH   7   9
ENDBRANCH   6   7
ENDBRANCH   5   6
ENDBRANCH   4   5
ENDBRANCH   3   4
ENDBRANCH   2   3
ENDBRANCH   1   2
BRANCH   1  25
ATOM     25  O   UNL A   1      32.564  30.685  27.136  1.00  0.00    -0.376 OA
BRANCH  25  26
ATOM     26  C   UNL A   1      32.362  32.102  27.111  1.00  0.00     0.202 C 
BRANCH  26  27
ATOM     27  C   UNL A   1      33.348  32.925  27.963  1.00  0.00     0.261 C 
BRANCH  27  28
ATOM     28  O   UNL A   1      34.565  32.174  28.195  1.00  0.00    -0.460 OA
BRANCH  28  29
ATOM     29  C   UNL A   1      35.033  32.147  29.474  1.00  0.00     0.338 C 
ATOM     30  O   UNL A   1      34.407  32.475  30.466  1.00  0.00    -0.246 OA
BRANCH  29  31
ATOM     31  C   UNL A   1      36.311  31.376  29.519  1.00  0.00     0.060 A 
ATOM     32  C   UNL A   1      37.526  31.925  29.942  1.00  0.00     0.016 A 
ATOM     33  C   UNL A   1      36.292  30.068  29.019  1.00  0.00     0.016 A 
ATOM     34  C   UNL A   1      38.721  31.183  29.832  1.00  0.00     0.010 A 
ATOM     35  C   UNL A   1      37.486  29.347  28.888  1.00  0.00     0.010 A 
ATOM     36  C   UNL A   1      38.724  29.902  29.263  1.00  0.00    -0.014 A 
BRANCH  36  37
ATOM     37  C   UNL A   1      39.899  28.995  29.320  1.00  0.00     0.031 A 
ATOM     38  C   UNL A   1      40.294  28.747  30.709  1.00  0.00     0.074 A 
ATOM     39  C   UNL A   1      40.702  28.397  28.400  1.00  0.00     0.049 A 
ATOM     40  N   UNL A   1      41.183  29.472  31.304  1.00  0.00    -0.248 NA
ATOM     41  C   UNL A   1      39.632  27.750  31.546  1.00  0.00     0.031 C 
ATOM     42  C   UNL A   1      40.780  28.619  26.968  1.00  0.00     0.029 A 
ATOM     43  N   UNL A   1      41.613  27.368  28.548  1.00  0.00    -0.354 N 
ATOM     44  C   UNL A   1      41.431  28.803  32.476  1.00  0.00     0.074 A 
ATOM     45  C   UNL A   1      40.313  27.910  32.688  1.00  0.00     0.031 C 
ATOM     46  C   UNL A   1      41.370  27.590  26.328  1.00  0.00     0.029 A 
ATOM     47  C   UNL A   1      41.946  26.733  27.348  1.00  0.00     0.049 A 
ATOM     48  H   UNL A   1      41.993  27.107  29.417  1.00  0.00     0.167 HD
ATOM     49  C   UNL A   1      42.689  28.777  32.981  1.00  0.00     0.034 A 
ATOM     50  C   UNL A   1      43.004  25.948  27.050  1.00  0.00     0.034 A 
ATOM     51  C   UNL A   1      43.610  29.633  32.276  1.00  0.00     0.049 A 
ATOM     52  C   UNL A   1      44.167  26.553  27.728  1.00  0.00     0.074 A 
ATOM     53  C   UNL A   1      43.806  30.987  32.116  1.00  0.00     0.029 A 
ATOM     54  N   UNL A   1      44.305  29.003  31.273  1.00  0.00    -0.354 N 
ATOM     55  N   UNL A   1      44.678  27.719  27.429  1.00  0.00    -0.248 NA
ATOM     56  C   UNL A   1      44.654  25.946  28.957  1.00  0.00     0.031 C 
ATOM     57  C   UNL A   1      44.543  31.155  30.905  1.00  0.00     0.029 A 
ATOM     58  C   UNL A   1      44.771  29.900  30.346  1.00  0.00     0.049 A 
ATOM     59  H   UNL A   1      44.451  28.030  31.226  1.00  0.00     0.167 HD
ATOM     60  C   UNL A   1      45.187  28.168  28.635  1.00  0.00     0.074 A 
ATOM     61  C   UNL A   1      45.316  26.983  29.469  1.00  0.00     0.031 C 
ATOM     62  C   UNL A   1      45.116  29.480  28.998  1.00  0.00     0.034 A 
BRANCH  49  63
ATOM     63  C   UNL A   1      43.178  27.647  33.821  1.00  0.00     0.023 A 
ATOM     64  C   UNL A   1      43.734  26.528  33.183  1.00  0.00     0.012 A 
ATOM     65  C   UNL A   1      42.928  27.569  35.206  1.00  0.00     0.148 A 
ATOM     66  C   UNL A   1      44.086  25.391  33.916  1.00  0.00     0.002 A 
ATOM     67  C   UNL A   1      43.370  26.485  35.942  1.00  0.00     0.091 A 
ATOM     68  F   UNL A   1      42.154  28.497  35.791  1.00  0.00    -0.205 F 
ATOM     69  C   UNL A   1      43.938  25.383  35.300  1.00  0.00     0.022 A 
BRANCH  67  70
ATOM     70  S   UNL A   1      43.292  26.509  37.734  1.00  0.00     0.127 S 
ATOM     71  O   UNL A   1      41.852  26.468  37.966  1.00  0.00    -0.237 OA
ATOM     72  O   UNL A   1      44.016  25.288  38.089  1.00  0.00    -0.237 OA
ATOM     73  O   UNL A   1      43.978  27.738  38.113  1.00  0.00    -0.744 OA
ENDBRANCH  67  70
ENDBRANCH  49  63
BRANCH  50  74
ATOM     74  C   UNL A   1      43.085  24.790  26.126  1.00  0.00     0.023 A 
ATOM     75  C   UNL A   1      44.033  24.797  25.083  1.00  0.00     0.012 A 
ATOM     76  C   UNL A   1      42.421  23.572  26.408  1.00  0.00     0.148 A 
ATOM     77  C   UNL A   1      44.372  23.622  24.400  1.00  0.00     0.002 A 
ATOM     78  C   UNL A   1      42.764  22.404  25.726  1.00  0.00     0.091 A 
ATOM     79  F   UNL A   1      41.511  23.543  27.394  1.00  0.00    -0.205 F 
ATOM     80  C   UNL A   1      43.752  22.423  24.734  1.00  0.00     0.022 A 
BRANCH  78  81
ATOM     81  S   UNL A   1      42.005  20.820  26.120  1.00  0.00     0.127 S 
ATOM     82  O   UNL A   1      42.326  20.653  27.539  1.00  0.00    -0.237 OA
ATOM     83  O   UNL A   1      40.595  21.077  25.844  1.00  0.00    -0.237 OA
ATOM     84  O   UNL A   1      42.664  19.854  25.247  1.00  0.00    -0.744 OA
ENDBRANCH  78  81
ENDBRANCH  50  74
BRANCH  62  85
ATOM     85  C   UNL A   1      45.155  30.526  27.922  1.00  0.00     0.023 A 
ATOM     86  C   UNL A   1      44.007  30.935  27.221  1.00  0.00     0.012 A 
ATOM     87  C   UNL A   1      46.368  31.206  27.704  1.00  0.00     0.148 A 
ATOM     88  C   UNL A   1      44.066  31.998  26.314  1.00  0.00     0.002 A 
ATOM     89  C   UNL A   1      46.416  32.286  26.830  1.00  0.00     0.091 A 
ATOM     90  F   UNL A   1      47.452  30.798  28.381  1.00  0.00    -0.205 F 
ATOM     91  C   UNL A   1      45.266  32.682  26.128  1.00  0.00     0.022 A 
BRANCH  89  92
ATOM     92  S   UNL A   1      47.897  33.280  26.618  1.00  0.00     0.127 S 
ATOM     93  O   UNL A   1      47.509  34.182  25.535  1.00  0.00    -0.237 OA
ATOM     94  O   UNL A   1      48.028  33.921  27.928  1.00  0.00    -0.237 OA
ATOM     95  O   UNL A   1      48.970  32.348  26.297  1.00  0.00    -0.744 OA
ENDBRANCH  89  92
ENDBRANCH  62  85
ENDBRANCH  36  37
ENDBRANCH  29  31
ENDBRANCH  28  29
ENDBRANCH  27  28
ENDBRANCH  26  27
ENDBRANCH  25  26
ENDBRANCH   1  25
TORSDOF 21
ENDMDL
MODEL 3
REMARK VINA RESULT:     -11.1      3.113      7.390
REMARK SMILES Cc1ccn2c([C@@H]3CCCC[C@@H]3C(=O)OCCOCCOCCOC(=O)c3ccc(-c4c5nc(c(-c6cccc(S(=O)(=O)[O-])c6F)c6ccc([nH]6)c(-c6cccc(S(=O)(=O)[O-])c6F)c6nc(c(-c7cccc(S(=O)(=O)[O-])c7F)c7ccc4[nH]7)C=C6)C=C5)cc3)nnc2c1
REMARK SMILES IDX 20 1 19 2 18 3 17 4 16 5 15 6 13 7 14 8 12 9 7 10 8 11 9 12
REMARK SMILES IDX 11 13 10 14 6 15 1 16 2 17 3 18 93 19 4 20 92 21 5 22 91 23
REMARK SMILES IDX 90 24 21 25 22 26 23 27 24 28 25 29 26 30 27 31 28 32 89 33
REMARK SMILES IDX 29 34 88 35 30 36 31 37 32 38 82 39 33 40 87 41 81 42 83 43
REMARK SMILES IDX 34 44 86 45 80 46 79 47 35 49 67 50 47 51 66 52 48 53 51 54
REMARK SMILES IDX 65 55 84 56 49 57 50 58 64 60 85 61 52 62 36 63 37 64 45 65
REMARK SMILES IDX 38 66 40 67 46 68 39 69 41 70 42 71 43 72 44 73 68 74 69 75
REMARK SMILES IDX 77 76 70 77 72 78 78 79 71 80 73 81 74 82 75 83 76 84 53 85
REMARK SMILES IDX 54 86 62 87 55 88 57 89 63 90 56 91 58 92 59 93 60 94 61 95
REMARK H PARENT 83 48 51 59
REMARK Flexibility Score: inf
ROOT
ATOM      1  C   UNL A   1      32.999  20.597  24.329  1.00  0.00     0.188 C 
ENDROOT
BRANCH   1   2
ATOM      2  C   UNL A   1      32.236  21.118  25.536  1.00  0.00     0.188 C 
BRANCH   2   3
ATOM      3  O   UNL A   1      31.452  22.296  25.434  1.00  0.00    -0.376 OA
BRANCH   3   4
ATOM      4  C   UNL A   1      31.915  23.392  26.237  1.00  0.00     0.202 C 
BRANCH   4   5
ATOM      5  C   UNL A   1      31.054  24.678  26.368  1.00  0.00     0.261 C 
BRANCH   5   6
ATOM      6  O   UNL A   1      30.198  24.977  25.229  1.00  0.00    -0.463 OA
BRANCH   6   7
ATOM      7  C   UNL A   1      30.196  26.284  24.880  1.00  0.00     0.309 C 
ATOM      8  O   UNL A   1      30.385  27.135  25.740  1.00  0.00    -0.252 OA
BRANCH   7   9
ATOM      9  C   UNL A   1      29.916  26.646  23.410  1.00  0.00     0.110 C 
ATOM     10  C   UNL A   1      30.969  27.230  22.451  1.00  0.00     0.072 C 
ATOM     11  C   UNL A   1      31.197  28.740  22.548  1.00  0.00     0.012 C 
ATOM     12  C   UNL A   1      29.890  29.521  22.409  1.00  0.00     0.001 C 
ATOM     13  C   UNL A   1      28.646  27.542  23.319  1.00  0.00     0.016 C 
ATOM     14  C   UNL A   1      28.866  29.045  23.410  1.00  0.00     0.001 C 
BRANCH  10  15
ATOM     15  C   UNL A   1      32.197  26.391  22.286  1.00  0.00     0.141 A 
ATOM     16  C   UNL A   1      35.678  24.002  25.881  1.00  0.00     0.044 C 
ATOM     17  C   UNL A   1      34.907  24.773  24.856  1.00  0.00    -0.046 A 
ATOM     18  C   UNL A   1      34.381  26.077  25.253  1.00  0.00     0.022 A 
ATOM     19  C   UNL A   1      34.674  24.289  23.618  1.00  0.00     0.053 A 
ATOM     20  C   UNL A   1      33.539  26.721  24.427  1.00  0.00     0.095 A 
ATOM     21  C   UNL A   1      33.812  24.992  22.736  1.00  0.00     0.161 A 
ATOM     22  N   UNL A   1      33.187  26.135  23.214  1.00  0.00    -0.286 N 
ATOM     23  N   UNL A   1      33.422  24.754  21.507  1.00  0.00    -0.130 NA
ATOM     24  N   UNL A   1      32.417  25.639  21.221  1.00  0.00    -0.134 NA
ENDBRANCH  10  15
ENDBRANCH   7   9
ENDBRANCH   6   7
ENDBRANCH   5   6
ENDBRANCH   4   5
ENDBRANCH   3   4
ENDBRANCH   2   3
ENDBRANCH   1   2
BRANCH   1  25
ATOM     25  O   UNL A   1      34.320  21.087  24.196  1.00  0.00    -0.376 OA
BRANCH  25  26
ATOM     26  C   UNL A   1      35.190  20.729  25.276  1.00  0.00     0.202 C 
BRANCH  26  27
ATOM     27  C   UNL A   1      36.255  19.667  24.941  1.00  0.00     0.261 C 
BRANCH  27  28
ATOM     28  O   UNL A   1      37.522  20.300  24.634  1.00  0.00    -0.460 OA
BRANCH  28  29
ATOM     29  C   UNL A   1      38.607  19.875  25.340  1.00  0.00     0.338 C 
ATOM     30  O   UNL A   1      39.153  18.793  25.219  1.00  0.00    -0.246 OA
BRANCH  29  31
ATOM     31  C   UNL A   1      39.214  21.033  26.063  1.00  0.00     0.060 A 
ATOM     32  C   UNL A   1      38.646  22.311  26.080  1.00  0.00     0.016 A 
ATOM     33  C   UNL A   1      40.461  20.833  26.666  1.00  0.00     0.016 A 
ATOM     34  C   UNL A   1      39.339  23.391  26.667  1.00  0.00     0.010 A 
ATOM     35  C   UNL A   1      41.156  21.915  27.222  1.00  0.00     0.010 A 
ATOM     36  C   UNL A   1      40.622  23.217  27.206  1.00  0.00    -0.014 A 
BRANCH  36  37
ATOM     37  C   UNL A   1      41.302  24.253  28.023  1.00  0.00     0.031 A 
ATOM     38  C   UNL A   1      40.474  25.458  28.126  1.00  0.00     0.074 A 
ATOM     39  C   UNL A   1      42.509  24.356  28.642  1.00  0.00     0.049 A 
ATOM     40  N   UNL A   1      40.596  26.440  27.294  1.00  0.00    -0.248 NA
ATOM     41  C   UNL A   1      39.384  25.581  29.090  1.00  0.00     0.031 C 
ATOM     42  C   UNL A   1      43.670  23.492  28.538  1.00  0.00     0.029 A 
ATOM     43  N   UNL A   1      42.949  25.260  29.592  1.00  0.00    -0.354 N 
ATOM     44  C   UNL A   1      39.832  27.439  27.843  1.00  0.00     0.074 A 
ATOM     45  C   UNL A   1      38.938  26.806  28.788  1.00  0.00     0.031 C 
ATOM     46  C   UNL A   1      44.514  23.652  29.575  1.00  0.00     0.029 A 
ATOM     47  C   UNL A   1      44.072  24.828  30.302  1.00  0.00     0.049 A 
ATOM     48  H   UNL A   1      42.512  26.126  29.752  1.00  0.00     0.167 HD
ATOM     49  C   UNL A   1      40.240  28.728  27.742  1.00  0.00     0.034 A 
ATOM     50  C   UNL A   1      44.957  25.538  31.036  1.00  0.00     0.034 A 
ATOM     51  C   UNL A   1      41.388  28.903  26.889  1.00  0.00     0.049 A 
ATOM     52  C   UNL A   1      45.184  26.796  30.299  1.00  0.00     0.074 A 
ATOM     53  C   UNL A   1      41.668  28.810  25.544  1.00  0.00     0.029 A 
ATOM     54  N   UNL A   1      42.589  28.874  27.554  1.00  0.00    -0.354 N 
ATOM     55  N   UNL A   1      45.766  26.878  29.131  1.00  0.00    -0.248 NA
ATOM     56  C   UNL A   1      44.530  28.009  30.766  1.00  0.00     0.031 C 
ATOM     57  C   UNL A   1      43.074  28.599  25.430  1.00  0.00     0.029 A 
ATOM     58  C   UNL A   1      43.623  28.555  26.709  1.00  0.00     0.049 A 
ATOM     59  H   UNL A   1      42.696  29.059  28.515  1.00  0.00     0.167 HD
ATOM     60  C   UNL A   1      45.168  27.981  28.549  1.00  0.00     0.074 A 
ATOM     61  C   UNL A   1      44.578  28.731  29.647  1.00  0.00     0.031 C 
ATOM     62  C   UNL A   1      44.873  28.016  27.218  1.00  0.00     0.034 A 
BRANCH  49  63
ATOM     63  C   UNL A   1      39.874  29.753  28.761  1.00  0.00     0.023 A 
ATOM     64  C   UNL A   1      40.717  29.927  29.870  1.00  0.00     0.012 A 
ATOM     65  C   UNL A   1      38.628  30.412  28.760  1.00  0.00     0.148 A 
ATOM     66  C   UNL A   1      40.352  30.779  30.916  1.00  0.00     0.002 A 
ATOM     67  C   UNL A   1      38.317  31.332  29.746  1.00  0.00     0.091 A 
ATOM     68  F   UNL A   1      37.694  30.057  27.865  1.00  0.00    -0.205 F 
ATOM     69  C   UNL A   1      39.170  31.509  30.837  1.00  0.00     0.022 A 
BRANCH  67  70
ATOM     70  S   UNL A   1      36.856  32.362  29.600  1.00  0.00     0.127 S 
ATOM     71  O   UNL A   1      35.838  31.518  30.217  1.00  0.00    -0.237 OA
ATOM     72  O   UNL A   1      37.237  33.545  30.371  1.00  0.00    -0.237 OA
ATOM     73  O   UNL A   1      36.722  32.603  28.169  1.00  0.00    -0.744 OA
ENDBRANCH  67  70
ENDBRANCH  49  63
BRANCH  50  74
ATOM     74  C   UNL A   1      45.694  25.142  32.261  1.00  0.00     0.023 A 
ATOM     75  C   UNL A   1      46.916  25.773  32.572  1.00  0.00     0.012 A 
ATOM     76  C   UNL A   1      45.093  24.337  33.258  1.00  0.00     0.148 A 
ATOM     77  C   UNL A   1      47.479  25.679  33.850  1.00  0.00     0.002 A 
ATOM     78  C   UNL A   1      45.658  24.248  34.531  1.00  0.00     0.091 A 
ATOM     79  F   UNL A   1      43.933  23.723  32.983  1.00  0.00    -0.205 F 
ATOM     80  C   UNL A   1      46.841  24.933  34.835  1.00  0.00     0.022 A 
BRANCH  78  81
ATOM     81  S   UNL A   1      44.874  23.308  35.851  1.00  0.00     0.127 S 
ATOM     82  O   UNL A   1      45.802  23.488  36.970  1.00  0.00    -0.237 OA
ATOM     83  O   UNL A   1      43.598  23.999  36.005  1.00  0.00    -0.237 OA
ATOM     84  O   UNL A   1      44.806  21.938  35.355  1.00  0.00    -0.744 OA
ENDBRANCH  78  81
ENDBRANCH  50  74
BRANCH  62  85
ATOM     85  C   UNL A   1      45.753  27.259  26.267  1.00  0.00     0.023 A 
ATOM     86  C   UNL A   1      46.976  27.769  25.797  1.00  0.00     0.012 A 
ATOM     87  C   UNL A   1      45.391  25.939  25.938  1.00  0.00     0.148 A 
ATOM     88  C   UNL A   1      47.821  26.981  25.010  1.00  0.00     0.002 A 
ATOM     89  C   UNL A   1      46.249  25.146  25.187  1.00  0.00     0.091 A 
ATOM     90  F   UNL A   1      44.217  25.473  26.394  1.00  0.00    -0.205 F 
ATOM     91  C   UNL A   1      47.465  25.666  24.715  1.00  0.00     0.022 A 
BRANCH  89  92
ATOM     92  S   UNL A   1      45.908  23.413  24.857  1.00  0.00     0.127 S 
ATOM     93  O   UNL A   1      44.560  23.467  24.293  1.00  0.00    -0.237 OA
ATOM     94  O   UNL A   1      46.957  23.070  23.896  1.00  0.00    -0.237 OA
ATOM     95  O   UNL A   1      46.019  22.725  26.137  1.00  0.00    -0.744 OA
ENDBRANCH  89  92
ENDBRANCH  62  85
ENDBRANCH  36  37
ENDBRANCH  29  31
ENDBRANCH  28  29
ENDBRANCH  27  28
ENDBRANCH  26  27
ENDBRANCH  25  26
ENDBRANCH   1  25
TORSDOF 21
ENDMDL
