MODEL 1
REMARK VINA RESULT:     -10.8      0.000      0.000
REMARK SMILES O=C(CCc1cn(-c2ccc(Br)cc2)nc1-c1ccccc1)OCCOCCOCCOC(=O)c1ccc(-c2c3nc(c(-c4cccc(S(=O)(=O)[O-])c4F)c4ccc([nH]4)c(-c4cccc(S(=O)(=O)[O-])c4F)c4nc(c(-c5cccc(S(=O)(=O)[O-])c5F)c5ccc2[nH]5)C=C4)C=C3)cc1
REMARK SMILES IDX 27 1 26 2 25 3 24 4 23 5 2 6 1 7 3 8 4 9 5 10 6 11 16 12
REMARK SMILES IDX 7 13 15 14 17 15 18 16 22 17 19 18 21 19 20 20 8 21 9 22
REMARK SMILES IDX 14 23 10 24 13 25 11 26 12 27 28 28 29 29 30 30 31 31 32 32
REMARK SMILES IDX 33 33 34 34 35 35 36 36 97 37 37 38 96 39 38 40 39 41 40 42
REMARK SMILES IDX 90 43 41 44 95 45 89 46 91 47 42 48 94 49 88 50 87 51 43 53
REMARK SMILES IDX 75 54 55 55 74 56 56 57 59 58 73 59 92 60 57 61 58 62 72 64
REMARK SMILES IDX 93 65 60 66 44 67 45 68 53 69 46 70 48 71 54 72 47 73 49 74
REMARK SMILES IDX 50 75 51 76 52 77 76 78 77 79 85 80 78 81 80 82 86 83 79 84
REMARK SMILES IDX 81 85 82 86 83 87 84 88 61 89 62 90 70 91 63 92 65 93 71 94
REMARK SMILES IDX 64 95 66 96 67 97 68 98 69 99
REMARK H PARENT 91 52 59 63
REMARK Flexibility Score: inf
ROOT
ATOM      1  C   UNL A   1      32.212  26.852  26.416  1.00  0.00     0.188 C 
ENDROOT
BRANCH   1   2
ATOM      2  O   UNL A   1      32.366  25.479  26.759  1.00  0.00    -0.376 OA
BRANCH   2   3
ATOM      3  C   UNL A   1      31.300  24.603  26.445  1.00  0.00     0.202 C 
BRANCH   3   4
ATOM      4  C   UNL A   1      31.499  23.160  26.871  1.00  0.00     0.261 C 
BRANCH   4   5
ATOM      5  O   UNL A   1      31.489  22.219  25.798  1.00  0.00    -0.463 OA
BRANCH   5   6
ATOM      6  C   UNL A   1      32.584  21.436  25.632  1.00  0.00     0.306 C 
ATOM      7  O   UNL A   1      33.332  21.208  26.580  1.00  0.00    -0.252 OA
BRANCH   6   8
ATOM      8  C   UNL A   1      32.941  21.012  24.219  1.00  0.00     0.127 C 
BRANCH   8   9
ATOM      9  C   UNL A   1      32.275  21.799  23.102  1.00  0.00     0.051 C 
BRANCH   9  10
ATOM     10  C   UNL A   1      32.474  23.284  23.121  1.00  0.00    -0.001 A 
ATOM     11  C   UNL A   1      31.499  24.189  22.746  1.00  0.00     0.119 A 
ATOM     12  C   UNL A   1      33.585  24.113  23.510  1.00  0.00     0.096 A 
ATOM     13  N   UNL A   1      31.988  25.444  22.985  1.00  0.00    -0.240 N 
ATOM     14  N   UNL A   1      33.289  25.413  23.311  1.00  0.00    -0.168 NA
BRANCH  12  15
ATOM     15  C   UNL A   1      34.890  23.769  24.096  1.00  0.00     0.002 A 
ATOM     16  C   UNL A   1      35.820  23.046  23.323  1.00  0.00     0.010 A 
ATOM     17  C   UNL A   1      35.245  24.119  25.403  1.00  0.00     0.010 A 
ATOM     18  C   UNL A   1      37.064  22.679  23.839  1.00  0.00     0.001 A 
ATOM     19  C   UNL A   1      36.492  23.749  25.922  1.00  0.00     0.001 A 
ATOM     20  C   UNL A   1      37.393  23.020  25.146  1.00  0.00     0.000 A 
ENDBRANCH  12  15
BRANCH  13  21
ATOM     21  C   UNL A   1      31.252  26.654  22.993  1.00  0.00     0.065 A 
ATOM     22  C   UNL A   1      29.891  26.641  23.331  1.00  0.00     0.029 A 
ATOM     23  C   UNL A   1      31.889  27.863  22.689  1.00  0.00     0.029 A 
ATOM     24  C   UNL A   1      29.165  27.833  23.346  1.00  0.00     0.018 A 
ATOM     25  C   UNL A   1      31.147  29.048  22.660  1.00  0.00     0.018 A 
ATOM     26  C   UNL A   1      29.791  29.026  22.989  1.00  0.00     0.018 A 
ATOM     27  Br  UNL A   1      28.786  30.627  22.947  1.00  0.00    -0.051 Br
ENDBRANCH  13  21
ENDBRANCH   9  10
ENDBRANCH   8   9
ENDBRANCH   6   8
ENDBRANCH   5   6
ENDBRANCH   4   5
ENDBRANCH   3   4
ENDBRANCH   2   3
ENDBRANCH   1   2
BRANCH   1  28
ATOM     28  C   UNL A   1      33.483  27.687  26.213  1.00  0.00     0.188 C 
BRANCH  28  29
ATOM     29  O   UNL A   1      33.684  28.884  26.959  1.00  0.00    -0.376 OA
BRANCH  29  30
ATOM     30  C   UNL A   1      32.767  29.965  26.836  1.00  0.00     0.202 C 
BRANCH  30  31
ATOM     31  C   UNL A   1      33.305  31.320  27.228  1.00  0.00     0.261 C 
BRANCH  31  32
ATOM     32  O   UNL A   1      34.168  31.187  28.347  1.00  0.00    -0.460 OA
BRANCH  32  33
ATOM     33  C   UNL A   1      35.316  31.887  28.272  1.00  0.00     0.338 C 
ATOM     34  O   UNL A   1      35.586  32.789  27.501  1.00  0.00    -0.246 OA
BRANCH  33  35
ATOM     35  C   UNL A   1      36.300  31.225  29.130  1.00  0.00     0.060 A 
ATOM     36  C   UNL A   1      37.478  31.928  29.363  1.00  0.00     0.016 A 
ATOM     37  C   UNL A   1      36.188  29.847  29.378  1.00  0.00     0.016 A 
ATOM     38  C   UNL A   1      38.611  31.199  29.625  1.00  0.00     0.010 A 
ATOM     39  C   UNL A   1      37.319  29.120  29.655  1.00  0.00     0.010 A 
ATOM     40  C   UNL A   1      38.527  29.799  29.680  1.00  0.00    -0.014 A 
BRANCH  40  41
ATOM     41  C   UNL A   1      39.764  29.075  29.848  1.00  0.00     0.031 A 
ATOM     42  C   UNL A   1      40.253  29.140  31.232  1.00  0.00     0.074 A 
ATOM     43  C   UNL A   1      40.398  28.433  28.852  1.00  0.00     0.049 A 
ATOM     44  N   UNL A   1      41.163  29.936  31.681  1.00  0.00    -0.248 NA
ATOM     45  C   UNL A   1      39.492  28.432  32.268  1.00  0.00     0.031 C 
ATOM     46  C   UNL A   1      39.890  28.078  27.527  1.00  0.00     0.029 A 
ATOM     47  N   UNL A   1      41.631  27.863  28.878  1.00  0.00    -0.354 N 
ATOM     48  C   UNL A   1      41.274  29.627  33.028  1.00  0.00     0.074 A 
ATOM     49  C   UNL A   1      40.081  28.898  33.370  1.00  0.00     0.031 C 
ATOM     50  C   UNL A   1      40.712  27.154  26.975  1.00  0.00     0.029 A 
ATOM     51  C   UNL A   1      41.865  26.970  27.841  1.00  0.00     0.049 A 
ATOM     52  H   UNL A   1      42.300  28.066  29.570  1.00  0.00     0.167 HD
ATOM     53  C   UNL A   1      42.475  29.733  33.654  1.00  0.00     0.034 A 
ATOM     54  C   UNL A   1      42.900  26.099  27.762  1.00  0.00     0.034 A 
ATOM     55  C   UNL A   1      43.400  30.524  32.874  1.00  0.00     0.049 A 
ATOM     56  C   UNL A   1      43.972  26.608  28.650  1.00  0.00     0.074 A 
ATOM     57  C   UNL A   1      43.407  31.809  32.367  1.00  0.00     0.029 A 
ATOM     58  N   UNL A   1      44.361  29.831  32.179  1.00  0.00    -0.354 N 
ATOM     59  N   UNL A   1      44.662  27.685  28.402  1.00  0.00    -0.248 NA
ATOM     60  C   UNL A   1      44.010  26.144  30.028  1.00  0.00     0.031 C 
ATOM     61  C   UNL A   1      44.071  31.710  31.109  1.00  0.00     0.029 A 
ATOM     62  C   UNL A   1      44.486  30.388  30.938  1.00  0.00     0.049 A 
ATOM     63  H   UNL A   1      44.873  29.061  32.519  1.00  0.00     0.167 HD
ATOM     64  C   UNL A   1      44.818  28.284  29.645  1.00  0.00     0.074 A 
ATOM     65  C   UNL A   1      44.517  27.233  30.613  1.00  0.00     0.031 C 
ATOM     66  C   UNL A   1      44.881  29.643  29.761  1.00  0.00     0.034 A 
BRANCH  53  67
ATOM     67  C   UNL A   1      42.968  28.784  34.724  1.00  0.00     0.023 A 
ATOM     68  C   UNL A   1      43.514  29.373  35.887  1.00  0.00     0.012 A 
ATOM     69  C   UNL A   1      43.196  27.400  34.543  1.00  0.00     0.148 A 
ATOM     70  C   UNL A   1      44.315  28.644  36.772  1.00  0.00     0.002 A 
ATOM     71  C   UNL A   1      43.923  26.662  35.467  1.00  0.00     0.091 A 
ATOM     72  F   UNL A   1      42.830  26.794  33.414  1.00  0.00    -0.205 F 
ATOM     73  C   UNL A   1      44.518  27.286  36.564  1.00  0.00     0.022 A 
BRANCH  71  74
ATOM     74  S   UNL A   1      44.173  24.892  35.270  1.00  0.00     0.127 S 
ATOM     75  O   UNL A   1      42.805  24.426  35.060  1.00  0.00    -0.237 OA
ATOM     76  O   UNL A   1      45.035  24.846  34.089  1.00  0.00    -0.237 OA
ATOM     77  O   UNL A   1      44.818  24.441  36.497  1.00  0.00    -0.744 OA
ENDBRANCH  71  74
ENDBRANCH  53  67
BRANCH  54  78
ATOM     78  C   UNL A   1      42.971  24.745  27.170  1.00  0.00     0.023 A 
ATOM     79  C   UNL A   1      41.814  23.940  27.150  1.00  0.00     0.012 A 
ATOM     80  C   UNL A   1      44.063  24.362  26.362  1.00  0.00     0.148 A 
ATOM     81  C   UNL A   1      41.726  22.821  26.315  1.00  0.00     0.002 A 
ATOM     82  C   UNL A   1      43.974  23.244  25.538  1.00  0.00     0.091 A 
ATOM     83  F   UNL A   1      45.149  25.145  26.328  1.00  0.00    -0.205 F 
ATOM     84  C   UNL A   1      42.802  22.479  25.500  1.00  0.00     0.022 A 
BRANCH  82  85
ATOM     85  S   UNL A   1      45.308  22.763  24.432  1.00  0.00     0.127 S 
ATOM     86  O   UNL A   1      44.577  22.141  23.328  1.00  0.00    -0.237 OA
ATOM     87  O   UNL A   1      45.916  24.053  24.114  1.00  0.00    -0.237 OA
ATOM     88  O   UNL A   1      46.142  21.841  25.192  1.00  0.00    -0.744 OA
ENDBRANCH  82  85
ENDBRANCH  54  78
BRANCH  66  89
ATOM     89  C   UNL A   1      45.146  30.453  28.519  1.00  0.00     0.023 A 
ATOM     90  C   UNL A   1      44.119  30.993  27.719  1.00  0.00     0.012 A 
ATOM     91  C   UNL A   1      46.478  30.804  28.243  1.00  0.00     0.148 A 
ATOM     92  C   UNL A   1      44.419  31.847  26.653  1.00  0.00     0.002 A 
ATOM     93  C   UNL A   1      46.769  31.695  27.219  1.00  0.00     0.091 A 
ATOM     94  F   UNL A   1      47.446  30.274  29.008  1.00  0.00    -0.205 F 
ATOM     95  C   UNL A   1      45.743  32.210  26.414  1.00  0.00     0.022 A 
BRANCH  93  96
ATOM     96  S   UNL A   1      48.439  32.295  26.961  1.00  0.00     0.127 S 
ATOM     97  O   UNL A   1      49.129  31.093  26.500  1.00  0.00    -0.237 OA
ATOM     98  O   UNL A   1      48.251  33.326  25.937  1.00  0.00    -0.237 OA
ATOM     99  O   UNL A   1      48.875  32.818  28.251  1.00  0.00    -0.744 OA
ENDBRANCH  93  96
ENDBRANCH  66  89
ENDBRANCH  40  41
ENDBRANCH  33  35
ENDBRANCH  32  33
ENDBRANCH  31  32
ENDBRANCH  30  31
ENDBRANCH  29  30
ENDBRANCH  28  29
ENDBRANCH   1  28
TORSDOF 24
ENDMDL
MODEL 2
REMARK VINA RESULT:     -10.2      4.248      6.020
REMARK SMILES O=C(CCc1cn(-c2ccc(Br)cc2)nc1-c1ccccc1)OCCOCCOCCOC(=O)c1ccc(-c2c3nc(c(-c4cccc(S(=O)(=O)[O-])c4F)c4ccc([nH]4)c(-c4cccc(S(=O)(=O)[O-])c4F)c4nc(c(-c5cccc(S(=O)(=O)[O-])c5F)c5ccc2[nH]5)C=C4)C=C3)cc1
REMARK SMILES IDX 27 1 26 2 25 3 24 4 23 5 2 6 1 7 3 8 4 9 5 10 6 11 16 12
REMARK SMILES IDX 7 13 15 14 17 15 18 16 22 17 19 18 21 19 20 20 8 21 9 22
REMARK SMILES IDX 14 23 10 24 13 25 11 26 12 27 28 28 29 29 30 30 31 31 32 32
REMARK SMILES IDX 33 33 34 34 35 35 36 36 97 37 37 38 96 39 38 40 39 41 40 42
REMARK SMILES IDX 90 43 41 44 95 45 89 46 91 47 42 48 94 49 88 50 87 51 43 53
REMARK SMILES IDX 75 54 55 55 74 56 56 57 59 58 73 59 92 60 57 61 58 62 72 64
REMARK SMILES IDX 93 65 60 66 44 67 45 68 53 69 46 70 48 71 54 72 47 73 49 74
REMARK SMILES IDX 50 75 51 76 52 77 76 78 77 79 85 80 78 81 80 82 86 83 79 84
REMARK SMILES IDX 81 85 82 86 83 87 84 88 61 89 62 90 70 91 63 92 65 93 71 94
REMARK SMILES IDX 64 95 66 96 67 97 68 98 69 99
REMARK H PARENT 91 52 59 63
REMARK Flexibility Score: inf
ROOT
ATOM      1  C   UNL A   1      31.668  26.594  26.714  1.00  0.00     0.188 C 
ENDROOT
BRANCH   1   2
ATOM      2  O   UNL A   1      31.661  25.173  26.801  1.00  0.00    -0.376 OA
BRANCH   2   3
ATOM      3  C   UNL A   1      30.548  24.491  26.254  1.00  0.00     0.202 C 
BRANCH   3   4
ATOM      4  C   UNL A   1      30.397  23.044  26.688  1.00  0.00     0.261 C 
BRANCH   4   5
ATOM      5  O   UNL A   1      30.712  22.087  25.678  1.00  0.00    -0.463 OA
BRANCH   5   6
ATOM      6  C   UNL A   1      32.005  21.694  25.560  1.00  0.00     0.306 C 
ATOM      7  O   UNL A   1      32.803  21.905  26.471  1.00  0.00    -0.252 OA
BRANCH   6   8
ATOM      8  C   UNL A   1      32.461  21.161  24.214  1.00  0.00     0.127 C 
BRANCH   8   9
ATOM      9  C   UNL A   1      32.018  21.961  23.000  1.00  0.00     0.051 C 
BRANCH   9  10
ATOM     10  C   UNL A   1      32.257  23.439  23.051  1.00  0.00    -0.001 A 
ATOM     11  C   UNL A   1      31.297  24.379  22.725  1.00  0.00     0.119 A 
ATOM     12  C   UNL A   1      33.400  24.228  23.430  1.00  0.00     0.096 A 
ATOM     13  N   UNL A   1      31.826  25.614  22.982  1.00  0.00    -0.240 N 
ATOM     14  N   UNL A   1      33.133  25.540  23.272  1.00  0.00    -0.168 NA
BRANCH  12  15
ATOM     15  C   UNL A   1      34.711  23.836  23.971  1.00  0.00     0.002 A 
ATOM     16  C   UNL A   1      35.090  24.294  25.250  1.00  0.00     0.010 A 
ATOM     17  C   UNL A   1      35.610  23.034  23.262  1.00  0.00     0.010 A 
ATOM     18  C   UNL A   1      36.329  23.965  25.800  1.00  0.00     0.001 A 
ATOM     19  C   UNL A   1      36.855  22.706  23.813  1.00  0.00     0.001 A 
ATOM     20  C   UNL A   1      37.218  23.181  25.073  1.00  0.00     0.000 A 
ENDBRANCH  12  15
BRANCH  13  21
ATOM     21  C   UNL A   1      31.123  26.842  23.041  1.00  0.00     0.065 A 
ATOM     22  C   UNL A   1      31.767  28.034  22.677  1.00  0.00     0.029 A 
ATOM     23  C   UNL A   1      29.781  26.862  23.437  1.00  0.00     0.029 A 
ATOM     24  C   UNL A   1      31.074  29.244  22.728  1.00  0.00     0.018 A 
ATOM     25  C   UNL A   1      29.105  28.082  23.531  1.00  0.00     0.018 A 
ATOM     26  C   UNL A   1      29.755  29.264  23.176  1.00  0.00     0.018 A 
ATOM     27  Br  UNL A   1      28.842  30.916  23.306  1.00  0.00    -0.051 Br
ENDBRANCH  13  21
ENDBRANCH   9  10
ENDBRANCH   8   9
ENDBRANCH   6   8
ENDBRANCH   5   6
ENDBRANCH   4   5
ENDBRANCH   3   4
ENDBRANCH   2   3
ENDBRANCH   1   2
BRANCH   1  28
ATOM     28  C   UNL A   1      33.009  27.288  26.439  1.00  0.00     0.188 C 
BRANCH  28  29
ATOM     29  O   UNL A   1      33.457  28.347  27.280  1.00  0.00    -0.376 OA
BRANCH  29  30
ATOM     30  C   UNL A   1      32.830  29.622  27.219  1.00  0.00     0.202 C 
BRANCH  30  31
ATOM     31  C   UNL A   1      33.751  30.786  26.946  1.00  0.00     0.261 C 
BRANCH  31  32
ATOM     32  O   UNL A   1      34.450  31.132  28.132  1.00  0.00    -0.460 OA
BRANCH  32  33
ATOM     33  C   UNL A   1      35.765  30.843  28.128  1.00  0.00     0.338 C 
ATOM     34  O   UNL A   1      36.380  30.194  27.303  1.00  0.00    -0.246 OA
BRANCH  33  35
ATOM     35  C   UNL A   1      36.315  31.245  29.424  1.00  0.00     0.060 A 
ATOM     36  C   UNL A   1      37.504  31.966  29.385  1.00  0.00     0.016 A 
ATOM     37  C   UNL A   1      35.853  30.622  30.596  1.00  0.00     0.016 A 
ATOM     38  C   UNL A   1      38.343  31.866  30.468  1.00  0.00     0.010 A 
ATOM     39  C   UNL A   1      36.686  30.535  31.683  1.00  0.00     0.010 A 
ATOM     40  C   UNL A   1      37.956  31.078  31.563  1.00  0.00    -0.014 A 
BRANCH  40  41
ATOM     41  C   UNL A   1      38.919  30.916  32.625  1.00  0.00     0.031 A 
ATOM     42  C   UNL A   1      38.776  31.953  33.657  1.00  0.00     0.074 A 
ATOM     43  C   UNL A   1      39.844  29.942  32.655  1.00  0.00     0.049 A 
ATOM     44  N   UNL A   1      39.487  33.023  33.764  1.00  0.00    -0.248 NA
ATOM     45  C   UNL A   1      37.577  31.927  34.501  1.00  0.00     0.031 C 
ATOM     46  C   UNL A   1      39.914  28.725  31.847  1.00  0.00     0.029 A 
ATOM     47  N   UNL A   1      40.881  29.802  33.523  1.00  0.00    -0.354 N 
ATOM     48  C   UNL A   1      38.981  33.678  34.876  1.00  0.00     0.074 A 
ATOM     49  C   UNL A   1      37.686  33.101  35.125  1.00  0.00     0.031 C 
ATOM     50  C   UNL A   1      40.789  27.866  32.422  1.00  0.00     0.029 A 
ATOM     51  C   UNL A   1      41.436  28.530  33.541  1.00  0.00     0.049 A 
ATOM     52  H   UNL A   1      41.209  30.538  34.088  1.00  0.00     0.167 HD
ATOM     53  C   UNL A   1      39.806  34.414  35.667  1.00  0.00     0.034 A 
ATOM     54  C   UNL A   1      42.308  28.058  34.465  1.00  0.00     0.034 A 
ATOM     55  C   UNL A   1      41.053  34.699  34.994  1.00  0.00     0.049 A 
ATOM     56  C   UNL A   1      42.948  29.231  35.107  1.00  0.00     0.074 A 
ATOM     57  C   UNL A   1      41.412  35.327  33.817  1.00  0.00     0.029 A 
ATOM     58  N   UNL A   1      42.138  33.950  35.377  1.00  0.00    -0.354 N 
ATOM     59  N   UNL A   1      43.788  30.017  34.495  1.00  0.00    -0.248 NA
ATOM     60  C   UNL A   1      42.347  29.776  36.314  1.00  0.00     0.031 C 
ATOM     61  C   UNL A   1      42.533  34.594  33.330  1.00  0.00     0.029 A 
ATOM     62  C   UNL A   1      42.839  33.596  34.257  1.00  0.00     0.049 A 
ATOM     63  H   UNL A   1      42.373  33.707  36.302  1.00  0.00     0.167 HD
ATOM     64  C   UNL A   1      43.463  31.287  34.953  1.00  0.00     0.074 A 
ATOM     65  C   UNL A   1      42.669  31.063  36.158  1.00  0.00     0.031 C 
ATOM     66  C   UNL A   1      43.615  32.379  34.149  1.00  0.00     0.034 A 
BRANCH  53  67
ATOM     67  C   UNL A   1      39.693  34.501  37.173  1.00  0.00     0.023 A 
ATOM     68  C   UNL A   1      39.245  33.340  37.841  1.00  0.00     0.012 A 
ATOM     69  C   UNL A   1      39.712  35.701  37.922  1.00  0.00     0.148 A 
ATOM     70  C   UNL A   1      38.760  33.388  39.151  1.00  0.00     0.002 A 
ATOM     71  C   UNL A   1      39.307  35.728  39.250  1.00  0.00     0.091 A 
ATOM     72  F   UNL A   1      39.995  36.863  37.335  1.00  0.00    -0.205 F 
ATOM     73  C   UNL A   1      38.793  34.582  39.859  1.00  0.00     0.022 A 
BRANCH  71  74
ATOM     74  S   UNL A   1      39.377  37.237  40.225  1.00  0.00     0.127 S 
ATOM     75  O   UNL A   1      40.776  37.622  40.067  1.00  0.00    -0.237 OA
ATOM     76  O   UNL A   1      38.415  38.086  39.521  1.00  0.00    -0.237 OA
ATOM     77  O   UNL A   1      38.968  36.862  41.572  1.00  0.00    -0.744 OA
ENDBRANCH  71  74
ENDBRANCH  53  67
BRANCH  54  78
ATOM     78  C   UNL A   1      42.480  26.694  35.012  1.00  0.00     0.023 A 
ATOM     79  C   UNL A   1      41.433  26.114  35.757  1.00  0.00     0.012 A 
ATOM     80  C   UNL A   1      43.520  25.855  34.558  1.00  0.00     0.148 A 
ATOM     81  C   UNL A   1      41.395  24.736  35.998  1.00  0.00     0.002 A 
ATOM     82  C   UNL A   1      43.481  24.486  34.804  1.00  0.00     0.091 A 
ATOM     83  F   UNL A   1      44.493  26.381  33.803  1.00  0.00    -0.205 F 
ATOM     84  C   UNL A   1      42.413  23.920  35.511  1.00  0.00     0.022 A 
BRANCH  82  85
ATOM     85  S   UNL A   1      44.739  23.365  34.177  1.00  0.00     0.127 S 
ATOM     86  O   UNL A   1      45.962  23.937  34.739  1.00  0.00    -0.237 OA
ATOM     87  O   UNL A   1      44.331  22.093  34.765  1.00  0.00    -0.237 OA
ATOM     88  O   UNL A   1      44.655  23.446  32.724  1.00  0.00    -0.744 OA
ENDBRANCH  82  85
ENDBRANCH  54  78
BRANCH  66  89
ATOM     89  C   UNL A   1      44.468  32.242  32.915  1.00  0.00     0.023 A 
ATOM     90  C   UNL A   1      45.855  32.494  32.907  1.00  0.00     0.012 A 
ATOM     91  C   UNL A   1      43.871  31.692  31.768  1.00  0.00     0.148 A 
ATOM     92  C   UNL A   1      46.623  32.224  31.770  1.00  0.00     0.002 A 
ATOM     93  C   UNL A   1      44.644  31.374  30.661  1.00  0.00     0.091 A 
ATOM     94  F   UNL A   1      42.548  31.466  31.788  1.00  0.00    -0.205 F 
ATOM     95  C   UNL A   1      46.019  31.649  30.653  1.00  0.00     0.022 A 
BRANCH  93  96
ATOM     96  S   UNL A   1      43.939  30.511  29.256  1.00  0.00     0.127 S 
ATOM     97  O   UNL A   1      43.439  29.284  29.869  1.00  0.00    -0.237 OA
ATOM     98  O   UNL A   1      42.900  31.438  28.803  1.00  0.00    -0.237 OA
ATOM     99  O   UNL A   1      45.033  30.342  28.306  1.00  0.00    -0.744 OA
ENDBRANCH  93  96
ENDBRANCH  66  89
ENDBRANCH  40  41
ENDBRANCH  33  35
ENDBRANCH  32  33
ENDBRANCH  31  32
ENDBRANCH  30  31
ENDBRANCH  29  30
ENDBRANCH  28  29
ENDBRANCH   1  28
TORSDOF 24
ENDMDL
MODEL 3
REMARK VINA RESULT:      -9.8      3.236      6.070
REMARK SMILES O=C(CCc1cn(-c2ccc(Br)cc2)nc1-c1ccccc1)OCCOCCOCCOC(=O)c1ccc(-c2c3nc(c(-c4cccc(S(=O)(=O)[O-])c4F)c4ccc([nH]4)c(-c4cccc(S(=O)(=O)[O-])c4F)c4nc(c(-c5cccc(S(=O)(=O)[O-])c5F)c5ccc2[nH]5)C=C4)C=C3)cc1
REMARK SMILES IDX 27 1 26 2 25 3 24 4 23 5 2 6 1 7 3 8 4 9 5 10 6 11 16 12
REMARK SMILES IDX 7 13 15 14 17 15 18 16 22 17 19 18 21 19 20 20 8 21 9 22
REMARK SMILES IDX 14 23 10 24 13 25 11 26 12 27 28 28 29 29 30 30 31 31 32 32
REMARK SMILES IDX 33 33 34 34 35 35 36 36 97 37 37 38 96 39 38 40 39 41 40 42
REMARK SMILES IDX 90 43 41 44 95 45 89 46 91 47 42 48 94 49 88 50 87 51 43 53
REMARK SMILES IDX 75 54 55 55 74 56 56 57 59 58 73 59 92 60 57 61 58 62 72 64
REMARK SMILES IDX 93 65 60 66 44 67 45 68 53 69 46 70 48 71 54 72 47 73 49 74
REMARK SMILES IDX 50 75 51 76 52 77 76 78 77 79 85 80 78 81 80 82 86 83 79 84
REMARK SMILES IDX 81 85 82 86 83 87 84 88 61 89 62 90 70 91 63 92 65 93 71 94
REMARK SMILES IDX 64 95 66 96 67 97 68 98 69 99
REMARK H PARENT 91 52 59 63
REMARK Flexibility Score: inf
ROOT
ATOM      1  C   UNL A   1      31.400  26.389  26.597  1.00  0.00     0.188 C 
ENDROOT
BRANCH   1   2
ATOM      2  O   UNL A   1      31.981  25.095  26.474  1.00  0.00    -0.376 OA
BRANCH   2   3
ATOM      3  C   UNL A   1      31.100  23.993  26.357  1.00  0.00     0.202 C 
BRANCH   3   4
ATOM      4  C   UNL A   1      31.757  22.627  26.435  1.00  0.00     0.261 C 
BRANCH   4   5
ATOM      5  O   UNL A   1      31.254  21.674  25.500  1.00  0.00    -0.463 OA
BRANCH   5   6
ATOM      6  C   UNL A   1      32.116  20.743  25.019  1.00  0.00     0.306 C 
ATOM      7  O   UNL A   1      32.327  19.709  25.649  1.00  0.00    -0.252 OA
BRANCH   6   8
ATOM      8  C   UNL A   1      32.931  21.104  23.791  1.00  0.00     0.127 C 
BRANCH   8   9
ATOM      9  C   UNL A   1      32.219  21.950  22.747  1.00  0.00     0.051 C 
BRANCH   9  10
ATOM     10  C   UNL A   1      32.365  23.435  22.880  1.00  0.00    -0.001 A 
ATOM     11  C   UNL A   1      31.371  24.333  22.537  1.00  0.00     0.119 A 
ATOM     12  C   UNL A   1      33.434  24.269  23.364  1.00  0.00     0.096 A 
ATOM     13  N   UNL A   1      31.808  25.582  22.882  1.00  0.00    -0.240 N 
ATOM     14  N   UNL A   1      33.098  25.570  23.250  1.00  0.00    -0.168 NA
BRANCH  12  15
ATOM     15  C   UNL A   1      34.731  23.927  23.969  1.00  0.00     0.002 A 
ATOM     16  C   UNL A   1      35.661  23.181  23.218  1.00  0.00     0.010 A 
ATOM     17  C   UNL A   1      35.077  24.299  25.271  1.00  0.00     0.010 A 
ATOM     18  C   UNL A   1      36.898  22.814  23.752  1.00  0.00     0.001 A 
ATOM     19  C   UNL A   1      36.317  23.929  25.808  1.00  0.00     0.001 A 
ATOM     20  C   UNL A   1      37.218  23.178  25.055  1.00  0.00     0.000 A 
ENDBRANCH  12  15
BRANCH  13  21
ATOM     21  C   UNL A   1      31.030  26.764  22.952  1.00  0.00     0.065 A 
ATOM     22  C   UNL A   1      29.713  26.705  23.431  1.00  0.00     0.029 A 
ATOM     23  C   UNL A   1      31.584  27.991  22.570  1.00  0.00     0.029 A 
ATOM     24  C   UNL A   1      28.947  27.869  23.506  1.00  0.00     0.018 A 
ATOM     25  C   UNL A   1      30.798  29.146  22.603  1.00  0.00     0.018 A 
ATOM     26  C   UNL A   1      29.485  29.079  23.072  1.00  0.00     0.018 A 
ATOM     27  Br  UNL A   1      28.420  30.640  23.116  1.00  0.00    -0.051 Br
ENDBRANCH  13  21
ENDBRANCH   9  10
ENDBRANCH   8   9
ENDBRANCH   6   8
ENDBRANCH   5   6
ENDBRANCH   4   5
ENDBRANCH   3   4
ENDBRANCH   2   3
ENDBRANCH   1   2
BRANCH   1  28
ATOM     28  C   UNL A   1      32.266  27.600  26.225  1.00  0.00     0.188 C 
BRANCH  28  29
ATOM     29  O   UNL A   1      31.667  28.876  26.017  1.00  0.00    -0.376 OA
BRANCH  29  30
ATOM     30  C   UNL A   1      32.263  30.044  26.568  1.00  0.00     0.202 C 
BRANCH  30  31
ATOM     31  C   UNL A   1      33.411  29.800  27.517  1.00  0.00     0.261 C 
BRANCH  31  32
ATOM     32  O   UNL A   1      34.481  30.680  27.209  1.00  0.00    -0.460 OA
BRANCH  32  33
ATOM     33  C   UNL A   1      34.799  31.558  28.179  1.00  0.00     0.338 C 
ATOM     34  O   UNL A   1      34.047  32.291  28.792  1.00  0.00    -0.246 OA
BRANCH  33  35
ATOM     35  C   UNL A   1      36.259  31.665  28.224  1.00  0.00     0.060 A 
ATOM     36  C   UNL A   1      36.964  30.478  28.050  1.00  0.00     0.016 A 
ATOM     37  C   UNL A   1      36.853  32.818  28.766  1.00  0.00     0.016 A 
ATOM     38  C   UNL A   1      38.203  30.384  28.635  1.00  0.00     0.010 A 
ATOM     39  C   UNL A   1      38.098  32.727  29.338  1.00  0.00     0.010 A 
ATOM     40  C   UNL A   1      38.710  31.483  29.345  1.00  0.00    -0.014 A 
BRANCH  40  41
ATOM     41  C   UNL A   1      39.964  31.295  30.033  1.00  0.00     0.031 A 
ATOM     42  C   UNL A   1      40.564  32.574  30.439  1.00  0.00     0.074 A 
ATOM     43  C   UNL A   1      40.521  30.093  30.261  1.00  0.00     0.049 A 
ATOM     44  N   UNL A   1      41.499  33.207  29.816  1.00  0.00    -0.248 NA
ATOM     45  C   UNL A   1      39.898  33.346  31.493  1.00  0.00     0.031 C 
ATOM     46  C   UNL A   1      39.910  28.769  30.148  1.00  0.00     0.029 A 
ATOM     47  N   UNL A   1      41.758  29.827  30.756  1.00  0.00    -0.354 N 
ATOM     48  C   UNL A   1      41.723  34.346  30.574  1.00  0.00     0.074 A 
ATOM     49  C   UNL A   1      40.569  34.496  31.422  1.00  0.00     0.031 C 
ATOM     50  C   UNL A   1      40.694  27.869  30.788  1.00  0.00     0.029 A 
ATOM     51  C   UNL A   1      41.915  28.528  31.219  1.00  0.00     0.049 A 
ATOM     52  H   UNL A   1      42.480  30.496  30.782  1.00  0.00     0.167 HD
ATOM     53  C   UNL A   1      42.970  34.880  30.647  1.00  0.00     0.034 A 
ATOM     54  C   UNL A   1      42.950  28.072  31.966  1.00  0.00     0.034 A 
ATOM     55  C   UNL A   1      43.820  34.364  29.598  1.00  0.00     0.049 A 
ATOM     56  C   UNL A   1      44.086  29.002  31.760  1.00  0.00     0.074 A 
ATOM     57  C   UNL A   1      43.772  34.343  28.217  1.00  0.00     0.029 A 
ATOM     58  N   UNL A   1      44.728  33.402  29.966  1.00  0.00    -0.354 N 
ATOM     59  N   UNL A   1      44.742  29.100  30.639  1.00  0.00    -0.248 NA
ATOM     60  C   UNL A   1      44.241  30.121  32.676  1.00  0.00     0.031 C 
ATOM     61  C   UNL A   1      44.332  33.087  27.844  1.00  0.00     0.029 A 
ATOM     62  C   UNL A   1      44.746  32.430  29.005  1.00  0.00     0.049 A 
ATOM     63  H   UNL A   1      45.274  33.410  30.786  1.00  0.00     0.167 HD
ATOM     64  C   UNL A   1      44.992  30.459  30.507  1.00  0.00     0.074 A 
ATOM     65  C   UNL A   1      44.783  31.013  31.842  1.00  0.00     0.031 C 
ATOM     66  C   UNL A   1      45.051  31.041  29.274  1.00  0.00     0.034 A 
BRANCH  53  67
ATOM     67  C   UNL A   1      43.559  35.509  31.891  1.00  0.00     0.023 A 
ATOM     68  C   UNL A   1      43.650  34.682  33.034  1.00  0.00     0.012 A 
ATOM     69  C   UNL A   1      43.748  36.896  32.091  1.00  0.00     0.148 A 
ATOM     70  C   UNL A   1      43.829  35.216  34.313  1.00  0.00     0.002 A 
ATOM     71  C   UNL A   1      44.007  37.414  33.353  1.00  0.00     0.091 A 
ATOM     72  F   UNL A   1      43.551  37.758  31.094  1.00  0.00    -0.205 F 
ATOM     73  C   UNL A   1      44.011  36.583  34.474  1.00  0.00     0.022 A 
BRANCH  71  74
ATOM     74  S   UNL A   1      44.300  39.170  33.607  1.00  0.00     0.127 S 
ATOM     75  O   UNL A   1      43.002  39.737  33.253  1.00  0.00    -0.237 OA
ATOM     76  O   UNL A   1      44.628  39.210  35.033  1.00  0.00    -0.237 OA
ATOM     77  O   UNL A   1      45.409  39.522  32.729  1.00  0.00    -0.744 OA
ENDBRANCH  71  74
ENDBRANCH  53  67
BRANCH  54  78
ATOM     78  C   UNL A   1      42.987  27.037  33.023  1.00  0.00     0.023 A 
ATOM     79  C   UNL A   1      44.039  26.098  33.032  1.00  0.00     0.012 A 
ATOM     80  C   UNL A   1      42.185  27.149  34.179  1.00  0.00     0.148 A 
ATOM     81  C   UNL A   1      44.316  25.334  34.171  1.00  0.00     0.002 A 
ATOM     82  C   UNL A   1      42.461  26.384  35.307  1.00  0.00     0.091 A 
ATOM     83  F   UNL A   1      41.216  28.074  34.207  1.00  0.00    -0.205 F 
ATOM     84  C   UNL A   1      43.535  25.485  35.313  1.00  0.00     0.022 A 
BRANCH  82  85
ATOM     85  S   UNL A   1      41.519  26.551  36.830  1.00  0.00     0.127 S 
ATOM     86  O   UNL A   1      42.530  26.260  37.846  1.00  0.00    -0.237 OA
ATOM     87  O   UNL A   1      41.094  27.947  36.770  1.00  0.00    -0.237 OA
ATOM     88  O   UNL A   1      40.451  25.562  36.748  1.00  0.00    -0.744 OA
ENDBRANCH  82  85
ENDBRANCH  54  78
BRANCH  66  89
ATOM     89  C   UNL A   1      45.205  30.148  28.071  1.00  0.00     0.023 A 
ATOM     90  C   UNL A   1      46.454  29.674  27.621  1.00  0.00     0.012 A 
ATOM     91  C   UNL A   1      44.034  29.652  27.474  1.00  0.00     0.148 A 
ATOM     92  C   UNL A   1      46.531  28.743  26.581  1.00  0.00     0.002 A 
ATOM     93  C   UNL A   1      44.111  28.687  26.480  1.00  0.00     0.091 A 
ATOM     94  F   UNL A   1      42.853  30.120  27.908  1.00  0.00    -0.205 F 
ATOM     95  C   UNL A   1      45.358  28.237  26.022  1.00  0.00     0.022 A 
BRANCH  93  96
ATOM     96  S   UNL A   1      42.632  27.911  25.827  1.00  0.00     0.127 S 
ATOM     97  O   UNL A   1      42.034  27.332  27.027  1.00  0.00    -0.237 OA
ATOM     98  O   UNL A   1      41.900  29.047  25.263  1.00  0.00    -0.237 OA
ATOM     99  O   UNL A   1      43.096  26.954  24.828  1.00  0.00    -0.744 OA
ENDBRANCH  93  96
ENDBRANCH  66  89
ENDBRANCH  40  41
ENDBRANCH  33  35
ENDBRANCH  32  33
ENDBRANCH  31  32
ENDBRANCH  30  31
ENDBRANCH  29  30
ENDBRANCH  28  29
ENDBRANCH   1  28
TORSDOF 24
ENDMDL
