MODEL 1
REMARK VINA RESULT:     -10.8      0.000      0.000
REMARK SMILES Cc1cccc(C)c1Nc1ccccc1CC(=O)OCCOCCOCCOC(=O)c1ccc(-c2c3nc(c(-c4cccc(S(=O)(=O)[O-])c4F)c4ccc([nH]4)c(-c4cccc(S(=O)(=O)[O-])c4F)c4nc(c(-c5cccc(S(=O)(=O)[O-])c5F)c5ccc2[nH]5)C=C4)C=C3)cc1
REMARK SMILES IDX 23 1 22 2 21 3 20 4 19 5 17 6 18 7 16 8 15 9 10 10 11 11
REMARK SMILES IDX 12 12 14 13 13 14 9 15 8 17 1 18 2 19 3 20 4 21 6 22 5 23
REMARK SMILES IDX 7 24 24 25 25 26 26 27 27 28 28 29 29 30 30 31 31 32 32 33
REMARK SMILES IDX 93 34 33 35 92 36 34 37 35 38 36 39 86 40 37 41 91 42 85 43
REMARK SMILES IDX 87 44 38 45 90 46 84 47 83 48 39 50 71 51 51 52 70 53 52 54
REMARK SMILES IDX 55 55 69 56 88 57 53 58 54 59 68 61 89 62 56 63 40 64 41 65
REMARK SMILES IDX 49 66 42 67 44 68 50 69 43 70 45 71 46 72 47 73 48 74 72 75
REMARK SMILES IDX 73 76 81 77 74 78 76 79 82 80 75 81 77 82 78 83 79 84 80 85
REMARK SMILES IDX 57 86 58 87 66 88 59 89 61 90 67 91 60 92 62 93 63 94 64 95
REMARK SMILES IDX 65 96
REMARK H PARENT 9 16 87 49 55 60
REMARK Flexibility Score: inf
ROOT
ATOM      1  C   UNL A   1      33.217  28.810  25.472  1.00  0.00     0.188 C 
ENDROOT
BRANCH   1   2
ATOM      2  O   UNL A   1      33.380  28.053  24.274  1.00  0.00    -0.376 OA
BRANCH   2   3
ATOM      3  C   UNL A   1      33.309  28.728  23.026  1.00  0.00     0.202 C 
BRANCH   3   4
ATOM      4  C   UNL A   1      33.815  27.934  21.818  1.00  0.00     0.261 C 
BRANCH   4   5
ATOM      5  O   UNL A   1      33.969  26.535  22.126  1.00  0.00    -0.463 OA
BRANCH   5   6
ATOM      6  C   UNL A   1      33.127  25.679  21.494  1.00  0.00     0.310 C 
ATOM      7  O   UNL A   1      33.028  25.607  20.273  1.00  0.00    -0.252 OA
BRANCH   6   8
ATOM      8  C   UNL A   1      32.500  24.672  22.437  1.00  0.00     0.160 C 
BRANCH   8   9
ATOM      9  C   UNL A   1      31.679  25.160  23.625  1.00  0.00    -0.013 A 
ATOM     10  C   UNL A   1      32.021  24.938  24.971  1.00  0.00     0.042 A 
ATOM     11  C   UNL A   1      31.133  25.347  25.991  1.00  0.00     0.026 A 
ATOM     12  C   UNL A   1      29.986  26.083  25.703  1.00  0.00     0.002 A 
ATOM     13  C   UNL A   1      30.559  25.973  23.370  1.00  0.00     0.006 A 
ATOM     14  C   UNL A   1      29.721  26.433  24.390  1.00  0.00     0.000 A 
BRANCH  10  15
ATOM     15  N   UNL A   1      33.298  24.523  25.384  1.00  0.00    -0.355 N 
ATOM     16  H   UNL A   1      33.885  25.250  25.690  1.00  0.00     0.167 HD
BRANCH  15  17
ATOM     17  C   UNL A   1      33.881  23.234  25.436  1.00  0.00     0.044 A 
ATOM     18  C   UNL A   1      32.348  22.769  27.419  1.00  0.00     0.046 C 
ATOM     19  C   UNL A   1      33.363  22.328  26.397  1.00  0.00    -0.027 A 
ATOM     20  C   UNL A   1      33.747  20.980  26.370  1.00  0.00     0.005 A 
ATOM     21  C   UNL A   1      34.641  20.516  25.412  1.00  0.00     0.001 A 
ATOM     22  C   UNL A   1      34.867  22.771  24.524  1.00  0.00    -0.027 A 
ATOM     23  C   UNL A   1      35.202  21.405  24.505  1.00  0.00     0.005 A 
ATOM     24  C   UNL A   1      35.573  23.635  23.508  1.00  0.00     0.046 C 
ENDBRANCH  15  17
ENDBRANCH  10  15
ENDBRANCH   8   9
ENDBRANCH   6   8
ENDBRANCH   5   6
ENDBRANCH   4   5
ENDBRANCH   3   4
ENDBRANCH   2   3
ENDBRANCH   1   2
BRANCH   1  25
ATOM     25  C   UNL A   1      31.814  29.278  25.878  1.00  0.00     0.188 C 
BRANCH  25  26
ATOM     26  O   UNL A   1      31.582  30.636  25.532  1.00  0.00    -0.376 OA
BRANCH  26  27
ATOM     27  C   UNL A   1      31.416  31.477  26.663  1.00  0.00     0.202 C 
BRANCH  27  28
ATOM     28  C   UNL A   1      32.704  32.275  26.868  1.00  0.00     0.261 C 
BRANCH  28  29
ATOM     29  O   UNL A   1      32.590  33.356  27.818  1.00  0.00    -0.460 OA
BRANCH  29  30
ATOM     30  C   UNL A   1      33.692  34.102  28.028  1.00  0.00     0.338 C 
ATOM     31  O   UNL A   1      33.745  35.332  28.057  1.00  0.00    -0.246 OA
BRANCH  30  32
ATOM     32  C   UNL A   1      34.816  33.223  28.409  1.00  0.00     0.060 A 
ATOM     33  C   UNL A   1      34.534  31.980  28.990  1.00  0.00     0.016 A 
ATOM     34  C   UNL A   1      36.142  33.627  28.239  1.00  0.00     0.016 A 
ATOM     35  C   UNL A   1      35.567  31.144  29.419  1.00  0.00     0.010 A 
ATOM     36  C   UNL A   1      37.177  32.802  28.696  1.00  0.00     0.010 A 
ATOM     37  C   UNL A   1      36.897  31.568  29.314  1.00  0.00    -0.014 A 
BRANCH  37  38
ATOM     38  C   UNL A   1      37.981  30.821  30.002  1.00  0.00     0.031 A 
ATOM     39  C   UNL A   1      38.274  31.146  31.444  1.00  0.00     0.074 A 
ATOM     40  C   UNL A   1      38.700  29.875  29.369  1.00  0.00     0.049 A 
ATOM     41  N   UNL A   1      39.241  30.718  32.213  1.00  0.00    -0.248 NA
ATOM     42  C   UNL A   1      37.350  32.082  32.105  1.00  0.00     0.031 C 
ATOM     43  C   UNL A   1      38.492  29.432  27.991  1.00  0.00     0.029 A 
ATOM     44  N   UNL A   1      39.773  29.134  29.802  1.00  0.00    -0.354 N 
ATOM     45  C   UNL A   1      39.064  31.358  33.435  1.00  0.00     0.074 A 
ATOM     46  C   UNL A   1      37.900  32.207  33.304  1.00  0.00     0.031 C 
ATOM     47  C   UNL A   1      39.429  28.518  27.682  1.00  0.00     0.029 A 
ATOM     48  C   UNL A   1      40.326  28.341  28.823  1.00  0.00     0.049 A 
ATOM     49  H   UNL A   1      40.114  29.169  30.725  1.00  0.00     0.167 HD
ATOM     50  C   UNL A   1      39.794  31.240  34.569  1.00  0.00     0.034 A 
ATOM     51  C   UNL A   1      41.445  27.588  28.838  1.00  0.00     0.034 A 
ATOM     52  C   UNL A   1      40.939  30.382  34.709  1.00  0.00     0.049 A 
ATOM     53  C   UNL A   1      42.276  27.522  30.097  1.00  0.00     0.074 A 
ATOM     54  C   UNL A   1      41.740  30.189  35.820  1.00  0.00     0.029 A 
ATOM     55  N   UNL A   1      41.449  29.574  33.704  1.00  0.00    -0.354 N 
ATOM     56  N   UNL A   1      42.057  28.078  31.264  1.00  0.00    -0.248 NA
ATOM     57  C   UNL A   1      43.497  26.704  30.045  1.00  0.00     0.031 C 
ATOM     58  C   UNL A   1      42.746  29.279  35.483  1.00  0.00     0.029 A 
ATOM     59  C   UNL A   1      42.554  28.882  34.169  1.00  0.00     0.049 A 
ATOM     60  H   UNL A   1      41.079  29.503  32.795  1.00  0.00     0.167 HD
ATOM     61  C   UNL A   1      43.087  27.642  32.094  1.00  0.00     0.074 A 
ATOM     62  C   UNL A   1      43.919  26.761  31.301  1.00  0.00     0.031 C 
ATOM     63  C   UNL A   1      43.332  27.955  33.390  1.00  0.00     0.034 A 
BRANCH  50  64
ATOM     64  C   UNL A   1      39.361  32.046  35.766  1.00  0.00     0.023 A 
ATOM     65  C   UNL A   1      39.740  33.401  35.864  1.00  0.00     0.012 A 
ATOM     66  C   UNL A   1      38.535  31.485  36.757  1.00  0.00     0.148 A 
ATOM     67  C   UNL A   1      39.328  34.177  36.947  1.00  0.00     0.002 A 
ATOM     68  C   UNL A   1      38.092  32.276  37.812  1.00  0.00     0.091 A 
ATOM     69  F   UNL A   1      38.202  30.190  36.655  1.00  0.00    -0.205 F 
ATOM     70  C   UNL A   1      38.496  33.617  37.913  1.00  0.00     0.022 A 
BRANCH  68  71
ATOM     71  S   UNL A   1      36.958  31.674  39.069  1.00  0.00     0.127 S 
ATOM     72  O   UNL A   1      36.674  30.323  38.585  1.00  0.00    -0.237 OA
ATOM     73  O   UNL A   1      37.782  31.729  40.276  1.00  0.00    -0.237 OA
ATOM     74  O   UNL A   1      35.825  32.588  39.061  1.00  0.00    -0.744 OA
ENDBRANCH  68  71
ENDBRANCH  50  64
BRANCH  51  75
ATOM     75  C   UNL A   1      41.855  26.814  27.630  1.00  0.00     0.023 A 
ATOM     76  C   UNL A   1      42.402  27.493  26.523  1.00  0.00     0.012 A 
ATOM     77  C   UNL A   1      41.682  25.418  27.557  1.00  0.00     0.148 A 
ATOM     78  C   UNL A   1      42.730  26.805  25.353  1.00  0.00     0.002 A 
ATOM     79  C   UNL A   1      42.062  24.730  26.409  1.00  0.00     0.091 A 
ATOM     80  F   UNL A   1      41.137  24.789  28.608  1.00  0.00    -0.205 F 
ATOM     81  C   UNL A   1      42.570  25.423  25.300  1.00  0.00     0.022 A 
BRANCH  79  82
ATOM     82  S   UNL A   1      41.998  22.938  26.297  1.00  0.00     0.127 S 
ATOM     83  O   UNL A   1      40.561  22.687  26.364  1.00  0.00    -0.237 OA
ATOM     84  O   UNL A   1      42.606  22.695  24.988  1.00  0.00    -0.237 OA
ATOM     85  O   UNL A   1      42.781  22.448  27.423  1.00  0.00    -0.744 OA
ENDBRANCH  79  82
ENDBRANCH  51  75
BRANCH  63  86
ATOM     86  C   UNL A   1      44.512  27.299  34.062  1.00  0.00     0.023 A 
ATOM     87  C   UNL A   1      45.776  27.924  34.035  1.00  0.00     0.012 A 
ATOM     88  C   UNL A   1      44.351  26.102  34.788  1.00  0.00     0.148 A 
ATOM     89  C   UNL A   1      46.865  27.350  34.689  1.00  0.00     0.002 A 
ATOM     90  C   UNL A   1      45.428  25.562  35.479  1.00  0.00     0.091 A 
ATOM     91  F   UNL A   1      43.145  25.514  34.789  1.00  0.00    -0.205 F 
ATOM     92  C   UNL A   1      46.689  26.176  35.420  1.00  0.00     0.022 A 
BRANCH  90  93
ATOM     93  S   UNL A   1      45.273  24.109  36.524  1.00  0.00     0.127 S 
ATOM     94  O   UNL A   1      44.509  23.204  35.667  1.00  0.00    -0.237 OA
ATOM     95  O   UNL A   1      46.670  23.723  36.726  1.00  0.00    -0.237 OA
ATOM     96  O   UNL A   1      44.589  24.553  37.730  1.00  0.00    -0.744 OA
ENDBRANCH  90  93
ENDBRANCH  63  86
ENDBRANCH  37  38
ENDBRANCH  30  32
ENDBRANCH  29  30
ENDBRANCH  28  29
ENDBRANCH  27  28
ENDBRANCH  26  27
ENDBRANCH  25  26
ENDBRANCH   1  25
TORSDOF 23
ENDMDL
MODEL 2
REMARK VINA RESULT:     -10.7      2.027      8.120
REMARK SMILES Cc1cccc(C)c1Nc1ccccc1CC(=O)OCCOCCOCCOC(=O)c1ccc(-c2c3nc(c(-c4cccc(S(=O)(=O)[O-])c4F)c4ccc([nH]4)c(-c4cccc(S(=O)(=O)[O-])c4F)c4nc(c(-c5cccc(S(=O)(=O)[O-])c5F)c5ccc2[nH]5)C=C4)C=C3)cc1
REMARK SMILES IDX 23 1 22 2 21 3 20 4 19 5 17 6 18 7 16 8 15 9 10 10 11 11
REMARK SMILES IDX 12 12 14 13 13 14 9 15 8 17 1 18 2 19 3 20 4 21 6 22 5 23
REMARK SMILES IDX 7 24 24 25 25 26 26 27 27 28 28 29 29 30 30 31 31 32 32 33
REMARK SMILES IDX 93 34 33 35 92 36 34 37 35 38 36 39 86 40 37 41 91 42 85 43
REMARK SMILES IDX 87 44 38 45 90 46 84 47 83 48 39 50 71 51 51 52 70 53 52 54
REMARK SMILES IDX 55 55 69 56 88 57 53 58 54 59 68 61 89 62 56 63 40 64 41 65
REMARK SMILES IDX 49 66 42 67 44 68 50 69 43 70 45 71 46 72 47 73 48 74 72 75
REMARK SMILES IDX 73 76 81 77 74 78 76 79 82 80 75 81 77 82 78 83 79 84 80 85
REMARK SMILES IDX 57 86 58 87 66 88 59 89 61 90 67 91 60 92 62 93 63 94 64 95
REMARK SMILES IDX 65 96
REMARK H PARENT 9 16 87 49 55 60
REMARK Flexibility Score: inf
ROOT
ATOM      1  C   UNL A   1      30.677  25.457  26.438  1.00  0.00     0.188 C 
ENDROOT
BRANCH   1   2
ATOM      2  O   UNL A   1      31.230  24.248  25.922  1.00  0.00    -0.376 OA
BRANCH   2   3
ATOM      3  C   UNL A   1      30.702  23.009  26.375  1.00  0.00     0.202 C 
BRANCH   3   4
ATOM      4  C   UNL A   1      31.708  21.855  26.458  1.00  0.00     0.261 C 
BRANCH   4   5
ATOM      5  O   UNL A   1      31.668  21.027  25.280  1.00  0.00    -0.463 OA
BRANCH   5   6
ATOM      6  C   UNL A   1      32.619  20.063  25.184  1.00  0.00     0.310 C 
ATOM      7  O   UNL A   1      32.533  18.972  25.739  1.00  0.00    -0.252 OA
BRANCH   6   8
ATOM      8  C   UNL A   1      33.673  20.384  24.143  1.00  0.00     0.160 C 
BRANCH   8   9
ATOM      9  C   UNL A   1      34.945  21.114  24.556  1.00  0.00    -0.013 A 
ATOM     10  C   UNL A   1      35.071  22.512  24.622  1.00  0.00     0.042 A 
ATOM     11  C   UNL A   1      36.329  23.085  24.920  1.00  0.00     0.026 A 
ATOM     12  C   UNL A   1      37.419  22.295  25.278  1.00  0.00     0.002 A 
ATOM     13  C   UNL A   1      36.038  20.347  25.000  1.00  0.00     0.006 A 
ATOM     14  C   UNL A   1      37.259  20.922  25.360  1.00  0.00     0.000 A 
BRANCH  10  15
ATOM     15  N   UNL A   1      33.972  23.388  24.621  1.00  0.00    -0.355 N 
ATOM     16  H   UNL A   1      33.390  23.314  25.411  1.00  0.00     0.167 HD
BRANCH  15  17
ATOM     17  C   UNL A   1      33.561  24.358  23.676  1.00  0.00     0.044 A 
ATOM     18  C   UNL A   1      34.421  26.115  25.309  1.00  0.00     0.046 C 
ATOM     19  C   UNL A   1      33.848  25.714  23.975  1.00  0.00    -0.027 A 
ATOM     20  C   UNL A   1      33.656  26.704  23.001  1.00  0.00     0.005 A 
ATOM     21  C   UNL A   1      33.179  26.374  21.738  1.00  0.00     0.001 A 
ATOM     22  C   UNL A   1      32.983  24.044  22.416  1.00  0.00    -0.027 A 
ATOM     23  C   UNL A   1      32.837  25.058  21.453  1.00  0.00     0.005 A 
ATOM     24  C   UNL A   1      32.542  22.665  21.991  1.00  0.00     0.046 C 
ENDBRANCH  15  17
ENDBRANCH  10  15
ENDBRANCH   8   9
ENDBRANCH   6   8
ENDBRANCH   5   6
ENDBRANCH   4   5
ENDBRANCH   3   4
ENDBRANCH   2   3
ENDBRANCH   1   2
BRANCH   1  25
ATOM     25  C   UNL A   1      31.561  26.707  26.525  1.00  0.00     0.188 C 
BRANCH  25  26
ATOM     26  O   UNL A   1      30.904  27.783  27.180  1.00  0.00    -0.376 OA
BRANCH  26  27
ATOM     27  C   UNL A   1      31.797  28.792  27.625  1.00  0.00     0.202 C 
BRANCH  27  28
ATOM     28  C   UNL A   1      31.782  29.935  26.609  1.00  0.00     0.261 C 
BRANCH  28  29
ATOM     29  O   UNL A   1      33.080  30.504  26.333  1.00  0.00    -0.460 OA
BRANCH  29  30
ATOM     30  C   UNL A   1      33.512  31.470  27.167  1.00  0.00     0.338 C 
ATOM     31  O   UNL A   1      32.864  32.444  27.552  1.00  0.00    -0.246 OA
BRANCH  30  32
ATOM     32  C   UNL A   1      34.833  31.096  27.713  1.00  0.00     0.060 A 
ATOM     33  C   UNL A   1      35.100  29.744  27.966  1.00  0.00     0.016 A 
ATOM     34  C   UNL A   1      35.792  32.063  28.017  1.00  0.00     0.016 A 
ATOM     35  C   UNL A   1      36.313  29.353  28.536  1.00  0.00     0.010 A 
ATOM     36  C   UNL A   1      36.997  31.675  28.616  1.00  0.00     0.010 A 
ATOM     37  C   UNL A   1      37.254  30.321  28.906  1.00  0.00    -0.014 A 
BRANCH  37  38
ATOM     38  C   UNL A   1      38.420  29.952  29.751  1.00  0.00     0.031 A 
ATOM     39  C   UNL A   1      39.459  29.027  29.174  1.00  0.00     0.074 A 
ATOM     40  C   UNL A   1      38.559  30.419  31.006  1.00  0.00     0.049 A 
ATOM     41  N   UNL A   1      40.492  28.473  29.754  1.00  0.00    -0.248 NA
ATOM     42  C   UNL A   1      39.312  28.681  27.751  1.00  0.00     0.031 C 
ATOM     43  C   UNL A   1      37.652  31.354  31.668  1.00  0.00     0.029 A 
ATOM     44  N   UNL A   1      39.512  30.144  31.957  1.00  0.00    -0.354 N 
ATOM     45  C   UNL A   1      41.097  27.686  28.779  1.00  0.00     0.074 A 
ATOM     46  C   UNL A   1      40.312  27.831  27.572  1.00  0.00     0.031 C 
ATOM     47  C   UNL A   1      38.074  31.550  32.931  1.00  0.00     0.029 A 
ATOM     48  C   UNL A   1      39.257  30.726  33.177  1.00  0.00     0.049 A 
ATOM     49  H   UNL A   1      40.301  29.582  31.781  1.00  0.00     0.167 HD
ATOM     50  C   UNL A   1      42.210  26.923  28.874  1.00  0.00     0.034 A 
ATOM     51  C   UNL A   1      39.885  30.582  34.362  1.00  0.00     0.034 A 
ATOM     52  C   UNL A   1      43.003  26.792  30.066  1.00  0.00     0.049 A 
ATOM     53  C   UNL A   1      41.089  29.676  34.455  1.00  0.00     0.074 A 
ATOM     54  C   UNL A   1      44.153  26.048  30.258  1.00  0.00     0.029 A 
ATOM     55  N   UNL A   1      42.728  27.420  31.272  1.00  0.00    -0.354 N 
ATOM     56  N   UNL A   1      41.688  28.993  33.509  1.00  0.00    -0.248 NA
ATOM     57  C   UNL A   1      41.717  29.539  35.778  1.00  0.00     0.031 C 
ATOM     58  C   UNL A   1      44.564  26.210  31.586  1.00  0.00     0.029 A 
ATOM     59  C   UNL A   1      43.685  27.080  32.211  1.00  0.00     0.049 A 
ATOM     60  H   UNL A   1      41.964  28.020  31.434  1.00  0.00     0.167 HD
ATOM     61  C   UNL A   1      42.786  28.385  34.113  1.00  0.00     0.074 A 
ATOM     62  C   UNL A   1      42.779  28.794  35.502  1.00  0.00     0.031 C 
ATOM     63  C   UNL A   1      43.706  27.549  33.572  1.00  0.00     0.034 A 
BRANCH  50  64
ATOM     64  C   UNL A   1      42.656  26.181  27.641  1.00  0.00     0.023 A 
ATOM     65  C   UNL A   1      43.533  26.807  26.732  1.00  0.00     0.012 A 
ATOM     66  C   UNL A   1      42.258  24.850  27.413  1.00  0.00     0.148 A 
ATOM     67  C   UNL A   1      43.983  26.131  25.599  1.00  0.00     0.002 A 
ATOM     68  C   UNL A   1      42.744  24.167  26.304  1.00  0.00     0.091 A 
ATOM     69  F   UNL A   1      41.408  24.279  28.279  1.00  0.00    -0.205 F 
ATOM     70  C   UNL A   1      43.598  24.809  25.392  1.00  0.00     0.022 A 
BRANCH  68  71
ATOM     71  S   UNL A   1      42.369  22.439  25.985  1.00  0.00     0.127 S 
ATOM     72  O   UNL A   1      43.050  22.221  24.709  1.00  0.00    -0.237 OA
ATOM     73  O   UNL A   1      42.991  21.775  27.129  1.00  0.00    -0.237 OA
ATOM     74  O   UNL A   1      40.917  22.344  25.939  1.00  0.00    -0.744 OA
ENDBRANCH  68  71
ENDBRANCH  50  64
BRANCH  51  75
ATOM     75  C   UNL A   1      39.408  31.318  35.569  1.00  0.00     0.023 A 
ATOM     76  C   UNL A   1      38.290  30.837  36.278  1.00  0.00     0.012 A 
ATOM     77  C   UNL A   1      40.033  32.504  36.001  1.00  0.00     0.148 A 
ATOM     78  C   UNL A   1      37.779  31.543  37.369  1.00  0.00     0.002 A 
ATOM     79  C   UNL A   1      39.553  33.172  37.123  1.00  0.00     0.091 A 
ATOM     80  F   UNL A   1      41.081  32.962  35.301  1.00  0.00    -0.205 F 
ATOM     81  C   UNL A   1      38.416  32.704  37.797  1.00  0.00     0.022 A 
BRANCH  79  82
ATOM     82  S   UNL A   1      40.381  34.611  37.811  1.00  0.00     0.127 S 
ATOM     83  O   UNL A   1      39.263  35.345  38.397  1.00  0.00    -0.237 OA
ATOM     84  O   UNL A   1      41.293  34.001  38.780  1.00  0.00    -0.237 OA
ATOM     85  O   UNL A   1      41.043  35.256  36.686  1.00  0.00    -0.744 OA
ENDBRANCH  79  82
ENDBRANCH  51  75
BRANCH  63  86
ATOM     86  C   UNL A   1      44.824  27.063  34.460  1.00  0.00     0.023 A 
ATOM     87  C   UNL A   1      45.979  27.852  34.635  1.00  0.00     0.012 A 
ATOM     88  C   UNL A   1      44.695  25.859  35.181  1.00  0.00     0.148 A 
ATOM     89  C   UNL A   1      47.001  27.433  35.486  1.00  0.00     0.002 A 
ATOM     90  C   UNL A   1      45.694  25.473  36.066  1.00  0.00     0.091 A 
ATOM     91  F   UNL A   1      43.596  25.114  34.990  1.00  0.00    -0.205 F 
ATOM     92  C   UNL A   1      46.855  26.251  36.210  1.00  0.00     0.022 A 
BRANCH  90  93
ATOM     93  S   UNL A   1      45.549  24.019  37.111  1.00  0.00     0.127 S 
ATOM     94  O   UNL A   1      46.932  23.822  37.543  1.00  0.00    -0.237 OA
ATOM     95  O   UNL A   1      44.642  24.482  38.161  1.00  0.00    -0.237 OA
ATOM     96  O   UNL A   1      45.005  22.967  36.263  1.00  0.00    -0.744 OA
ENDBRANCH  90  93
ENDBRANCH  63  86
ENDBRANCH  37  38
ENDBRANCH  30  32
ENDBRANCH  29  30
ENDBRANCH  28  29
ENDBRANCH  27  28
ENDBRANCH  26  27
ENDBRANCH  25  26
ENDBRANCH   1  25
TORSDOF 23
ENDMDL
MODEL 3
REMARK VINA RESULT:     -10.1      2.169      8.109
REMARK SMILES Cc1cccc(C)c1Nc1ccccc1CC(=O)OCCOCCOCCOC(=O)c1ccc(-c2c3nc(c(-c4cccc(S(=O)(=O)[O-])c4F)c4ccc([nH]4)c(-c4cccc(S(=O)(=O)[O-])c4F)c4nc(c(-c5cccc(S(=O)(=O)[O-])c5F)c5ccc2[nH]5)C=C4)C=C3)cc1
REMARK SMILES IDX 23 1 22 2 21 3 20 4 19 5 17 6 18 7 16 8 15 9 10 10 11 11
REMARK SMILES IDX 12 12 14 13 13 14 9 15 8 17 1 18 2 19 3 20 4 21 6 22 5 23
REMARK SMILES IDX 7 24 24 25 25 26 26 27 27 28 28 29 29 30 30 31 31 32 32 33
REMARK SMILES IDX 93 34 33 35 92 36 34 37 35 38 36 39 86 40 37 41 91 42 85 43
REMARK SMILES IDX 87 44 38 45 90 46 84 47 83 48 39 50 71 51 51 52 70 53 52 54
REMARK SMILES IDX 55 55 69 56 88 57 53 58 54 59 68 61 89 62 56 63 40 64 41 65
REMARK SMILES IDX 49 66 42 67 44 68 50 69 43 70 45 71 46 72 47 73 48 74 72 75
REMARK SMILES IDX 73 76 81 77 74 78 76 79 82 80 75 81 77 82 78 83 79 84 80 85
REMARK SMILES IDX 57 86 58 87 66 88 59 89 61 90 67 91 60 92 62 93 63 94 64 95
REMARK SMILES IDX 65 96
REMARK H PARENT 9 16 87 49 55 60
REMARK Flexibility Score: inf
ROOT
ATOM      1  C   UNL A   1      31.212  25.072  26.678  1.00  0.00     0.188 C 
ENDROOT
BRANCH   1   2
ATOM      2  O   UNL A   1      31.808  23.813  26.367  1.00  0.00    -0.376 OA
BRANCH   2   3
ATOM      3  C   UNL A   1      30.988  22.653  26.367  1.00  0.00     0.202 C 
BRANCH   3   4
ATOM      4  C   UNL A   1      31.710  21.338  26.052  1.00  0.00     0.261 C 
BRANCH   4   5
ATOM      5  O   UNL A   1      31.508  20.933  24.684  1.00  0.00    -0.463 OA
BRANCH   5   6
ATOM      6  C   UNL A   1      32.615  20.562  23.992  1.00  0.00     0.310 C 
ATOM      7  O   UNL A   1      32.973  19.395  23.867  1.00  0.00    -0.252 OA
BRANCH   6   8
ATOM      8  C   UNL A   1      33.223  21.705  23.204  1.00  0.00     0.160 C 
BRANCH   8   9
ATOM      9  C   UNL A   1      33.958  22.821  23.938  1.00  0.00    -0.013 A 
ATOM     10  C   UNL A   1      33.956  24.168  23.538  1.00  0.00     0.042 A 
ATOM     11  C   UNL A   1      34.756  25.102  24.235  1.00  0.00     0.026 A 
ATOM     12  C   UNL A   1      35.446  24.746  25.391  1.00  0.00     0.002 A 
ATOM     13  C   UNL A   1      34.598  22.509  25.152  1.00  0.00     0.006 A 
ATOM     14  C   UNL A   1      35.332  23.454  25.874  1.00  0.00     0.000 A 
BRANCH  10  15
ATOM     15  N   UNL A   1      33.040  24.699  22.614  1.00  0.00    -0.355 N 
ATOM     16  H   UNL A   1      33.046  24.258  21.735  1.00  0.00     0.167 HD
BRANCH  15  17
ATOM     17  C   UNL A   1      32.112  25.760  22.735  1.00  0.00     0.044 A 
ATOM     18  C   UNL A   1      30.347  23.980  23.200  1.00  0.00     0.046 C 
ATOM     19  C   UNL A   1      30.785  25.418  23.101  1.00  0.00    -0.027 A 
ATOM     20  C   UNL A   1      29.867  26.425  23.437  1.00  0.00     0.005 A 
ATOM     21  C   UNL A   1      30.241  27.763  23.410  1.00  0.00     0.001 A 
ATOM     22  C   UNL A   1      32.455  27.134  22.617  1.00  0.00    -0.027 A 
ATOM     23  C   UNL A   1      31.519  28.113  22.995  1.00  0.00     0.005 A 
ATOM     24  C   UNL A   1      33.795  27.649  22.153  1.00  0.00     0.046 C 
ENDBRANCH  15  17
ENDBRANCH  10  15
ENDBRANCH   8   9
ENDBRANCH   6   8
ENDBRANCH   5   6
ENDBRANCH   4   5
ENDBRANCH   3   4
ENDBRANCH   2   3
ENDBRANCH   1   2
BRANCH   1  25
ATOM     25  C   UNL A   1      32.017  26.357  26.454  1.00  0.00     0.188 C 
BRANCH  25  26
ATOM     26  O   UNL A   1      31.209  27.521  26.560  1.00  0.00    -0.376 OA
BRANCH  26  27
ATOM     27  C   UNL A   1      31.619  28.389  27.605  1.00  0.00     0.202 C 
BRANCH  27  28
ATOM     28  C   UNL A   1      31.672  29.816  27.058  1.00  0.00     0.261 C 
BRANCH  28  29
ATOM     29  O   UNL A   1      32.976  30.229  26.597  1.00  0.00    -0.460 OA
BRANCH  29  30
ATOM     30  C   UNL A   1      33.499  31.337  27.159  1.00  0.00     0.338 C 
ATOM     31  O   UNL A   1      32.910  32.399  27.359  1.00  0.00    -0.246 OA
BRANCH  30  32
ATOM     32  C   UNL A   1      34.848  31.035  27.680  1.00  0.00     0.060 A 
ATOM     33  C   UNL A   1      35.176  29.706  27.975  1.00  0.00     0.016 A 
ATOM     34  C   UNL A   1      35.776  32.050  27.921  1.00  0.00     0.016 A 
ATOM     35  C   UNL A   1      36.418  29.384  28.525  1.00  0.00     0.010 A 
ATOM     36  C   UNL A   1      37.011  31.732  28.500  1.00  0.00     0.010 A 
ATOM     37  C   UNL A   1      37.330  30.401  28.831  1.00  0.00    -0.014 A 
BRANCH  37  38
ATOM     38  C   UNL A   1      38.532  30.110  29.656  1.00  0.00     0.031 A 
ATOM     39  C   UNL A   1      39.544  29.129  29.126  1.00  0.00     0.074 A 
ATOM     40  C   UNL A   1      38.727  30.696  30.852  1.00  0.00     0.049 A 
ATOM     41  N   UNL A   1      40.601  28.628  29.711  1.00  0.00    -0.248 NA
ATOM     42  C   UNL A   1      39.333  28.647  27.751  1.00  0.00     0.031 C 
ATOM     43  C   UNL A   1      37.850  31.695  31.460  1.00  0.00     0.029 A 
ATOM     44  N   UNL A   1      39.721  30.510  31.782  1.00  0.00    -0.354 N 
ATOM     45  C   UNL A   1      41.162  27.748  28.792  1.00  0.00     0.074 A 
ATOM     46  C   UNL A   1      40.324  27.779  27.612  1.00  0.00     0.031 C 
ATOM     47  C   UNL A   1      38.329  32.011  32.677  1.00  0.00     0.029 A 
ATOM     48  C   UNL A   1      39.521  31.209  32.950  1.00  0.00     0.049 A 
ATOM     49  H   UNL A   1      40.502  29.930  31.627  1.00  0.00     0.167 HD
ATOM     50  C   UNL A   1      42.278  26.992  28.911  1.00  0.00     0.034 A 
ATOM     51  C   UNL A   1      40.201  31.178  34.114  1.00  0.00     0.034 A 
ATOM     52  C   UNL A   1      43.123  26.974  30.074  1.00  0.00     0.049 A 
ATOM     53  C   UNL A   1      41.408  30.279  34.242  1.00  0.00     0.074 A 
ATOM     54  C   UNL A   1      44.280  26.246  30.286  1.00  0.00     0.029 A 
ATOM     55  N   UNL A   1      42.902  27.717  31.223  1.00  0.00    -0.354 N 
ATOM     56  N   UNL A   1      41.964  29.505  33.341  1.00  0.00    -0.248 NA
ATOM     57  C   UNL A   1      42.094  30.269  35.543  1.00  0.00     0.031 C 
ATOM     58  C   UNL A   1      44.749  26.534  31.572  1.00  0.00     0.029 A 
ATOM     59  C   UNL A   1      43.899  27.465  32.149  1.00  0.00     0.049 A 
ATOM     60  H   UNL A   1      42.147  28.333  31.360  1.00  0.00     0.167 HD
ATOM     61  C   UNL A   1      43.087  28.953  33.953  1.00  0.00     0.074 A 
ATOM     62  C   UNL A   1      43.142  29.495  35.293  1.00  0.00     0.031 C 
ATOM     63  C   UNL A   1      43.982  28.064  33.455  1.00  0.00     0.034 A 
BRANCH  50  64
ATOM     64  C   UNL A   1      42.668  26.131  27.737  1.00  0.00     0.023 A 
ATOM     65  C   UNL A   1      43.578  26.629  26.783  1.00  0.00     0.012 A 
ATOM     66  C   UNL A   1      42.183  24.816  27.611  1.00  0.00     0.148 A 
ATOM     67  C   UNL A   1      43.977  25.841  25.704  1.00  0.00     0.002 A 
ATOM     68  C   UNL A   1      42.619  24.021  26.556  1.00  0.00     0.091 A 
ATOM     69  F   UNL A   1      41.303  24.368  28.518  1.00  0.00    -0.205 F 
ATOM     70  C   UNL A   1      43.507  24.536  25.598  1.00  0.00     0.022 A 
BRANCH  68  71
ATOM     71  S   UNL A   1      42.131  22.302  26.370  1.00  0.00     0.127 S 
ATOM     72  O   UNL A   1      42.563  21.733  27.646  1.00  0.00    -0.237 OA
ATOM     73  O   UNL A   1      40.682  22.410  26.209  1.00  0.00    -0.237 OA
ATOM     74  O   UNL A   1      42.840  21.807  25.198  1.00  0.00    -0.744 OA
ENDBRANCH  68  71
ENDBRANCH  50  64
BRANCH  51  75
ATOM     75  C   UNL A   1      39.779  32.030  35.264  1.00  0.00     0.023 A 
ATOM     76  C   UNL A   1      40.253  33.354  35.357  1.00  0.00     0.012 A 
ATOM     77  C   UNL A   1      38.938  31.533  36.278  1.00  0.00     0.148 A 
ATOM     78  C   UNL A   1      39.932  34.151  36.457  1.00  0.00     0.002 A 
ATOM     79  C   UNL A   1      38.575  32.351  37.343  1.00  0.00     0.091 A 
ATOM     80  F   UNL A   1      38.515  30.264  36.187  1.00  0.00    -0.205 F 
ATOM     81  C   UNL A   1      39.085  33.654  37.444  1.00  0.00     0.022 A 
BRANCH  79  82
ATOM     82  S   UNL A   1      37.399  31.831  38.597  1.00  0.00     0.127 S 
ATOM     83  O   UNL A   1      38.173  32.009  39.823  1.00  0.00    -0.237 OA
ATOM     84  O   UNL A   1      36.312  32.792  38.410  1.00  0.00    -0.237 OA
ATOM     85  O   UNL A   1      37.052  30.457  38.261  1.00  0.00    -0.744 OA
ENDBRANCH  79  82
ENDBRANCH  51  75
BRANCH  63  86
ATOM     86  C   UNL A   1      45.138  27.661  34.335  1.00  0.00     0.023 A 
ATOM     87  C   UNL A   1      45.094  26.442  35.042  1.00  0.00     0.012 A 
ATOM     88  C   UNL A   1      46.301  28.453  34.399  1.00  0.00     0.148 A 
ATOM     89  C   UNL A   1      46.174  26.037  35.825  1.00  0.00     0.002 A 
ATOM     90  C   UNL A   1      47.393  28.020  35.141  1.00  0.00     0.091 A 
ATOM     91  F   UNL A   1      46.319  29.617  33.732  1.00  0.00    -0.205 F 
ATOM     92  C   UNL A   1      47.327  26.819  35.866  1.00  0.00     0.022 A 
BRANCH  90  93
ATOM     93  S   UNL A   1      48.953  28.911  35.173  1.00  0.00     0.127 S 
ATOM     94  O   UNL A   1      48.929  29.507  36.508  1.00  0.00    -0.237 OA
ATOM     95  O   UNL A   1      49.929  27.834  35.004  1.00  0.00    -0.237 OA
ATOM     96  O   UNL A   1      48.899  29.857  34.067  1.00  0.00    -0.744 OA
ENDBRANCH  90  93
ENDBRANCH  63  86
ENDBRANCH  37  38
ENDBRANCH  30  32
ENDBRANCH  29  30
ENDBRANCH  28  29
ENDBRANCH  27  28
ENDBRANCH  26  27
ENDBRANCH  25  26
ENDBRANCH   1  25
TORSDOF 23
ENDMDL
