MODEL 1
REMARK VINA RESULT:     -11.9      0.000      0.000
REMARK SMILES O=C(OCCOCCOCCOC(=O)c1nccnc1C(=O)Nc1n[nH]c2ncccc12)c1ccc(-c2c3nc(c(-c4cccc(S(=O)(=O)[O-])c4F)c4ccc([nH]4)c(-c4cccc(S(=O)(=O)[O-])c4F)c4nc(c(-c5cccc(S(=O)(=O)[O-])c5F)c5ccc2[nH]5)C=C4)C=C3)cc1
REMARK SMILES IDX 7 1 6 2 5 3 4 4 3 5 2 6 1 7 33 8 34 9 95 10 35 11 94 12
REMARK SMILES IDX 36 13 37 14 38 15 88 16 39 17 93 18 87 19 89 20 40 21 92 22
REMARK SMILES IDX 86 23 85 24 41 26 73 27 53 28 72 29 54 30 57 31 71 32 90 33
REMARK SMILES IDX 55 34 56 35 70 37 91 38 58 39 42 40 43 41 51 42 44 43 46 44
REMARK SMILES IDX 52 45 45 46 47 47 48 48 49 49 50 50 74 51 75 52 83 53 76 54
REMARK SMILES IDX 78 55 84 56 77 57 79 58 80 59 81 60 82 61 59 62 60 63 68 64
REMARK SMILES IDX 61 65 63 66 69 67 62 68 64 69 65 70 66 71 67 72 8 73 9 74
REMARK SMILES IDX 10 75 11 76 12 77 13 78 14 79 15 80 16 81 20 82 17 83 19 84
REMARK SMILES IDX 18 85 21 86 22 87 23 88 24 90 25 91 32 92 26 93 27 94 31 95
REMARK SMILES IDX 28 97 30 98 29 99
REMARK H PARENT 89 25 57 36 23 89 26 96
REMARK Flexibility Score: inf
ROOT
ATOM      1  C   UNL A   1      32.023  29.717  26.665  1.00  0.00     0.188 C 
ENDROOT
BRANCH   1   2
ATOM      2  O   UNL A   1      32.263  31.056  27.094  1.00  0.00    -0.376 OA
BRANCH   2   3
ATOM      3  C   UNL A   1      31.420  32.043  26.520  1.00  0.00     0.202 C 
BRANCH   3   4
ATOM      4  C   UNL A   1      31.804  33.499  26.806  1.00  0.00     0.261 C 
BRANCH   4   5
ATOM      5  O   UNL A   1      32.595  33.741  27.982  1.00  0.00    -0.460 OA
BRANCH   5   6
ATOM      6  C   UNL A   1      33.889  34.122  28.124  1.00  0.00     0.338 C 
ATOM      7  O   UNL A   1      34.179  35.277  27.812  1.00  0.00    -0.246 OA
BRANCH   6   8
ATOM      8  C   UNL A   1      35.005  33.202  28.523  1.00  0.00     0.060 A 
ATOM      9  C   UNL A   1      34.849  31.926  29.062  1.00  0.00     0.016 A 
ATOM     10  C   UNL A   1      36.323  33.680  28.357  1.00  0.00     0.016 A 
ATOM     11  C   UNL A   1      35.949  31.125  29.372  1.00  0.00     0.010 A 
ATOM     12  C   UNL A   1      37.434  32.911  28.732  1.00  0.00     0.010 A 
ATOM     13  C   UNL A   1      37.244  31.631  29.255  1.00  0.00    -0.014 A 
BRANCH  13  14
ATOM     14  C   UNL A   1      38.330  30.896  29.935  1.00  0.00     0.031 A 
ATOM     15  C   UNL A   1      38.593  31.232  31.374  1.00  0.00     0.074 A 
ATOM     16  C   UNL A   1      38.983  29.883  29.341  1.00  0.00     0.049 A 
ATOM     17  N   UNL A   1      39.417  30.667  32.213  1.00  0.00    -0.248 NA
ATOM     18  C   UNL A   1      37.783  32.317  31.960  1.00  0.00     0.031 C 
ATOM     19  C   UNL A   1      38.728  29.394  27.991  1.00  0.00     0.029 A 
ATOM     20  N   UNL A   1      39.987  29.070  29.808  1.00  0.00    -0.354 N 
ATOM     21  C   UNL A   1      39.236  31.333  33.417  1.00  0.00     0.074 A 
ATOM     22  C   UNL A   1      38.198  32.319  33.216  1.00  0.00     0.031 C 
ATOM     23  C   UNL A   1      39.561  28.370  27.736  1.00  0.00     0.029 A 
ATOM     24  C   UNL A   1      40.467  28.196  28.861  1.00  0.00     0.049 A 
ATOM     25  H   UNL A   1      40.330  29.109  30.730  1.00  0.00     0.167 HD
ATOM     26  C   UNL A   1      39.896  31.154  34.582  1.00  0.00     0.034 A 
ATOM     27  C   UNL A   1      41.549  27.395  28.878  1.00  0.00     0.034 A 
ATOM     28  C   UNL A   1      40.969  30.220  34.753  1.00  0.00     0.049 A 
ATOM     29  C   UNL A   1      42.365  27.330  30.138  1.00  0.00     0.074 A 
ATOM     30  C   UNL A   1      41.722  29.976  35.886  1.00  0.00     0.029 A 
ATOM     31  N   UNL A   1      41.480  29.417  33.745  1.00  0.00    -0.354 N 
ATOM     32  N   UNL A   1      42.129  27.899  31.295  1.00  0.00    -0.248 NA
ATOM     33  C   UNL A   1      43.578  26.503  30.106  1.00  0.00     0.031 C 
ATOM     34  C   UNL A   1      42.729  29.068  35.546  1.00  0.00     0.029 A 
ATOM     35  C   UNL A   1      42.571  28.712  34.215  1.00  0.00     0.049 A 
ATOM     36  H   UNL A   1      41.121  29.359  32.831  1.00  0.00     0.167 HD
ATOM     37  C   UNL A   1      43.150  27.483  32.136  1.00  0.00     0.074 A 
ATOM     38  C   UNL A   1      43.995  26.595  31.362  1.00  0.00     0.031 C 
ATOM     39  C   UNL A   1      43.375  27.812  33.430  1.00  0.00     0.034 A 
BRANCH  26  40
ATOM     40  C   UNL A   1      39.522  32.048  35.727  1.00  0.00     0.023 A 
ATOM     41  C   UNL A   1      40.089  33.332  35.842  1.00  0.00     0.012 A 
ATOM     42  C   UNL A   1      38.590  31.606  36.684  1.00  0.00     0.148 A 
ATOM     43  C   UNL A   1      39.743  34.159  36.910  1.00  0.00     0.002 A 
ATOM     44  C   UNL A   1      38.223  32.448  37.722  1.00  0.00     0.091 A 
ATOM     45  F   UNL A   1      38.095  30.366  36.565  1.00  0.00    -0.205 F 
ATOM     46  C   UNL A   1      38.805  33.721  37.843  1.00  0.00     0.022 A 
BRANCH  44  47
ATOM     47  S   UNL A   1      36.986  31.997  38.941  1.00  0.00     0.127 S 
ATOM     48  O   UNL A   1      35.818  32.735  38.461  1.00  0.00    -0.237 OA
ATOM     49  O   UNL A   1      36.907  30.547  38.767  1.00  0.00    -0.237 OA
ATOM     50  O   UNL A   1      37.507  32.433  40.228  1.00  0.00    -0.744 OA
ENDBRANCH  44  47
ENDBRANCH  26  40
BRANCH  27  51
ATOM     51  C   UNL A   1      41.988  26.663  27.655  1.00  0.00     0.023 A 
ATOM     52  C   UNL A   1      42.553  27.355  26.568  1.00  0.00     0.012 A 
ATOM     53  C   UNL A   1      41.794  25.271  27.550  1.00  0.00     0.148 A 
ATOM     54  C   UNL A   1      42.897  26.676  25.395  1.00  0.00     0.002 A 
ATOM     55  C   UNL A   1      42.170  24.595  26.394  1.00  0.00     0.091 A 
ATOM     56  F   UNL A   1      41.254  24.626  28.595  1.00  0.00    -0.205 F 
ATOM     57  C   UNL A   1      42.715  25.297  25.310  1.00  0.00     0.022 A 
BRANCH  55  58
ATOM     58  S   UNL A   1      42.087  22.801  26.267  1.00  0.00     0.127 S 
ATOM     59  O   UNL A   1      40.653  22.552  26.364  1.00  0.00    -0.237 OA
ATOM     60  O   UNL A   1      42.677  22.567  24.950  1.00  0.00    -0.237 OA
ATOM     61  O   UNL A   1      42.902  22.304  27.370  1.00  0.00    -0.744 OA
ENDBRANCH  55  58
ENDBRANCH  27  51
BRANCH  39  62
ATOM     62  C   UNL A   1      44.569  27.198  34.102  1.00  0.00     0.023 A 
ATOM     63  C   UNL A   1      45.807  27.867  34.080  1.00  0.00     0.012 A 
ATOM     64  C   UNL A   1      44.431  26.007  34.839  1.00  0.00     0.148 A 
ATOM     65  C   UNL A   1      46.900  27.346  34.770  1.00  0.00     0.002 A 
ATOM     66  C   UNL A   1      45.507  25.524  35.569  1.00  0.00     0.091 A 
ATOM     67  F   UNL A   1      43.244  25.382  34.825  1.00  0.00    -0.205 F 
ATOM     68  C   UNL A   1      46.746  26.186  35.526  1.00  0.00     0.022 A 
BRANCH  66  69
ATOM     69  S   UNL A   1      45.372  24.100  36.653  1.00  0.00     0.127 S 
ATOM     70  O   UNL A   1      44.690  23.135  35.793  1.00  0.00    -0.237 OA
ATOM     71  O   UNL A   1      46.774  23.792  36.931  1.00  0.00    -0.237 OA
ATOM     72  O   UNL A   1      44.608  24.547  37.812  1.00  0.00    -0.744 OA
ENDBRANCH  66  69
ENDBRANCH  39  62
ENDBRANCH  13  14
ENDBRANCH   6   8
ENDBRANCH   5   6
ENDBRANCH   4   5
ENDBRANCH   3   4
ENDBRANCH   2   3
ENDBRANCH   1   2
BRANCH   1  73
ATOM     73  C   UNL A   1      31.947  29.570  25.149  1.00  0.00     0.188 C 
BRANCH  73  74
ATOM     74  O   UNL A   1      33.082  29.014  24.501  1.00  0.00    -0.376 OA
BRANCH  74  75
ATOM     75  C   UNL A   1      33.320  27.613  24.530  1.00  0.00     0.202 C 
BRANCH  75  76
ATOM     76  C   UNL A   1      32.984  26.684  25.885  1.00  0.00     0.261 C 
BRANCH  76  77
ATOM     77  O   UNL A   1      33.731  24.880  26.458  1.00  0.00    -0.458 OA
BRANCH  77  78
ATOM     78  C   UNL A   1      34.275  23.569  26.532  1.00  0.00     0.359 C 
ATOM     79  O   UNL A   1      33.944  22.869  27.497  1.00  0.00    -0.244 OA
BRANCH  78  80
ATOM     80  C   UNL A   1      35.234  22.927  25.534  1.00  0.00     0.179 A 
ATOM     81  N   UNL A   1      36.274  22.407  26.264  1.00  0.00    -0.245 NA
ATOM     82  C   UNL A   1      35.214  22.756  24.132  1.00  0.00     0.161 A 
ATOM     83  C   UNL A   1      37.243  21.737  25.608  1.00  0.00     0.132 A 
ATOM     84  N   UNL A   1      36.292  22.175  23.495  1.00  0.00    -0.247 NA
ATOM     85  C   UNL A   1      37.284  21.659  24.244  1.00  0.00     0.132 A 
BRANCH  82  86
ATOM     86  C   UNL A   1      34.158  23.019  23.050  1.00  0.00     0.278 C 
ATOM     87  O   UNL A   1      34.368  23.839  22.151  1.00  0.00    -0.267 OA
ATOM     88  N   UNL A   1      33.038  22.243  22.926  1.00  0.00    -0.303 N 
ATOM     89  H   UNL A   1      32.883  21.773  22.074  1.00  0.00     0.172 HD
BRANCH  88  90
ATOM     90  C   UNL A   1      32.131  22.090  23.922  1.00  0.00     0.164 A 
ATOM     91  N   UNL A   1      32.274  21.133  24.849  1.00  0.00    -0.155 NA
ATOM     92  C   UNL A   1      31.079  22.996  24.135  1.00  0.00     0.063 A 
ATOM     93  N   UNL A   1      31.595  21.526  25.974  1.00  0.00    -0.259 N 
ATOM     94  C   UNL A   1      30.839  22.652  25.839  1.00  0.00     0.157 A 
ATOM     95  C   UNL A   1      30.554  24.614  23.489  1.00  0.00     0.017 A 
ATOM     96  H   UNL A   1      31.649  21.028  26.821  1.00  0.00     0.192 HD
ATOM     97  N   UNL A   1      30.153  23.760  26.955  1.00  0.00    -0.237 NA
ATOM     98  C   UNL A   1      29.912  25.832  24.638  1.00  0.00     0.021 A 
ATOM     99  C   UNL A   1      29.763  25.363  26.319  1.00  0.00     0.113 A 
ENDBRANCH  88  90
ENDBRANCH  82  86
ENDBRANCH  78  80
ENDBRANCH  77  78
ENDBRANCH  76  77
ENDBRANCH  75  76
ENDBRANCH  74  75
ENDBRANCH  73  74
ENDBRANCH   1  73
TORSDOF 22
ENDMDL
MODEL 2
REMARK VINA RESULT:     -11.6      1.388      2.509
REMARK SMILES O=C(OCCOCCOCCOC(=O)c1nccnc1C(=O)Nc1n[nH]c2ncccc12)c1ccc(-c2c3nc(c(-c4cccc(S(=O)(=O)[O-])c4F)c4ccc([nH]4)c(-c4cccc(S(=O)(=O)[O-])c4F)c4nc(c(-c5cccc(S(=O)(=O)[O-])c5F)c5ccc2[nH]5)C=C4)C=C3)cc1
REMARK SMILES IDX 7 1 6 2 5 3 4 4 3 5 2 6 1 7 33 8 34 9 95 10 35 11 94 12
REMARK SMILES IDX 36 13 37 14 38 15 88 16 39 17 93 18 87 19 89 20 40 21 92 22
REMARK SMILES IDX 86 23 85 24 41 26 73 27 53 28 72 29 54 30 57 31 71 32 90 33
REMARK SMILES IDX 55 34 56 35 70 37 91 38 58 39 42 40 43 41 51 42 44 43 46 44
REMARK SMILES IDX 52 45 45 46 47 47 48 48 49 49 50 50 74 51 75 52 83 53 76 54
REMARK SMILES IDX 78 55 84 56 77 57 79 58 80 59 81 60 82 61 59 62 60 63 68 64
REMARK SMILES IDX 61 65 63 66 69 67 62 68 64 69 65 70 66 71 67 72 8 73 9 74
REMARK SMILES IDX 10 75 11 76 12 77 13 78 14 79 15 80 16 81 20 82 17 83 19 84
REMARK SMILES IDX 18 85 21 86 22 87 23 88 24 90 25 91 32 92 26 93 27 94 31 95
REMARK SMILES IDX 28 97 30 98 29 99
REMARK H PARENT 89 25 57 36 23 89 26 96
REMARK Flexibility Score: inf
ROOT
ATOM      1  C   UNL A   1      33.056  29.500  27.293  1.00  0.00     0.188 C 
ENDROOT
BRANCH   1   2
ATOM      2  O   UNL A   1      32.198  30.638  27.253  1.00  0.00    -0.376 OA
BRANCH   2   3
ATOM      3  C   UNL A   1      32.795  31.840  26.791  1.00  0.00     0.202 C 
BRANCH   3   4
ATOM      4  C   UNL A   1      31.976  33.118  27.001  1.00  0.00     0.261 C 
BRANCH   4   5
ATOM      5  O   UNL A   1      32.454  34.037  27.999  1.00  0.00    -0.460 OA
BRANCH   5   6
ATOM      6  C   UNL A   1      33.713  34.403  28.346  1.00  0.00     0.338 C 
ATOM      7  O   UNL A   1      34.012  35.591  28.227  1.00  0.00    -0.246 OA
BRANCH   6   8
ATOM      8  C   UNL A   1      34.795  33.445  28.749  1.00  0.00     0.060 A 
ATOM      9  C   UNL A   1      34.612  32.292  29.512  1.00  0.00     0.016 A 
ATOM     10  C   UNL A   1      36.110  33.750  28.339  1.00  0.00     0.016 A 
ATOM     11  C   UNL A   1      35.674  31.438  29.811  1.00  0.00     0.010 A 
ATOM     12  C   UNL A   1      37.195  32.936  28.695  1.00  0.00     0.010 A 
ATOM     13  C   UNL A   1      36.976  31.781  29.447  1.00  0.00    -0.014 A 
BRANCH  13  14
ATOM     14  C   UNL A   1      38.083  31.051  30.099  1.00  0.00     0.031 A 
ATOM     15  C   UNL A   1      38.348  31.350  31.546  1.00  0.00     0.074 A 
ATOM     16  C   UNL A   1      38.755  30.071  29.472  1.00  0.00     0.049 A 
ATOM     17  N   UNL A   1      39.190  30.780  32.363  1.00  0.00    -0.248 NA
ATOM     18  C   UNL A   1      37.518  32.399  32.168  1.00  0.00     0.031 C 
ATOM     19  C   UNL A   1      38.503  29.617  28.109  1.00  0.00     0.029 A 
ATOM     20  N   UNL A   1      39.780  29.268  29.908  1.00  0.00    -0.354 N 
ATOM     21  C   UNL A   1      39.002  31.406  33.587  1.00  0.00     0.074 A 
ATOM     22  C   UNL A   1      37.941  32.373  33.422  1.00  0.00     0.031 C 
ATOM     23  C   UNL A   1      39.356  28.620  27.819  1.00  0.00     0.029 A 
ATOM     24  C   UNL A   1      40.273  28.434  28.933  1.00  0.00     0.049 A 
ATOM     25  H   UNL A   1      40.128  29.288  30.829  1.00  0.00     0.167 HD
ATOM     26  C   UNL A   1      39.673  31.208  34.742  1.00  0.00     0.034 A 
ATOM     27  C   UNL A   1      41.374  27.657  28.920  1.00  0.00     0.034 A 
ATOM     28  C   UNL A   1      40.769  30.294  34.879  1.00  0.00     0.049 A 
ATOM     29  C   UNL A   1      42.199  27.574  30.173  1.00  0.00     0.074 A 
ATOM     30  C   UNL A   1      41.535  30.035  36.000  1.00  0.00     0.029 A 
ATOM     31  N   UNL A   1      41.291  29.533  33.845  1.00  0.00    -0.354 N 
ATOM     32  N   UNL A   1      41.958  28.104  31.347  1.00  0.00    -0.248 NA
ATOM     33  C   UNL A   1      43.431  26.777  30.110  1.00  0.00     0.031 C 
ATOM     34  C   UNL A   1      42.560  29.160  35.627  1.00  0.00     0.029 A 
ATOM     35  C   UNL A   1      42.401  28.840  34.287  1.00  0.00     0.049 A 
ATOM     36  H   UNL A   1      40.927  29.494  32.932  1.00  0.00     0.167 HD
ATOM     37  C   UNL A   1      42.994  27.686  32.170  1.00  0.00     0.074 A 
ATOM     38  C   UNL A   1      43.853  26.841  31.365  1.00  0.00     0.031 C 
ATOM     39  C   UNL A   1      43.220  27.982  33.472  1.00  0.00     0.034 A 
BRANCH  26  40
ATOM     40  C   UNL A   1      39.287  32.059  35.916  1.00  0.00     0.023 A 
ATOM     41  C   UNL A   1      39.785  33.370  36.039  1.00  0.00     0.012 A 
ATOM     42  C   UNL A   1      38.411  31.549  36.891  1.00  0.00     0.148 A 
ATOM     43  C   UNL A   1      39.428  34.158  37.132  1.00  0.00     0.002 A 
ATOM     44  C   UNL A   1      38.031  32.351  37.956  1.00  0.00     0.091 A 
ATOM     45  F   UNL A   1      37.982  30.285  36.763  1.00  0.00    -0.205 F 
ATOM     46  C   UNL A   1      38.545  33.652  38.085  1.00  0.00     0.022 A 
BRANCH  44  47
ATOM     47  S   UNL A   1      36.859  31.809  39.203  1.00  0.00     0.127 S 
ATOM     48  O   UNL A   1      36.719  30.390  38.878  1.00  0.00    -0.237 OA
ATOM     49  O   UNL A   1      37.588  32.084  40.440  1.00  0.00    -0.237 OA
ATOM     50  O   UNL A   1      35.660  32.609  39.007  1.00  0.00    -0.744 OA
ENDBRANCH  44  47
ENDBRANCH  26  40
BRANCH  27  51
ATOM     51  C   UNL A   1      41.821  26.972  27.673  1.00  0.00     0.023 A 
ATOM     52  C   UNL A   1      42.311  27.713  26.583  1.00  0.00     0.012 A 
ATOM     53  C   UNL A   1      41.710  25.572  27.551  1.00  0.00     0.148 A 
ATOM     54  C   UNL A   1      42.661  27.074  25.389  1.00  0.00     0.002 A 
ATOM     55  C   UNL A   1      42.094  24.937  26.374  1.00  0.00     0.091 A 
ATOM     56  F   UNL A   1      41.242  24.880  28.600  1.00  0.00    -0.205 F 
ATOM     57  C   UNL A   1      42.562  25.688  25.287  1.00  0.00     0.022 A 
BRANCH  55  58
ATOM     58  S   UNL A   1      42.117  23.145  26.220  1.00  0.00     0.127 S 
ATOM     59  O   UNL A   1      42.692  22.956  24.893  1.00  0.00    -0.237 OA
ATOM     60  O   UNL A   1      42.979  22.760  27.337  1.00  0.00    -0.237 OA
ATOM     61  O   UNL A   1      40.728  22.731  26.384  1.00  0.00    -0.744 OA
ENDBRANCH  55  58
ENDBRANCH  27  51
BRANCH  39  62
ATOM     62  C   UNL A   1      44.432  27.376  34.118  1.00  0.00     0.023 A 
ATOM     63  C   UNL A   1      45.661  28.062  34.087  1.00  0.00     0.012 A 
ATOM     64  C   UNL A   1      44.321  26.174  34.841  1.00  0.00     0.148 A 
ATOM     65  C   UNL A   1      46.770  27.548  34.754  1.00  0.00     0.002 A 
ATOM     66  C   UNL A   1      45.414  25.697  35.549  1.00  0.00     0.091 A 
ATOM     67  F   UNL A   1      43.143  25.533  34.837  1.00  0.00    -0.205 F 
ATOM     68  C   UNL A   1      46.643  26.377  35.497  1.00  0.00     0.022 A 
BRANCH  66  69
ATOM     69  S   UNL A   1      45.314  24.258  36.617  1.00  0.00     0.127 S 
ATOM     70  O   UNL A   1      44.307  24.679  37.590  1.00  0.00    -0.237 OA
ATOM     71  O   UNL A   1      44.873  23.217  35.690  1.00  0.00    -0.237 OA
ATOM     72  O   UNL A   1      46.654  24.062  37.156  1.00  0.00    -0.744 OA
ENDBRANCH  66  69
ENDBRANCH  39  62
ENDBRANCH  13  14
ENDBRANCH   6   8
ENDBRANCH   5   6
ENDBRANCH   4   5
ENDBRANCH   3   4
ENDBRANCH   2   3
ENDBRANCH   1   2
BRANCH   1  73
ATOM     73  C   UNL A   1      32.304  28.173  27.250  1.00  0.00     0.188 C 
BRANCH  73  74
ATOM     74  O   UNL A   1      32.926  27.107  26.547  1.00  0.00    -0.376 OA
BRANCH  74  75
ATOM     75  C   UNL A   1      33.827  27.370  25.479  1.00  0.00     0.202 C 
BRANCH  75  76
ATOM     76  C   UNL A   1      33.595  26.730  23.946  1.00  0.00     0.261 C 
BRANCH  76  77
ATOM     77  O   UNL A   1      33.984  24.866  23.229  1.00  0.00    -0.458 OA
BRANCH  77  78
ATOM     78  C   UNL A   1      34.385  23.517  23.029  1.00  0.00     0.359 C 
ATOM     79  O   UNL A   1      34.036  22.970  21.976  1.00  0.00    -0.244 OA
BRANCH  78  80
ATOM     80  C   UNL A   1      35.211  22.665  23.987  1.00  0.00     0.179 A 
ATOM     81  N   UNL A   1      36.526  22.825  23.626  1.00  0.00    -0.245 NA
ATOM     82  C   UNL A   1      34.889  21.853  25.097  1.00  0.00     0.161 A 
ATOM     83  C   UNL A   1      37.471  22.205  24.360  1.00  0.00     0.132 A 
ATOM     84  N   UNL A   1      35.881  21.137  25.737  1.00  0.00    -0.247 NA
ATOM     85  C   UNL A   1      37.160  21.335  25.369  1.00  0.00     0.132 A 
BRANCH  82  86
ATOM     86  C   UNL A   1      33.595  21.605  25.885  1.00  0.00     0.278 C 
ATOM     87  O   UNL A   1      33.593  21.641  27.119  1.00  0.00    -0.267 OA
ATOM     88  N   UNL A   1      32.376  21.518  25.269  1.00  0.00    -0.303 N 
ATOM     89  H   UNL A   1      31.670  22.154  25.531  1.00  0.00     0.172 HD
BRANCH  88  90
ATOM     90  C   UNL A   1      32.095  20.598  24.314  1.00  0.00     0.164 A 
ATOM     91  N   UNL A   1      31.832  20.966  23.053  1.00  0.00    -0.155 NA
ATOM     92  C   UNL A   1      32.200  19.216  24.540  1.00  0.00     0.063 A 
ATOM     93  N   UNL A   1      32.125  19.907  22.232  1.00  0.00    -0.259 N 
ATOM     94  C   UNL A   1      32.436  18.742  22.866  1.00  0.00     0.157 A 
ATOM     95  C   UNL A   1      32.813  18.117  25.853  1.00  0.00     0.017 A 
ATOM     96  H   UNL A   1      32.111  19.983  21.251  1.00  0.00     0.192 HD
ATOM     97  N   UNL A   1      33.234  17.303  22.380  1.00  0.00    -0.237 NA
ATOM     98  C   UNL A   1      33.728  16.646  25.387  1.00  0.00     0.021 A 
ATOM     99  C   UNL A   1      33.920  16.317  23.677  1.00  0.00     0.113 A 
ENDBRANCH  88  90
ENDBRANCH  82  86
ENDBRANCH  78  80
ENDBRANCH  77  78
ENDBRANCH  76  77
ENDBRANCH  75  76
ENDBRANCH  74  75
ENDBRANCH  73  74
ENDBRANCH   1  73
TORSDOF 22
ENDMDL
MODEL 3
REMARK VINA RESULT:     -11.0      6.026     11.621
REMARK SMILES O=C(OCCOCCOCCOC(=O)c1nccnc1C(=O)Nc1n[nH]c2ncccc12)c1ccc(-c2c3nc(c(-c4cccc(S(=O)(=O)[O-])c4F)c4ccc([nH]4)c(-c4cccc(S(=O)(=O)[O-])c4F)c4nc(c(-c5cccc(S(=O)(=O)[O-])c5F)c5ccc2[nH]5)C=C4)C=C3)cc1
REMARK SMILES IDX 7 1 6 2 5 3 4 4 3 5 2 6 1 7 33 8 34 9 95 10 35 11 94 12
REMARK SMILES IDX 36 13 37 14 38 15 88 16 39 17 93 18 87 19 89 20 40 21 92 22
REMARK SMILES IDX 86 23 85 24 41 26 73 27 53 28 72 29 54 30 57 31 71 32 90 33
REMARK SMILES IDX 55 34 56 35 70 37 91 38 58 39 42 40 43 41 51 42 44 43 46 44
REMARK SMILES IDX 52 45 45 46 47 47 48 48 49 49 50 50 74 51 75 52 83 53 76 54
REMARK SMILES IDX 78 55 84 56 77 57 79 58 80 59 81 60 82 61 59 62 60 63 68 64
REMARK SMILES IDX 61 65 63 66 69 67 62 68 64 69 65 70 66 71 67 72 8 73 9 74
REMARK SMILES IDX 10 75 11 76 12 77 13 78 14 79 15 80 16 81 20 82 17 83 19 84
REMARK SMILES IDX 18 85 21 86 22 87 23 88 24 90 25 91 32 92 26 93 27 94 31 95
REMARK SMILES IDX 28 97 30 98 29 99
REMARK H PARENT 89 25 57 36 23 89 26 96
REMARK Flexibility Score: inf
ROOT
ATOM      1  C   UNL A   1      40.787  20.710  27.170  1.00  0.00     0.188 C 
ENDROOT
BRANCH   1   2
ATOM      2  O   UNL A   1      42.019  20.111  26.772  1.00  0.00    -0.376 OA
BRANCH   2   3
ATOM      3  C   UNL A   1      41.904  18.896  26.048  1.00  0.00     0.202 C 
BRANCH   3   4
ATOM      4  C   UNL A   1      43.214  18.142  25.793  1.00  0.00     0.261 C 
BRANCH   4   5
ATOM      5  O   UNL A   1      43.937  18.485  24.598  1.00  0.00    -0.460 OA
BRANCH   5   6
ATOM      6  C   UNL A   1      44.866  19.444  24.361  1.00  0.00     0.338 C 
ATOM      7  O   UNL A   1      45.936  19.087  23.867  1.00  0.00    -0.246 OA
BRANCH   6   8
ATOM      8  C   UNL A   1      44.726  20.881  24.767  1.00  0.00     0.060 A 
ATOM      9  C   UNL A   1      44.528  21.952  23.896  1.00  0.00     0.016 A 
ATOM     10  C   UNL A   1      44.825  21.174  26.143  1.00  0.00     0.016 A 
ATOM     11  C   UNL A   1      44.373  23.257  24.366  1.00  0.00     0.010 A 
ATOM     12  C   UNL A   1      44.742  22.490  26.620  1.00  0.00     0.010 A 
ATOM     13  C   UNL A   1      44.528  23.539  25.723  1.00  0.00    -0.014 A 
BRANCH  13  14
ATOM     14  C   UNL A   1      44.725  24.951  26.111  1.00  0.00     0.031 A 
ATOM     15  C   UNL A   1      46.116  25.505  26.014  1.00  0.00     0.074 A 
ATOM     16  C   UNL A   1      43.693  25.752  26.423  1.00  0.00     0.049 A 
ATOM     17  N   UNL A   1      46.530  26.728  26.201  1.00  0.00    -0.248 NA
ATOM     18  C   UNL A   1      47.176  24.564  25.602  1.00  0.00     0.031 C 
ATOM     19  C   UNL A   1      42.290  25.352  26.434  1.00  0.00     0.029 A 
ATOM     20  N   UNL A   1      43.665  27.079  26.776  1.00  0.00    -0.354 N 
ATOM     21  C   UNL A   1      47.893  26.702  25.944  1.00  0.00     0.074 A 
ATOM     22  C   UNL A   1      48.236  25.355  25.550  1.00  0.00     0.031 C 
ATOM     23  C   UNL A   1      41.539  26.411  26.784  1.00  0.00     0.029 A 
ATOM     24  C   UNL A   1      42.410  27.528  27.115  1.00  0.00     0.049 A 
ATOM     25  H   UNL A   1      44.466  27.652  26.787  1.00  0.00     0.167 HD
ATOM     26  C   UNL A   1      48.785  27.710  26.051  1.00  0.00     0.034 A 
ATOM     27  C   UNL A   1      42.019  28.684  27.685  1.00  0.00     0.034 A 
ATOM     28  C   UNL A   1      48.448  29.027  26.508  1.00  0.00     0.049 A 
ATOM     29  C   UNL A   1      43.060  29.737  27.942  1.00  0.00     0.074 A 
ATOM     30  C   UNL A   1      49.281  30.116  26.676  1.00  0.00     0.029 A 
ATOM     31  N   UNL A   1      47.183  29.414  26.922  1.00  0.00    -0.354 N 
ATOM     32  N   UNL A   1      44.328  29.730  27.613  1.00  0.00    -0.248 NA
ATOM     33  C   UNL A   1      42.618  30.959  28.627  1.00  0.00     0.031 C 
ATOM     34  C   UNL A   1      48.531  31.146  27.251  1.00  0.00     0.029 A 
ATOM     35  C   UNL A   1      47.222  30.712  27.394  1.00  0.00     0.049 A 
ATOM     36  H   UNL A   1      46.378  28.849  26.887  1.00  0.00     0.167 HD
ATOM     37  C   UNL A   1      44.833  30.953  28.029  1.00  0.00     0.074 A 
ATOM     38  C   UNL A   1      43.728  31.685  28.615  1.00  0.00     0.031 C 
ATOM     39  C   UNL A   1      46.099  31.426  27.944  1.00  0.00     0.034 A 
BRANCH  26  40
ATOM     40  C   UNL A   1      50.220  27.394  25.748  1.00  0.00     0.023 A 
ATOM     41  C   UNL A   1      51.082  26.950  26.768  1.00  0.00     0.012 A 
ATOM     42  C   UNL A   1      50.702  27.527  24.432  1.00  0.00     0.148 A 
ATOM     43  C   UNL A   1      52.416  26.660  26.484  1.00  0.00     0.002 A 
ATOM     44  C   UNL A   1      52.019  27.201  24.150  1.00  0.00     0.091 A 
ATOM     45  F   UNL A   1      49.864  27.984  23.490  1.00  0.00    -0.205 F 
ATOM     46  C   UNL A   1      52.882  26.777  25.175  1.00  0.00     0.022 A 
BRANCH  44  47
ATOM     47  S   UNL A   1      52.697  27.267  22.490  1.00  0.00     0.127 S 
ATOM     48  O   UNL A   1      53.898  26.444  22.629  1.00  0.00    -0.237 OA
ATOM     49  O   UNL A   1      51.625  26.657  21.703  1.00  0.00    -0.237 OA
ATOM     50  O   UNL A   1      52.941  28.674  22.208  1.00  0.00    -0.744 OA
ENDBRANCH  44  47
ENDBRANCH  26  40
BRANCH  27  51
ATOM     51  C   UNL A   1      40.612  28.885  28.137  1.00  0.00     0.023 A 
ATOM     52  C   UNL A   1      39.625  29.328  27.238  1.00  0.00     0.012 A 
ATOM     53  C   UNL A   1      40.263  28.684  29.488  1.00  0.00     0.148 A 
ATOM     54  C   UNL A   1      38.324  29.584  27.680  1.00  0.00     0.002 A 
ATOM     55  C   UNL A   1      38.958  28.907  29.916  1.00  0.00     0.091 A 
ATOM     56  F   UNL A   1      41.215  28.262  30.333  1.00  0.00    -0.205 F 
ATOM     57  C   UNL A   1      37.987  29.366  29.015  1.00  0.00     0.022 A 
BRANCH  55  58
ATOM     58  S   UNL A   1      38.424  28.520  31.590  1.00  0.00     0.127 S 
ATOM     59  O   UNL A   1      39.320  29.339  32.397  1.00  0.00    -0.237 OA
ATOM     60  O   UNL A   1      37.028  28.953  31.566  1.00  0.00    -0.237 OA
ATOM     61  O   UNL A   1      38.585  27.075  31.716  1.00  0.00    -0.744 OA
ENDBRANCH  55  58
ENDBRANCH  27  51
BRANCH  39  62
ATOM     62  C   UNL A   1      46.360  32.805  28.476  1.00  0.00     0.023 A 
ATOM     63  C   UNL A   1      46.906  32.968  29.763  1.00  0.00     0.012 A 
ATOM     64  C   UNL A   1      46.155  33.931  27.656  1.00  0.00     0.148 A 
ATOM     65  C   UNL A   1      47.228  34.239  30.234  1.00  0.00     0.002 A 
ATOM     66  C   UNL A   1      46.530  35.186  28.110  1.00  0.00     0.091 A 
ATOM     67  F   UNL A   1      45.616  33.746  26.442  1.00  0.00    -0.205 F 
ATOM     68  C   UNL A   1      47.056  35.344  29.404  1.00  0.00     0.022 A 
BRANCH  66  69
ATOM     69  S   UNL A   1      46.445  36.648  27.072  1.00  0.00     0.127 S 
ATOM     70  O   UNL A   1      47.244  36.241  25.918  1.00  0.00    -0.237 OA
ATOM     71  O   UNL A   1      45.010  36.760  26.816  1.00  0.00    -0.237 OA
ATOM     72  O   UNL A   1      47.006  37.737  27.862  1.00  0.00    -0.744 OA
ENDBRANCH  66  69
ENDBRANCH  39  62
ENDBRANCH  13  14
ENDBRANCH   6   8
ENDBRANCH   5   6
ENDBRANCH   4   5
ENDBRANCH   3   4
ENDBRANCH   2   3
ENDBRANCH   1   2
BRANCH   1  73
ATOM     73  C   UNL A   1      39.825  20.946  26.010  1.00  0.00     0.188 C 
BRANCH  73  74
ATOM     74  O   UNL A   1      38.851  21.964  26.182  1.00  0.00    -0.376 OA
BRANCH  74  75
ATOM     75  C   UNL A   1      37.727  22.048  25.315  1.00  0.00     0.202 C 
BRANCH  75  76
ATOM     76  C   UNL A   1      36.756  23.414  25.252  1.00  0.00     0.261 C 
BRANCH  76  77
ATOM     77  O   UNL A   1      35.209  23.869  24.011  1.00  0.00    -0.458 OA
BRANCH  77  78
ATOM     78  C   UNL A   1      34.281  24.479  23.124  1.00  0.00     0.359 C 
ATOM     79  O   UNL A   1      33.883  23.807  22.165  1.00  0.00    -0.244 OA
BRANCH  78  80
ATOM     80  C   UNL A   1      33.716  25.892  23.234  1.00  0.00     0.179 A 
ATOM     81  N   UNL A   1      34.046  26.541  22.070  1.00  0.00    -0.245 NA
ATOM     82  C   UNL A   1      32.954  26.566  24.214  1.00  0.00     0.161 A 
ATOM     83  C   UNL A   1      33.614  27.807  21.899  1.00  0.00     0.132 A 
ATOM     84  N   UNL A   1      32.645  27.901  24.048  1.00  0.00    -0.247 NA
ATOM     85  C   UNL A   1      32.967  28.498  22.885  1.00  0.00     0.132 A 
BRANCH  82  86
ATOM     86  C   UNL A   1      32.257  26.115  25.505  1.00  0.00     0.278 C 
ATOM     87  O   UNL A   1      32.591  26.584  26.597  1.00  0.00    -0.267 OA
ATOM     88  N   UNL A   1      31.136  25.331  25.489  1.00  0.00    -0.303 N 
ATOM     89  H   UNL A   1      30.315  25.675  25.911  1.00  0.00     0.172 HD
BRANCH  88  90
ATOM     90  C   UNL A   1      31.102  24.102  24.918  1.00  0.00     0.164 A 
ATOM     91  N   UNL A   1      30.638  23.929  23.673  1.00  0.00    -0.155 NA
ATOM     92  C   UNL A   1      31.674  22.970  25.521  1.00  0.00     0.063 A 
ATOM     93  N   UNL A   1      31.200  22.785  23.165  1.00  0.00    -0.259 N 
ATOM     94  C   UNL A   1      31.925  22.046  24.050  1.00  0.00     0.157 A 
ATOM     95  C   UNL A   1      32.714  22.606  26.969  1.00  0.00     0.017 A 
ATOM     96  H   UNL A   1      31.086  22.517  22.225  1.00  0.00     0.192 HD
ATOM     97  N   UNL A   1      33.114  20.820  23.878  1.00  0.00    -0.237 NA
ATOM     98  C   UNL A   1      34.024  21.393  26.804  1.00  0.00     0.021 A 
ATOM     99  C   UNL A   1      34.183  20.574  25.264  1.00  0.00     0.113 A 
ENDBRANCH  88  90
ENDBRANCH  82  86
ENDBRANCH  78  80
ENDBRANCH  77  78
ENDBRANCH  76  77
ENDBRANCH  75  76
ENDBRANCH  74  75
ENDBRANCH  73  74
ENDBRANCH   1  73
TORSDOF 22
ENDMDL
