MODEL 1
REMARK VINA RESULT:     -11.2      0.000      0.000
REMARK SMILES O=C(OCCOCCOCCOC(=O)[C@H]1CCCN(C(=O)C2CCN(S(=O)(=O)c3ccccc3)CC2)C1)c1ccc(-c2c3nc(c(-c4cccc(S(=O)(=O)[O-])c4F)c4ccc([nH]4)c(-c4cccc(S(=O)(=O)[O-])c4F)c4nc(c(-c5cccc(S(=O)(=O)[O-])c5F)c5ccc2[nH]5)C=C4)C=C3)cc1
REMARK SMILES IDX 8 1 7 2 6 3 5 4 4 5 3 6 2 7 1 8 38 9 39 10 100 11 40 12
REMARK SMILES IDX 99 13 41 14 42 15 43 16 93 17 44 18 98 19 92 20 94 21 45 22
REMARK SMILES IDX 97 23 91 24 90 25 46 27 78 28 58 29 77 30 59 31 62 32 76 33
REMARK SMILES IDX 95 34 60 35 61 36 75 38 96 39 63 40 47 41 48 42 56 43 49 44
REMARK SMILES IDX 51 45 57 46 50 47 52 48 53 49 54 50 55 51 79 52 80 53 88 54
REMARK SMILES IDX 81 55 83 56 89 57 82 58 84 59 85 60 86 61 87 62 64 63 65 64
REMARK SMILES IDX 73 65 66 66 68 67 74 68 67 69 69 70 70 71 71 72 72 73 9 74
REMARK SMILES IDX 10 75 11 76 12 77 13 78 14 79 15 80 16 81 37 82 17 83 19 84
REMARK SMILES IDX 18 85 20 86 21 87 22 88 23 89 36 90 24 91 35 92 25 93 26 94
REMARK SMILES IDX 27 95 28 96 29 97 30 98 34 99 31 100 33 101 32 102
REMARK H PARENT 94 26 62 37
REMARK Flexibility Score: inf
ROOT
ATOM      1  C   UNL A   1      32.913  33.011  27.273  1.00  0.00     0.188 C 
ENDROOT
BRANCH   1   2
ATOM      2  C   UNL A   1      33.545  33.596  28.535  1.00  0.00     0.188 C 
BRANCH   2   3
ATOM      3  O   UNL A   1      32.774  34.631  29.147  1.00  0.00    -0.376 OA
BRANCH   3   4
ATOM      4  C   UNL A   1      33.165  35.942  28.746  1.00  0.00     0.202 C 
BRANCH   4   5
ATOM      5  C   UNL A   1      32.994  37.061  29.788  1.00  0.00     0.261 C 
BRANCH   5   6
ATOM      6  O   UNL A   1      32.292  36.682  30.982  1.00  0.00    -0.460 OA
BRANCH   6   7
ATOM      7  C   UNL A   1      32.760  36.269  32.184  1.00  0.00     0.338 C 
ATOM      8  O   UNL A   1      32.379  36.889  33.178  1.00  0.00    -0.246 OA
BRANCH   7   9
ATOM      9  C   UNL A   1      33.742  35.149  32.390  1.00  0.00     0.060 A 
ATOM     10  C   UNL A   1      33.536  33.997  33.155  1.00  0.00     0.016 A 
ATOM     11  C   UNL A   1      34.992  35.283  31.756  1.00  0.00     0.016 A 
ATOM     12  C   UNL A   1      34.533  33.036  33.333  1.00  0.00     0.010 A 
ATOM     13  C   UNL A   1      35.998  34.323  31.928  1.00  0.00     0.010 A 
ATOM     14  C   UNL A   1      35.785  33.210  32.755  1.00  0.00    -0.014 A 
BRANCH  14  15
ATOM     15  C   UNL A   1      36.933  32.418  33.263  1.00  0.00     0.031 A 
ATOM     16  C   UNL A   1      37.623  32.992  34.474  1.00  0.00     0.074 A 
ATOM     17  C   UNL A   1      37.297  31.233  32.725  1.00  0.00     0.049 A 
ATOM     18  N   UNL A   1      38.713  32.606  35.070  1.00  0.00    -0.248 NA
ATOM     19  C   UNL A   1      36.966  34.145  35.132  1.00  0.00     0.031 C 
ATOM     20  C   UNL A   1      36.586  30.541  31.646  1.00  0.00     0.029 A 
ATOM     21  N   UNL A   1      38.396  30.431  32.945  1.00  0.00    -0.354 N 
ATOM     22  C   UNL A   1      38.858  33.442  36.170  1.00  0.00     0.074 A 
ATOM     23  C   UNL A   1      37.782  34.399  36.141  1.00  0.00     0.031 C 
ATOM     24  C   UNL A   1      37.341  29.522  31.192  1.00  0.00     0.029 A 
ATOM     25  C   UNL A   1      38.588  29.482  31.948  1.00  0.00     0.049 A 
ATOM     26  H   UNL A   1      38.985  30.522  33.729  1.00  0.00     0.167 HD
ATOM     27  C   UNL A   1      39.796  33.377  37.141  1.00  0.00     0.034 A 
ATOM     28  C   UNL A   1      39.706  28.785  31.621  1.00  0.00     0.034 A 
ATOM     29  C   UNL A   1      40.862  32.421  37.095  1.00  0.00     0.049 A 
ATOM     30  C   UNL A   1      40.883  28.958  32.542  1.00  0.00     0.074 A 
ATOM     31  C   UNL A   1      41.857  32.179  38.018  1.00  0.00     0.029 A 
ATOM     32  N   UNL A   1      41.078  31.560  36.025  1.00  0.00    -0.354 N 
ATOM     33  N   UNL A   1      41.001  29.741  33.592  1.00  0.00    -0.248 NA
ATOM     34  C   UNL A   1      42.042  28.099  32.289  1.00  0.00     0.031 C 
ATOM     35  C   UNL A   1      42.709  31.209  37.478  1.00  0.00     0.029 A 
ATOM     36  C   UNL A   1      42.216  30.815  36.241  1.00  0.00     0.049 A 
ATOM     37  H   UNL A   1      40.502  31.494  35.229  1.00  0.00     0.167 HD
ATOM     38  C   UNL A   1      42.214  29.409  34.170  1.00  0.00     0.074 A 
ATOM     39  C   UNL A   1      42.825  28.410  33.311  1.00  0.00     0.031 C 
ATOM     40  C   UNL A   1      42.757  29.834  35.337  1.00  0.00     0.034 A 
BRANCH  27  41
ATOM     41  C   UNL A   1      39.691  34.342  38.293  1.00  0.00     0.023 A 
ATOM     42  C   UNL A   1      40.177  35.661  38.156  1.00  0.00     0.012 A 
ATOM     43  C   UNL A   1      39.107  33.952  39.513  1.00  0.00     0.148 A 
ATOM     44  C   UNL A   1      40.118  36.560  39.222  1.00  0.00     0.002 A 
ATOM     45  C   UNL A   1      39.014  34.867  40.557  1.00  0.00     0.091 A 
ATOM     46  F   UNL A   1      38.679  32.688  39.640  1.00  0.00    -0.205 F 
ATOM     47  C   UNL A   1      39.529  36.165  40.419  1.00  0.00     0.022 A 
BRANCH  45  48
ATOM     48  S   UNL A   1      38.220  34.474  42.120  1.00  0.00     0.127 S 
ATOM     49  O   UNL A   1      38.269  35.764  42.807  1.00  0.00    -0.237 OA
ATOM     50  O   UNL A   1      36.883  34.062  41.689  1.00  0.00    -0.237 OA
ATOM     51  O   UNL A   1      39.020  33.417  42.721  1.00  0.00    -0.744 OA
ENDBRANCH  45  48
ENDBRANCH  27  41
BRANCH  28  52
ATOM     52  C   UNL A   1      39.838  27.987  30.342  1.00  0.00     0.023 A 
ATOM     53  C   UNL A   1      39.200  26.742  30.218  1.00  0.00     0.012 A 
ATOM     54  C   UNL A   1      40.581  28.465  29.225  1.00  0.00     0.148 A 
ATOM     55  C   UNL A   1      39.239  26.027  29.013  1.00  0.00     0.002 A 
ATOM     56  C   UNL A   1      40.562  27.783  28.009  1.00  0.00     0.091 A 
ATOM     57  F   UNL A   1      41.348  29.555  29.373  1.00  0.00    -0.205 F 
ATOM     58  C   UNL A   1      39.890  26.561  27.903  1.00  0.00     0.022 A 
BRANCH  56  59
ATOM     59  S   UNL A   1      41.263  28.462  26.489  1.00  0.00     0.127 S 
ATOM     60  O   UNL A   1      41.582  27.258  25.730  1.00  0.00    -0.237 OA
ATOM     61  O   UNL A   1      40.138  29.241  25.968  1.00  0.00    -0.237 OA
ATOM     62  O   UNL A   1      42.403  29.273  26.896  1.00  0.00    -0.744 OA
ENDBRANCH  56  59
ENDBRANCH  28  52
BRANCH  40  63
ATOM     63  C   UNL A   1      44.004  29.133  35.776  1.00  0.00     0.023 A 
ATOM     64  C   UNL A   1      45.270  29.660  35.471  1.00  0.00     0.012 A 
ATOM     65  C   UNL A   1      43.892  27.954  36.538  1.00  0.00     0.148 A 
ATOM     66  C   UNL A   1      46.418  29.000  35.900  1.00  0.00     0.002 A 
ATOM     67  C   UNL A   1      45.037  27.337  37.010  1.00  0.00     0.091 A 
ATOM     68  F   UNL A   1      42.667  27.467  36.785  1.00  0.00    -0.205 F 
ATOM     69  C   UNL A   1      46.302  27.849  36.679  1.00  0.00     0.022 A 
BRANCH  67  70
ATOM     70  S   UNL A   1      44.969  25.920  38.108  1.00  0.00     0.127 S 
ATOM     71  O   UNL A   1      43.631  25.397  37.838  1.00  0.00    -0.237 OA
ATOM     72  O   UNL A   1      46.064  25.092  37.604  1.00  0.00    -0.237 OA
ATOM     73  O   UNL A   1      45.176  26.439  39.454  1.00  0.00    -0.744 OA
ENDBRANCH  67  70
ENDBRANCH  40  63
ENDBRANCH  14  15
ENDBRANCH   7   9
ENDBRANCH   6   7
ENDBRANCH   5   6
ENDBRANCH   4   5
ENDBRANCH   3   4
ENDBRANCH   2   3
ENDBRANCH   1   2
BRANCH   1  74
ATOM     74  O   UNL A   1      32.750  31.602  27.164  1.00  0.00    -0.376 OA
BRANCH  74  75
ATOM     75  C   UNL A   1      31.565  31.061  26.596  1.00  0.00     0.202 C 
BRANCH  75  76
ATOM     76  C   UNL A   1      31.617  30.030  25.456  1.00  0.00     0.261 C 
BRANCH  76  77
ATOM     77  O   UNL A   1      30.740  30.294  24.369  1.00  0.00    -0.463 OA
BRANCH  77  78
ATOM     78  C   UNL A   1      30.535  29.300  23.461  1.00  0.00     0.310 C 
ATOM     79  O   UNL A   1      30.401  29.470  22.258  1.00  0.00    -0.252 OA
BRANCH  78  80
ATOM     80  C   UNL A   1      30.603  27.943  24.146  1.00  0.00     0.119 C 
ATOM     81  C   UNL A   1      29.338  27.119  23.847  1.00  0.00     0.019 C 
ATOM     82  C   UNL A   1      31.891  27.211  23.744  1.00  0.00     0.134 C 
ATOM     83  C   UNL A   1      29.476  25.712  24.363  1.00  0.00     0.022 C 
ATOM     84  N   UNL A   1      31.889  25.797  24.148  1.00  0.00    -0.342 N 
ATOM     85  C   UNL A   1      30.707  25.085  23.744  1.00  0.00     0.119 C 
BRANCH  84  86
ATOM     86  C   UNL A   1      32.863  25.273  24.978  1.00  0.00     0.225 C 
ATOM     87  O   UNL A   1      32.817  25.511  26.192  1.00  0.00    -0.275 OA
BRANCH  86  88
ATOM     88  C   UNL A   1      34.051  24.409  24.448  1.00  0.00     0.081 C 
ATOM     89  C   UNL A   1      33.925  23.783  23.072  1.00  0.00     0.030 C 
ATOM     90  C   UNL A   1      34.771  23.458  25.398  1.00  0.00     0.030 C 
ATOM     91  C   UNL A   1      33.487  22.333  23.035  1.00  0.00     0.103 C 
ATOM     92  C   UNL A   1      34.256  22.028  25.470  1.00  0.00     0.103 C 
ATOM     93  N   UNL A   1      33.900  21.415  24.174  1.00  0.00    -0.198 NA
BRANCH  93  94
ATOM     94  S   UNL A   1      32.729  20.145  24.267  1.00  0.00     0.243 S 
ATOM     95  O   UNL A   1      31.807  20.526  25.316  1.00  0.00    -0.207 OA
ATOM     96  O   UNL A   1      32.250  19.963  22.923  1.00  0.00    -0.207 OA
BRANCH  94  97
ATOM     97  C   UNL A   1      33.354  18.571  24.783  1.00  0.00     0.082 A 
ATOM     98  C   UNL A   1      34.160  17.884  23.860  1.00  0.00     0.022 A 
ATOM     99  C   UNL A   1      32.588  17.851  25.708  1.00  0.00     0.022 A 
ATOM    100  C   UNL A   1      34.135  16.490  23.812  1.00  0.00     0.001 A 
ATOM    101  C   UNL A   1      32.579  16.455  25.663  1.00  0.00     0.001 A 
ATOM    102  C   UNL A   1      33.329  15.779  24.699  1.00  0.00     0.000 A 
ENDBRANCH  94  97
ENDBRANCH  93  94
ENDBRANCH  86  88
ENDBRANCH  84  86
ENDBRANCH  78  80
ENDBRANCH  77  78
ENDBRANCH  76  77
ENDBRANCH  75  76
ENDBRANCH  74  75
ENDBRANCH   1  74
TORSDOF 24
ENDMDL
MODEL 2
REMARK VINA RESULT:     -11.2      1.855      2.205
REMARK SMILES O=C(OCCOCCOCCOC(=O)[C@H]1CCCN(C(=O)C2CCN(S(=O)(=O)c3ccccc3)CC2)C1)c1ccc(-c2c3nc(c(-c4cccc(S(=O)(=O)[O-])c4F)c4ccc([nH]4)c(-c4cccc(S(=O)(=O)[O-])c4F)c4nc(c(-c5cccc(S(=O)(=O)[O-])c5F)c5ccc2[nH]5)C=C4)C=C3)cc1
REMARK SMILES IDX 8 1 7 2 6 3 5 4 4 5 3 6 2 7 1 8 38 9 39 10 100 11 40 12
REMARK SMILES IDX 99 13 41 14 42 15 43 16 93 17 44 18 98 19 92 20 94 21 45 22
REMARK SMILES IDX 97 23 91 24 90 25 46 27 78 28 58 29 77 30 59 31 62 32 76 33
REMARK SMILES IDX 95 34 60 35 61 36 75 38 96 39 63 40 47 41 48 42 56 43 49 44
REMARK SMILES IDX 51 45 57 46 50 47 52 48 53 49 54 50 55 51 79 52 80 53 88 54
REMARK SMILES IDX 81 55 83 56 89 57 82 58 84 59 85 60 86 61 87 62 64 63 65 64
REMARK SMILES IDX 73 65 66 66 68 67 74 68 67 69 69 70 70 71 71 72 72 73 9 74
REMARK SMILES IDX 10 75 11 76 12 77 13 78 14 79 15 80 16 81 37 82 17 83 19 84
REMARK SMILES IDX 18 85 20 86 21 87 22 88 23 89 36 90 24 91 35 92 25 93 26 94
REMARK SMILES IDX 27 95 28 96 29 97 30 98 34 99 31 100 33 101 32 102
REMARK H PARENT 94 26 62 37
REMARK Flexibility Score: inf
ROOT
ATOM      1  C   UNL A   1      33.466  32.807  27.798  1.00  0.00     0.188 C 
ENDROOT
BRANCH   1   2
ATOM      2  C   UNL A   1      33.853  33.914  28.778  1.00  0.00     0.188 C 
BRANCH   2   3
ATOM      3  O   UNL A   1      32.762  34.746  29.179  1.00  0.00    -0.376 OA
BRANCH   3   4
ATOM      4  C   UNL A   1      32.905  36.103  28.767  1.00  0.00     0.202 C 
BRANCH   4   5
ATOM      5  C   UNL A   1      32.919  37.163  29.883  1.00  0.00     0.261 C 
BRANCH   5   6
ATOM      6  O   UNL A   1      32.363  36.737  31.136  1.00  0.00    -0.460 OA
BRANCH   6   7
ATOM      7  C   UNL A   1      32.971  36.285  32.259  1.00  0.00     0.338 C 
ATOM      8  O   UNL A   1      32.737  36.889  33.306  1.00  0.00    -0.246 OA
BRANCH   7   9
ATOM      9  C   UNL A   1      33.944  35.139  32.313  1.00  0.00     0.060 A 
ATOM     10  C   UNL A   1      33.744  33.913  32.954  1.00  0.00     0.016 A 
ATOM     11  C   UNL A   1      35.177  35.328  31.659  1.00  0.00     0.016 A 
ATOM     12  C   UNL A   1      34.733  32.928  32.997  1.00  0.00     0.010 A 
ATOM     13  C   UNL A   1      36.174  34.345  31.695  1.00  0.00     0.010 A 
ATOM     14  C   UNL A   1      35.970  33.151  32.403  1.00  0.00    -0.014 A 
BRANCH  14  15
ATOM     15  C   UNL A   1      37.121  32.296  32.788  1.00  0.00     0.031 A 
ATOM     16  C   UNL A   1      37.801  32.676  34.079  1.00  0.00     0.074 A 
ATOM     17  C   UNL A   1      37.497  31.214  32.072  1.00  0.00     0.049 A 
ATOM     18  N   UNL A   1      38.890  32.208  34.613  1.00  0.00    -0.248 NA
ATOM     19  C   UNL A   1      37.131  33.707  34.906  1.00  0.00     0.031 C 
ATOM     20  C   UNL A   1      36.798  30.695  30.892  1.00  0.00     0.029 A 
ATOM     21  N   UNL A   1      38.601  30.394  32.170  1.00  0.00    -0.354 N 
ATOM     22  C   UNL A   1      39.023  32.862  35.833  1.00  0.00     0.074 A 
ATOM     23  C   UNL A   1      37.940  33.804  35.947  1.00  0.00     0.031 C 
ATOM     24  C   UNL A   1      37.563  29.766  30.288  1.00  0.00     0.029 A 
ATOM     25  C   UNL A   1      38.806  29.615  31.036  1.00  0.00     0.049 A 
ATOM     26  H   UNL A   1      39.185  30.364  32.962  1.00  0.00     0.167 HD
ATOM     27  C   UNL A   1      39.956  32.651  36.787  1.00  0.00     0.034 A 
ATOM     28  C   UNL A   1      39.931  28.986  30.611  1.00  0.00     0.034 A 
ATOM     29  C   UNL A   1      41.029  31.721  36.597  1.00  0.00     0.049 A 
ATOM     30  C   UNL A   1      41.101  29.020  31.556  1.00  0.00     0.074 A 
ATOM     31  C   UNL A   1      42.022  31.343  37.478  1.00  0.00     0.029 A 
ATOM     32  N   UNL A   1      41.258  31.041  35.406  1.00  0.00    -0.354 N 
ATOM     33  N   UNL A   1      41.207  29.628  32.717  1.00  0.00    -0.248 NA
ATOM     34  C   UNL A   1      42.269  28.219  31.178  1.00  0.00     0.031 C 
ATOM     35  C   UNL A   1      42.883  30.476  36.797  1.00  0.00     0.029 A 
ATOM     36  C   UNL A   1      42.400  30.279  35.510  1.00  0.00     0.049 A 
ATOM     37  H   UNL A   1      40.687  31.097  34.606  1.00  0.00     0.167 HD
ATOM     38  C   UNL A   1      42.421  29.217  33.244  1.00  0.00     0.074 A 
ATOM     39  C   UNL A   1      43.043  28.371  32.242  1.00  0.00     0.031 C 
ATOM     40  C   UNL A   1      42.954  29.456  34.466  1.00  0.00     0.034 A 
BRANCH  27  41
ATOM     41  C   UNL A   1      39.837  33.421  38.076  1.00  0.00     0.023 A 
ATOM     42  C   UNL A   1      38.982  32.956  39.100  1.00  0.00     0.012 A 
ATOM     43  C   UNL A   1      40.573  34.603  38.284  1.00  0.00     0.148 A 
ATOM     44  C   UNL A   1      38.833  33.672  40.288  1.00  0.00     0.002 A 
ATOM     45  C   UNL A   1      40.451  35.288  39.488  1.00  0.00     0.091 A 
ATOM     46  F   UNL A   1      41.355  35.049  37.291  1.00  0.00    -0.205 F 
ATOM     47  C   UNL A   1      39.574  34.834  40.485  1.00  0.00     0.022 A 
BRANCH  45  48
ATOM     48  S   UNL A   1      41.406  36.763  39.862  1.00  0.00     0.127 S 
ATOM     49  O   UNL A   1      42.753  36.213  40.007  1.00  0.00    -0.237 OA
ATOM     50  O   UNL A   1      41.203  37.573  38.660  1.00  0.00    -0.237 OA
ATOM     51  O   UNL A   1      40.826  37.319  41.077  1.00  0.00    -0.744 OA
ENDBRANCH  45  48
ENDBRANCH  27  41
BRANCH  28  52
ATOM     52  C   UNL A   1      40.076  28.402  29.223  1.00  0.00     0.023 A 
ATOM     53  C   UNL A   1      40.513  29.209  28.159  1.00  0.00     0.012 A 
ATOM     54  C   UNL A   1      39.802  27.032  28.946  1.00  0.00     0.148 A 
ATOM     55  C   UNL A   1      40.734  28.667  26.886  1.00  0.00     0.002 A 
ATOM     56  C   UNL A   1      40.087  26.485  27.696  1.00  0.00     0.091 A 
ATOM     57  F   UNL A   1      39.213  26.284  29.890  1.00  0.00    -0.205 F 
ATOM     58  C   UNL A   1      40.554  27.304  26.663  1.00  0.00     0.022 A 
BRANCH  56  59
ATOM     59  S   UNL A   1      40.010  24.712  27.358  1.00  0.00     0.127 S 
ATOM     60  O   UNL A   1      40.902  24.164  28.374  1.00  0.00    -0.237 OA
ATOM     61  O   UNL A   1      38.587  24.433  27.571  1.00  0.00    -0.237 OA
ATOM     62  O   UNL A   1      40.444  24.543  25.978  1.00  0.00    -0.744 OA
ENDBRANCH  56  59
ENDBRANCH  28  52
BRANCH  40  63
ATOM     63  C   UNL A   1      44.204  28.703  34.797  1.00  0.00     0.023 A 
ATOM     64  C   UNL A   1      45.468  29.260  34.538  1.00  0.00     0.012 A 
ATOM     65  C   UNL A   1      44.097  27.441  35.413  1.00  0.00     0.148 A 
ATOM     66  C   UNL A   1      46.619  28.549  34.865  1.00  0.00     0.002 A 
ATOM     67  C   UNL A   1      45.246  26.768  35.789  1.00  0.00     0.091 A 
ATOM     68  F   UNL A   1      42.874  26.932  35.619  1.00  0.00    -0.205 F 
ATOM     69  C   UNL A   1      46.508  27.312  35.501  1.00  0.00     0.022 A 
BRANCH  67  70
ATOM     70  S   UNL A   1      45.188  25.229  36.708  1.00  0.00     0.127 S 
ATOM     71  O   UNL A   1      44.573  24.325  35.738  1.00  0.00    -0.237 OA
ATOM     72  O   UNL A   1      46.604  24.976  36.969  1.00  0.00    -0.237 OA
ATOM     73  O   UNL A   1      44.394  25.498  37.900  1.00  0.00    -0.744 OA
ENDBRANCH  67  70
ENDBRANCH  40  63
ENDBRANCH  14  15
ENDBRANCH   7   9
ENDBRANCH   6   7
ENDBRANCH   5   6
ENDBRANCH   4   5
ENDBRANCH   3   4
ENDBRANCH   2   3
ENDBRANCH   1   2
BRANCH   1  74
ATOM     74  O   UNL A   1      33.998  31.500  27.978  1.00  0.00    -0.376 OA
BRANCH  74  75
ATOM     75  C   UNL A   1      33.279  30.366  27.514  1.00  0.00     0.202 C 
BRANCH  75  76
ATOM     76  C   UNL A   1      33.330  29.928  26.040  1.00  0.00     0.261 C 
BRANCH  76  77
ATOM     77  O   UNL A   1      32.069  29.879  25.385  1.00  0.00    -0.463 OA
BRANCH  77  78
ATOM     78  C   UNL A   1      31.941  29.049  24.313  1.00  0.00     0.310 C 
ATOM     79  O   UNL A   1      32.504  29.204  23.239  1.00  0.00    -0.252 OA
BRANCH  78  80
ATOM     80  C   UNL A   1      31.080  27.850  24.681  1.00  0.00     0.119 C 
ATOM     81  C   UNL A   1      29.990  27.618  23.619  1.00  0.00     0.019 C 
ATOM     82  C   UNL A   1      31.962  26.612  24.899  1.00  0.00     0.134 C 
ATOM     83  C   UNL A   1      29.254  26.329  23.874  1.00  0.00     0.022 C 
ATOM     84  N   UNL A   1      31.183  25.369  24.986  1.00  0.00    -0.342 N 
ATOM     85  C   UNL A   1      30.256  25.194  23.901  1.00  0.00     0.119 C 
BRANCH  84  86
ATOM     86  C   UNL A   1      31.236  24.549  26.098  1.00  0.00     0.225 C 
ATOM     87  O   UNL A   1      30.193  24.034  26.523  1.00  0.00    -0.275 OA
BRANCH  86  88
ATOM     88  C   UNL A   1      32.561  24.261  26.874  1.00  0.00     0.081 C 
ATOM     89  C   UNL A   1      33.870  24.695  26.243  1.00  0.00     0.030 C 
ATOM     90  C   UNL A   1      32.736  22.927  27.591  1.00  0.00     0.030 C 
ATOM     91  C   UNL A   1      34.641  23.625  25.498  1.00  0.00     0.103 C 
ATOM     92  C   UNL A   1      33.391  21.799  26.808  1.00  0.00     0.103 C 
ATOM     93  N   UNL A   1      34.556  22.189  25.987  1.00  0.00    -0.198 NA
BRANCH  93  94
ATOM     94  S   UNL A   1      34.867  21.160  24.631  1.00  0.00     0.243 S 
ATOM     95  O   UNL A   1      34.360  21.863  23.470  1.00  0.00    -0.207 OA
ATOM     96  O   UNL A   1      36.263  20.826  24.712  1.00  0.00    -0.207 OA
BRANCH  94  97
ATOM     97  C   UNL A   1      33.992  19.620  24.627  1.00  0.00     0.082 A 
ATOM     98  C   UNL A   1      34.777  18.455  24.625  1.00  0.00     0.022 A 
ATOM     99  C   UNL A   1      32.724  19.607  24.032  1.00  0.00     0.022 A 
ATOM    100  C   UNL A   1      34.328  17.312  23.962  1.00  0.00     0.001 A 
ATOM    101  C   UNL A   1      32.277  18.455  23.382  1.00  0.00     0.001 A 
ATOM    102  C   UNL A   1      33.089  17.321  23.325  1.00  0.00     0.000 A 
ENDBRANCH  94  97
ENDBRANCH  93  94
ENDBRANCH  86  88
ENDBRANCH  84  86
ENDBRANCH  78  80
ENDBRANCH  77  78
ENDBRANCH  76  77
ENDBRANCH  75  76
ENDBRANCH  74  75
ENDBRANCH   1  74
TORSDOF 24
ENDMDL
MODEL 3
REMARK VINA RESULT:     -11.1      2.960     10.235
REMARK SMILES O=C(OCCOCCOCCOC(=O)[C@H]1CCCN(C(=O)C2CCN(S(=O)(=O)c3ccccc3)CC2)C1)c1ccc(-c2c3nc(c(-c4cccc(S(=O)(=O)[O-])c4F)c4ccc([nH]4)c(-c4cccc(S(=O)(=O)[O-])c4F)c4nc(c(-c5cccc(S(=O)(=O)[O-])c5F)c5ccc2[nH]5)C=C4)C=C3)cc1
REMARK SMILES IDX 8 1 7 2 6 3 5 4 4 5 3 6 2 7 1 8 38 9 39 10 100 11 40 12
REMARK SMILES IDX 99 13 41 14 42 15 43 16 93 17 44 18 98 19 92 20 94 21 45 22
REMARK SMILES IDX 97 23 91 24 90 25 46 27 78 28 58 29 77 30 59 31 62 32 76 33
REMARK SMILES IDX 95 34 60 35 61 36 75 38 96 39 63 40 47 41 48 42 56 43 49 44
REMARK SMILES IDX 51 45 57 46 50 47 52 48 53 49 54 50 55 51 79 52 80 53 88 54
REMARK SMILES IDX 81 55 83 56 89 57 82 58 84 59 85 60 86 61 87 62 64 63 65 64
REMARK SMILES IDX 73 65 66 66 68 67 74 68 67 69 69 70 70 71 71 72 72 73 9 74
REMARK SMILES IDX 10 75 11 76 12 77 13 78 14 79 15 80 16 81 37 82 17 83 19 84
REMARK SMILES IDX 18 85 20 86 21 87 22 88 23 89 36 90 24 91 35 92 25 93 26 94
REMARK SMILES IDX 27 95 28 96 29 97 30 98 34 99 31 100 33 101 32 102
REMARK H PARENT 94 26 62 37
REMARK Flexibility Score: inf
ROOT
ATOM      1  C   UNL A   1      41.126  22.151  26.768  1.00  0.00     0.188 C 
ENDROOT
BRANCH   1   2
ATOM      2  C   UNL A   1      42.294  21.180  26.606  1.00  0.00     0.188 C 
BRANCH   2   3
ATOM      3  O   UNL A   1      43.004  21.321  25.374  1.00  0.00    -0.376 OA
BRANCH   3   4
ATOM      4  C   UNL A   1      44.046  22.293  25.429  1.00  0.00     0.202 C 
BRANCH   4   5
ATOM      5  C   UNL A   1      43.927  23.486  24.466  1.00  0.00     0.261 C 
BRANCH   5   6
ATOM      6  O   UNL A   1      43.319  24.662  25.022  1.00  0.00    -0.460 OA
BRANCH   6   7
ATOM      7  C   UNL A   1      43.877  25.736  25.630  1.00  0.00     0.338 C 
ATOM      8  O   UNL A   1      44.711  26.374  24.988  1.00  0.00    -0.246 OA
BRANCH   7   9
ATOM      9  C   UNL A   1      43.592  26.176  27.040  1.00  0.00     0.060 A 
ATOM     10  C   UNL A   1      43.028  25.394  28.052  1.00  0.00     0.016 A 
ATOM     11  C   UNL A   1      43.920  27.506  27.364  1.00  0.00     0.016 A 
ATOM     12  C   UNL A   1      42.748  25.910  29.320  1.00  0.00     0.010 A 
ATOM     13  C   UNL A   1      43.646  28.031  28.632  1.00  0.00     0.010 A 
ATOM     14  C   UNL A   1      43.018  27.242  29.608  1.00  0.00    -0.014 A 
BRANCH  14  15
ATOM     15  C   UNL A   1      42.367  27.873  30.784  1.00  0.00     0.031 A 
ATOM     16  C   UNL A   1      41.076  28.596  30.493  1.00  0.00     0.074 A 
ATOM     17  C   UNL A   1      42.856  27.757  32.038  1.00  0.00     0.049 A 
ATOM     18  N   UNL A   1      40.346  29.338  31.271  1.00  0.00    -0.248 NA
ATOM     19  C   UNL A   1      40.506  28.423  29.136  1.00  0.00     0.031 C 
ATOM     20  C   UNL A   1      44.018  26.950  32.421  1.00  0.00     0.029 A 
ATOM     21  N   UNL A   1      42.496  28.374  33.217  1.00  0.00    -0.354 N 
ATOM     22  C   UNL A   1      39.234  29.697  30.517  1.00  0.00     0.074 A 
ATOM     23  C   UNL A   1      39.401  29.145  29.198  1.00  0.00     0.031 C 
ATOM     24  C   UNL A   1      44.373  27.245  33.686  1.00  0.00     0.029 A 
ATOM     25  C   UNL A   1      43.462  28.258  34.211  1.00  0.00     0.049 A 
ATOM     26  H   UNL A   1      41.644  28.849  33.343  1.00  0.00     0.167 HD
ATOM     27  C   UNL A   1      38.151  30.397  30.922  1.00  0.00     0.034 A 
ATOM     28  C   UNL A   1      43.643  29.000  35.332  1.00  0.00     0.034 A 
ATOM     29  C   UNL A   1      38.061  30.949  32.241  1.00  0.00     0.049 A 
ATOM     30  C   UNL A   1      42.578  30.021  35.625  1.00  0.00     0.074 A 
ATOM     31  C   UNL A   1      37.017  31.630  32.831  1.00  0.00     0.029 A 
ATOM     32  N   UNL A   1      39.095  30.900  33.168  1.00  0.00    -0.354 N 
ATOM     33  N   UNL A   1      41.521  30.338  34.911  1.00  0.00    -0.248 NA
ATOM     34  C   UNL A   1      42.681  30.723  36.907  1.00  0.00     0.031 C 
ATOM     35  C   UNL A   1      37.444  32.042  34.098  1.00  0.00     0.029 A 
ATOM     36  C   UNL A   1      38.735  31.577  34.312  1.00  0.00     0.049 A 
ATOM     37  H   UNL A   1      39.959  30.449  33.027  1.00  0.00     0.167 HD
ATOM     38  C   UNL A   1      40.791  31.217  35.694  1.00  0.00     0.074 A 
ATOM     39  C   UNL A   1      41.566  31.438  36.902  1.00  0.00     0.031 C 
ATOM     40  C   UNL A   1      39.563  31.749  35.477  1.00  0.00     0.034 A 
BRANCH  27  41
ATOM     41  C   UNL A   1      37.021  30.579  29.943  1.00  0.00     0.023 A 
ATOM     42  C   UNL A   1      36.542  29.475  29.203  1.00  0.00     0.012 A 
ATOM     43  C   UNL A   1      36.423  31.840  29.755  1.00  0.00     0.148 A 
ATOM     44  C   UNL A   1      35.518  29.630  28.267  1.00  0.00     0.002 A 
ATOM     45  C   UNL A   1      35.374  31.978  28.851  1.00  0.00     0.091 A 
ATOM     46  F   UNL A   1      36.908  32.884  30.439  1.00  0.00    -0.205 F 
ATOM     47  C   UNL A   1      34.929  30.880  28.098  1.00  0.00     0.022 A 
BRANCH  45  48
ATOM     48  S   UNL A   1      34.509  33.532  28.602  1.00  0.00     0.127 S 
ATOM     49  O   UNL A   1      34.233  33.939  29.979  1.00  0.00    -0.237 OA
ATOM     50  O   UNL A   1      35.521  34.339  27.919  1.00  0.00    -0.237 OA
ATOM     51  O   UNL A   1      33.337  33.215  27.799  1.00  0.00    -0.744 OA
ENDBRANCH  45  48
ENDBRANCH  27  41
BRANCH  28  52
ATOM     52  C   UNL A   1      44.896  28.928  36.178  1.00  0.00     0.023 A 
ATOM     53  C   UNL A   1      46.021  29.700  35.841  1.00  0.00     0.012 A 
ATOM     54  C   UNL A   1      44.979  28.107  37.338  1.00  0.00     0.148 A 
ATOM     55  C   UNL A   1      47.159  29.711  36.658  1.00  0.00     0.002 A 
ATOM     56  C   UNL A   1      46.087  28.173  38.183  1.00  0.00     0.091 A 
ATOM     57  F   UNL A   1      43.999  27.226  37.583  1.00  0.00    -0.205 F 
ATOM     58  C   UNL A   1      47.180  28.976  37.841  1.00  0.00     0.022 A 
BRANCH  56  59
ATOM     59  S   UNL A   1      46.145  27.360  39.795  1.00  0.00     0.127 S 
ATOM     60  O   UNL A   1      44.952  27.888  40.450  1.00  0.00    -0.237 OA
ATOM     61  O   UNL A   1      46.067  25.947  39.416  1.00  0.00    -0.237 OA
ATOM     62  O   UNL A   1      47.416  27.741  40.396  1.00  0.00    -0.744 OA
ENDBRANCH  56  59
ENDBRANCH  28  52
BRANCH  40  63
ATOM     63  C   UNL A   1      38.969  32.516  36.616  1.00  0.00     0.023 A 
ATOM     64  C   UNL A   1      39.283  33.871  36.811  1.00  0.00     0.012 A 
ATOM     65  C   UNL A   1      38.053  31.870  37.470  1.00  0.00     0.148 A 
ATOM     66  C   UNL A   1      38.708  34.571  37.869  1.00  0.00     0.002 A 
ATOM     67  C   UNL A   1      37.442  32.589  38.482  1.00  0.00     0.091 A 
ATOM     68  F   UNL A   1      37.800  30.568  37.268  1.00  0.00    -0.205 F 
ATOM     69  C   UNL A   1      37.780  33.935  38.694  1.00  0.00     0.022 A 
BRANCH  67  70
ATOM     70  S   UNL A   1      36.159  31.876  39.513  1.00  0.00     0.127 S 
ATOM     71  O   UNL A   1      36.704  32.082  40.853  1.00  0.00    -0.237 OA
ATOM     72  O   UNL A   1      35.005  32.712  39.184  1.00  0.00    -0.237 OA
ATOM     73  O   UNL A   1      36.032  30.484  39.099  1.00  0.00    -0.744 OA
ENDBRANCH  67  70
ENDBRANCH  40  63
ENDBRANCH  14  15
ENDBRANCH   7   9
ENDBRANCH   6   7
ENDBRANCH   5   6
ENDBRANCH   4   5
ENDBRANCH   3   4
ENDBRANCH   2   3
ENDBRANCH   1   2
BRANCH   1  74
ATOM     74  O   UNL A   1      39.801  21.640  26.845  1.00  0.00    -0.376 OA
BRANCH  74  75
ATOM     75  C   UNL A   1      38.766  22.214  26.059  1.00  0.00     0.202 C 
BRANCH  75  76
ATOM     76  C   UNL A   1      37.701  21.344  25.369  1.00  0.00     0.261 C 
BRANCH  76  77
ATOM     77  O   UNL A   1      36.397  21.907  25.336  1.00  0.00    -0.463 OA
BRANCH  77  78
ATOM     78  C   UNL A   1      35.914  22.324  24.132  1.00  0.00     0.310 C 
ATOM     79  O   UNL A   1      36.605  22.651  23.179  1.00  0.00    -0.252 OA
BRANCH  78  80
ATOM     80  C   UNL A   1      34.395  22.222  24.114  1.00  0.00     0.119 C 
ATOM     81  C   UNL A   1      33.947  20.756  24.247  1.00  0.00     0.019 C 
ATOM     82  C   UNL A   1      33.793  23.124  25.201  1.00  0.00     0.134 C 
ATOM     83  C   UNL A   1      32.454  20.662  24.418  1.00  0.00     0.022 C 
ATOM     84  N   UNL A   1      32.361  22.868  25.419  1.00  0.00    -0.342 N 
ATOM     85  C   UNL A   1      32.050  21.480  25.626  1.00  0.00     0.119 C 
BRANCH  84  86
ATOM     86  C   UNL A   1      31.411  23.861  25.269  1.00  0.00     0.225 C 
ATOM     87  O   UNL A   1      30.968  24.434  26.274  1.00  0.00    -0.275 OA
BRANCH  86  88
ATOM     88  C   UNL A   1      30.838  24.281  23.878  1.00  0.00     0.081 C 
ATOM     89  C   UNL A   1      31.797  24.376  22.706  1.00  0.00     0.030 C 
ATOM     90  C   UNL A   1      29.794  25.390  23.799  1.00  0.00     0.030 C 
ATOM     91  C   UNL A   1      32.310  25.761  22.373  1.00  0.00     0.103 C 
ATOM     92  C   UNL A   1      30.305  26.809  23.596  1.00  0.00     0.103 C 
ATOM     93  N   UNL A   1      31.402  26.955  22.618  1.00  0.00    -0.198 NA
BRANCH  93  94
ATOM     94  S   UNL A   1      32.417  28.336  22.864  1.00  0.00     0.243 S 
ATOM     95  O   UNL A   1      33.699  27.999  22.283  1.00  0.00    -0.207 OA
ATOM     96  O   UNL A   1      31.673  29.456  22.357  1.00  0.00    -0.207 OA
BRANCH  94  97
ATOM     97  C   UNL A   1      32.787  28.716  24.554  1.00  0.00     0.082 A 
ATOM     98  C   UNL A   1      33.399  27.699  25.304  1.00  0.00     0.022 A 
ATOM     99  C   UNL A   1      31.966  29.654  25.192  1.00  0.00     0.022 A 
ATOM    100  C   UNL A   1      33.125  27.575  26.667  1.00  0.00     0.001 A 
ATOM    101  C   UNL A   1      31.709  29.532  26.559  1.00  0.00     0.001 A 
ATOM    102  C   UNL A   1      32.266  28.480  27.287  1.00  0.00     0.000 A 
ENDBRANCH  94  97
ENDBRANCH  93  94
ENDBRANCH  86  88
ENDBRANCH  84  86
ENDBRANCH  78  80
ENDBRANCH  77  78
ENDBRANCH  76  77
ENDBRANCH  75  76
ENDBRANCH  74  75
ENDBRANCH   1  74
TORSDOF 24
ENDMDL
