MODEL 1
REMARK VINA RESULT:      -7.5      0.000      0.000
REMARK SMILES C#Cc1cc(Cl)cc2c1O[C@H](C(F)(F)F)C(C(=O)OCCOCCOCCOC(=O)c1ccc(-c3c4nc(c(-c5cccc(S(=O)(=O)[O-])c5F)c5ccc([nH]5)c(-c5cccc(S(=O)(=O)[O-])c5F)c5nc(c(-c6cccc(S(=O)(=O)[O-])c6F)c6ccc3[nH]6)C=C5)C=C4)cc1)=C2
REMARK SMILES IDX 24 1 23 2 22 3 21 4 20 5 19 6 17 7 18 8 16 9 3 10 4 11 9 12
REMARK SMILES IDX 5 13 8 14 10 15 6 16 7 17 94 18 11 19 2 20 1 21 12 22 13 23
REMARK SMILES IDX 14 24 15 25 25 26 26 27 27 28 28 29 29 30 30 31 31 32 32 33
REMARK SMILES IDX 93 34 33 35 92 36 34 37 35 38 36 39 86 40 37 41 91 42 85 43
REMARK SMILES IDX 87 44 38 45 90 46 84 47 83 48 39 50 71 51 51 52 70 53 52 54
REMARK SMILES IDX 55 55 69 56 88 57 53 58 54 59 68 61 89 62 56 63 40 64 41 65
REMARK SMILES IDX 49 66 42 67 44 68 50 69 43 70 45 71 46 72 47 73 48 74 72 75
REMARK SMILES IDX 73 76 81 77 74 78 76 79 82 80 75 81 77 82 78 83 79 84 80 85
REMARK SMILES IDX 57 86 58 87 66 88 59 89 61 90 67 91 60 92 62 93 63 94 64 95
REMARK SMILES IDX 65 96
REMARK H PARENT 87 49 55 60
REMARK Flexibility Score: inf
ROOT
ATOM      1  C   UNL A   1      41.384  34.187  40.578  1.00  0.00     0.188 C 
ENDROOT
BRANCH   1   2
ATOM      2  C   UNL A   1      42.432  34.914  41.449  1.00  0.00     0.188 C 
BRANCH   2   3
ATOM      3  O   UNL A   1      43.777  34.700  41.096  1.00  0.00    -0.376 OA
BRANCH   3   4
ATOM      4  C   UNL A   1      44.153  34.537  39.742  1.00  0.00     0.202 C 
BRANCH   4   5
ATOM      5  C   UNL A   1      43.753  35.461  38.570  1.00  0.00     0.261 C 
BRANCH   5   6
ATOM      6  O   UNL A   1      43.298  34.853  37.358  1.00  0.00    -0.460 OA
BRANCH   6   7
ATOM      7  C   UNL A   1      43.911  35.265  36.222  1.00  0.00     0.338 C 
ATOM      8  O   UNL A   1      44.989  35.825  36.137  1.00  0.00    -0.246 OA
BRANCH   7   9
ATOM      9  C   UNL A   1      43.128  34.808  35.053  1.00  0.00     0.087 C 
ATOM     10  C   UNL A   1      40.775  33.182  32.011  1.00  0.00     0.068 A 
ATOM     11  C   UNL A   1      39.417  33.506  31.947  1.00  0.00     0.041 A 
ATOM     12  C   UNL A   1      41.601  33.807  32.961  1.00  0.00     0.143 A 
ATOM     13  C   UNL A   1      38.892  34.464  32.810  1.00  0.00     0.043 A 
ATOM     14  C   UNL A   1      41.055  34.730  33.859  1.00  0.00     0.020 A 
ATOM     15  O   UNL A   1      42.927  33.468  32.961  1.00  0.00    -0.474 OA
ATOM     16  Cl  UNL A   1      37.218  34.849  32.733  1.00  0.00    -0.084 Cl
ATOM     17  C   UNL A   1      39.703  35.082  33.761  1.00  0.00     0.032 A 
ATOM     18  C   UNL A   1      41.867  35.251  34.948  1.00  0.00     0.027 C 
ATOM     19  C   UNL A   1      43.779  33.896  34.054  1.00  0.00     0.316 C 
BRANCH  10  20
ATOM     20  C   UNL A   1      41.278  32.160  31.143  1.00  0.00    -0.067 C 
ATOM     21  C   UNL A   1      41.728  31.325  30.402  1.00  0.00     0.010 C 
ENDBRANCH  10  20
BRANCH  19  22
ATOM     22  C   UNL A   1      44.375  32.646  34.714  1.00  0.00     0.430 C 
ATOM     23  F   UNL A   1      45.580  32.911  35.274  1.00  0.00    -0.167 F 
ATOM     24  F   UNL A   1      43.585  32.175  35.707  1.00  0.00    -0.167 F 
ATOM     25  F   UNL A   1      44.552  31.641  33.826  1.00  0.00    -0.167 F 
ENDBRANCH  19  22
ENDBRANCH   7   9
ENDBRANCH   6   7
ENDBRANCH   5   6
ENDBRANCH   4   5
ENDBRANCH   3   4
ENDBRANCH   2   3
ENDBRANCH   1   2
BRANCH   1  26
ATOM     26  O   UNL A   1      41.404  32.776  40.536  1.00  0.00    -0.376 OA
BRANCH  26  27
ATOM     27  C   UNL A   1      40.664  32.049  41.506  1.00  0.00     0.202 C 
BRANCH  27  28
ATOM     28  C   UNL A   1      39.125  32.099  41.687  1.00  0.00     0.261 C 
BRANCH  28  29
ATOM     29  O   UNL A   1      38.289  31.785  40.566  1.00  0.00    -0.460 OA
BRANCH  29  30
ATOM     30  C   UNL A   1      38.052  32.797  39.691  1.00  0.00     0.338 C 
ATOM     31  O   UNL A   1      37.880  33.972  39.960  1.00  0.00    -0.246 OA
BRANCH  30  32
ATOM     32  C   UNL A   1      38.255  32.294  38.314  1.00  0.00     0.060 A 
ATOM     33  C   UNL A   1      37.663  31.079  37.934  1.00  0.00     0.016 A 
ATOM     34  C   UNL A   1      39.036  33.008  37.406  1.00  0.00     0.016 A 
ATOM     35  C   UNL A   1      37.846  30.576  36.646  1.00  0.00     0.010 A 
ATOM     36  C   UNL A   1      39.252  32.483  36.127  1.00  0.00     0.010 A 
ATOM     37  C   UNL A   1      38.679  31.254  35.749  1.00  0.00    -0.014 A 
BRANCH  37  38
ATOM     38  C   UNL A   1      39.104  30.587  34.493  1.00  0.00     0.031 A 
ATOM     39  C   UNL A   1      40.423  29.864  34.483  1.00  0.00     0.074 A 
ATOM     40  C   UNL A   1      38.334  30.608  33.389  1.00  0.00     0.049 A 
ATOM     41  N   UNL A   1      41.028  29.260  33.494  1.00  0.00    -0.248 NA
ATOM     42  C   UNL A   1      41.161  29.816  35.758  1.00  0.00     0.031 C 
ATOM     43  C   UNL A   1      37.022  31.243  33.282  1.00  0.00     0.029 A 
ATOM     44  N   UNL A   1      38.560  30.092  32.135  1.00  0.00    -0.354 N 
ATOM     45  C   UNL A   1      42.223  28.782  34.019  1.00  0.00     0.074 A 
ATOM     46  C   UNL A   1      42.268  29.179  35.408  1.00  0.00     0.031 C 
ATOM     47  C   UNL A   1      36.569  31.100  32.025  1.00  0.00     0.029 A 
ATOM     48  C   UNL A   1      37.571  30.392  31.228  1.00  0.00     0.049 A 
ATOM     49  H   UNL A   1      39.356  29.558  31.908  1.00  0.00     0.167 HD
ATOM     50  C   UNL A   1      43.187  28.059  33.403  1.00  0.00     0.034 A 
ATOM     51  C   UNL A   1      37.496  30.146  29.903  1.00  0.00     0.034 A 
ATOM     52  C   UNL A   1      43.132  27.650  32.026  1.00  0.00     0.049 A 
ATOM     53  C   UNL A   1      38.617  29.393  29.228  1.00  0.00     0.074 A 
ATOM     54  C   UNL A   1      44.051  26.894  31.323  1.00  0.00     0.029 A 
ATOM     55  N   UNL A   1      42.111  27.965  31.145  1.00  0.00    -0.354 N 
ATOM     56  N   UNL A   1      39.699  28.872  29.755  1.00  0.00    -0.248 NA
ATOM     57  C   UNL A   1      38.495  29.169  27.778  1.00  0.00     0.031 C 
ATOM     58  C   UNL A   1      43.609  26.789  30.003  1.00  0.00     0.029 A 
ATOM     59  C   UNL A   1      42.387  27.433  29.897  1.00  0.00     0.049 A 
ATOM     60  H   UNL A   1      41.309  28.490  31.371  1.00  0.00     0.167 HD
ATOM     61  C   UNL A   1      40.363  28.228  28.714  1.00  0.00     0.074 A 
ATOM     62  C   UNL A   1      39.550  28.404  27.530  1.00  0.00     0.031 C 
ATOM     63  C   UNL A   1      41.545  27.564  28.735  1.00  0.00     0.034 A 
BRANCH  50  64
ATOM     64  C   UNL A   1      44.379  27.624  34.214  1.00  0.00     0.023 A 
ATOM     65  C   UNL A   1      45.406  28.548  34.493  1.00  0.00     0.012 A 
ATOM     66  C   UNL A   1      44.423  26.343  34.801  1.00  0.00     0.148 A 
ATOM     67  C   UNL A   1      46.464  28.201  35.331  1.00  0.00     0.002 A 
ATOM     68  C   UNL A   1      45.453  26.023  35.677  1.00  0.00     0.091 A 
ATOM     69  F   UNL A   1      43.446  25.474  34.507  1.00  0.00    -0.205 F 
ATOM     70  C   UNL A   1      46.479  26.947  35.935  1.00  0.00     0.022 A 
BRANCH  68  71
ATOM     71  S   UNL A   1      45.516  24.471  36.579  1.00  0.00     0.127 S 
ATOM     72  O   UNL A   1      46.695  24.668  37.423  1.00  0.00    -0.237 OA
ATOM     73  O   UNL A   1      44.242  24.486  37.297  1.00  0.00    -0.237 OA
ATOM     74  O   UNL A   1      45.645  23.424  35.577  1.00  0.00    -0.744 OA
ENDBRANCH  68  71
ENDBRANCH  50  64
BRANCH  51  75
ATOM     75  C   UNL A   1      36.301  30.586  29.122  1.00  0.00     0.023 A 
ATOM     76  C   UNL A   1      35.512  29.623  28.460  1.00  0.00     0.012 A 
ATOM     77  C   UNL A   1      35.941  31.944  29.029  1.00  0.00     0.148 A 
ATOM     78  C   UNL A   1      34.408  30.007  27.698  1.00  0.00     0.002 A 
ATOM     79  C   UNL A   1      34.803  32.314  28.320  1.00  0.00     0.091 A 
ATOM     80  F   UNL A   1      36.712  32.849  29.647  1.00  0.00    -0.205 F 
ATOM     81  C   UNL A   1      34.046  31.349  27.637  1.00  0.00     0.022 A 
BRANCH  79  82
ATOM     82  S   UNL A   1      34.186  34.001  28.289  1.00  0.00     0.127 S 
ATOM     83  O   UNL A   1      34.831  34.535  27.092  1.00  0.00    -0.237 OA
ATOM     84  O   UNL A   1      32.743  33.788  28.169  1.00  0.00    -0.237 OA
ATOM     85  O   UNL A   1      34.606  34.599  29.549  1.00  0.00    -0.744 OA
ENDBRANCH  79  82
ENDBRANCH  51  75
BRANCH  63  86
ATOM     86  C   UNL A   1      42.039  26.936  27.455  1.00  0.00     0.023 A 
ATOM     87  C   UNL A   1      42.724  27.720  26.506  1.00  0.00     0.012 A 
ATOM     88  C   UNL A   1      41.934  25.543  27.251  1.00  0.00     0.148 A 
ATOM     89  C   UNL A   1      43.270  27.136  25.363  1.00  0.00     0.002 A 
ATOM     90  C   UNL A   1      42.532  24.960  26.141  1.00  0.00     0.091 A 
ATOM     91  F   UNL A   1      41.272  24.814  28.162  1.00  0.00    -0.205 F 
ATOM     92  C   UNL A   1      43.189  25.757  25.189  1.00  0.00     0.022 A 
BRANCH  90  93
ATOM     93  S   UNL A   1      42.579  23.182  25.885  1.00  0.00     0.127 S 
ATOM     94  O   UNL A   1      43.385  22.738  27.021  1.00  0.00    -0.237 OA
ATOM     95  O   UNL A   1      41.163  22.823  25.966  1.00  0.00    -0.237 OA
ATOM     96  O   UNL A   1      43.185  22.976  24.578  1.00  0.00    -0.744 OA
ENDBRANCH  90  93
ENDBRANCH  63  86
ENDBRANCH  37  38
ENDBRANCH  30  32
ENDBRANCH  29  30
ENDBRANCH  28  29
ENDBRANCH  27  28
ENDBRANCH  26  27
ENDBRANCH   1  26
TORSDOF 22
ENDMDL
MODEL 2
REMARK VINA RESULT:      -7.4      5.862     12.144
REMARK SMILES C#Cc1cc(Cl)cc2c1O[C@H](C(F)(F)F)C(C(=O)OCCOCCOCCOC(=O)c1ccc(-c3c4nc(c(-c5cccc(S(=O)(=O)[O-])c5F)c5ccc([nH]5)c(-c5cccc(S(=O)(=O)[O-])c5F)c5nc(c(-c6cccc(S(=O)(=O)[O-])c6F)c6ccc3[nH]6)C=C5)C=C4)cc1)=C2
REMARK SMILES IDX 24 1 23 2 22 3 21 4 20 5 19 6 17 7 18 8 16 9 3 10 4 11 9 12
REMARK SMILES IDX 5 13 8 14 10 15 6 16 7 17 94 18 11 19 2 20 1 21 12 22 13 23
REMARK SMILES IDX 14 24 15 25 25 26 26 27 27 28 28 29 29 30 30 31 31 32 32 33
REMARK SMILES IDX 93 34 33 35 92 36 34 37 35 38 36 39 86 40 37 41 91 42 85 43
REMARK SMILES IDX 87 44 38 45 90 46 84 47 83 48 39 50 71 51 51 52 70 53 52 54
REMARK SMILES IDX 55 55 69 56 88 57 53 58 54 59 68 61 89 62 56 63 40 64 41 65
REMARK SMILES IDX 49 66 42 67 44 68 50 69 43 70 45 71 46 72 47 73 48 74 72 75
REMARK SMILES IDX 73 76 81 77 74 78 76 79 82 80 75 81 77 82 78 83 79 84 80 85
REMARK SMILES IDX 57 86 58 87 66 88 59 89 61 90 67 91 60 92 62 93 63 94 64 95
REMARK SMILES IDX 65 96
REMARK H PARENT 87 49 55 60
REMARK Flexibility Score: inf
ROOT
ATOM      1  C   UNL A   1      43.352  22.656  25.368  1.00  0.00     0.188 C 
ENDROOT
BRANCH   1   2
ATOM      2  C   UNL A   1      44.655  22.965  24.601  1.00  0.00     0.188 C 
BRANCH   2   3
ATOM      3  O   UNL A   1      44.952  24.328  24.419  1.00  0.00    -0.376 OA
BRANCH   3   4
ATOM      4  C   UNL A   1      45.668  25.049  25.404  1.00  0.00     0.202 C 
BRANCH   4   5
ATOM      5  C   UNL A   1      46.947  25.883  25.171  1.00  0.00     0.261 C 
BRANCH   5   6
ATOM      6  O   UNL A   1      47.381  26.088  23.823  1.00  0.00    -0.460 OA
BRANCH   6   7
ATOM      7  C   UNL A   1      47.876  27.318  23.541  1.00  0.00     0.338 C 
ATOM      8  O   UNL A   1      47.275  28.376  23.593  1.00  0.00    -0.246 OA
BRANCH   7   9
ATOM      9  C   UNL A   1      49.329  27.210  23.283  1.00  0.00     0.087 C 
ATOM     10  C   UNL A   1      53.422  27.342  22.469  1.00  0.00     0.068 A 
ATOM     11  C   UNL A   1      54.311  27.713  23.482  1.00  0.00     0.041 A 
ATOM     12  C   UNL A   1      52.055  27.187  22.758  1.00  0.00     0.143 A 
ATOM     13  C   UNL A   1      53.842  27.906  24.779  1.00  0.00     0.043 A 
ATOM     14  C   UNL A   1      51.584  27.432  24.052  1.00  0.00     0.020 A 
ATOM     15  O   UNL A   1      51.236  26.798  21.732  1.00  0.00    -0.474 OA
ATOM     16  Cl  UNL A   1      54.940  28.373  26.016  1.00  0.00    -0.084 Cl
ATOM     17  C   UNL A   1      52.487  27.762  25.072  1.00  0.00     0.032 A 
ATOM     18  C   UNL A   1      50.154  27.437  24.315  1.00  0.00     0.027 C 
ATOM     19  C   UNL A   1      49.797  26.845  21.904  1.00  0.00     0.316 C 
BRANCH  10  20
ATOM     20  C   UNL A   1      53.923  27.196  21.135  1.00  0.00    -0.067 C 
ATOM     21  C   UNL A   1      54.365  27.044  20.026  1.00  0.00     0.010 C 
ENDBRANCH  10  20
BRANCH  19  22
ATOM     22  C   UNL A   1      49.217  27.776  20.831  1.00  0.00     0.430 C 
ATOM     23  F   UNL A   1      49.914  27.689  19.673  1.00  0.00    -0.167 F 
ATOM     24  F   UNL A   1      47.934  27.463  20.533  1.00  0.00    -0.167 F 
ATOM     25  F   UNL A   1      49.238  29.071  21.221  1.00  0.00    -0.167 F 
ENDBRANCH  19  22
ENDBRANCH   7   9
ENDBRANCH   6   7
ENDBRANCH   5   6
ENDBRANCH   4   5
ENDBRANCH   3   4
ENDBRANCH   2   3
ENDBRANCH   1   2
BRANCH   1  26
ATOM     26  O   UNL A   1      43.273  21.458  26.111  1.00  0.00    -0.376 OA
BRANCH  26  27
ATOM     27  C   UNL A   1      42.105  20.657  26.003  1.00  0.00     0.202 C 
BRANCH  27  28
ATOM     28  C   UNL A   1      41.066  20.426  27.129  1.00  0.00     0.261 C 
BRANCH  28  29
ATOM     29  O   UNL A   1      40.428  21.564  27.723  1.00  0.00    -0.460 OA
BRANCH  29  30
ATOM     30  C   UNL A   1      39.855  22.448  26.865  1.00  0.00     0.338 C 
ATOM     31  O   UNL A   1      38.933  22.231  26.099  1.00  0.00    -0.246 OA
BRANCH  30  32
ATOM     32  C   UNL A   1      40.376  23.802  27.157  1.00  0.00     0.060 A 
ATOM     33  C   UNL A   1      41.194  23.994  28.282  1.00  0.00     0.016 A 
ATOM     34  C   UNL A   1      40.049  24.880  26.334  1.00  0.00     0.016 A 
ATOM     35  C   UNL A   1      41.691  25.261  28.586  1.00  0.00     0.010 A 
ATOM     36  C   UNL A   1      40.516  26.157  26.663  1.00  0.00     0.010 A 
ATOM     37  C   UNL A   1      41.317  26.359  27.802  1.00  0.00    -0.014 A 
BRANCH  37  38
ATOM     38  C   UNL A   1      41.603  27.734  28.280  1.00  0.00     0.031 A 
ATOM     39  C   UNL A   1      43.031  28.205  28.282  1.00  0.00     0.074 A 
ATOM     40  C   UNL A   1      40.618  28.555  28.691  1.00  0.00     0.049 A 
ATOM     41  N   UNL A   1      43.529  29.337  28.705  1.00  0.00    -0.248 NA
ATOM     42  C   UNL A   1      44.034  27.275  27.733  1.00  0.00     0.031 C 
ATOM     43  C   UNL A   1      39.194  28.230  28.705  1.00  0.00     0.029 A 
ATOM     44  N   UNL A   1      40.676  29.832  29.197  1.00  0.00    -0.354 N 
ATOM     45  C   UNL A   1      44.901  29.247  28.496  1.00  0.00     0.074 A 
ATOM     46  C   UNL A   1      45.161  27.945  27.925  1.00  0.00     0.031 C 
ATOM     47  C   UNL A   1      38.513  29.271  29.216  1.00  0.00     0.029 A 
ATOM     48  C   UNL A   1      39.455  30.324  29.597  1.00  0.00     0.049 A 
ATOM     49  H   UNL A   1      41.513  30.347  29.267  1.00  0.00     0.167 HD
ATOM     50  C   UNL A   1      45.855  30.175  28.740  1.00  0.00     0.034 A 
ATOM     51  C   UNL A   1      39.139  31.478  30.221  1.00  0.00     0.034 A 
ATOM     52  C   UNL A   1      45.592  31.476  29.291  1.00  0.00     0.049 A 
ATOM     53  C   UNL A   1      40.233  32.468  30.540  1.00  0.00     0.074 A 
ATOM     54  C   UNL A   1      46.493  32.492  29.550  1.00  0.00     0.029 A 
ATOM     55  N   UNL A   1      44.343  31.939  29.673  1.00  0.00    -0.354 N 
ATOM     56  N   UNL A   1      41.513  32.406  30.258  1.00  0.00    -0.248 NA
ATOM     57  C   UNL A   1      39.838  33.702  31.239  1.00  0.00     0.031 C 
ATOM     58  C   UNL A   1      45.797  33.554  30.130  1.00  0.00     0.029 A 
ATOM     59  C   UNL A   1      44.453  33.221  30.183  1.00  0.00     0.049 A 
ATOM     60  H   UNL A   1      43.503  31.432  29.595  1.00  0.00     0.167 HD
ATOM     61  C   UNL A   1      42.064  33.603  30.708  1.00  0.00     0.074 A 
ATOM     62  C   UNL A   1      40.976  34.382  31.259  1.00  0.00     0.031 C 
ATOM     63  C   UNL A   1      43.357  34.013  30.679  1.00  0.00     0.034 A 
BRANCH  50  64
ATOM     64  C   UNL A   1      47.280  29.843  28.382  1.00  0.00     0.023 A 
ATOM     65  C   UNL A   1      47.795  30.241  27.133  1.00  0.00     0.012 A 
ATOM     66  C   UNL A   1      48.139  29.248  29.328  1.00  0.00     0.148 A 
ATOM     67  C   UNL A   1      49.140  30.042  26.824  1.00  0.00     0.002 A 
ATOM     68  C   UNL A   1      49.489  29.100  29.033  1.00  0.00     0.091 A 
ATOM     69  F   UNL A   1      47.624  28.860  30.503  1.00  0.00    -0.205 F 
ATOM     70  C   UNL A   1      49.989  29.487  27.779  1.00  0.00     0.022 A 
BRANCH  68  71
ATOM     71  S   UNL A   1      50.684  28.485  30.225  1.00  0.00     0.127 S 
ATOM     72  O   UNL A   1      50.458  29.383  31.358  1.00  0.00    -0.237 OA
ATOM     73  O   UNL A   1      50.225  27.113  30.434  1.00  0.00    -0.237 OA
ATOM     74  O   UNL A   1      51.989  28.609  29.592  1.00  0.00    -0.744 OA
ENDBRANCH  68  71
ENDBRANCH  50  64
BRANCH  51  75
ATOM     75  C   UNL A   1      37.718  31.785  30.562  1.00  0.00     0.023 A 
ATOM     76  C   UNL A   1      37.203  31.386  31.812  1.00  0.00     0.012 A 
ATOM     77  C   UNL A   1      36.875  32.469  29.664  1.00  0.00     0.148 A 
ATOM     78  C   UNL A   1      35.870  31.633  32.146  1.00  0.00     0.002 A 
ATOM     79  C   UNL A   1      35.566  32.767  30.028  1.00  0.00     0.091 A 
ATOM     80  F   UNL A   1      37.374  32.824  28.471  1.00  0.00    -0.205 F 
ATOM     81  C   UNL A   1      35.056  32.332  31.261  1.00  0.00     0.022 A 
BRANCH  79  82
ATOM     82  S   UNL A   1      34.481  33.773  29.009  1.00  0.00     0.127 S 
ATOM     83  O   UNL A   1      34.040  32.811  28.002  1.00  0.00    -0.237 OA
ATOM     84  O   UNL A   1      33.455  34.172  29.972  1.00  0.00    -0.237 OA
ATOM     85  O   UNL A   1      35.306  34.867  28.514  1.00  0.00    -0.744 OA
ENDBRANCH  79  82
ENDBRANCH  51  75
BRANCH  63  86
ATOM     86  C   UNL A   1      43.689  35.381  31.225  1.00  0.00     0.023 A 
ATOM     87  C   UNL A   1      43.683  36.499  30.369  1.00  0.00     0.012 A 
ATOM     88  C   UNL A   1      43.883  35.574  32.610  1.00  0.00     0.148 A 
ATOM     89  C   UNL A   1      43.892  37.782  30.874  1.00  0.00     0.002 A 
ATOM     90  C   UNL A   1      44.030  36.860  33.114  1.00  0.00     0.091 A 
ATOM     91  F   UNL A   1      43.892  34.496  33.408  1.00  0.00    -0.205 F 
ATOM     92  C   UNL A   1      44.050  37.964  32.246  1.00  0.00     0.022 A 
BRANCH  90  93
ATOM     93  S   UNL A   1      44.128  37.207  34.874  1.00  0.00     0.127 S 
ATOM     94  O   UNL A   1      43.142  36.274  35.417  1.00  0.00    -0.237 OA
ATOM     95  O   UNL A   1      45.519  36.869  35.177  1.00  0.00    -0.237 OA
ATOM     96  O   UNL A   1      43.797  38.617  35.029  1.00  0.00    -0.744 OA
ENDBRANCH  90  93
ENDBRANCH  63  86
ENDBRANCH  37  38
ENDBRANCH  30  32
ENDBRANCH  29  30
ENDBRANCH  28  29
ENDBRANCH  27  28
ENDBRANCH  26  27
ENDBRANCH   1  26
TORSDOF 22
ENDMDL
MODEL 3
REMARK VINA RESULT:      -7.2      5.778     11.848
REMARK SMILES C#Cc1cc(Cl)cc2c1O[C@H](C(F)(F)F)C(C(=O)OCCOCCOCCOC(=O)c1ccc(-c3c4nc(c(-c5cccc(S(=O)(=O)[O-])c5F)c5ccc([nH]5)c(-c5cccc(S(=O)(=O)[O-])c5F)c5nc(c(-c6cccc(S(=O)(=O)[O-])c6F)c6ccc3[nH]6)C=C5)C=C4)cc1)=C2
REMARK SMILES IDX 24 1 23 2 22 3 21 4 20 5 19 6 17 7 18 8 16 9 3 10 4 11 9 12
REMARK SMILES IDX 5 13 8 14 10 15 6 16 7 17 94 18 11 19 2 20 1 21 12 22 13 23
REMARK SMILES IDX 14 24 15 25 25 26 26 27 27 28 28 29 29 30 30 31 31 32 32 33
REMARK SMILES IDX 93 34 33 35 92 36 34 37 35 38 36 39 86 40 37 41 91 42 85 43
REMARK SMILES IDX 87 44 38 45 90 46 84 47 83 48 39 50 71 51 51 52 70 53 52 54
REMARK SMILES IDX 55 55 69 56 88 57 53 58 54 59 68 61 89 62 56 63 40 64 41 65
REMARK SMILES IDX 49 66 42 67 44 68 50 69 43 70 45 71 46 72 47 73 48 74 72 75
REMARK SMILES IDX 73 76 81 77 74 78 76 79 82 80 75 81 77 82 78 83 79 84 80 85
REMARK SMILES IDX 57 86 58 87 66 88 59 89 61 90 67 91 60 92 62 93 63 94 64 95
REMARK SMILES IDX 65 96
REMARK H PARENT 87 49 55 60
REMARK Flexibility Score: inf
ROOT
ATOM      1  C   UNL A   1      44.225  23.864  26.091  1.00  0.00     0.188 C 
ENDROOT
BRANCH   1   2
ATOM      2  C   UNL A   1      45.447  24.449  25.351  1.00  0.00     0.188 C 
BRANCH   2   3
ATOM      3  O   UNL A   1      45.265  25.720  24.775  1.00  0.00    -0.376 OA
BRANCH   3   4
ATOM      4  C   UNL A   1      45.956  26.848  25.280  1.00  0.00     0.202 C 
BRANCH   4   5
ATOM      5  C   UNL A   1      46.853  27.804  24.465  1.00  0.00     0.261 C 
BRANCH   5   6
ATOM      6  O   UNL A   1      47.359  27.346  23.208  1.00  0.00    -0.460 OA
BRANCH   6   7
ATOM      7  C   UNL A   1      48.343  26.415  23.268  1.00  0.00     0.338 C 
ATOM      8  O   UNL A   1      48.203  25.206  23.253  1.00  0.00    -0.246 OA
BRANCH   7   9
ATOM      9  C   UNL A   1      49.657  27.092  23.218  1.00  0.00     0.087 C 
ATOM     10  C   UNL A   1      53.142  29.379  22.994  1.00  0.00     0.068 A 
ATOM     11  C   UNL A   1      53.582  30.073  24.125  1.00  0.00     0.041 A 
ATOM     12  C   UNL A   1      52.035  28.520  23.084  1.00  0.00     0.143 A 
ATOM     13  C   UNL A   1      52.933  29.893  25.344  1.00  0.00     0.043 A 
ATOM     14  C   UNL A   1      51.356  28.383  24.301  1.00  0.00     0.020 A 
ATOM     15  O   UNL A   1      51.665  27.848  21.951  1.00  0.00    -0.474 OA
ATOM     16  Cl  UNL A   1      53.472  30.758  26.728  1.00  0.00    -0.084 Cl
ATOM     17  C   UNL A   1      51.828  29.048  25.440  1.00  0.00     0.032 A 
ATOM     18  C   UNL A   1      50.114  27.629  24.358  1.00  0.00     0.027 C 
ATOM     19  C   UNL A   1      50.404  27.133  21.917  1.00  0.00     0.316 C 
BRANCH  10  20
ATOM     20  C   UNL A   1      53.799  29.620  21.744  1.00  0.00    -0.067 C 
ATOM     21  C   UNL A   1      54.317  29.817  20.675  1.00  0.00     0.010 C 
ENDBRANCH  10  20
BRANCH  19  22
ATOM     22  C   UNL A   1      49.555  27.713  20.779  1.00  0.00     0.430 C 
ATOM     23  F   UNL A   1      48.984  28.888  21.139  1.00  0.00    -0.167 F 
ATOM     24  F   UNL A   1      50.296  27.968  19.675  1.00  0.00    -0.167 F 
ATOM     25  F   UNL A   1      48.559  26.875  20.414  1.00  0.00    -0.167 F 
ENDBRANCH  19  22
ENDBRANCH   7   9
ENDBRANCH   6   7
ENDBRANCH   5   6
ENDBRANCH   4   5
ENDBRANCH   3   4
ENDBRANCH   2   3
ENDBRANCH   1   2
BRANCH   1  26
ATOM     26  O   UNL A   1      43.914  22.499  25.906  1.00  0.00    -0.376 OA
BRANCH  26  27
ATOM     27  C   UNL A   1      42.564  22.128  25.668  1.00  0.00     0.202 C 
BRANCH  27  28
ATOM     28  C   UNL A   1      41.691  21.257  26.607  1.00  0.00     0.261 C 
BRANCH  28  29
ATOM     29  O   UNL A   1      40.651  21.888  27.365  1.00  0.00    -0.460 OA
BRANCH  29  30
ATOM     30  C   UNL A   1      39.754  22.624  26.657  1.00  0.00     0.338 C 
ATOM     31  O   UNL A   1      38.877  22.203  25.925  1.00  0.00    -0.246 OA
BRANCH  30  32
ATOM     32  C   UNL A   1      39.856  24.038  27.083  1.00  0.00     0.060 A 
ATOM     33  C   UNL A   1      40.305  25.000  26.164  1.00  0.00     0.016 A 
ATOM     34  C   UNL A   1      39.523  24.412  28.385  1.00  0.00     0.016 A 
ATOM     35  C   UNL A   1      40.420  26.337  26.541  1.00  0.00     0.010 A 
ATOM     36  C   UNL A   1      39.677  25.748  28.773  1.00  0.00     0.010 A 
ATOM     37  C   UNL A   1      40.149  26.711  27.862  1.00  0.00    -0.014 A 
BRANCH  37  38
ATOM     38  C   UNL A   1      40.540  28.061  28.339  1.00  0.00     0.031 A 
ATOM     39  C   UNL A   1      42.003  28.412  28.359  1.00  0.00     0.074 A 
ATOM     40  C   UNL A   1      39.621  28.962  28.733  1.00  0.00     0.049 A 
ATOM     41  N   UNL A   1      42.586  29.501  28.785  1.00  0.00    -0.248 NA
ATOM     42  C   UNL A   1      42.933  27.400  27.828  1.00  0.00     0.031 C 
ATOM     43  C   UNL A   1      38.175  28.756  28.728  1.00  0.00     0.029 A 
ATOM     44  N   UNL A   1      39.777  30.232  29.235  1.00  0.00    -0.354 N 
ATOM     45  C   UNL A   1      43.948  29.297  28.596  1.00  0.00     0.074 A 
ATOM     46  C   UNL A   1      44.108  27.975  28.034  1.00  0.00     0.031 C 
ATOM     47  C   UNL A   1      37.576  29.852  29.226  1.00  0.00     0.029 A 
ATOM     48  C   UNL A   1      38.595  30.825  29.616  1.00  0.00     0.049 A 
ATOM     49  H   UNL A   1      40.653  30.676  29.315  1.00  0.00     0.167 HD
ATOM     50  C   UNL A   1      44.973  30.145  28.850  1.00  0.00     0.034 A 
ATOM     51  C   UNL A   1      38.367  32.004  30.231  1.00  0.00     0.034 A 
ATOM     52  C   UNL A   1      44.810  31.465  29.393  1.00  0.00     0.049 A 
ATOM     53  C   UNL A   1      39.535  32.902  30.562  1.00  0.00     0.074 A 
ATOM     54  C   UNL A   1      45.789  32.405  29.661  1.00  0.00     0.029 A 
ATOM     55  N   UNL A   1      43.599  32.031  29.756  1.00  0.00    -0.354 N 
ATOM     56  N   UNL A   1      40.809  32.733  30.299  1.00  0.00    -0.248 NA
ATOM     57  C   UNL A   1      39.233  34.167  31.251  1.00  0.00     0.031 C 
ATOM     58  C   UNL A   1      45.175  33.523  30.228  1.00  0.00     0.029 A 
ATOM     59  C   UNL A   1      43.807  33.302  30.263  1.00  0.00     0.049 A 
ATOM     60  H   UNL A   1      42.721  31.595  29.668  1.00  0.00     0.167 HD
ATOM     61  C   UNL A   1      41.451  33.882  30.752  1.00  0.00     0.074 A 
ATOM     62  C   UNL A   1      40.424  34.751  31.285  1.00  0.00     0.031 C 
ATOM     63  C   UNL A   1      42.773  34.184  30.741  1.00  0.00     0.034 A 
BRANCH  50  64
ATOM     64  C   UNL A   1      46.370  29.694  28.514  1.00  0.00     0.023 A 
ATOM     65  C   UNL A   1      46.969  30.121  27.313  1.00  0.00     0.012 A 
ATOM     66  C   UNL A   1      47.130  28.952  29.442  1.00  0.00     0.148 A 
ATOM     67  C   UNL A   1      48.298  29.808  27.033  1.00  0.00     0.002 A 
ATOM     68  C   UNL A   1      48.468  28.688  29.178  1.00  0.00     0.091 A 
ATOM     69  F   UNL A   1      46.534  28.539  30.569  1.00  0.00    -0.205 F 
ATOM     70  C   UNL A   1      49.051  29.106  27.971  1.00  0.00     0.022 A 
BRANCH  68  71
ATOM     71  S   UNL A   1      49.550  27.875  30.360  1.00  0.00     0.127 S 
ATOM     72  O   UNL A   1      50.513  27.219  29.475  1.00  0.00    -0.237 OA
ATOM     73  O   UNL A   1      50.087  29.010  31.110  1.00  0.00    -0.237 OA
ATOM     74  O   UNL A   1      48.706  26.973  31.129  1.00  0.00    -0.744 OA
ENDBRANCH  68  71
ENDBRANCH  50  64
BRANCH  51  75
ATOM     75  C   UNL A   1      36.972  32.429  30.551  1.00  0.00     0.023 A 
ATOM     76  C   UNL A   1      36.472  32.244  31.856  1.00  0.00     0.012 A 
ATOM     77  C   UNL A   1      36.138  33.015  29.578  1.00  0.00     0.148 A 
ATOM     78  C   UNL A   1      35.162  32.604  32.176  1.00  0.00     0.002 A 
ATOM     79  C   UNL A   1      34.856  33.429  29.920  1.00  0.00     0.091 A 
ATOM     80  F   UNL A   1      36.621  33.167  28.337  1.00  0.00    -0.205 F 
ATOM     81  C   UNL A   1      34.359  33.206  31.214  1.00  0.00     0.022 A 
BRANCH  79  82
ATOM     82  S   UNL A   1      33.792  34.328  28.785  1.00  0.00     0.127 S 
ATOM     83  O   UNL A   1      32.766  34.849  29.685  1.00  0.00    -0.237 OA
ATOM     84  O   UNL A   1      34.711  35.333  28.250  1.00  0.00    -0.237 OA
ATOM     85  O   UNL A   1      33.334  33.347  27.811  1.00  0.00    -0.744 OA
ENDBRANCH  79  82
ENDBRANCH  51  75
BRANCH  63  86
ATOM     86  C   UNL A   1      43.209  35.523  31.286  1.00  0.00     0.023 A 
ATOM     87  C   UNL A   1      43.521  35.657  32.653  1.00  0.00     0.012 A 
ATOM     88  C   UNL A   1      43.430  36.614  30.418  1.00  0.00     0.148 A 
ATOM     89  C   UNL A   1      44.018  36.860  33.154  1.00  0.00     0.002 A 
ATOM     90  C   UNL A   1      43.981  37.790  30.913  1.00  0.00     0.091 A 
ATOM     91  F   UNL A   1      43.121  36.470  29.121  1.00  0.00    -0.205 F 
ATOM     92  C   UNL A   1      44.262  37.919  32.283  1.00  0.00     0.022 A 
BRANCH  90  93
ATOM     93  S   UNL A   1      44.436  39.169  29.856  1.00  0.00     0.127 S 
ATOM     94  O   UNL A   1      45.290  38.516  28.864  1.00  0.00    -0.237 OA
ATOM     95  O   UNL A   1      43.136  39.607  29.346  1.00  0.00    -0.237 OA
ATOM     96  O   UNL A   1      45.110  40.134  30.713  1.00  0.00    -0.744 OA
ENDBRANCH  90  93
ENDBRANCH  63  86
ENDBRANCH  37  38
ENDBRANCH  30  32
ENDBRANCH  29  30
ENDBRANCH  28  29
ENDBRANCH  27  28
ENDBRANCH  26  27
ENDBRANCH   1  26
TORSDOF 22
ENDMDL
