MODEL 1
REMARK VINA RESULT:     -11.5      0.000      0.000
REMARK SMILES O=C(CCN1C(=O)[C@@H]2[C@@H](C1=O)[C@H]1c3ccccc3[C@]2(Br)c2ccccc21)OCCOCCOCCOC(=O)c1ccc(-c2c3nc(c(-c4cccc(S(=O)(=O)[O-])c4F)c4ccc([nH]4)c(-c4cccc(S(=O)(=O)[O-])c4F)c4nc(c(-c5cccc(S(=O)(=O)[O-])c5F)c5ccc2[nH]5)C=C4)C=C3)cc1
REMARK SMILES IDX 32 1 31 2 30 3 29 4 28 5 27 6 2 7 1 8 3 9 4 10 5 11 6 12
REMARK SMILES IDX 10 13 7 14 8 15 9 16 11 17 19 18 12 19 21 20 20 21 18 22
REMARK SMILES IDX 26 23 13 24 22 25 17 26 25 27 14 28 23 29 16 30 24 31 15 32
REMARK SMILES IDX 33 33 34 34 35 35 36 36 37 37 38 38 39 39 40 40 101 41 41 42
REMARK SMILES IDX 100 43 42 44 43 45 44 46 94 47 45 48 99 49 93 50 95 51 46 52
REMARK SMILES IDX 98 53 92 54 91 55 47 57 79 58 59 59 78 60 60 61 63 62 77 63
REMARK SMILES IDX 96 64 61 65 62 66 76 68 97 69 64 70 48 71 49 72 57 73 50 74
REMARK SMILES IDX 52 75 58 76 51 77 53 78 54 79 55 80 56 81 80 82 81 83 89 84
REMARK SMILES IDX 82 85 84 86 90 87 83 88 85 89 86 90 87 91 88 92 65 93 66 94
REMARK SMILES IDX 74 95 67 96 69 97 75 98 68 99 70 100 71 101 72 102 73 103
REMARK H PARENT 95 56 63 67
REMARK Flexibility Score: inf
ROOT
ATOM      1  C   UNL A   1      38.423  23.574  26.013  1.00  0.00     0.188 C 
ENDROOT
BRANCH   1   2
ATOM      2  C   UNL A   1      36.890  23.582  26.083  1.00  0.00     0.188 C 
BRANCH   2   3
ATOM      3  O   UNL A   1      36.187  24.118  24.978  1.00  0.00    -0.376 OA
BRANCH   3   4
ATOM      4  C   UNL A   1      34.897  24.657  25.203  1.00  0.00     0.202 C 
BRANCH   4   5
ATOM      5  C   UNL A   1      33.870  23.834  25.982  1.00  0.00     0.261 C 
BRANCH   5   6
ATOM      6  O   UNL A   1      33.434  22.553  25.467  1.00  0.00    -0.463 OA
BRANCH   6   7
ATOM      7  C   UNL A   1      33.705  21.854  24.352  1.00  0.00     0.307 C 
ATOM      8  O   UNL A   1      33.723  20.625  24.408  1.00  0.00    -0.252 OA
BRANCH   7   9
ATOM      9  C   UNL A   1      34.020  22.553  23.060  1.00  0.00     0.144 C 
BRANCH   9  10
ATOM     10  C   UNL A   1      32.798  23.028  22.279  1.00  0.00     0.140 C 
BRANCH  10  11
ATOM     11  N   UNL A   1      32.314  24.349  22.652  1.00  0.00    -0.281 N 
ATOM     12  C   UNL A   1      32.833  25.569  22.195  1.00  0.00     0.235 C 
ATOM     13  C   UNL A   1      31.221  24.526  23.484  1.00  0.00     0.234 C 
ATOM     14  O   UNL A   1      33.635  25.760  21.308  1.00  0.00    -0.274 OA
ATOM     15  C   UNL A   1      32.330  26.563  23.208  1.00  0.00     0.118 C 
ATOM     16  C   UNL A   1      30.931  25.975  23.420  1.00  0.00     0.105 C 
ATOM     17  O   UNL A   1      30.545  23.686  24.054  1.00  0.00    -0.274 OA
ATOM     18  C   UNL A   1      32.247  28.095  23.365  1.00  0.00     0.088 C 
ATOM     19  C   UNL A   1      30.189  26.798  24.472  1.00  0.00     0.063 C 
ATOM     20  C   UNL A   1      32.203  28.202  24.934  1.00  0.00    -0.022 A 
ATOM     21  Br  UNL A   1      33.778  28.962  22.593  1.00  0.00    -0.074 Br
ATOM     22  C   UNL A   1      30.874  28.623  22.906  1.00  0.00    -0.022 A 
ATOM     23  C   UNL A   1      31.144  27.411  25.501  1.00  0.00    -0.035 A 
ATOM     24  C   UNL A   1      29.770  27.975  23.568  1.00  0.00    -0.035 A 
ATOM     25  C   UNL A   1      33.049  28.915  25.783  1.00  0.00     0.006 A 
ATOM     26  C   UNL A   1      30.606  29.615  21.974  1.00  0.00     0.006 A 
ATOM     27  C   UNL A   1      30.991  27.301  26.879  1.00  0.00     0.005 A 
ATOM     28  C   UNL A   1      28.452  28.310  23.297  1.00  0.00     0.005 A 
ATOM     29  C   UNL A   1      32.868  28.817  27.168  1.00  0.00     0.000 A 
ATOM     30  C   UNL A   1      29.273  29.943  21.699  1.00  0.00     0.000 A 
ATOM     31  C   UNL A   1      31.862  28.006  27.710  1.00  0.00     0.000 A 
ATOM     32  C   UNL A   1      28.211  29.300  22.352  1.00  0.00     0.000 A 
ENDBRANCH  10  11
ENDBRANCH   9  10
ENDBRANCH   7   9
ENDBRANCH   6   7
ENDBRANCH   5   6
ENDBRANCH   4   5
ENDBRANCH   3   4
ENDBRANCH   2   3
ENDBRANCH   1   2
BRANCH   1  33
ATOM     33  O   UNL A   1      39.121  23.236  27.193  1.00  0.00    -0.376 OA
BRANCH  33  34
ATOM     34  C   UNL A   1      40.051  22.163  27.235  1.00  0.00     0.202 C 
BRANCH  34  35
ATOM     35  C   UNL A   1      40.073  20.929  26.313  1.00  0.00     0.261 C 
BRANCH  35  36
ATOM     36  O   UNL A   1      40.970  19.868  26.636  1.00  0.00    -0.460 OA
BRANCH  36  37
ATOM     37  C   UNL A   1      42.139  19.869  25.946  1.00  0.00     0.338 C 
ATOM     38  O   UNL A   1      42.556  18.986  25.215  1.00  0.00    -0.246 OA
BRANCH  37  39
ATOM     39  C   UNL A   1      42.785  21.185  26.084  1.00  0.00     0.060 A 
ATOM     40  C   UNL A   1      42.907  22.027  24.980  1.00  0.00     0.016 A 
ATOM     41  C   UNL A   1      43.232  21.594  27.348  1.00  0.00     0.016 A 
ATOM     42  C   UNL A   1      43.463  23.296  25.149  1.00  0.00     0.010 A 
ATOM     43  C   UNL A   1      43.819  22.851  27.509  1.00  0.00     0.010 A 
ATOM     44  C   UNL A   1      43.909  23.722  26.416  1.00  0.00    -0.014 A 
BRANCH  44  45
ATOM     45  C   UNL A   1      44.237  25.151  26.619  1.00  0.00     0.031 A 
ATOM     46  C   UNL A   1      43.260  26.134  27.182  1.00  0.00     0.074 A 
ATOM     47  C   UNL A   1      45.481  25.548  26.282  1.00  0.00     0.049 A 
ATOM     48  N   UNL A   1      43.487  27.353  27.596  1.00  0.00    -0.248 NA
ATOM     49  C   UNL A   1      41.857  25.711  27.290  1.00  0.00     0.031 C 
ATOM     50  C   UNL A   1      46.487  24.691  25.652  1.00  0.00     0.029 A 
ATOM     51  N   UNL A   1      46.114  26.753  26.435  1.00  0.00    -0.354 N 
ATOM     52  C   UNL A   1      42.261  27.850  28.015  1.00  0.00     0.074 A 
ATOM     53  C   UNL A   1      41.285  26.802  27.787  1.00  0.00     0.031 C 
ATOM     54  C   UNL A   1      47.625  25.386  25.508  1.00  0.00     0.029 A 
ATOM     55  C   UNL A   1      47.426  26.734  26.030  1.00  0.00     0.049 A 
ATOM     56  H   UNL A   1      45.671  27.554  26.799  1.00  0.00     0.167 HD
ATOM     57  C   UNL A   1      41.988  29.060  28.557  1.00  0.00     0.034 A 
ATOM     58  C   UNL A   1      48.379  27.683  26.099  1.00  0.00     0.034 A 
ATOM     59  C   UNL A   1      42.971  30.088  28.782  1.00  0.00     0.049 A 
ATOM     60  C   UNL A   1      48.058  29.001  26.737  1.00  0.00     0.074 A 
ATOM     61  C   UNL A   1      42.802  31.311  29.408  1.00  0.00     0.029 A 
ATOM     62  N   UNL A   1      44.294  30.029  28.371  1.00  0.00    -0.354 N 
ATOM     63  N   UNL A   1      46.936  29.391  27.291  1.00  0.00    -0.248 NA
ATOM     64  C   UNL A   1      49.136  29.999  26.792  1.00  0.00     0.031 C 
ATOM     65  C   UNL A   1      44.013  32.005  29.349  1.00  0.00     0.029 A 
ATOM     66  C   UNL A   1      44.946  31.202  28.714  1.00  0.00     0.049 A 
ATOM     67  H   UNL A   1      44.708  29.268  27.906  1.00  0.00     0.167 HD
ATOM     68  C   UNL A   1      47.178  30.666  27.783  1.00  0.00     0.074 A 
ATOM     69  C   UNL A   1      48.556  30.984  27.468  1.00  0.00     0.031 C 
ATOM     70  C   UNL A   1      46.327  31.496  28.432  1.00  0.00     0.034 A 
BRANCH  57  71
ATOM     71  C   UNL A   1      40.583  29.344  29.011  1.00  0.00     0.023 A 
ATOM     72  C   UNL A   1      39.613  29.698  28.052  1.00  0.00     0.012 A 
ATOM     73  C   UNL A   1      40.189  29.115  30.344  1.00  0.00     0.148 A 
ATOM     74  C   UNL A   1      38.273  29.826  28.413  1.00  0.00     0.002 A 
ATOM     75  C   UNL A   1      38.847  29.219  30.692  1.00  0.00     0.091 A 
ATOM     76  F   UNL A   1      41.130  28.779  31.238  1.00  0.00    -0.205 F 
ATOM     77  C   UNL A   1      37.889  29.576  29.729  1.00  0.00     0.022 A 
BRANCH  75  78
ATOM     78  S   UNL A   1      38.235  28.865  32.344  1.00  0.00     0.127 S 
ATOM     79  O   UNL A   1      39.023  29.796  33.153  1.00  0.00    -0.237 OA
ATOM     80  O   UNL A   1      36.819  29.208  32.226  1.00  0.00    -0.237 OA
ATOM     81  O   UNL A   1      38.509  27.456  32.584  1.00  0.00    -0.744 OA
ENDBRANCH  75  78
ENDBRANCH  57  71
BRANCH  58  82
ATOM     82  C   UNL A   1      49.752  27.357  25.635  1.00  0.00     0.023 A 
ATOM     83  C   UNL A   1      50.669  26.794  26.542  1.00  0.00     0.012 A 
ATOM     84  C   UNL A   1      50.117  27.511  24.284  1.00  0.00     0.148 A 
ATOM     85  C   UNL A   1      51.934  26.396  26.113  1.00  0.00     0.002 A 
ATOM     86  C   UNL A   1      51.366  27.081  23.856  1.00  0.00     0.091 A 
ATOM     87  F   UNL A   1      49.218  28.041  23.443  1.00  0.00    -0.205 F 
ATOM     88  C   UNL A   1      52.279  26.530  24.770  1.00  0.00     0.022 A 
BRANCH  86  89
ATOM     89  S   UNL A   1      51.870  27.129  22.133  1.00  0.00     0.127 S 
ATOM     90  O   UNL A   1      52.217  28.538  21.963  1.00  0.00    -0.237 OA
ATOM     91  O   UNL A   1      53.007  26.208  22.130  1.00  0.00    -0.237 OA
ATOM     92  O   UNL A   1      50.716  26.675  21.368  1.00  0.00    -0.744 OA
ENDBRANCH  86  89
ENDBRANCH  58  82
BRANCH  70  93
ATOM     93  C   UNL A   1      46.838  32.839  28.875  1.00  0.00     0.023 A 
ATOM     94  C   UNL A   1      47.534  32.949  30.093  1.00  0.00     0.012 A 
ATOM     95  C   UNL A   1      46.767  33.949  28.010  1.00  0.00     0.148 A 
ATOM     96  C   UNL A   1      48.155  34.146  30.445  1.00  0.00     0.002 A 
ATOM     97  C   UNL A   1      47.417  35.128  28.350  1.00  0.00     0.091 A 
ATOM     98  F   UNL A   1      46.092  33.817  26.859  1.00  0.00    -0.205 F 
ATOM     99  C   UNL A   1      48.110  35.230  29.568  1.00  0.00     0.022 A 
BRANCH  97 100
ATOM    100  S   UNL A   1      47.479  36.553  27.258  1.00  0.00     0.127 S 
ATOM    101  O   UNL A   1      46.060  36.850  27.074  1.00  0.00    -0.237 OA
ATOM    102  O   UNL A   1      48.208  37.529  28.067  1.00  0.00    -0.237 OA
ATOM    103  O   UNL A   1      48.176  36.113  26.056  1.00  0.00    -0.744 OA
ENDBRANCH  97 100
ENDBRANCH  70  93
ENDBRANCH  44  45
ENDBRANCH  37  39
ENDBRANCH  36  37
ENDBRANCH  35  36
ENDBRANCH  34  35
ENDBRANCH  33  34
ENDBRANCH   1  33
TORSDOF 22
ENDMDL
MODEL 2
REMARK VINA RESULT:     -11.0      2.349      7.286
REMARK SMILES O=C(CCN1C(=O)[C@@H]2[C@@H](C1=O)[C@H]1c3ccccc3[C@]2(Br)c2ccccc21)OCCOCCOCCOC(=O)c1ccc(-c2c3nc(c(-c4cccc(S(=O)(=O)[O-])c4F)c4ccc([nH]4)c(-c4cccc(S(=O)(=O)[O-])c4F)c4nc(c(-c5cccc(S(=O)(=O)[O-])c5F)c5ccc2[nH]5)C=C4)C=C3)cc1
REMARK SMILES IDX 32 1 31 2 30 3 29 4 28 5 27 6 2 7 1 8 3 9 4 10 5 11 6 12
REMARK SMILES IDX 10 13 7 14 8 15 9 16 11 17 19 18 12 19 21 20 20 21 18 22
REMARK SMILES IDX 26 23 13 24 22 25 17 26 25 27 14 28 23 29 16 30 24 31 15 32
REMARK SMILES IDX 33 33 34 34 35 35 36 36 37 37 38 38 39 39 40 40 101 41 41 42
REMARK SMILES IDX 100 43 42 44 43 45 44 46 94 47 45 48 99 49 93 50 95 51 46 52
REMARK SMILES IDX 98 53 92 54 91 55 47 57 79 58 59 59 78 60 60 61 63 62 77 63
REMARK SMILES IDX 96 64 61 65 62 66 76 68 97 69 64 70 48 71 49 72 57 73 50 74
REMARK SMILES IDX 52 75 58 76 51 77 53 78 54 79 55 80 56 81 80 82 81 83 89 84
REMARK SMILES IDX 82 85 84 86 90 87 83 88 85 89 86 90 87 91 88 92 65 93 66 94
REMARK SMILES IDX 74 95 67 96 69 97 75 98 68 99 70 100 71 101 72 102 73 103
REMARK H PARENT 95 56 63 67
REMARK Flexibility Score: inf
ROOT
ATOM      1  C   UNL A   1      41.439  20.875  26.116  1.00  0.00     0.188 C 
ENDROOT
BRANCH   1   2
ATOM      2  C   UNL A   1      40.018  21.176  26.613  1.00  0.00     0.188 C 
BRANCH   2   3
ATOM      3  O   UNL A   1      39.094  21.699  25.679  1.00  0.00    -0.376 OA
BRANCH   3   4
ATOM      4  C   UNL A   1      38.285  22.792  26.076  1.00  0.00     0.202 C 
BRANCH   4   5
ATOM      5  C   UNL A   1      37.104  23.203  25.196  1.00  0.00     0.261 C 
BRANCH   5   6
ATOM      6  O   UNL A   1      36.009  22.280  24.983  1.00  0.00    -0.463 OA
BRANCH   6   7
ATOM      7  C   UNL A   1      34.782  22.395  24.447  1.00  0.00     0.307 C 
ATOM      8  O   UNL A   1      33.802  22.112  25.135  1.00  0.00    -0.252 OA
BRANCH   7   9
ATOM      9  C   UNL A   1      34.600  22.828  23.020  1.00  0.00     0.144 C 
BRANCH   9  10
ATOM     10  C   UNL A   1      33.148  23.031  22.596  1.00  0.00     0.140 C 
BRANCH  10  11
ATOM     11  N   UNL A   1      32.600  24.341  22.916  1.00  0.00    -0.281 N 
ATOM     12  C   UNL A   1      33.077  25.567  22.430  1.00  0.00     0.235 C 
ATOM     13  C   UNL A   1      31.481  24.497  23.717  1.00  0.00     0.234 C 
ATOM     14  O   UNL A   1      33.891  25.764  21.555  1.00  0.00    -0.274 OA
ATOM     15  C   UNL A   1      32.509  26.570  23.399  1.00  0.00     0.118 C 
ATOM     16  C   UNL A   1      31.131  25.930  23.599  1.00  0.00     0.105 C 
ATOM     17  O   UNL A   1      30.828  23.647  24.299  1.00  0.00    -0.274 OA
ATOM     18  C   UNL A   1      32.358  28.101  23.503  1.00  0.00     0.088 C 
ATOM     19  C   UNL A   1      30.330  26.753  24.607  1.00  0.00     0.063 C 
ATOM     20  C   UNL A   1      32.272  28.257  25.067  1.00  0.00    -0.022 A 
ATOM     21  Br  UNL A   1      33.868  29.009  22.738  1.00  0.00    -0.074 Br
ATOM     22  C   UNL A   1      30.974  28.555  22.998  1.00  0.00    -0.022 A 
ATOM     23  C   UNL A   1      31.235  27.439  25.636  1.00  0.00    -0.035 A 
ATOM     24  C   UNL A   1      29.884  27.882  23.656  1.00  0.00    -0.035 A 
ATOM     25  C   UNL A   1      33.067  29.031  25.911  1.00  0.00     0.006 A 
ATOM     26  C   UNL A   1      30.686  29.505  22.028  1.00  0.00     0.006 A 
ATOM     27  C   UNL A   1      31.054  27.366  27.013  1.00  0.00     0.005 A 
ATOM     28  C   UNL A   1      28.559  28.150  23.345  1.00  0.00     0.005 A 
ATOM     29  C   UNL A   1      32.858  28.969  27.294  1.00  0.00     0.000 A 
ATOM     30  C   UNL A   1      29.348  29.766  21.713  1.00  0.00     0.000 A 
ATOM     31  C   UNL A   1      31.875  28.134  27.840  1.00  0.00     0.000 A 
ATOM     32  C   UNL A   1      28.299  29.099  22.364  1.00  0.00     0.000 A 
ENDBRANCH  10  11
ENDBRANCH   9  10
ENDBRANCH   7   9
ENDBRANCH   6   7
ENDBRANCH   5   6
ENDBRANCH   4   5
ENDBRANCH   3   4
ENDBRANCH   2   3
ENDBRANCH   1   2
BRANCH   1  33
ATOM     33  O   UNL A   1      41.670  19.603  25.551  1.00  0.00    -0.376 OA
BRANCH  33  34
ATOM     34  C   UNL A   1      42.737  18.771  25.982  1.00  0.00     0.202 C 
BRANCH  34  35
ATOM     35  C   UNL A   1      44.057  18.506  25.232  1.00  0.00     0.261 C 
BRANCH  35  36
ATOM     36  O   UNL A   1      45.089  19.486  25.328  1.00  0.00    -0.460 OA
BRANCH  36  37
ATOM     37  C   UNL A   1      45.018  20.492  24.420  1.00  0.00     0.338 C 
ATOM     38  O   UNL A   1      44.511  20.441  23.312  1.00  0.00    -0.246 OA
BRANCH  37  39
ATOM     39  C   UNL A   1      45.518  21.736  25.030  1.00  0.00     0.060 A 
ATOM     40  C   UNL A   1      46.150  22.699  24.246  1.00  0.00     0.016 A 
ATOM     41  C   UNL A   1      45.306  21.955  26.399  1.00  0.00     0.016 A 
ATOM     42  C   UNL A   1      46.555  23.898  24.834  1.00  0.00     0.010 A 
ATOM     43  C   UNL A   1      45.742  23.142  26.992  1.00  0.00     0.010 A 
ATOM     44  C   UNL A   1      46.341  24.133  26.206  1.00  0.00    -0.014 A 
BRANCH  44  45
ATOM     45  C   UNL A   1      46.530  25.502  26.738  1.00  0.00     0.031 A 
ATOM     46  C   UNL A   1      47.879  26.121  26.919  1.00  0.00     0.074 A 
ATOM     47  C   UNL A   1      45.418  26.196  27.052  1.00  0.00     0.049 A 
ATOM     48  N   UNL A   1      48.169  27.369  27.178  1.00  0.00    -0.248 NA
ATOM     49  C   UNL A   1      49.051  25.241  26.806  1.00  0.00     0.031 C 
ATOM     50  C   UNL A   1      44.056  25.661  26.990  1.00  0.00     0.029 A 
ATOM     51  N   UNL A   1      45.252  27.491  27.466  1.00  0.00    -0.354 N 
ATOM     52  C   UNL A   1      49.552  27.433  27.261  1.00  0.00     0.074 A 
ATOM     53  C   UNL A   1      50.047  26.088  27.041  1.00  0.00     0.031 C 
ATOM     54  C   UNL A   1      43.190  26.632  27.314  1.00  0.00     0.029 A 
ATOM     55  C   UNL A   1      43.934  27.852  27.610  1.00  0.00     0.049 A 
ATOM     56  H   UNL A   1      46.003  28.103  27.643  1.00  0.00     0.167 HD
ATOM     57  C   UNL A   1      50.329  28.521  27.479  1.00  0.00     0.034 A 
ATOM     58  C   UNL A   1      43.378  29.039  27.915  1.00  0.00     0.034 A 
ATOM     59  C   UNL A   1      49.822  29.851  27.689  1.00  0.00     0.049 A 
ATOM     60  C   UNL A   1      44.262  30.234  28.116  1.00  0.00     0.074 A 
ATOM     61  C   UNL A   1      50.538  31.027  27.830  1.00  0.00     0.029 A 
ATOM     62  N   UNL A   1      48.481  30.182  27.816  1.00  0.00    -0.354 N 
ATOM     63  N   UNL A   1      45.566  30.314  28.014  1.00  0.00    -0.248 NA
ATOM     64  C   UNL A   1      43.603  31.508  28.440  1.00  0.00     0.031 C 
ATOM     65  C   UNL A   1      49.633  32.065  28.071  1.00  0.00     0.029 A 
ATOM     66  C   UNL A   1      48.351  31.540  28.051  1.00  0.00     0.049 A 
ATOM     67  H   UNL A   1      47.734  29.546  27.749  1.00  0.00     0.167 HD
ATOM     68  C   UNL A   1      45.884  31.647  28.235  1.00  0.00     0.074 A 
ATOM     69  C   UNL A   1      44.635  32.343  28.471  1.00  0.00     0.031 C 
ATOM     70  C   UNL A   1      47.104  32.233  28.246  1.00  0.00     0.034 A 
BRANCH  57  71
ATOM     71  C   UNL A   1      51.824  28.354  27.446  1.00  0.00     0.023 A 
ATOM     72  C   UNL A   1      52.520  28.652  26.258  1.00  0.00     0.012 A 
ATOM     73  C   UNL A   1      52.547  28.055  28.617  1.00  0.00     0.148 A 
ATOM     74  C   UNL A   1      53.913  28.650  26.232  1.00  0.00     0.002 A 
ATOM     75  C   UNL A   1      53.937  28.080  28.591  1.00  0.00     0.091 A 
ATOM     76  F   UNL A   1      51.863  27.775  29.736  1.00  0.00    -0.205 F 
ATOM     77  C   UNL A   1      54.621  28.376  27.400  1.00  0.00     0.022 A 
BRANCH  75  78
ATOM     78  S   UNL A   1      54.947  27.796  30.050  1.00  0.00     0.127 S 
ATOM     79  O   UNL A   1      54.408  28.791  30.978  1.00  0.00    -0.237 OA
ATOM     80  O   UNL A   1      54.621  26.410  30.384  1.00  0.00    -0.237 OA
ATOM     81  O   UNL A   1      56.325  28.020  29.638  1.00  0.00    -0.744 OA
ENDBRANCH  75  78
ENDBRANCH  57  71
BRANCH  58  82
ATOM     82  C   UNL A   1      41.897  29.154  27.939  1.00  0.00     0.023 A 
ATOM     83  C   UNL A   1      41.188  29.158  26.723  1.00  0.00     0.012 A 
ATOM     84  C   UNL A   1      41.190  29.162  29.156  1.00  0.00     0.148 A 
ATOM     85  C   UNL A   1      39.794  29.175  26.719  1.00  0.00     0.002 A 
ATOM     86  C   UNL A   1      39.801  29.144  29.145  1.00  0.00     0.091 A 
ATOM     87  F   UNL A   1      41.894  29.148  30.297  1.00  0.00    -0.205 F 
ATOM     88  C   UNL A   1      39.102  29.158  27.928  1.00  0.00     0.022 A 
BRANCH  86  89
ATOM     89  S   UNL A   1      38.821  29.031  30.645  1.00  0.00     0.127 S 
ATOM     90  O   UNL A   1      39.285  30.198  31.392  1.00  0.00    -0.237 OA
ATOM     91  O   UNL A   1      37.460  29.137  30.118  1.00  0.00    -0.237 OA
ATOM     92  O   UNL A   1      39.147  27.741  31.238  1.00  0.00    -0.744 OA
ENDBRANCH  86  89
ENDBRANCH  58  82
BRANCH  70  93
ATOM     93  C   UNL A   1      47.184  33.711  28.506  1.00  0.00     0.023 A 
ATOM     94  C   UNL A   1      47.231  34.181  29.832  1.00  0.00     0.012 A 
ATOM     95  C   UNL A   1      47.373  34.614  27.440  1.00  0.00     0.148 A 
ATOM     96  C   UNL A   1      47.467  35.530  30.094  1.00  0.00     0.002 A 
ATOM     97  C   UNL A   1      47.642  35.949  27.708  1.00  0.00     0.091 A 
ATOM     98  F   UNL A   1      47.317  34.138  26.187  1.00  0.00    -0.205 F 
ATOM     99  C   UNL A   1      47.688  36.410  29.035  1.00  0.00     0.022 A 
BRANCH  97 100
ATOM    100  S   UNL A   1      48.013  37.144  26.419  1.00  0.00     0.127 S 
ATOM    101  O   UNL A   1      46.727  37.248  25.731  1.00  0.00    -0.237 OA
ATOM    102  O   UNL A   1      48.388  38.326  27.194  1.00  0.00    -0.237 OA
ATOM    103  O   UNL A   1      49.089  36.565  25.626  1.00  0.00    -0.744 OA
ENDBRANCH  97 100
ENDBRANCH  70  93
ENDBRANCH  44  45
ENDBRANCH  37  39
ENDBRANCH  36  37
ENDBRANCH  35  36
ENDBRANCH  34  35
ENDBRANCH  33  34
ENDBRANCH   1  33
TORSDOF 22
ENDMDL
MODEL 3
REMARK VINA RESULT:     -10.9      4.008      7.064
REMARK SMILES O=C(CCN1C(=O)[C@@H]2[C@@H](C1=O)[C@H]1c3ccccc3[C@]2(Br)c2ccccc21)OCCOCCOCCOC(=O)c1ccc(-c2c3nc(c(-c4cccc(S(=O)(=O)[O-])c4F)c4ccc([nH]4)c(-c4cccc(S(=O)(=O)[O-])c4F)c4nc(c(-c5cccc(S(=O)(=O)[O-])c5F)c5ccc2[nH]5)C=C4)C=C3)cc1
REMARK SMILES IDX 32 1 31 2 30 3 29 4 28 5 27 6 2 7 1 8 3 9 4 10 5 11 6 12
REMARK SMILES IDX 10 13 7 14 8 15 9 16 11 17 19 18 12 19 21 20 20 21 18 22
REMARK SMILES IDX 26 23 13 24 22 25 17 26 25 27 14 28 23 29 16 30 24 31 15 32
REMARK SMILES IDX 33 33 34 34 35 35 36 36 37 37 38 38 39 39 40 40 101 41 41 42
REMARK SMILES IDX 100 43 42 44 43 45 44 46 94 47 45 48 99 49 93 50 95 51 46 52
REMARK SMILES IDX 98 53 92 54 91 55 47 57 79 58 59 59 78 60 60 61 63 62 77 63
REMARK SMILES IDX 96 64 61 65 62 66 76 68 97 69 64 70 48 71 49 72 57 73 50 74
REMARK SMILES IDX 52 75 58 76 51 77 53 78 54 79 55 80 56 81 80 82 81 83 89 84
REMARK SMILES IDX 82 85 84 86 90 87 83 88 85 89 86 90 87 91 88 92 65 93 66 94
REMARK SMILES IDX 74 95 67 96 69 97 75 98 68 99 70 100 71 101 72 102 73 103
REMARK H PARENT 95 56 63 67
REMARK Flexibility Score: inf
ROOT
ATOM      1  C   UNL A   1      41.083  21.961  26.130  1.00  0.00     0.188 C 
ENDROOT
BRANCH   1   2
ATOM      2  C   UNL A   1      39.709  21.383  26.496  1.00  0.00     0.188 C 
BRANCH   2   3
ATOM      3  O   UNL A   1      38.628  21.662  25.628  1.00  0.00    -0.376 OA
BRANCH   3   4
ATOM      4  C   UNL A   1      37.872  22.838  25.854  1.00  0.00     0.202 C 
BRANCH   4   5
ATOM      5  C   UNL A   1      36.702  23.163  24.925  1.00  0.00     0.261 C 
BRANCH   5   6
ATOM      6  O   UNL A   1      35.529  22.312  24.919  1.00  0.00    -0.463 OA
BRANCH   6   7
ATOM      7  C   UNL A   1      34.375  22.320  24.232  1.00  0.00     0.307 C 
ATOM      8  O   UNL A   1      33.353  21.905  24.777  1.00  0.00    -0.252 OA
BRANCH   7   9
ATOM      9  C   UNL A   1      34.328  22.793  22.807  1.00  0.00     0.144 C 
BRANCH   9  10
ATOM     10  C   UNL A   1      32.927  23.093  22.281  1.00  0.00     0.140 C 
BRANCH  10  11
ATOM     11  N   UNL A   1      32.403  24.397  22.661  1.00  0.00    -0.281 N 
ATOM     12  C   UNL A   1      32.882  25.635  22.206  1.00  0.00     0.235 C 
ATOM     13  C   UNL A   1      31.308  24.537  23.497  1.00  0.00     0.234 C 
ATOM     14  O   UNL A   1      33.674  25.854  21.317  1.00  0.00    -0.274 OA
ATOM     15  C   UNL A   1      32.352  26.609  23.225  1.00  0.00     0.118 C 
ATOM     16  C   UNL A   1      30.972  25.977  23.440  1.00  0.00     0.105 C 
ATOM     17  O   UNL A   1      30.661  23.674  24.067  1.00  0.00    -0.274 OA
ATOM     18  C   UNL A   1      32.221  28.137  23.387  1.00  0.00     0.088 C 
ATOM     19  C   UNL A   1      30.208  26.773  24.497  1.00  0.00     0.063 C 
ATOM     20  C   UNL A   1      32.179  28.238  24.958  1.00  0.00    -0.022 A 
ATOM     21  Br  UNL A   1      33.721  29.055  22.613  1.00  0.00    -0.074 Br
ATOM     22  C   UNL A   1      30.831  28.624  22.935  1.00  0.00    -0.022 A 
ATOM     23  C   UNL A   1      31.148  27.412  25.525  1.00  0.00    -0.035 A 
ATOM     24  C   UNL A   1      29.750  27.939  23.599  1.00  0.00    -0.035 A 
ATOM     25  C   UNL A   1      33.005  28.973  25.806  1.00  0.00     0.006 A 
ATOM     26  C   UNL A   1      30.528  29.610  22.008  1.00  0.00     0.006 A 
ATOM     27  C   UNL A   1      31.003  27.292  26.903  1.00  0.00     0.005 A 
ATOM     28  C   UNL A   1      28.421  28.233  23.334  1.00  0.00     0.005 A 
ATOM     29  C   UNL A   1      32.833  28.865  27.191  1.00  0.00     0.000 A 
ATOM     30  C   UNL A   1      29.185  29.897  21.738  1.00  0.00     0.000 A 
ATOM     31  C   UNL A   1      31.855  28.021  27.733  1.00  0.00     0.000 A 
ATOM     32  C   UNL A   1      28.146  29.219  22.393  1.00  0.00     0.000 A 
ENDBRANCH  10  11
ENDBRANCH   9  10
ENDBRANCH   7   9
ENDBRANCH   6   7
ENDBRANCH   5   6
ENDBRANCH   4   5
ENDBRANCH   3   4
ENDBRANCH   2   3
ENDBRANCH   1   2
BRANCH   1  33
ATOM     33  O   UNL A   1      41.915  21.174  25.304  1.00  0.00    -0.376 OA
BRANCH  33  34
ATOM     34  C   UNL A   1      43.031  20.464  25.820  1.00  0.00     0.202 C 
BRANCH  34  35
ATOM     35  C   UNL A   1      44.322  20.102  25.060  1.00  0.00     0.261 C 
BRANCH  35  36
ATOM     36  O   UNL A   1      45.298  21.126  24.874  1.00  0.00    -0.460 OA
BRANCH  36  37
ATOM     37  C   UNL A   1      44.873  22.212  24.181  1.00  0.00     0.338 C 
ATOM     38  O   UNL A   1      44.306  22.213  23.101  1.00  0.00    -0.246 OA
BRANCH  37  39
ATOM     39  C   UNL A   1      45.059  23.419  25.005  1.00  0.00     0.060 A 
ATOM     40  C   UNL A   1      43.976  24.246  25.293  1.00  0.00     0.016 A 
ATOM     41  C   UNL A   1      46.329  23.695  25.529  1.00  0.00     0.016 A 
ATOM     42  C   UNL A   1      44.163  25.347  26.130  1.00  0.00     0.010 A 
ATOM     43  C   UNL A   1      46.522  24.816  26.339  1.00  0.00     0.010 A 
ATOM     44  C   UNL A   1      45.432  25.631  26.670  1.00  0.00    -0.014 A 
BRANCH  44  45
ATOM     45  C   UNL A   1      45.544  26.630  27.757  1.00  0.00     0.031 A 
ATOM     46  C   UNL A   1      45.762  28.087  27.498  1.00  0.00     0.074 A 
ATOM     47  C   UNL A   1      45.428  26.176  29.021  1.00  0.00     0.049 A 
ATOM     48  N   UNL A   1      45.673  29.081  28.342  1.00  0.00    -0.248 NA
ATOM     49  C   UNL A   1      46.134  28.486  26.133  1.00  0.00     0.031 C 
ATOM     50  C   UNL A   1      45.292  24.766  29.391  1.00  0.00     0.029 A 
ATOM     51  N   UNL A   1      45.388  26.843  30.217  1.00  0.00    -0.354 N 
ATOM     52  C   UNL A   1      45.976  30.226  27.619  1.00  0.00     0.074 A 
ATOM     53  C   UNL A   1      46.270  29.801  26.266  1.00  0.00     0.031 C 
ATOM     54  C   UNL A   1      45.144  24.675  30.720  1.00  0.00     0.029 A 
ATOM     55  C   UNL A   1      45.178  26.016  31.294  1.00  0.00     0.049 A 
ATOM     56  H   UNL A   1      45.499  27.818  30.297  1.00  0.00     0.167 HD
ATOM     57  C   UNL A   1      45.984  31.511  28.049  1.00  0.00     0.034 A 
ATOM     58  C   UNL A   1      45.001  26.302  32.598  1.00  0.00     0.034 A 
ATOM     59  C   UNL A   1      45.683  31.917  29.397  1.00  0.00     0.049 A 
ATOM     60  C   UNL A   1      44.979  27.735  33.039  1.00  0.00     0.074 A 
ATOM     61  C   UNL A   1      45.580  33.202  29.901  1.00  0.00     0.029 A 
ATOM     62  N   UNL A   1      45.463  31.053  30.459  1.00  0.00    -0.354 N 
ATOM     63  N   UNL A   1      45.091  28.818  32.309  1.00  0.00    -0.248 NA
ATOM     64  C   UNL A   1      44.775  27.992  34.472  1.00  0.00     0.031 C 
ATOM     65  C   UNL A   1      45.328  33.117  31.272  1.00  0.00     0.029 A 
ATOM     66  C   UNL A   1      45.242  31.778  31.618  1.00  0.00     0.049 A 
ATOM     67  H   UNL A   1      45.462  30.071  30.398  1.00  0.00     0.167 HD
ATOM     68  C   UNL A   1      44.945  29.884  33.186  1.00  0.00     0.074 A 
ATOM     69  C   UNL A   1      44.731  29.318  34.503  1.00  0.00     0.031 C 
ATOM     70  C   UNL A   1      44.992  31.210  32.918  1.00  0.00     0.034 A 
BRANCH  57  71
ATOM     71  C   UNL A   1      46.269  32.600  27.052  1.00  0.00     0.023 A 
ATOM     72  C   UNL A   1      45.190  33.257  26.430  1.00  0.00     0.012 A 
ATOM     73  C   UNL A   1      47.580  33.074  26.849  1.00  0.00     0.148 A 
ATOM     74  C   UNL A   1      45.410  34.365  25.613  1.00  0.00     0.002 A 
ATOM     75  C   UNL A   1      47.790  34.195  26.055  1.00  0.00     0.091 A 
ATOM     76  F   UNL A   1      48.591  32.433  27.453  1.00  0.00    -0.205 F 
ATOM     77  C   UNL A   1      46.707  34.840  25.435  1.00  0.00     0.022 A 
BRANCH  75  78
ATOM     78  S   UNL A   1      49.413  34.924  25.802  1.00  0.00     0.127 S 
ATOM     79  O   UNL A   1      50.147  33.805  25.210  1.00  0.00    -0.237 OA
ATOM     80  O   UNL A   1      49.118  36.018  24.878  1.00  0.00    -0.237 OA
ATOM     81  O   UNL A   1      49.879  35.339  27.117  1.00  0.00    -0.744 OA
ENDBRANCH  75  78
ENDBRANCH  57  71
BRANCH  58  82
ATOM     82  C   UNL A   1      44.726  25.192  33.546  1.00  0.00     0.023 A 
ATOM     83  C   UNL A   1      43.393  24.812  33.791  1.00  0.00     0.012 A 
ATOM     84  C   UNL A   1      45.776  24.455  34.124  1.00  0.00     0.148 A 
ATOM     85  C   UNL A   1      43.110  23.717  34.606  1.00  0.00     0.002 A 
ATOM     86  C   UNL A   1      45.488  23.344  34.907  1.00  0.00     0.091 A 
ATOM     87  F   UNL A   1      47.035  24.836  33.863  1.00  0.00    -0.205 F 
ATOM     88  C   UNL A   1      44.155  22.979  35.155  1.00  0.00     0.022 A 
BRANCH  86  89
ATOM     89  S   UNL A   1      46.764  22.278  35.584  1.00  0.00     0.127 S 
ATOM     90  O   UNL A   1      47.216  23.050  36.739  1.00  0.00    -0.237 OA
ATOM     91  O   UNL A   1      46.001  21.072  35.909  1.00  0.00    -0.237 OA
ATOM     92  O   UNL A   1      47.747  22.110  34.523  1.00  0.00    -0.744 OA
ENDBRANCH  86  89
ENDBRANCH  58  82
BRANCH  70  93
ATOM     93  C   UNL A   1      44.795  32.176  34.053  1.00  0.00     0.023 A 
ATOM     94  C   UNL A   1      45.917  32.673  34.743  1.00  0.00     0.012 A 
ATOM     95  C   UNL A   1      43.518  32.706  34.325  1.00  0.00     0.148 A 
ATOM     96  C   UNL A   1      45.772  33.688  35.687  1.00  0.00     0.002 A 
ATOM     97  C   UNL A   1      43.385  33.741  35.242  1.00  0.00     0.091 A 
ATOM     98  F   UNL A   1      42.468  32.209  33.657  1.00  0.00    -0.205 F 
ATOM     99  C   UNL A   1      44.509  34.232  35.925  1.00  0.00     0.022 A 
BRANCH  97 100
ATOM    100  S   UNL A   1      41.817  34.557  35.564  1.00  0.00     0.127 S 
ATOM    101  O   UNL A   1      42.194  35.532  36.585  1.00  0.00    -0.237 OA
ATOM    102  O   UNL A   1      41.496  35.132  34.258  1.00  0.00    -0.237 OA
ATOM    103  O   UNL A   1      40.903  33.516  36.015  1.00  0.00    -0.744 OA
ENDBRANCH  97 100
ENDBRANCH  70  93
ENDBRANCH  44  45
ENDBRANCH  37  39
ENDBRANCH  36  37
ENDBRANCH  35  36
ENDBRANCH  34  35
ENDBRANCH  33  34
ENDBRANCH   1  33
TORSDOF 22
ENDMDL
