MODEL 1
REMARK VINA RESULT:      -9.5      0.000      0.000
REMARK SMILES CCNC(=O)c1ccc(N[C@@H]2COC[C@@]2(C)C(=O)OCCOCCOCCOC(=O)c2ccc(-c3c4nc(c(-c5cccc(S(=O)(=O)[O-])c5F)c5ccc([nH]5)c(-c5cccc(S(=O)(=O)[O-])c5F)c5nc(c(-c6cccc(S(=O)(=O)[O-])c6F)c6ccc3[nH]6)C=C5)C=C4)cc2)nn1
REMARK SMILES IDX 23 1 22 2 21 3 20 4 19 5 17 6 18 7 15 8 11 9 12 10 13 11
REMARK SMILES IDX 14 12 16 13 10 14 9 16 6 17 7 18 95 19 8 20 94 21 4 22 3 23
REMARK SMILES IDX 5 25 2 26 1 27 24 28 25 29 26 30 27 31 28 32 29 33 30 34
REMARK SMILES IDX 31 35 32 36 93 37 33 38 92 39 34 40 35 41 36 42 86 43 37 44
REMARK SMILES IDX 91 45 85 46 87 47 38 48 90 49 84 50 83 51 39 53 71 54 51 55
REMARK SMILES IDX 70 56 52 57 55 58 69 59 88 60 53 61 54 62 68 64 89 65 56 66
REMARK SMILES IDX 40 67 41 68 49 69 42 70 44 71 50 72 43 73 45 74 46 75 47 76
REMARK SMILES IDX 48 77 72 78 73 79 81 80 74 81 76 82 82 83 75 84 77 85 78 86
REMARK SMILES IDX 79 87 80 88 57 89 58 90 66 91 59 92 61 93 67 94 60 95 62 96
REMARK SMILES IDX 63 97 64 98 65 99
REMARK H PARENT 10 15 3 24 87 52 55 63
REMARK Flexibility Score: inf
ROOT
ATOM      1  C   UNL A   1      36.765  20.571  25.414  1.00  0.00     0.188 C 
ENDROOT
BRANCH   1   2
ATOM      2  O   UNL A   1      35.639  20.779  24.572  1.00  0.00    -0.376 OA
BRANCH   2   3
ATOM      3  C   UNL A   1      35.295  22.132  24.295  1.00  0.00     0.202 C 
BRANCH   3   4
ATOM      4  C   UNL A   1      34.597  22.926  25.412  1.00  0.00     0.261 C 
BRANCH   4   5
ATOM      5  O   UNL A   1      33.214  23.261  25.156  1.00  0.00    -0.463 OA
BRANCH   5   6
ATOM      6  C   UNL A   1      33.001  24.478  24.573  1.00  0.00     0.316 C 
ATOM      7  O   UNL A   1      33.283  25.542  25.115  1.00  0.00    -0.251 OA
BRANCH   6   8
ATOM      8  C   UNL A   1      32.276  24.400  23.231  1.00  0.00     0.111 C 
ATOM      9  C   UNL A   1      31.943  25.829  22.795  1.00  0.00     0.126 C 
ATOM     10  C   UNL A   1      32.133  25.830  21.282  1.00  0.00     0.186 C 
ATOM     11  O   UNL A   1      32.971  24.714  20.948  1.00  0.00    -0.378 OA
ATOM     12  C   UNL A   1      33.282  23.988  22.144  1.00  0.00     0.181 C 
ATOM     13  C   UNL A   1      31.103  23.409  23.190  1.00  0.00     0.028 C 
BRANCH   9  14
ATOM     14  N   UNL A   1      30.703  26.389  23.341  1.00  0.00    -0.362 N 
ATOM     15  H   UNL A   1      30.260  25.885  24.061  1.00  0.00     0.162 HD
BRANCH  14  16
ATOM     16  C   UNL A   1      30.100  27.564  22.932  1.00  0.00     0.149 A 
ATOM     17  C   UNL A   1      28.826  29.786  21.964  1.00  0.00     0.150 A 
ATOM     18  C   UNL A   1      28.109  28.916  22.763  1.00  0.00     0.040 A 
ATOM     19  N   UNL A   1      30.123  29.590  21.678  1.00  0.00    -0.143 NA
ATOM     20  C   UNL A   1      28.769  27.795  23.263  1.00  0.00     0.051 A 
ATOM     21  N   UNL A   1      30.750  28.468  22.174  1.00  0.00    -0.132 NA
BRANCH  17  22
ATOM     22  C   UNL A   1      28.188  30.986  21.387  1.00  0.00     0.271 C 
ATOM     23  N   UNL A   1      28.287  32.188  22.049  1.00  0.00    -0.351 N 
ATOM     24  H   UNL A   1      27.748  32.926  21.680  1.00  0.00     0.163 HD
ATOM     25  O   UNL A   1      27.536  30.907  20.351  1.00  0.00    -0.267 OA
BRANCH  23  26
ATOM     26  C   UNL A   1      29.079  32.510  23.219  1.00  0.00     0.113 C 
ATOM     27  C   UNL A   1      29.189  34.010  23.407  1.00  0.00     0.027 C 
ENDBRANCH  23  26
ENDBRANCH  17  22
ENDBRANCH  14  16
ENDBRANCH   9  14
ENDBRANCH   6   8
ENDBRANCH   5   6
ENDBRANCH   4   5
ENDBRANCH   3   4
ENDBRANCH   2   3
ENDBRANCH   1   2
BRANCH   1  28
ATOM     28  C   UNL A   1      38.000  19.929  24.773  1.00  0.00     0.188 C 
BRANCH  28  29
ATOM     29  O   UNL A   1      38.916  19.310  25.674  1.00  0.00    -0.376 OA
BRANCH  29  30
ATOM     30  C   UNL A   1      40.215  19.913  25.738  1.00  0.00     0.202 C 
BRANCH  30  31
ATOM     31  C   UNL A   1      40.428  20.951  26.860  1.00  0.00     0.261 C 
BRANCH  31  32
ATOM     32  O   UNL A   1      40.796  22.262  26.384  1.00  0.00    -0.460 OA
BRANCH  32  33
ATOM     33  C   UNL A   1      39.816  23.197  26.381  1.00  0.00     0.338 C 
ATOM     34  O   UNL A   1      38.632  22.986  26.181  1.00  0.00    -0.246 OA
BRANCH  33  35
ATOM     35  C   UNL A   1      40.368  24.477  26.905  1.00  0.00     0.060 A 
ATOM     36  C   UNL A   1      40.869  24.488  28.214  1.00  0.00     0.016 A 
ATOM     37  C   UNL A   1      40.448  25.633  26.122  1.00  0.00     0.016 A 
ATOM     38  C   UNL A   1      41.379  25.668  28.763  1.00  0.00     0.010 A 
ATOM     39  C   UNL A   1      40.958  26.817  26.675  1.00  0.00     0.010 A 
ATOM     40  C   UNL A   1      41.382  26.852  28.014  1.00  0.00    -0.014 A 
BRANCH  40  41
ATOM     41  C   UNL A   1      41.628  28.149  28.703  1.00  0.00     0.031 A 
ATOM     42  C   UNL A   1      43.054  28.586  28.923  1.00  0.00     0.074 A 
ATOM     43  C   UNL A   1      40.622  28.948  29.107  1.00  0.00     0.049 A 
ATOM     44  N   UNL A   1      43.512  29.707  29.418  1.00  0.00    -0.248 NA
ATOM     45  C   UNL A   1      44.106  27.630  28.535  1.00  0.00     0.031 C 
ATOM     46  C   UNL A   1      39.197  28.652  28.990  1.00  0.00     0.029 A 
ATOM     47  N   UNL A   1      40.660  30.181  29.716  1.00  0.00    -0.354 N 
ATOM     48  C   UNL A   1      44.896  29.585  29.420  1.00  0.00     0.074 A 
ATOM     49  C   UNL A   1      45.206  28.274  28.896  1.00  0.00     0.031 C 
ATOM     50  C   UNL A   1      38.495  29.667  29.528  1.00  0.00     0.029 A 
ATOM     51  C   UNL A   1      39.419  30.685  30.028  1.00  0.00     0.049 A 
ATOM     52  H   UNL A   1      41.498  30.658  29.912  1.00  0.00     0.167 HD
ATOM     53  C   UNL A   1      45.831  30.488  29.798  1.00  0.00     0.034 A 
ATOM     54  C   UNL A   1      39.069  31.834  30.643  1.00  0.00     0.034 A 
ATOM     55  C   UNL A   1      45.542  31.808  30.286  1.00  0.00     0.049 A 
ATOM     56  C   UNL A   1      40.135  32.826  31.046  1.00  0.00     0.074 A 
ATOM     57  C   UNL A   1      46.434  32.815  30.612  1.00  0.00     0.029 A 
ATOM     58  N   UNL A   1      44.273  32.302  30.534  1.00  0.00    -0.354 N 
ATOM     59  N   UNL A   1      41.433  32.769  30.866  1.00  0.00    -0.248 NA
ATOM     60  C   UNL A   1      39.679  34.065  31.697  1.00  0.00     0.031 C 
ATOM     61  C   UNL A   1      45.704  33.911  31.085  1.00  0.00     0.029 A 
ATOM     62  C   UNL A   1      44.357  33.593  31.028  1.00  0.00     0.049 A 
ATOM     63  H   UNL A   1      43.435  31.809  30.380  1.00  0.00     0.167 HD
ATOM     64  C   UNL A   1      41.939  33.976  31.343  1.00  0.00     0.074 A 
ATOM     65  C   UNL A   1      40.807  34.756  31.794  1.00  0.00     0.031 C 
ATOM     66  C   UNL A   1      43.227  34.394  31.417  1.00  0.00     0.034 A 
BRANCH  53  67
ATOM     67  C   UNL A   1      47.276  30.092  29.666  1.00  0.00     0.023 A 
ATOM     68  C   UNL A   1      47.919  29.439  30.736  1.00  0.00     0.012 A 
ATOM     69  C   UNL A   1      47.968  30.293  28.457  1.00  0.00     0.148 A 
ATOM     70  C   UNL A   1      49.239  29.010  30.611  1.00  0.00     0.002 A 
ATOM     71  C   UNL A   1      49.270  29.826  28.326  1.00  0.00     0.091 A 
ATOM     72  F   UNL A   1      47.343  30.938  27.462  1.00  0.00    -0.205 F 
ATOM     73  C   UNL A   1      49.909  29.191  29.404  1.00  0.00     0.022 A 
BRANCH  71  74
ATOM     74  S   UNL A   1      50.190  29.942  26.788  1.00  0.00     0.127 S 
ATOM     75  O   UNL A   1      49.426  29.048  25.919  1.00  0.00    -0.237 OA
ATOM     76  O   UNL A   1      50.068  31.363  26.463  1.00  0.00    -0.237 OA
ATOM     77  O   UNL A   1      51.545  29.504  27.096  1.00  0.00    -0.744 OA
ENDBRANCH  71  74
ENDBRANCH  53  67
BRANCH  54  78
ATOM     78  C   UNL A   1      37.632  32.153  30.887  1.00  0.00     0.023 A 
ATOM     79  C   UNL A   1      37.047  31.834  32.128  1.00  0.00     0.012 A 
ATOM     80  C   UNL A   1      36.833  32.732  29.882  1.00  0.00     0.148 A 
ATOM     81  C   UNL A   1      35.685  32.043  32.348  1.00  0.00     0.002 A 
ATOM     82  C   UNL A   1      35.488  32.988  30.127  1.00  0.00     0.091 A 
ATOM     83  F   UNL A   1      37.399  33.005  28.697  1.00  0.00    -0.205 F 
ATOM     84  C   UNL A   1      34.908  32.626  31.352  1.00  0.00     0.022 A 
BRANCH  82  85
ATOM     85  S   UNL A   1      34.448  33.843  28.939  1.00  0.00     0.127 S 
ATOM     86  O   UNL A   1      34.166  32.786  27.971  1.00  0.00    -0.237 OA
ATOM     87  O   UNL A   1      33.306  34.242  29.763  1.00  0.00    -0.237 OA
ATOM     88  O   UNL A   1      35.250  34.957  28.453  1.00  0.00    -0.744 OA
ENDBRANCH  82  85
ENDBRANCH  54  78
BRANCH  66  89
ATOM     89  C   UNL A   1      43.495  35.771  31.974  1.00  0.00     0.023 A 
ATOM     90  C   UNL A   1      43.611  35.952  33.367  1.00  0.00     0.012 A 
ATOM     91  C   UNL A   1      43.695  36.874  31.119  1.00  0.00     0.148 A 
ATOM     92  C   UNL A   1      43.877  37.215  33.900  1.00  0.00     0.002 A 
ATOM     93  C   UNL A   1      44.009  38.119  31.656  1.00  0.00     0.091 A 
ATOM     94  F   UNL A   1      43.566  36.692  29.795  1.00  0.00    -0.205 F 
ATOM     95  C   UNL A   1      44.086  38.294  33.046  1.00  0.00     0.022 A 
BRANCH  93  96
ATOM     96  S   UNL A   1      44.389  39.537  30.618  1.00  0.00     0.127 S 
ATOM     97  O   UNL A   1      43.064  39.922  30.137  1.00  0.00    -0.237 OA
ATOM     98  O   UNL A   1      44.986  40.475  31.571  1.00  0.00    -0.237 OA
ATOM     99  O   UNL A   1      45.312  39.047  29.604  1.00  0.00    -0.744 OA
ENDBRANCH  93  96
ENDBRANCH  66  89
ENDBRANCH  40  41
ENDBRANCH  33  35
ENDBRANCH  32  33
ENDBRANCH  31  32
ENDBRANCH  30  31
ENDBRANCH  29  30
ENDBRANCH  28  29
ENDBRANCH   1  28
TORSDOF 24
ENDMDL
MODEL 2
REMARK VINA RESULT:      -9.1      3.003      8.796
REMARK SMILES CCNC(=O)c1ccc(N[C@@H]2COC[C@@]2(C)C(=O)OCCOCCOCCOC(=O)c2ccc(-c3c4nc(c(-c5cccc(S(=O)(=O)[O-])c5F)c5ccc([nH]5)c(-c5cccc(S(=O)(=O)[O-])c5F)c5nc(c(-c6cccc(S(=O)(=O)[O-])c6F)c6ccc3[nH]6)C=C5)C=C4)cc2)nn1
REMARK SMILES IDX 23 1 22 2 21 3 20 4 19 5 17 6 18 7 15 8 11 9 12 10 13 11
REMARK SMILES IDX 14 12 16 13 10 14 9 16 6 17 7 18 95 19 8 20 94 21 4 22 3 23
REMARK SMILES IDX 5 25 2 26 1 27 24 28 25 29 26 30 27 31 28 32 29 33 30 34
REMARK SMILES IDX 31 35 32 36 93 37 33 38 92 39 34 40 35 41 36 42 86 43 37 44
REMARK SMILES IDX 91 45 85 46 87 47 38 48 90 49 84 50 83 51 39 53 71 54 51 55
REMARK SMILES IDX 70 56 52 57 55 58 69 59 88 60 53 61 54 62 68 64 89 65 56 66
REMARK SMILES IDX 40 67 41 68 49 69 42 70 44 71 50 72 43 73 45 74 46 75 47 76
REMARK SMILES IDX 48 77 72 78 73 79 81 80 74 81 76 82 82 83 75 84 77 85 78 86
REMARK SMILES IDX 79 87 80 88 57 89 58 90 66 91 59 92 61 93 67 94 60 95 62 96
REMARK SMILES IDX 63 97 64 98 65 99
REMARK H PARENT 10 15 3 24 87 52 55 63
REMARK Flexibility Score: inf
ROOT
ATOM      1  C   UNL A   1      35.466  31.439  28.955  1.00  0.00     0.188 C 
ENDROOT
BRANCH   1   2
ATOM      2  O   UNL A   1      35.018  30.154  28.545  1.00  0.00    -0.376 OA
BRANCH   2   3
ATOM      3  C   UNL A   1      34.231  30.104  27.360  1.00  0.00     0.202 C 
BRANCH   3   4
ATOM      4  C   UNL A   1      34.331  28.833  26.499  1.00  0.00     0.261 C 
BRANCH   4   5
ATOM      5  O   UNL A   1      33.065  28.244  26.124  1.00  0.00    -0.463 OA
BRANCH   5   6
ATOM      6  C   UNL A   1      33.028  27.667  24.887  1.00  0.00     0.316 C 
ATOM      7  O   UNL A   1      33.236  28.287  23.849  1.00  0.00    -0.251 OA
BRANCH   6   8
ATOM      8  C   UNL A   1      32.592  26.203  24.903  1.00  0.00     0.111 C 
ATOM      9  C   UNL A   1      31.919  25.901  23.561  1.00  0.00     0.126 C 
ATOM     10  C   UNL A   1      32.346  24.478  23.221  1.00  0.00     0.186 C 
ATOM     11  O   UNL A   1      33.526  24.184  23.983  1.00  0.00    -0.378 OA
ATOM     12  C   UNL A   1      33.841  25.311  24.812  1.00  0.00     0.181 C 
ATOM     13  C   UNL A   1      31.799  25.781  26.147  1.00  0.00     0.028 C 
BRANCH   9  14
ATOM     14  N   UNL A   1      30.495  26.240  23.474  1.00  0.00    -0.362 N 
ATOM     15  H   UNL A   1      29.851  25.554  23.763  1.00  0.00     0.162 HD
BRANCH  14  16
ATOM     16  C   UNL A   1      29.978  27.439  23.019  1.00  0.00     0.149 A 
ATOM     17  C   UNL A   1      28.855  29.707  21.972  1.00  0.00     0.150 A 
ATOM     18  C   UNL A   1      28.112  28.961  22.867  1.00  0.00     0.040 A 
ATOM     19  N   UNL A   1      30.110  29.371  21.630  1.00  0.00    -0.143 NA
ATOM     20  C   UNL A   1      28.696  27.816  23.405  1.00  0.00     0.051 A 
ATOM     21  N   UNL A   1      30.661  28.228  22.167  1.00  0.00    -0.132 NA
BRANCH  17  22
ATOM     22  C   UNL A   1      28.295  30.923  21.350  1.00  0.00     0.271 C 
ATOM     23  N   UNL A   1      28.434  32.134  21.990  1.00  0.00    -0.351 N 
ATOM     24  H   UNL A   1      27.945  32.888  21.589  1.00  0.00     0.163 HD
ATOM     25  O   UNL A   1      27.672  30.853  20.296  1.00  0.00    -0.267 OA
BRANCH  23  26
ATOM     26  C   UNL A   1      29.206  32.442  23.177  1.00  0.00     0.113 C 
ATOM     27  C   UNL A   1      29.131  33.921  23.506  1.00  0.00     0.027 C 
ENDBRANCH  23  26
ENDBRANCH  17  22
ENDBRANCH  14  16
ENDBRANCH   9  14
ENDBRANCH   6   8
ENDBRANCH   5   6
ENDBRANCH   4   5
ENDBRANCH   3   4
ENDBRANCH   2   3
ENDBRANCH   1   2
BRANCH   1  28
ATOM     28  C   UNL A   1      34.401  32.531  29.103  1.00  0.00     0.188 C 
BRANCH  28  29
ATOM     29  O   UNL A   1      34.218  33.045  30.420  1.00  0.00    -0.376 OA
BRANCH  29  30
ATOM     30  C   UNL A   1      34.801  32.262  31.471  1.00  0.00     0.202 C 
BRANCH  30  31
ATOM     31  C   UNL A   1      34.912  32.949  32.848  1.00  0.00     0.261 C 
BRANCH  31  32
ATOM     32  O   UNL A   1      36.233  32.893  33.425  1.00  0.00    -0.460 OA
BRANCH  32  33
ATOM     33  C   UNL A   1      37.147  33.756  32.920  1.00  0.00     0.338 C 
ATOM     34  O   UNL A   1      37.223  34.944  33.183  1.00  0.00    -0.246 OA
BRANCH  33  35
ATOM     35  C   UNL A   1      38.189  32.985  32.190  1.00  0.00     0.060 A 
ATOM     36  C   UNL A   1      39.170  32.330  32.947  1.00  0.00     0.016 A 
ATOM     37  C   UNL A   1      38.185  32.853  30.797  1.00  0.00     0.016 A 
ATOM     38  C   UNL A   1      40.186  31.609  32.312  1.00  0.00     0.010 A 
ATOM     39  C   UNL A   1      39.206  32.131  30.161  1.00  0.00     0.010 A 
ATOM     40  C   UNL A   1      40.239  31.545  30.913  1.00  0.00    -0.014 A 
BRANCH  40  41
ATOM     41  C   UNL A   1      41.479  31.053  30.253  1.00  0.00     0.031 A 
ATOM     42  C   UNL A   1      42.483  32.066  29.765  1.00  0.00     0.074 A 
ATOM     43  C   UNL A   1      41.739  29.740  30.103  1.00  0.00     0.049 A 
ATOM     44  N   UNL A   1      43.667  31.876  29.240  1.00  0.00    -0.248 NA
ATOM     45  C   UNL A   1      42.101  33.484  29.881  1.00  0.00     0.031 C 
ATOM     46  C   UNL A   1      40.856  28.645  30.497  1.00  0.00     0.029 A 
ATOM     47  N   UNL A   1      42.834  29.109  29.559  1.00  0.00    -0.354 N 
ATOM     48  C   UNL A   1      44.161  33.141  28.948  1.00  0.00     0.074 A 
ATOM     49  C   UNL A   1      43.143  34.093  29.333  1.00  0.00     0.031 C 
ATOM     50  C   UNL A   1      41.436  27.476  30.164  1.00  0.00     0.029 A 
ATOM     51  C   UNL A   1      42.731  27.739  29.534  1.00  0.00     0.049 A 
ATOM     52  H   UNL A   1      43.619  29.596  29.219  1.00  0.00     0.167 HD
ATOM     53  C   UNL A   1      45.362  33.489  28.429  1.00  0.00     0.034 A 
ATOM     54  C   UNL A   1      43.581  26.804  29.060  1.00  0.00     0.034 A 
ATOM     55  C   UNL A   1      46.399  32.559  28.076  1.00  0.00     0.049 A 
ATOM     56  C   UNL A   1      44.919  27.222  28.495  1.00  0.00     0.074 A 
ATOM     57  C   UNL A   1      47.677  32.834  27.621  1.00  0.00     0.029 A 
ATOM     58  N   UNL A   1      46.277  31.181  28.118  1.00  0.00    -0.354 N 
ATOM     59  N   UNL A   1      45.442  28.421  28.401  1.00  0.00    -0.248 NA
ATOM     60  C   UNL A   1      45.802  26.148  28.012  1.00  0.00     0.031 C 
ATOM     61  C   UNL A   1      48.321  31.619  27.362  1.00  0.00     0.029 A 
ATOM     62  C   UNL A   1      47.450  30.590  27.680  1.00  0.00     0.049 A 
ATOM     63  H   UNL A   1      45.476  30.694  28.417  1.00  0.00     0.167 HD
ATOM     64  C   UNL A   1      46.725  28.239  27.889  1.00  0.00     0.074 A 
ATOM     65  C   UNL A   1      46.910  26.814  27.719  1.00  0.00     0.031 C 
ATOM     66  C   UNL A   1      47.659  29.170  27.571  1.00  0.00     0.034 A 
BRANCH  53  67
ATOM     67  C   UNL A   1      45.643  34.954  28.242  1.00  0.00     0.023 A 
ATOM     68  C   UNL A   1      45.304  35.577  27.024  1.00  0.00     0.012 A 
ATOM     69  C   UNL A   1      46.164  35.726  29.297  1.00  0.00     0.148 A 
ATOM     70  C   UNL A   1      45.500  36.946  26.853  1.00  0.00     0.002 A 
ATOM     71  C   UNL A   1      46.318  37.097  29.132  1.00  0.00     0.091 A 
ATOM     72  F   UNL A   1      46.502  35.106  30.436  1.00  0.00    -0.205 F 
ATOM     73  C   UNL A   1      45.994  37.707  27.909  1.00  0.00     0.022 A 
BRANCH  71  74
ATOM     74  S   UNL A   1      46.874  38.174  30.457  1.00  0.00     0.127 S 
ATOM     75  O   UNL A   1      46.762  39.492  29.832  1.00  0.00    -0.237 OA
ATOM     76  O   UNL A   1      45.887  37.909  31.505  1.00  0.00    -0.237 OA
ATOM     77  O   UNL A   1      48.229  37.750  30.780  1.00  0.00    -0.744 OA
ENDBRANCH  71  74
ENDBRANCH  53  67
BRANCH  54  78
ATOM     78  C   UNL A   1      43.229  25.356  29.134  1.00  0.00     0.023 A 
ATOM     79  C   UNL A   1      43.793  24.552  30.145  1.00  0.00     0.012 A 
ATOM     80  C   UNL A   1      42.375  24.763  28.185  1.00  0.00     0.148 A 
ATOM     81  C   UNL A   1      43.549  23.179  30.181  1.00  0.00     0.002 A 
ATOM     82  C   UNL A   1      42.092  23.404  28.260  1.00  0.00     0.091 A 
ATOM     83  F   UNL A   1      41.868  25.537  27.213  1.00  0.00    -0.205 F 
ATOM     84  C   UNL A   1      42.693  22.606  29.245  1.00  0.00     0.022 A 
BRANCH  82  85
ATOM     85  S   UNL A   1      40.909  22.613  27.163  1.00  0.00     0.127 S 
ATOM     86  O   UNL A   1      40.756  21.300  27.783  1.00  0.00    -0.237 OA
ATOM     87  O   UNL A   1      39.744  23.491  27.286  1.00  0.00    -0.237 OA
ATOM     88  O   UNL A   1      41.532  22.630  25.847  1.00  0.00    -0.744 OA
ENDBRANCH  82  85
ENDBRANCH  54  78
BRANCH  66  89
ATOM     89  C   UNL A   1      48.986  28.689  27.039  1.00  0.00     0.023 A 
ATOM     90  C   UNL A   1      50.068  28.500  27.923  1.00  0.00     0.012 A 
ATOM     91  C   UNL A   1      49.148  28.364  25.677  1.00  0.00     0.148 A 
ATOM     92  C   UNL A   1      51.298  28.037  27.454  1.00  0.00     0.002 A 
ATOM     93  C   UNL A   1      50.362  27.856  25.225  1.00  0.00     0.091 A 
ATOM     94  F   UNL A   1      48.117  28.563  24.842  1.00  0.00    -0.205 F 
ATOM     95  C   UNL A   1      51.442  27.706  26.109  1.00  0.00     0.022 A 
BRANCH  93  96
ATOM     96  S   UNL A   1      50.598  27.313  23.528  1.00  0.00     0.127 S 
ATOM     97  O   UNL A   1      49.476  26.394  23.348  1.00  0.00    -0.237 OA
ATOM     98  O   UNL A   1      50.485  28.565  22.777  1.00  0.00    -0.237 OA
ATOM     99  O   UNL A   1      51.923  26.709  23.488  1.00  0.00    -0.744 OA
ENDBRANCH  93  96
ENDBRANCH  66  89
ENDBRANCH  40  41
ENDBRANCH  33  35
ENDBRANCH  32  33
ENDBRANCH  31  32
ENDBRANCH  30  31
ENDBRANCH  29  30
ENDBRANCH  28  29
ENDBRANCH   1  28
TORSDOF 24
ENDMDL
MODEL 3
REMARK VINA RESULT:      -8.3      3.620      9.444
REMARK SMILES CCNC(=O)c1ccc(N[C@@H]2COC[C@@]2(C)C(=O)OCCOCCOCCOC(=O)c2ccc(-c3c4nc(c(-c5cccc(S(=O)(=O)[O-])c5F)c5ccc([nH]5)c(-c5cccc(S(=O)(=O)[O-])c5F)c5nc(c(-c6cccc(S(=O)(=O)[O-])c6F)c6ccc3[nH]6)C=C5)C=C4)cc2)nn1
REMARK SMILES IDX 23 1 22 2 21 3 20 4 19 5 17 6 18 7 15 8 11 9 12 10 13 11
REMARK SMILES IDX 14 12 16 13 10 14 9 16 6 17 7 18 95 19 8 20 94 21 4 22 3 23
REMARK SMILES IDX 5 25 2 26 1 27 24 28 25 29 26 30 27 31 28 32 29 33 30 34
REMARK SMILES IDX 31 35 32 36 93 37 33 38 92 39 34 40 35 41 36 42 86 43 37 44
REMARK SMILES IDX 91 45 85 46 87 47 38 48 90 49 84 50 83 51 39 53 71 54 51 55
REMARK SMILES IDX 70 56 52 57 55 58 69 59 88 60 53 61 54 62 68 64 89 65 56 66
REMARK SMILES IDX 40 67 41 68 49 69 42 70 44 71 50 72 43 73 45 74 46 75 47 76
REMARK SMILES IDX 48 77 72 78 73 79 81 80 74 81 76 82 82 83 75 84 77 85 78 86
REMARK SMILES IDX 79 87 80 88 57 89 58 90 66 91 59 92 61 93 67 94 60 95 62 96
REMARK SMILES IDX 63 97 64 98 65 99
REMARK H PARENT 10 15 3 24 87 52 55 63
REMARK Flexibility Score: inf
ROOT
ATOM      1  C   UNL A   1      37.346  29.582  28.992  1.00  0.00     0.188 C 
ENDROOT
BRANCH   1   2
ATOM      2  O   UNL A   1      36.542  29.096  27.926  1.00  0.00    -0.376 OA
BRANCH   2   3
ATOM      3  C   UNL A   1      35.326  29.794  27.679  1.00  0.00     0.202 C 
BRANCH   3   4
ATOM      4  C   UNL A   1      34.154  28.987  27.093  1.00  0.00     0.261 C 
BRANCH   4   5
ATOM      5  O   UNL A   1      34.328  28.558  25.724  1.00  0.00    -0.463 OA
BRANCH   5   6
ATOM      6  C   UNL A   1      33.340  27.755  25.228  1.00  0.00     0.316 C 
ATOM      7  O   UNL A   1      32.909  26.774  25.825  1.00  0.00    -0.251 OA
BRANCH   6   8
ATOM      8  C   UNL A   1      32.900  28.123  23.813  1.00  0.00     0.111 C 
ATOM      9  C   UNL A   1      32.157  26.920  23.227  1.00  0.00     0.126 C 
ATOM     10  C   UNL A   1      31.028  27.524  22.398  1.00  0.00     0.186 C 
ATOM     11  O   UNL A   1      30.816  28.864  22.864  1.00  0.00    -0.378 OA
ATOM     12  C   UNL A   1      31.765  29.157  23.897  1.00  0.00     0.181 C 
ATOM     13  C   UNL A   1      34.007  28.709  22.926  1.00  0.00     0.028 C 
BRANCH   9  14
ATOM     14  N   UNL A   1      32.999  25.890  22.610  1.00  0.00    -0.362 N 
ATOM     15  H   UNL A   1      33.519  26.151  21.816  1.00  0.00     0.162 HD
BRANCH  14  16
ATOM     16  C   UNL A   1      33.125  24.584  23.045  1.00  0.00     0.149 A 
ATOM     17  C   UNL A   1      33.430  22.072  24.091  1.00  0.00     0.150 A 
ATOM     18  C   UNL A   1      32.237  22.731  24.310  1.00  0.00     0.040 A 
ATOM     19  N   UNL A   1      34.421  22.610  23.360  1.00  0.00    -0.143 NA
ATOM     20  C   UNL A   1      32.084  24.004  23.763  1.00  0.00     0.051 A 
ATOM     21  N   UNL A   1      34.251  23.874  22.840  1.00  0.00    -0.132 NA
BRANCH  17  22
ATOM     22  C   UNL A   1      33.668  20.727  24.653  1.00  0.00     0.271 C 
ATOM     23  N   UNL A   1      34.346  20.604  25.844  1.00  0.00    -0.351 N 
ATOM     24  H   UNL A   1      34.576  19.684  26.112  1.00  0.00     0.163 HD
ATOM     25  O   UNL A   1      33.307  19.726  24.044  1.00  0.00    -0.267 OA
BRANCH  23  26
ATOM     26  C   UNL A   1      34.766  21.650  26.754  1.00  0.00     0.113 C 
ATOM     27  C   UNL A   1      33.672  21.976  27.752  1.00  0.00     0.027 C 
ENDBRANCH  23  26
ENDBRANCH  17  22
ENDBRANCH  14  16
ENDBRANCH   9  14
ENDBRANCH   6   8
ENDBRANCH   5   6
ENDBRANCH   4   5
ENDBRANCH   3   4
ENDBRANCH   2   3
ENDBRANCH   1   2
BRANCH   1  28
ATOM     28  C   UNL A   1      36.633  30.367  30.098  1.00  0.00     0.188 C 
BRANCH  28  29
ATOM     29  O   UNL A   1      36.380  29.649  31.304  1.00  0.00    -0.376 OA
BRANCH  29  30
ATOM     30  C   UNL A   1      36.647  30.370  32.514  1.00  0.00     0.202 C 
BRANCH  30  31
ATOM     31  C   UNL A   1      36.058  31.794  32.601  1.00  0.00     0.261 C 
BRANCH  31  32
ATOM     32  O   UNL A   1      36.755  32.661  33.519  1.00  0.00    -0.460 OA
BRANCH  32  33
ATOM     33  C   UNL A   1      37.301  33.782  32.990  1.00  0.00     0.338 C 
ATOM     34  O   UNL A   1      36.975  34.926  33.259  1.00  0.00    -0.246 OA
BRANCH  33  35
ATOM     35  C   UNL A   1      38.520  33.411  32.223  1.00  0.00     0.060 A 
ATOM     36  C   UNL A   1      39.560  32.772  32.912  1.00  0.00     0.016 A 
ATOM     37  C   UNL A   1      38.633  33.629  30.845  1.00  0.00     0.016 A 
ATOM     38  C   UNL A   1      40.737  32.420  32.244  1.00  0.00     0.010 A 
ATOM     39  C   UNL A   1      39.815  33.277  30.177  1.00  0.00     0.010 A 
ATOM     40  C   UNL A   1      40.892  32.714  30.884  1.00  0.00    -0.014 A 
BRANCH  40  41
ATOM     41  C   UNL A   1      42.245  32.626  30.269  1.00  0.00     0.031 A 
ATOM     42  C   UNL A   1      43.169  33.810  30.396  1.00  0.00     0.074 A 
ATOM     43  C   UNL A   1      42.672  31.519  29.631  1.00  0.00     0.049 A 
ATOM     44  N   UNL A   1      44.417  33.933  30.021  1.00  0.00    -0.248 NA
ATOM     45  C   UNL A   1      42.614  35.018  31.030  1.00  0.00     0.031 C 
ATOM     46  C   UNL A   1      41.886  30.309  29.402  1.00  0.00     0.029 A 
ATOM     47  N   UNL A   1      43.885  31.248  29.042  1.00  0.00    -0.354 N 
ATOM     48  C   UNL A   1      44.788  35.230  30.353  1.00  0.00     0.074 A 
ATOM     49  C   UNL A   1      43.630  35.864  30.942  1.00  0.00     0.031 C 
ATOM     50  C   UNL A   1      42.632  29.430  28.706  1.00  0.00     0.029 A 
ATOM     51  C   UNL A   1      43.947  30.014  28.439  1.00  0.00     0.049 A 
ATOM     52  H   UNL A   1      44.640  31.880  29.052  1.00  0.00     0.167 HD
ATOM     53  C   UNL A   1      45.988  35.838  30.206  1.00  0.00     0.034 A 
ATOM     54  C   UNL A   1      44.947  29.424  27.752  1.00  0.00     0.034 A 
ATOM     55  C   UNL A   1      47.160  35.211  29.657  1.00  0.00     0.049 A 
ATOM     56  C   UNL A   1      46.279  30.123  27.613  1.00  0.00     0.074 A 
ATOM     57  C   UNL A   1      48.438  35.730  29.550  1.00  0.00     0.029 A 
ATOM     58  N   UNL A   1      47.197  33.941  29.109  1.00  0.00    -0.354 N 
ATOM     59  N   UNL A   1      46.665  31.277  28.100  1.00  0.00    -0.248 NA
ATOM     60  C   UNL A   1      47.329  29.412  26.865  1.00  0.00     0.031 C 
ATOM     61  C   UNL A   1      49.244  34.782  28.910  1.00  0.00     0.029 A 
ATOM     62  C   UNL A   1      48.471  33.665  28.643  1.00  0.00     0.049 A 
ATOM     63  H   UNL A   1      46.430  33.325  29.059  1.00  0.00     0.167 HD
ATOM     64  C   UNL A   1      48.008  31.409  27.754  1.00  0.00     0.074 A 
ATOM     65  C   UNL A   1      48.377  30.206  27.039  1.00  0.00     0.031 C 
ATOM     66  C   UNL A   1      48.855  32.442  27.990  1.00  0.00     0.034 A 
BRANCH  53  67
ATOM     67  C   UNL A   1      46.115  37.257  30.685  1.00  0.00     0.023 A 
ATOM     68  C   UNL A   1      46.571  37.512  31.994  1.00  0.00     0.012 A 
ATOM     69  C   UNL A   1      45.861  38.335  29.815  1.00  0.00     0.148 A 
ATOM     70  C   UNL A   1      46.753  38.821  32.437  1.00  0.00     0.002 A 
ATOM     71  C   UNL A   1      46.084  39.635  30.251  1.00  0.00     0.091 A 
ATOM     72  F   UNL A   1      45.405  38.068  28.584  1.00  0.00    -0.205 F 
ATOM     73  C   UNL A   1      46.523  39.880  31.563  1.00  0.00     0.022 A 
BRANCH  71  74
ATOM     74  S   UNL A   1      45.891  41.061  29.177  1.00  0.00     0.127 S 
ATOM     75  O   UNL A   1      47.002  40.881  28.243  1.00  0.00    -0.237 OA
ATOM     76  O   UNL A   1      44.565  40.836  28.601  1.00  0.00    -0.237 OA
ATOM     77  O   UNL A   1      45.987  42.231  30.041  1.00  0.00    -0.744 OA
ENDBRANCH  71  74
ENDBRANCH  53  67
BRANCH  54  78
ATOM     78  C   UNL A   1      44.762  28.063  27.168  1.00  0.00     0.023 A 
ATOM     79  C   UNL A   1      44.077  27.915  25.946  1.00  0.00     0.012 A 
ATOM     80  C   UNL A   1      45.223  26.913  27.838  1.00  0.00     0.148 A 
ATOM     81  C   UNL A   1      43.815  26.648  25.424  1.00  0.00     0.002 A 
ATOM     82  C   UNL A   1      45.007  25.655  27.284  1.00  0.00     0.091 A 
ATOM     83  F   UNL A   1      45.849  27.069  29.013  1.00  0.00    -0.205 F 
ATOM     84  C   UNL A   1      44.286  25.519  26.088  1.00  0.00     0.022 A 
BRANCH  82  85
ATOM     85  S   UNL A   1      45.682  24.162  28.018  1.00  0.00     0.127 S 
ATOM     86  O   UNL A   1      45.231  23.136  27.081  1.00  0.00    -0.237 OA
ATOM     87  O   UNL A   1      47.121  24.430  27.990  1.00  0.00    -0.237 OA
ATOM     88  O   UNL A   1      45.114  24.097  29.357  1.00  0.00    -0.744 OA
ENDBRANCH  82  85
ENDBRANCH  54  78
BRANCH  66  89
ATOM     89  C   UNL A   1      50.279  32.315  27.508  1.00  0.00     0.023 A 
ATOM     90  C   UNL A   1      51.235  31.662  28.313  1.00  0.00     0.012 A 
ATOM     91  C   UNL A   1      50.660  32.783  26.234  1.00  0.00     0.148 A 
ATOM     92  C   UNL A   1      52.553  31.517  27.877  1.00  0.00     0.002 A 
ATOM     93  C   UNL A   1      51.963  32.590  25.786  1.00  0.00     0.091 A 
ATOM     94  F   UNL A   1      49.746  33.416  25.483  1.00  0.00    -0.205 F 
ATOM     95  C   UNL A   1      52.914  31.971  26.611  1.00  0.00     0.022 A 
BRANCH  93  96
ATOM     96  S   UNL A   1      52.482  33.058  24.129  1.00  0.00     0.127 S 
ATOM     97  O   UNL A   1      51.769  32.085  23.305  1.00  0.00    -0.237 OA
ATOM     98  O   UNL A   1      51.984  34.430  24.018  1.00  0.00    -0.237 OA
ATOM     99  O   UNL A   1      53.934  32.947  24.125  1.00  0.00    -0.744 OA
ENDBRANCH  93  96
ENDBRANCH  66  89
ENDBRANCH  40  41
ENDBRANCH  33  35
ENDBRANCH  32  33
ENDBRANCH  31  32
ENDBRANCH  30  31
ENDBRANCH  29  30
ENDBRANCH  28  29
ENDBRANCH   1  28
TORSDOF 24
ENDMDL
