MODEL 1
REMARK VINA RESULT:     -10.2      0.000      0.000
REMARK SMILES CC1(C)[C@H](C#N)C(SCC(=O)OCCOCCOCCOC(=O)c2ccc(-c3c4nc(c(-c5cccc(S(=O)(=O)[O-])c5F)c5ccc([nH]5)c(-c5cccc(S(=O)(=O)[O-])c5F)c5nc(c(-c6cccc(S(=O)(=O)[O-])c6F)c6ccc3[nH]6)C=C5)C=C4)cc2)=NC(=O)[C@@H]1C#N
REMARK SMILES IDX 16 1 15 2 14 3 13 4 12 5 10 6 11 7 9 8 8 9 7 10 1 11 2 12
REMARK SMILES IDX 3 13 4 14 90 15 88 16 87 17 89 18 5 19 6 20 91 21 92 22
REMARK SMILES IDX 17 23 18 24 19 25 20 26 21 27 22 28 23 29 24 30 25 31 86 32
REMARK SMILES IDX 26 33 85 34 27 35 28 36 29 37 79 38 30 39 84 40 78 41 80 42
REMARK SMILES IDX 31 43 83 44 77 45 76 46 32 48 64 49 44 50 63 51 45 52 48 53
REMARK SMILES IDX 62 54 81 55 46 56 47 57 61 59 82 60 49 61 33 62 34 63 42 64
REMARK SMILES IDX 35 65 37 66 43 67 36 68 38 69 39 70 40 71 41 72 65 73 66 74
REMARK SMILES IDX 74 75 67 76 69 77 75 78 68 79 70 80 71 81 72 82 73 83 50 84
REMARK SMILES IDX 51 85 59 86 52 87 54 88 60 89 53 90 55 91 56 92 57 93 58 94
REMARK H PARENT 80 47 48 58
REMARK Flexibility Score: inf
ROOT
ATOM      1  C   UNL A   1      40.618  20.887  27.174  1.00  0.00     0.188 C 
ENDROOT
BRANCH   1   2
ATOM      2  O   UNL A   1      39.563  21.752  26.823  1.00  0.00    -0.376 OA
BRANCH   2   3
ATOM      3  C   UNL A   1      38.579  21.272  25.920  1.00  0.00     0.202 C 
BRANCH   3   4
ATOM      4  C   UNL A   1      37.793  22.278  25.052  1.00  0.00     0.261 C 
BRANCH   4   5
ATOM      5  O   UNL A   1      36.530  22.704  25.623  1.00  0.00    -0.463 OA
BRANCH   5   6
ATOM      6  C   UNL A   1      35.471  21.848  25.537  1.00  0.00     0.316 C 
ATOM      7  O   UNL A   1      35.180  21.251  24.504  1.00  0.00    -0.251 OA
BRANCH   6   8
ATOM      8  C   UNL A   1      34.738  21.563  26.862  1.00  0.00     0.198 C 
BRANCH   8   9
ATOM      9  S   UNL A   1      33.415  22.715  27.314  1.00  0.00    -0.097 SA
BRANCH   9  10
ATOM     10  C   UNL A   1      33.321  24.011  26.066  1.00  0.00     0.095 C 
ATOM     11  C   UNL A   1      32.224  23.582  22.554  1.00  0.00     0.015 C 
ATOM     12  C   UNL A   1      32.026  24.546  23.736  1.00  0.00     0.012 C 
ATOM     13  C   UNL A   1      30.528  25.061  23.496  1.00  0.00     0.015 C 
ATOM     14  C   UNL A   1      32.223  23.748  25.075  1.00  0.00     0.156 C 
ATOM     15  C   UNL A   1      33.023  25.731  23.784  1.00  0.00     0.191 C 
ATOM     16  C   UNL A   1      33.365  26.150  25.237  1.00  0.00     0.264 C 
ATOM     17  N   UNL A   1      33.898  25.166  26.106  1.00  0.00    -0.209 NA
ATOM     18  O   UNL A   1      33.179  27.294  25.632  1.00  0.00    -0.271 OA
BRANCH  14  19
ATOM     19  C   UNL A   1      31.169  24.474  25.896  1.00  0.00     0.073 C 
ATOM     20  N   UNL A   1      30.296  25.077  26.577  1.00  0.00    -0.198 NA
ENDBRANCH  14  19
BRANCH  15  21
ATOM     21  C   UNL A   1      32.588  26.875  22.971  1.00  0.00     0.076 C 
ATOM     22  N   UNL A   1      32.150  27.776  22.373  1.00  0.00    -0.197 NA
ENDBRANCH  15  21
ENDBRANCH   9  10
ENDBRANCH   8   9
ENDBRANCH   6   8
ENDBRANCH   5   6
ENDBRANCH   4   5
ENDBRANCH   3   4
ENDBRANCH   2   3
ENDBRANCH   1   2
BRANCH   1  23
ATOM     23  C   UNL A   1      41.013  19.778  26.185  1.00  0.00     0.188 C 
BRANCH  23  24
ATOM     24  O   UNL A   1      42.274  19.175  26.229  1.00  0.00    -0.376 OA
BRANCH  24  25
ATOM     25  C   UNL A   1      43.242  19.612  25.297  1.00  0.00     0.202 C 
BRANCH  25  26
ATOM     26  C   UNL A   1      44.103  20.881  25.498  1.00  0.00     0.261 C 
BRANCH  26  27
ATOM     27  O   UNL A   1      43.509  22.007  26.188  1.00  0.00    -0.460 OA
BRANCH  27  28
ATOM     28  C   UNL A   1      43.201  23.074  25.413  1.00  0.00     0.338 C 
ATOM     29  O   UNL A   1      43.314  23.099  24.193  1.00  0.00    -0.246 OA
BRANCH  28  30
ATOM     30  C   UNL A   1      42.545  24.223  26.113  1.00  0.00     0.060 A 
ATOM     31  C   UNL A   1      42.770  25.560  25.772  1.00  0.00     0.016 A 
ATOM     32  C   UNL A   1      42.004  23.961  27.368  1.00  0.00     0.016 A 
ATOM     33  C   UNL A   1      42.580  26.592  26.698  1.00  0.00     0.010 A 
ATOM     34  C   UNL A   1      41.714  25.008  28.258  1.00  0.00     0.010 A 
ATOM     35  C   UNL A   1      42.033  26.339  27.953  1.00  0.00    -0.014 A 
BRANCH  35  36
ATOM     36  C   UNL A   1      41.767  27.447  28.917  1.00  0.00     0.031 A 
ATOM     37  C   UNL A   1      42.629  27.634  30.141  1.00  0.00     0.074 A 
ATOM     38  C   UNL A   1      40.701  28.255  28.731  1.00  0.00     0.049 A 
ATOM     39  N   UNL A   1      42.374  28.298  31.240  1.00  0.00    -0.248 NA
ATOM     40  C   UNL A   1      43.946  26.982  30.132  1.00  0.00     0.031 C 
ATOM     41  C   UNL A   1      39.821  28.253  27.559  1.00  0.00     0.029 A 
ATOM     42  N   UNL A   1      40.143  29.205  29.554  1.00  0.00    -0.354 N 
ATOM     43  C   UNL A   1      43.462  28.080  32.082  1.00  0.00     0.074 A 
ATOM     44  C   UNL A   1      44.393  27.245  31.354  1.00  0.00     0.031 C 
ATOM     45  C   UNL A   1      38.831  29.132  27.743  1.00  0.00     0.029 A 
ATOM     46  C   UNL A   1      38.928  29.661  29.093  1.00  0.00     0.049 A 
ATOM     47  H   UNL A   1      40.566  29.523  30.384  1.00  0.00     0.167 HD
ATOM     48  C   UNL A   1      43.650  28.526  33.348  1.00  0.00     0.034 A 
ATOM     49  C   UNL A   1      37.942  30.340  29.708  1.00  0.00     0.034 A 
ATOM     50  C   UNL A   1      42.722  29.387  34.040  1.00  0.00     0.049 A 
ATOM     51  C   UNL A   1      38.126  30.746  31.137  1.00  0.00     0.074 A 
ATOM     52  C   UNL A   1      42.828  29.921  35.312  1.00  0.00     0.029 A 
ATOM     53  N   UNL A   1      41.515  29.831  33.523  1.00  0.00    -0.354 N 
ATOM     54  N   UNL A   1      39.151  30.538  31.925  1.00  0.00    -0.248 NA
ATOM     55  C   UNL A   1      37.026  31.497  31.757  1.00  0.00     0.031 C 
ATOM     56  C   UNL A   1      41.656  30.633  35.588  1.00  0.00     0.029 A 
ATOM     57  C   UNL A   1      40.850  30.602  34.461  1.00  0.00     0.049 A 
ATOM     58  H   UNL A   1      41.178  29.626  32.620  1.00  0.00     0.167 HD
ATOM     59  C   UNL A   1      38.839  31.165  33.124  1.00  0.00     0.074 A 
ATOM     60  C   UNL A   1      37.535  31.772  32.950  1.00  0.00     0.031 C 
ATOM     61  C   UNL A   1      39.568  31.230  34.264  1.00  0.00     0.034 A 
BRANCH  48  62
ATOM     62  C   UNL A   1      44.881  28.073  34.098  1.00  0.00     0.023 A 
ATOM     63  C   UNL A   1      46.058  28.847  34.085  1.00  0.00     0.012 A 
ATOM     64  C   UNL A   1      44.838  26.905  34.892  1.00  0.00     0.148 A 
ATOM     65  C   UNL A   1      47.178  28.451  34.821  1.00  0.00     0.002 A 
ATOM     66  C   UNL A   1      45.940  26.543  35.659  1.00  0.00     0.091 A 
ATOM     67  F   UNL A   1      43.715  26.173  34.888  1.00  0.00    -0.205 F 
ATOM     68  C   UNL A   1      47.115  27.309  35.615  1.00  0.00     0.022 A 
BRANCH  66  69
ATOM     69  S   UNL A   1      45.928  25.134  36.775  1.00  0.00     0.127 S 
ATOM     70  O   UNL A   1      47.341  25.029  37.136  1.00  0.00    -0.237 OA
ATOM     71  O   UNL A   1      45.058  25.604  37.854  1.00  0.00    -0.237 OA
ATOM     72  O   UNL A   1      45.398  24.014  36.011  1.00  0.00    -0.744 OA
ENDBRANCH  66  69
ENDBRANCH  48  62
BRANCH  49  73
ATOM     73  C   UNL A   1      36.675  30.623  28.975  1.00  0.00     0.023 A 
ATOM     74  C   UNL A   1      35.906  29.556  28.479  1.00  0.00     0.012 A 
ATOM     75  C   UNL A   1      36.203  31.944  28.821  1.00  0.00     0.148 A 
ATOM     76  C   UNL A   1      34.699  29.799  27.821  1.00  0.00     0.002 A 
ATOM     77  C   UNL A   1      34.971  32.173  28.225  1.00  0.00     0.091 A 
ATOM     78  F   UNL A   1      36.957  32.948  29.293  1.00  0.00    -0.205 F 
ATOM     79  C   UNL A   1      34.226  31.104  27.707  1.00  0.00     0.022 A 
BRANCH  77  80
ATOM     80  S   UNL A   1      34.215  33.803  28.169  1.00  0.00     0.127 S 
ATOM     81  O   UNL A   1      35.082  34.501  27.222  1.00  0.00    -0.237 OA
ATOM     82  O   UNL A   1      32.876  33.496  27.668  1.00  0.00    -0.237 OA
ATOM     83  O   UNL A   1      34.245  34.302  29.537  1.00  0.00    -0.744 OA
ENDBRANCH  77  80
ENDBRANCH  49  73
BRANCH  61  84
ATOM     84  C   UNL A   1      39.001  32.040  35.399  1.00  0.00     0.023 A 
ATOM     85  C   UNL A   1      39.014  33.448  35.346  1.00  0.00     0.012 A 
ATOM     86  C   UNL A   1      38.410  31.393  36.502  1.00  0.00     0.148 A 
ATOM     87  C   UNL A   1      38.484  34.198  36.395  1.00  0.00     0.002 A 
ATOM     88  C   UNL A   1      37.831  32.147  37.513  1.00  0.00     0.091 A 
ATOM     89  F   UNL A   1      38.426  30.053  36.540  1.00  0.00    -0.205 F 
ATOM     90  C   UNL A   1      37.882  33.549  37.470  1.00  0.00     0.022 A 
BRANCH  88  91
ATOM     91  S   UNL A   1      36.951  31.400  38.889  1.00  0.00     0.127 S 
ATOM     92  O   UNL A   1      36.682  30.057  38.377  1.00  0.00    -0.237 OA
ATOM     93  O   UNL A   1      37.949  31.458  39.958  1.00  0.00    -0.237 OA
ATOM     94  O   UNL A   1      35.772  32.225  39.112  1.00  0.00    -0.744 OA
ENDBRANCH  88  91
ENDBRANCH  61  84
ENDBRANCH  35  36
ENDBRANCH  28  30
ENDBRANCH  27  28
ENDBRANCH  26  27
ENDBRANCH  25  26
ENDBRANCH  24  25
ENDBRANCH  23  24
ENDBRANCH   1  23
TORSDOF 24
ENDMDL
MODEL 2
REMARK VINA RESULT:     -10.1      1.698      2.157
REMARK SMILES CC1(C)[C@H](C#N)C(SCC(=O)OCCOCCOCCOC(=O)c2ccc(-c3c4nc(c(-c5cccc(S(=O)(=O)[O-])c5F)c5ccc([nH]5)c(-c5cccc(S(=O)(=O)[O-])c5F)c5nc(c(-c6cccc(S(=O)(=O)[O-])c6F)c6ccc3[nH]6)C=C5)C=C4)cc2)=NC(=O)[C@@H]1C#N
REMARK SMILES IDX 16 1 15 2 14 3 13 4 12 5 10 6 11 7 9 8 8 9 7 10 1 11 2 12
REMARK SMILES IDX 3 13 4 14 90 15 88 16 87 17 89 18 5 19 6 20 91 21 92 22
REMARK SMILES IDX 17 23 18 24 19 25 20 26 21 27 22 28 23 29 24 30 25 31 86 32
REMARK SMILES IDX 26 33 85 34 27 35 28 36 29 37 79 38 30 39 84 40 78 41 80 42
REMARK SMILES IDX 31 43 83 44 77 45 76 46 32 48 64 49 44 50 63 51 45 52 48 53
REMARK SMILES IDX 62 54 81 55 46 56 47 57 61 59 82 60 49 61 33 62 34 63 42 64
REMARK SMILES IDX 35 65 37 66 43 67 36 68 38 69 39 70 40 71 41 72 65 73 66 74
REMARK SMILES IDX 74 75 67 76 69 77 75 78 68 79 70 80 71 81 72 82 73 83 50 84
REMARK SMILES IDX 51 85 59 86 52 87 54 88 60 89 53 90 55 91 56 92 57 93 58 94
REMARK H PARENT 80 47 48 58
REMARK Flexibility Score: inf
ROOT
ATOM      1  C   UNL A   1      40.430  21.481  26.712  1.00  0.00     0.188 C 
ENDROOT
BRANCH   1   2
ATOM      2  O   UNL A   1      39.093  21.821  26.423  1.00  0.00    -0.376 OA
BRANCH   2   3
ATOM      3  C   UNL A   1      38.442  21.129  25.370  1.00  0.00     0.202 C 
BRANCH   3   4
ATOM      4  C   UNL A   1      37.048  21.601  24.902  1.00  0.00     0.261 C 
BRANCH   4   5
ATOM      5  O   UNL A   1      35.983  20.642  25.127  1.00  0.00    -0.463 OA
BRANCH   5   6
ATOM      6  C   UNL A   1      34.723  21.125  25.329  1.00  0.00     0.316 C 
ATOM      7  O   UNL A   1      34.175  21.116  26.427  1.00  0.00    -0.251 OA
BRANCH   6   8
ATOM      8  C   UNL A   1      34.077  21.820  24.114  1.00  0.00     0.198 C 
BRANCH   8   9
ATOM      9  S   UNL A   1      32.272  21.965  24.137  1.00  0.00    -0.097 SA
BRANCH   9  10
ATOM     10  C   UNL A   1      31.825  23.697  23.923  1.00  0.00     0.095 C 
ATOM     11  C   UNL A   1      29.561  25.651  26.109  1.00  0.00     0.015 C 
ATOM     12  C   UNL A   1      30.917  25.794  25.396  1.00  0.00     0.012 C 
ATOM     13  C   UNL A   1      31.714  26.763  26.392  1.00  0.00     0.015 C 
ATOM     14  C   UNL A   1      31.556  24.367  25.240  1.00  0.00     0.156 C 
ATOM     15  C   UNL A   1      30.843  26.397  23.971  1.00  0.00     0.191 C 
ATOM     16  C   UNL A   1      31.925  25.808  23.029  1.00  0.00     0.264 C 
ATOM     17  N   UNL A   1      31.958  24.403  22.849  1.00  0.00    -0.209 NA
ATOM     18  O   UNL A   1      32.734  26.528  22.458  1.00  0.00    -0.271 OA
BRANCH  14  19
ATOM     19  C   UNL A   1      33.006  24.775  25.444  1.00  0.00     0.073 C 
ATOM     20  N   UNL A   1      34.209  25.113  25.612  1.00  0.00    -0.198 NA
ENDBRANCH  14  19
BRANCH  15  21
ATOM     21  C   UNL A   1      30.857  27.866  23.973  1.00  0.00     0.076 C 
ATOM     22  N   UNL A   1      30.796  29.029  24.049  1.00  0.00    -0.197 NA
ENDBRANCH  15  21
ENDBRANCH   9  10
ENDBRANCH   8   9
ENDBRANCH   6   8
ENDBRANCH   5   6
ENDBRANCH   4   5
ENDBRANCH   3   4
ENDBRANCH   2   3
ENDBRANCH   1   2
BRANCH   1  23
ATOM     23  C   UNL A   1      40.876  20.026  26.495  1.00  0.00     0.188 C 
BRANCH  23  24
ATOM     24  O   UNL A   1      41.771  19.680  25.478  1.00  0.00    -0.376 OA
BRANCH  24  25
ATOM     25  C   UNL A   1      43.147  19.889  25.717  1.00  0.00     0.202 C 
BRANCH  25  26
ATOM     26  C   UNL A   1      43.873  21.218  25.402  1.00  0.00     0.261 C 
BRANCH  26  27
ATOM     27  O   UNL A   1      43.098  22.301  24.835  1.00  0.00    -0.460 OA
BRANCH  27  28
ATOM     28  C   UNL A   1      43.716  23.505  24.791  1.00  0.00     0.338 C 
ATOM     29  O   UNL A   1      44.702  23.753  24.106  1.00  0.00    -0.246 OA
BRANCH  28  30
ATOM     30  C   UNL A   1      43.035  24.617  25.525  1.00  0.00     0.060 A 
ATOM     31  C   UNL A   1      43.240  25.969  25.233  1.00  0.00     0.016 A 
ATOM     32  C   UNL A   1      42.488  24.302  26.765  1.00  0.00     0.016 A 
ATOM     33  C   UNL A   1      43.024  26.964  26.194  1.00  0.00     0.010 A 
ATOM     34  C   UNL A   1      42.172  25.312  27.689  1.00  0.00     0.010 A 
ATOM     35  C   UNL A   1      42.470  26.658  27.434  1.00  0.00    -0.014 A 
BRANCH  35  36
ATOM     36  C   UNL A   1      42.177  27.727  28.433  1.00  0.00     0.031 A 
ATOM     37  C   UNL A   1      43.080  27.945  29.623  1.00  0.00     0.074 A 
ATOM     38  C   UNL A   1      41.055  28.468  28.312  1.00  0.00     0.049 A 
ATOM     39  N   UNL A   1      42.832  28.568  30.747  1.00  0.00    -0.248 NA
ATOM     40  C   UNL A   1      44.434  27.380  29.542  1.00  0.00     0.031 C 
ATOM     41  C   UNL A   1      40.126  28.432  27.179  1.00  0.00     0.029 A 
ATOM     42  N   UNL A   1      40.474  29.363  29.180  1.00  0.00    -0.354 N 
ATOM     43  C   UNL A   1      43.968  28.405  31.536  1.00  0.00     0.074 A 
ATOM     44  C   UNL A   1      44.917  27.647  30.750  1.00  0.00     0.031 C 
ATOM     45  C   UNL A   1      39.090  29.241  27.426  1.00  0.00     0.029 A 
ATOM     46  C   UNL A   1      39.213  29.748  28.783  1.00  0.00     0.049 A 
ATOM     47  H   UNL A   1      40.913  29.691  29.998  1.00  0.00     0.167 HD
ATOM     48  C   UNL A   1      44.184  28.837  32.803  1.00  0.00     0.034 A 
ATOM     49  C   UNL A   1      38.214  30.349  29.456  1.00  0.00     0.034 A 
ATOM     50  C   UNL A   1      43.234  29.621  33.554  1.00  0.00     0.049 A 
ATOM     51  C   UNL A   1      38.436  30.738  30.884  1.00  0.00     0.074 A 
ATOM     52  C   UNL A   1      43.362  30.135  34.832  1.00  0.00     0.029 A 
ATOM     53  N   UNL A   1      41.979  29.996  33.099  1.00  0.00    -0.354 N 
ATOM     54  N   UNL A   1      39.506  30.580  31.622  1.00  0.00    -0.248 NA
ATOM     55  C   UNL A   1      37.319  31.403  31.568  1.00  0.00     0.031 C 
ATOM     56  C   UNL A   1      42.160  30.764  35.175  1.00  0.00     0.029 A 
ATOM     57  C   UNL A   1      41.309  30.704  34.083  1.00  0.00     0.049 A 
ATOM     58  H   UNL A   1      41.616  29.789  32.207  1.00  0.00     0.167 HD
ATOM     59  C   UNL A   1      39.209  31.162  32.847  1.00  0.00     0.074 A 
ATOM     60  C   UNL A   1      37.861  31.686  32.744  1.00  0.00     0.031 C 
ATOM     61  C   UNL A   1      39.982  31.251  33.956  1.00  0.00     0.034 A 
BRANCH  48  62
ATOM     62  C   UNL A   1      45.473  28.449  33.489  1.00  0.00     0.023 A 
ATOM     63  C   UNL A   1      46.650  29.197  33.285  1.00  0.00     0.012 A 
ATOM     64  C   UNL A   1      45.493  27.378  34.408  1.00  0.00     0.148 A 
ATOM     65  C   UNL A   1      47.828  28.868  33.961  1.00  0.00     0.002 A 
ATOM     66  C   UNL A   1      46.656  27.085  35.112  1.00  0.00     0.091 A 
ATOM     67  F   UNL A   1      44.369  26.668  34.584  1.00  0.00    -0.205 F 
ATOM     68  C   UNL A   1      47.828  27.821  34.880  1.00  0.00     0.022 A 
BRANCH  66  69
ATOM     69  S   UNL A   1      46.734  25.808  36.376  1.00  0.00     0.127 S 
ATOM     70  O   UNL A   1      45.389  25.875  36.947  1.00  0.00    -0.237 OA
ATOM     71  O   UNL A   1      46.999  24.607  35.583  1.00  0.00    -0.237 OA
ATOM     72  O   UNL A   1      47.811  26.193  37.277  1.00  0.00    -0.744 OA
ENDBRANCH  66  69
ENDBRANCH  48  62
BRANCH  49  73
ATOM     73  C   UNL A   1      36.901  30.564  28.784  1.00  0.00     0.023 A 
ATOM     74  C   UNL A   1      36.176  29.459  28.304  1.00  0.00     0.012 A 
ATOM     75  C   UNL A   1      36.342  31.855  28.675  1.00  0.00     0.148 A 
ATOM     76  C   UNL A   1      34.929  29.636  27.704  1.00  0.00     0.002 A 
ATOM     77  C   UNL A   1      35.072  32.016  28.139  1.00  0.00     0.091 A 
ATOM     78  F   UNL A   1      37.053  32.897  29.132  1.00  0.00    -0.205 F 
ATOM     79  C   UNL A   1      34.372  30.911  27.635  1.00  0.00     0.022 A 
BRANCH  77  80
ATOM     80  S   UNL A   1      34.216  33.597  28.145  1.00  0.00     0.127 S 
ATOM     81  O   UNL A   1      32.891  33.220  27.661  1.00  0.00    -0.237 OA
ATOM     82  O   UNL A   1      34.275  33.964  29.560  1.00  0.00    -0.237 OA
ATOM     83  O   UNL A   1      34.985  34.468  27.267  1.00  0.00    -0.744 OA
ENDBRANCH  77  80
ENDBRANCH  49  73
BRANCH  61  84
ATOM     84  C   UNL A   1      39.415  32.000  35.132  1.00  0.00     0.023 A 
ATOM     85  C   UNL A   1      38.457  31.394  35.969  1.00  0.00     0.012 A 
ATOM     86  C   UNL A   1      39.877  33.297  35.432  1.00  0.00     0.148 A 
ATOM     87  C   UNL A   1      37.936  32.086  37.062  1.00  0.00     0.002 A 
ATOM     88  C   UNL A   1      39.398  33.955  36.556  1.00  0.00     0.091 A 
ATOM     89  F   UNL A   1      40.775  33.860  34.612  1.00  0.00    -0.205 F 
ATOM     90  C   UNL A   1      38.415  33.359  37.362  1.00  0.00     0.022 A 
BRANCH  88  91
ATOM     91  S   UNL A   1      40.024  35.556  37.075  1.00  0.00     0.127 S 
ATOM     92  O   UNL A   1      39.477  36.439  36.046  1.00  0.00    -0.237 OA
ATOM     93  O   UNL A   1      39.414  35.708  38.397  1.00  0.00    -0.237 OA
ATOM     94  O   UNL A   1      41.476  35.441  37.085  1.00  0.00    -0.744 OA
ENDBRANCH  88  91
ENDBRANCH  61  84
ENDBRANCH  35  36
ENDBRANCH  28  30
ENDBRANCH  27  28
ENDBRANCH  26  27
ENDBRANCH  25  26
ENDBRANCH  24  25
ENDBRANCH  23  24
ENDBRANCH   1  23
TORSDOF 24
ENDMDL
MODEL 3
REMARK VINA RESULT:      -9.2      4.382      6.357
REMARK SMILES CC1(C)[C@H](C#N)C(SCC(=O)OCCOCCOCCOC(=O)c2ccc(-c3c4nc(c(-c5cccc(S(=O)(=O)[O-])c5F)c5ccc([nH]5)c(-c5cccc(S(=O)(=O)[O-])c5F)c5nc(c(-c6cccc(S(=O)(=O)[O-])c6F)c6ccc3[nH]6)C=C5)C=C4)cc2)=NC(=O)[C@@H]1C#N
REMARK SMILES IDX 16 1 15 2 14 3 13 4 12 5 10 6 11 7 9 8 8 9 7 10 1 11 2 12
REMARK SMILES IDX 3 13 4 14 90 15 88 16 87 17 89 18 5 19 6 20 91 21 92 22
REMARK SMILES IDX 17 23 18 24 19 25 20 26 21 27 22 28 23 29 24 30 25 31 86 32
REMARK SMILES IDX 26 33 85 34 27 35 28 36 29 37 79 38 30 39 84 40 78 41 80 42
REMARK SMILES IDX 31 43 83 44 77 45 76 46 32 48 64 49 44 50 63 51 45 52 48 53
REMARK SMILES IDX 62 54 81 55 46 56 47 57 61 59 82 60 49 61 33 62 34 63 42 64
REMARK SMILES IDX 35 65 37 66 43 67 36 68 38 69 39 70 40 71 41 72 65 73 66 74
REMARK SMILES IDX 74 75 67 76 69 77 75 78 68 79 70 80 71 81 72 82 73 83 50 84
REMARK SMILES IDX 51 85 59 86 52 87 54 88 60 89 53 90 55 91 56 92 57 93 58 94
REMARK H PARENT 80 47 48 58
REMARK Flexibility Score: inf
ROOT
ATOM      1  C   UNL A   1      44.779  19.070  25.076  1.00  0.00     0.188 C 
ENDROOT
BRANCH   1   2
ATOM      2  O   UNL A   1      43.467  18.566  24.984  1.00  0.00    -0.376 OA
BRANCH   2   3
ATOM      3  C   UNL A   1      42.665  18.573  26.154  1.00  0.00     0.202 C 
BRANCH   3   4
ATOM      4  C   UNL A   1      42.047  19.901  26.640  1.00  0.00     0.261 C 
BRANCH   4   5
ATOM      5  O   UNL A   1      40.597  19.931  26.623  1.00  0.00    -0.463 OA
BRANCH   5   6
ATOM      6  C   UNL A   1      39.988  21.078  26.206  1.00  0.00     0.316 C 
ATOM      7  O   UNL A   1      38.906  21.084  25.626  1.00  0.00    -0.251 OA
BRANCH   6   8
ATOM      8  C   UNL A   1      40.676  22.388  26.635  1.00  0.00     0.198 C 
BRANCH   8   9
ATOM      9  S   UNL A   1      39.591  23.704  27.245  1.00  0.00    -0.097 SA
BRANCH   9  10
ATOM     10  C   UNL A   1      40.283  25.297  26.767  1.00  0.00     0.095 C 
ATOM     11  C   UNL A   1      39.728  28.526  28.496  1.00  0.00     0.015 C 
ATOM     12  C   UNL A   1      40.873  27.710  27.871  1.00  0.00     0.012 C 
ATOM     13  C   UNL A   1      42.119  28.139  28.782  1.00  0.00     0.015 C 
ATOM     14  C   UNL A   1      40.509  26.184  27.957  1.00  0.00     0.156 C 
ATOM     15  C   UNL A   1      41.145  28.010  26.376  1.00  0.00     0.191 C 
ATOM     16  C   UNL A   1      41.623  26.752  25.604  1.00  0.00     0.264 C 
ATOM     17  N   UNL A   1      40.791  25.606  25.620  1.00  0.00    -0.209 NA
ATOM     18  O   UNL A   1      42.689  26.741  25.001  1.00  0.00    -0.271 OA
BRANCH  14  19
ATOM     19  C   UNL A   1      41.914  25.659  28.209  1.00  0.00     0.073 C 
ATOM     20  N   UNL A   1      43.078  25.223  28.420  1.00  0.00    -0.198 NA
ENDBRANCH  14  19
BRANCH  15  21
ATOM     21  C   UNL A   1      42.050  29.151  26.179  1.00  0.00     0.076 C 
ATOM     22  N   UNL A   1      42.789  30.052  26.125  1.00  0.00    -0.197 NA
ENDBRANCH  15  21
ENDBRANCH   9  10
ENDBRANCH   8   9
ENDBRANCH   6   8
ENDBRANCH   5   6
ENDBRANCH   4   5
ENDBRANCH   3   4
ENDBRANCH   2   3
ENDBRANCH   1   2
BRANCH   1  23
ATOM     23  C   UNL A   1      44.993  20.584  24.924  1.00  0.00     0.188 C 
BRANCH  23  24
ATOM     24  O   UNL A   1      46.276  21.139  24.868  1.00  0.00    -0.376 OA
BRANCH  24  25
ATOM     25  C   UNL A   1      46.407  22.430  24.309  1.00  0.00     0.202 C 
BRANCH  25  26
ATOM     26  C   UNL A   1      46.470  23.721  25.158  1.00  0.00     0.261 C 
BRANCH  26  27
ATOM     27  O   UNL A   1      46.753  24.969  24.482  1.00  0.00    -0.460 OA
BRANCH  27  28
ATOM     28  C   UNL A   1      47.747  25.715  25.018  1.00  0.00     0.338 C 
ATOM     29  O   UNL A   1      48.935  25.580  24.750  1.00  0.00    -0.246 OA
BRANCH  28  30
ATOM     30  C   UNL A   1      47.314  26.864  25.874  1.00  0.00     0.060 A 
ATOM     31  C   UNL A   1      48.140  27.462  26.831  1.00  0.00     0.016 A 
ATOM     32  C   UNL A   1      45.944  27.081  25.979  1.00  0.00     0.016 A 
ATOM     33  C   UNL A   1      47.606  28.148  27.928  1.00  0.00     0.010 A 
ATOM     34  C   UNL A   1      45.418  27.861  27.022  1.00  0.00     0.010 A 
ATOM     35  C   UNL A   1      46.237  28.376  28.037  1.00  0.00    -0.014 A 
BRANCH  35  36
ATOM     36  C   UNL A   1      45.673  29.166  29.171  1.00  0.00     0.031 A 
ATOM     37  C   UNL A   1      45.317  28.501  30.478  1.00  0.00     0.074 A 
ATOM     38  C   UNL A   1      45.414  30.481  29.007  1.00  0.00     0.049 A 
ATOM     39  N   UNL A   1      44.530  28.924  31.434  1.00  0.00    -0.248 NA
ATOM     40  C   UNL A   1      45.916  27.184  30.739  1.00  0.00     0.031 C 
ATOM     41  C   UNL A   1      45.774  31.284  27.836  1.00  0.00     0.029 A 
ATOM     42  N   UNL A   1      44.737  31.367  29.813  1.00  0.00    -0.354 N 
ATOM     43  C   UNL A   1      44.478  27.896  32.373  1.00  0.00     0.074 A 
ATOM     44  C   UNL A   1      45.337  26.839  31.883  1.00  0.00     0.031 C 
ATOM     45  C   UNL A   1      45.302  32.526  27.984  1.00  0.00     0.029 A 
ATOM     46  C   UNL A   1      44.496  32.572  29.192  1.00  0.00     0.049 A 
ATOM     47  H   UNL A   1      44.455  31.161  30.733  1.00  0.00     0.167 HD
ATOM     48  C   UNL A   1      43.765  27.840  33.525  1.00  0.00     0.034 A 
ATOM     49  C   UNL A   1      43.644  33.571  29.491  1.00  0.00     0.034 A 
ATOM     50  C   UNL A   1      42.943  28.922  34.009  1.00  0.00     0.049 A 
ATOM     51  C   UNL A   1      42.795  33.455  30.718  1.00  0.00     0.074 A 
ATOM     52  C   UNL A   1      42.201  28.983  35.176  1.00  0.00     0.029 A 
ATOM     53  N   UNL A   1      42.744  30.125  33.350  1.00  0.00    -0.354 N 
ATOM     54  N   UNL A   1      42.749  32.485  31.597  1.00  0.00    -0.248 NA
ATOM     55  C   UNL A   1      41.893  34.578  31.006  1.00  0.00     0.031 C 
ATOM     56  C   UNL A   1      41.504  30.196  35.190  1.00  0.00     0.029 A 
ATOM     57  C   UNL A   1      41.867  30.921  34.066  1.00  0.00     0.049 A 
ATOM     58  H   UNL A   1      43.165  30.377  32.495  1.00  0.00     0.167 HD
ATOM     59  C   UNL A   1      41.843  32.895  32.565  1.00  0.00     0.074 A 
ATOM     60  C   UNL A   1      41.376  34.209  32.170  1.00  0.00     0.031 C 
ATOM     61  C   UNL A   1      41.436  32.241  33.680  1.00  0.00     0.034 A 
BRANCH  48  62
ATOM     62  C   UNL A   1      43.799  26.566  34.335  1.00  0.00     0.023 A 
ATOM     63  C   UNL A   1      42.931  25.497  34.033  1.00  0.00     0.012 A 
ATOM     64  C   UNL A   1      44.761  26.399  35.355  1.00  0.00     0.148 A 
ATOM     65  C   UNL A   1      43.000  24.300  34.751  1.00  0.00     0.002 A 
ATOM     66  C   UNL A   1      44.855  25.189  36.033  1.00  0.00     0.091 A 
ATOM     67  F   UNL A   1      45.574  27.427  35.638  1.00  0.00    -0.205 F 
ATOM     68  C   UNL A   1      43.967  24.142  35.740  1.00  0.00     0.022 A 
BRANCH  66  69
ATOM     69  S   UNL A   1      46.120  24.861  37.268  1.00  0.00     0.127 S 
ATOM     70  O   UNL A   1      45.731  25.775  38.341  1.00  0.00    -0.237 OA
ATOM     71  O   UNL A   1      45.900  23.445  37.565  1.00  0.00    -0.237 OA
ATOM     72  O   UNL A   1      47.396  25.158  36.632  1.00  0.00    -0.744 OA
ENDBRANCH  66  69
ENDBRANCH  48  62
BRANCH  49  73
ATOM     73  C   UNL A   1      43.527  34.738  28.571  1.00  0.00     0.023 A 
ATOM     74  C   UNL A   1      42.766  34.621  27.394  1.00  0.00     0.012 A 
ATOM     75  C   UNL A   1      44.118  35.978  28.889  1.00  0.00     0.148 A 
ATOM     76  C   UNL A   1      42.615  35.713  26.537  1.00  0.00     0.002 A 
ATOM     77  C   UNL A   1      43.908  37.077  28.067  1.00  0.00     0.091 A 
ATOM     78  F   UNL A   1      44.847  36.066  30.012  1.00  0.00    -0.205 F 
ATOM     79  C   UNL A   1      43.173  36.941  26.880  1.00  0.00     0.022 A 
BRANCH  77  80
ATOM     80  S   UNL A   1      44.462  38.730  28.506  1.00  0.00     0.127 S 
ATOM     81  O   UNL A   1      43.696  38.988  29.722  1.00  0.00    -0.237 OA
ATOM     82  O   UNL A   1      45.895  38.521  28.711  1.00  0.00    -0.237 OA
ATOM     83  O   UNL A   1      44.136  39.574  27.364  1.00  0.00    -0.744 OA
ENDBRANCH  77  80
ENDBRANCH  49  73
BRANCH  61  84
ATOM     84  C   UNL A   1      40.480  32.962  34.591  1.00  0.00     0.023 A 
ATOM     85  C   UNL A   1      40.962  33.717  35.679  1.00  0.00     0.012 A 
ATOM     86  C   UNL A   1      39.095  32.926  34.332  1.00  0.00     0.148 A 
ATOM     87  C   UNL A   1      40.076  34.390  36.519  1.00  0.00     0.002 A 
ATOM     88  C   UNL A   1      38.225  33.647  35.138  1.00  0.00     0.091 A 
ATOM     89  F   UNL A   1      38.657  32.187  33.303  1.00  0.00    -0.205 F 
ATOM     90  C   UNL A   1      38.711  34.365  36.242  1.00  0.00     0.022 A 
BRANCH  88  91
ATOM     91  S   UNL A   1      36.464  33.753  34.803  1.00  0.00     0.127 S 
ATOM     92  O   UNL A   1      36.217  32.492  34.104  1.00  0.00    -0.237 OA
ATOM     93  O   UNL A   1      35.900  33.825  36.151  1.00  0.00    -0.237 OA
ATOM     94  O   UNL A   1      36.274  34.953  33.999  1.00  0.00    -0.744 OA
ENDBRANCH  88  91
ENDBRANCH  61  84
ENDBRANCH  35  36
ENDBRANCH  28  30
ENDBRANCH  27  28
ENDBRANCH  26  27
ENDBRANCH  25  26
ENDBRANCH  24  25
ENDBRANCH  23  24
ENDBRANCH   1  23
TORSDOF 24
ENDMDL
