MODEL 1
REMARK VINA RESULT:     -11.8      0.000      0.000
REMARK SMILES Nc1oc2ccc(F)cc2c(=O)c1[C@@H]1[NH2+][C@H](C(=O)OCCOCCOCCOC(=O)c2ccc(-c3c4nc(c(-c5cccc(S(=O)(=O)[O-])c5F)c5ccc([nH]5)c(-c5cccc(S(=O)(=O)[O-])c5F)c5nc(c(-c6cccc(S(=O)(=O)[O-])c6F)c6ccc3[nH]6)C=C5)C=C4)cc2)CS1
REMARK SMILES IDX 24 1 23 2 22 3 21 4 20 5 19 6 17 7 18 8 16 9 14 10 15 11
REMARK SMILES IDX 95 12 94 15 13 16 2 17 3 18 4 19 11 20 5 21 10 22 12 23 6 24
REMARK SMILES IDX 9 25 7 26 8 27 1 28 25 31 26 32 27 33 28 34 29 35 30 36
REMARK SMILES IDX 31 37 32 38 93 39 33 40 92 41 34 42 35 43 36 44 86 45 37 46
REMARK SMILES IDX 91 47 85 48 87 49 38 50 90 51 84 52 83 53 39 55 71 56 51 57
REMARK SMILES IDX 70 58 52 59 55 60 69 61 88 62 53 63 54 64 68 66 89 67 56 68
REMARK SMILES IDX 40 69 41 70 49 71 42 72 44 73 50 74 43 75 45 76 46 77 47 78
REMARK SMILES IDX 48 79 72 80 73 81 81 82 74 83 76 84 82 85 75 86 77 87 78 88
REMARK SMILES IDX 79 89 80 90 57 91 58 92 66 93 59 94 61 95 67 96 60 97 62 98
REMARK SMILES IDX 63 99 64 100 65 101
REMARK H PARENT 15 13 15 14 1 29 1 30 87 54 55 65
REMARK Flexibility Score: inf
ROOT
ATOM      1  C   UNL A   1      30.192  29.512  23.444  1.00  0.00     0.188 C 
ENDROOT
BRANCH   1   2
ATOM      2  C   UNL A   1      31.277  28.436  23.231  1.00  0.00     0.188 C 
BRANCH   2   3
ATOM      3  O   UNL A   1      32.499  28.841  22.610  1.00  0.00    -0.376 OA
BRANCH   3   4
ATOM      4  C   UNL A   1      33.436  27.822  22.262  1.00  0.00     0.202 C 
BRANCH   4   5
ATOM      5  C   UNL A   1      32.867  26.413  22.089  1.00  0.00     0.261 C 
BRANCH   5   6
ATOM      6  O   UNL A   1      33.905  25.438  21.903  1.00  0.00    -0.459 OA
BRANCH   6   7
ATOM      7  C   UNL A   1      33.859  24.370  22.739  1.00  0.00     0.365 C 
ATOM      8  O   UNL A   1      34.444  23.315  22.515  1.00  0.00    -0.245 OA
BRANCH   7   9
ATOM      9  C   UNL A   1      33.095  24.645  24.048  1.00  0.00     0.304 C 
ATOM     10  C   UNL A   1      33.409  22.879  25.704  1.00  0.00     0.283 C 
ATOM     11  N   UNL A   1      32.494  23.455  24.707  1.00  0.00    -0.319 N 
ATOM     12  S   UNL A   1      34.703  24.091  26.081  1.00  0.00    -0.087 SA
ATOM     13  H   UNL A   1      31.629  23.732  25.171  1.00  0.00     0.348 HD
ATOM     14  H   UNL A   1      32.311  22.750  23.993  1.00  0.00     0.348 HD
ATOM     15  C   UNL A   1      33.971  25.383  25.051  1.00  0.00     0.153 C 
BRANCH  10  16
ATOM     16  C   UNL A   1      33.935  21.515  25.329  1.00  0.00     0.128 A 
ATOM     17  C   UNL A   1      35.222  21.126  25.185  1.00  0.00     0.205 A 
ATOM     18  O   UNL A   1      35.604  19.870  24.737  1.00  0.00    -0.440 OA
ATOM     19  C   UNL A   1      34.688  18.860  24.734  1.00  0.00     0.140 A 
ATOM     20  C   UNL A   1      32.884  20.466  25.142  1.00  0.00     0.205 A 
ATOM     21  C   UNL A   1      35.170  17.566  24.531  1.00  0.00     0.051 A 
ATOM     22  C   UNL A   1      33.337  19.082  24.955  1.00  0.00     0.068 A 
ATOM     23  O   UNL A   1      31.684  20.707  25.205  1.00  0.00    -0.288 OA
ATOM     24  C   UNL A   1      34.294  16.484  24.598  1.00  0.00     0.043 A 
ATOM     25  C   UNL A   1      32.451  18.002  25.021  1.00  0.00     0.055 A 
ATOM     26  C   UNL A   1      32.945  16.712  24.855  1.00  0.00     0.124 A 
ATOM     27  F   UNL A   1      32.113  15.667  24.953  1.00  0.00    -0.207 F 
BRANCH  17  28
ATOM     28  N   UNL A   1      36.305  21.902  25.462  1.00  0.00    -0.369 N 
ATOM     29  H   UNL A   1      37.047  21.538  25.997  1.00  0.00     0.159 HD
ATOM     30  H   UNL A   1      36.346  22.826  25.127  1.00  0.00     0.159 HD
ENDBRANCH  17  28
ENDBRANCH  10  16
ENDBRANCH   7   9
ENDBRANCH   6   7
ENDBRANCH   5   6
ENDBRANCH   4   5
ENDBRANCH   3   4
ENDBRANCH   2   3
ENDBRANCH   1   2
BRANCH   1  31
ATOM     31  O   UNL A   1      30.493  30.381  24.518  1.00  0.00    -0.376 OA
BRANCH  31  32
ATOM     32  C   UNL A   1      31.447  29.964  25.471  1.00  0.00     0.202 C 
BRANCH  32  33
ATOM     33  C   UNL A   1      31.931  30.948  26.549  1.00  0.00     0.261 C 
BRANCH  33  34
ATOM     34  O   UNL A   1      33.267  30.774  27.036  1.00  0.00    -0.460 OA
BRANCH  34  35
ATOM     35  C   UNL A   1      33.868  31.836  27.622  1.00  0.00     0.338 C 
ATOM     36  O   UNL A   1      33.371  32.929  27.837  1.00  0.00    -0.246 OA
BRANCH  35  37
ATOM     37  C   UNL A   1      35.167  31.359  28.152  1.00  0.00     0.060 A 
ATOM     38  C   UNL A   1      36.239  32.245  28.301  1.00  0.00     0.016 A 
ATOM     39  C   UNL A   1      35.335  29.996  28.425  1.00  0.00     0.016 A 
ATOM     40  C   UNL A   1      37.475  31.767  28.742  1.00  0.00     0.010 A 
ATOM     41  C   UNL A   1      36.580  29.516  28.852  1.00  0.00     0.010 A 
ATOM     42  C   UNL A   1      37.653  30.402  29.030  1.00  0.00    -0.014 A 
BRANCH  42  43
ATOM     43  C   UNL A   1      38.893  29.959  29.712  1.00  0.00     0.031 A 
ATOM     44  C   UNL A   1      39.297  30.462  31.065  1.00  0.00     0.074 A 
ATOM     45  C   UNL A   1      39.663  29.061  29.069  1.00  0.00     0.049 A 
ATOM     46  N   UNL A   1      40.280  30.050  31.825  1.00  0.00    -0.248 NA
ATOM     47  C   UNL A   1      38.513  31.563  31.641  1.00  0.00     0.031 C 
ATOM     48  C   UNL A   1      39.398  28.543  27.725  1.00  0.00     0.029 A 
ATOM     49  N   UNL A   1      40.814  28.424  29.453  1.00  0.00    -0.354 N 
ATOM     50  C   UNL A   1      40.235  30.832  32.970  1.00  0.00     0.074 A 
ATOM     51  C   UNL A   1      39.138  31.763  32.798  1.00  0.00     0.031 C 
ATOM     52  C   UNL A   1      40.352  27.658  27.401  1.00  0.00     0.029 A 
ATOM     53  C   UNL A   1      41.291  27.544  28.512  1.00  0.00     0.049 A 
ATOM     54  H   UNL A   1      41.256  28.582  30.318  1.00  0.00     0.167 HD
ATOM     55  C   UNL A   1      41.022  30.755  34.071  1.00  0.00     0.034 A 
ATOM     56  C   UNL A   1      42.352  26.715  28.544  1.00  0.00     0.034 A 
ATOM     57  C   UNL A   1      42.099  29.814  34.242  1.00  0.00     0.049 A 
ATOM     58  C   UNL A   1      43.192  26.639  29.785  1.00  0.00     0.074 A 
ATOM     59  C   UNL A   1      42.898  29.620  35.358  1.00  0.00     0.029 A 
ATOM     60  N   UNL A   1      42.538  28.921  33.279  1.00  0.00    -0.354 N 
ATOM     61  N   UNL A   1      43.034  27.273  30.921  1.00  0.00    -0.248 NA
ATOM     62  C   UNL A   1      44.331  25.711  29.764  1.00  0.00     0.031 C 
ATOM     63  C   UNL A   1      43.827  28.617  35.064  1.00  0.00     0.029 A 
ATOM     64  C   UNL A   1      43.601  28.182  33.769  1.00  0.00     0.049 A 
ATOM     65  H   UNL A   1      42.151  28.826  32.379  1.00  0.00     0.167 HD
ATOM     66  C   UNL A   1      44.041  26.809  31.756  1.00  0.00     0.074 A 
ATOM     67  C   UNL A   1      44.794  25.826  31.003  1.00  0.00     0.031 C 
ATOM     68  C   UNL A   1      44.321  27.178  33.029  1.00  0.00     0.034 A 
BRANCH  55  69
ATOM     69  C   UNL A   1      40.713  31.656  35.236  1.00  0.00     0.023 A 
ATOM     70  C   UNL A   1      41.543  32.772  35.464  1.00  0.00     0.012 A 
ATOM     71  C   UNL A   1      39.535  31.500  35.993  1.00  0.00     0.148 A 
ATOM     72  C   UNL A   1      41.206  33.720  36.428  1.00  0.00     0.002 A 
ATOM     73  C   UNL A   1      39.194  32.462  36.937  1.00  0.00     0.091 A 
ATOM     74  F   UNL A   1      38.765  30.428  35.758  1.00  0.00    -0.205 F 
ATOM     75  C   UNL A   1      40.027  33.572  37.156  1.00  0.00     0.022 A 
BRANCH  73  76
ATOM     76  S   UNL A   1      37.672  32.399  37.891  1.00  0.00     0.127 S 
ATOM     77  O   UNL A   1      36.697  32.895  36.920  1.00  0.00    -0.237 OA
ATOM     78  O   UNL A   1      37.558  30.973  38.194  1.00  0.00    -0.237 OA
ATOM     79  O   UNL A   1      37.883  33.260  39.046  1.00  0.00    -0.744 OA
ENDBRANCH  73  76
ENDBRANCH  55  69
BRANCH  56  80
ATOM     80  C   UNL A   1      42.606  25.824  27.384  1.00  0.00     0.023 A 
ATOM     81  C   UNL A   1      43.381  26.302  26.311  1.00  0.00     0.012 A 
ATOM     82  C   UNL A   1      42.159  24.489  27.378  1.00  0.00     0.148 A 
ATOM     83  C   UNL A   1      43.700  25.465  25.242  1.00  0.00     0.002 A 
ATOM     84  C   UNL A   1      42.513  23.651  26.329  1.00  0.00     0.091 A 
ATOM     85  F   UNL A   1      41.422  24.065  28.414  1.00  0.00    -0.205 F 
ATOM     86  C   UNL A   1      43.275  24.139  25.256  1.00  0.00     0.022 A 
BRANCH  84  87
ATOM     87  S   UNL A   1      42.102  21.903  26.308  1.00  0.00     0.127 S 
ATOM     88  O   UNL A   1      42.485  21.492  27.657  1.00  0.00    -0.237 OA
ATOM     89  O   UNL A   1      40.661  21.937  26.059  1.00  0.00    -0.237 OA
ATOM     90  O   UNL A   1      42.889  21.324  25.229  1.00  0.00    -0.744 OA
ENDBRANCH  84  87
ENDBRANCH  56  80
BRANCH  68  91
ATOM     91  C   UNL A   1      45.497  26.530  33.706  1.00  0.00     0.023 A 
ATOM     92  C   UNL A   1      46.751  27.167  33.661  1.00  0.00     0.012 A 
ATOM     93  C   UNL A   1      45.338  25.360  34.475  1.00  0.00     0.148 A 
ATOM     94  C   UNL A   1      47.836  26.645  34.363  1.00  0.00     0.002 A 
ATOM     95  C   UNL A   1      46.414  24.863  35.199  1.00  0.00     0.091 A 
ATOM     96  F   UNL A   1      44.135  24.769  34.493  1.00  0.00    -0.205 F 
ATOM     97  C   UNL A   1      47.665  25.502  35.141  1.00  0.00     0.022 A 
BRANCH  95  98
ATOM     98  S   UNL A   1      46.280  23.438  36.284  1.00  0.00     0.127 S 
ATOM     99  O   UNL A   1      46.036  22.358  35.329  1.00  0.00    -0.237 OA
ATOM    100  O   UNL A   1      47.599  23.407  36.917  1.00  0.00    -0.237 OA
ATOM    101  O   UNL A   1      45.177  23.722  37.191  1.00  0.00    -0.744 OA
ENDBRANCH  95  98
ENDBRANCH  68  91
ENDBRANCH  42  43
ENDBRANCH  35  37
ENDBRANCH  34  35
ENDBRANCH  33  34
ENDBRANCH  32  33
ENDBRANCH  31  32
ENDBRANCH   1  31
TORSDOF 22
ENDMDL
MODEL 2
REMARK VINA RESULT:     -11.7      5.242     10.828
REMARK SMILES Nc1oc2ccc(F)cc2c(=O)c1[C@@H]1[NH2+][C@H](C(=O)OCCOCCOCCOC(=O)c2ccc(-c3c4nc(c(-c5cccc(S(=O)(=O)[O-])c5F)c5ccc([nH]5)c(-c5cccc(S(=O)(=O)[O-])c5F)c5nc(c(-c6cccc(S(=O)(=O)[O-])c6F)c6ccc3[nH]6)C=C5)C=C4)cc2)CS1
REMARK SMILES IDX 24 1 23 2 22 3 21 4 20 5 19 6 17 7 18 8 16 9 14 10 15 11
REMARK SMILES IDX 95 12 94 15 13 16 2 17 3 18 4 19 11 20 5 21 10 22 12 23 6 24
REMARK SMILES IDX 9 25 7 26 8 27 1 28 25 31 26 32 27 33 28 34 29 35 30 36
REMARK SMILES IDX 31 37 32 38 93 39 33 40 92 41 34 42 35 43 36 44 86 45 37 46
REMARK SMILES IDX 91 47 85 48 87 49 38 50 90 51 84 52 83 53 39 55 71 56 51 57
REMARK SMILES IDX 70 58 52 59 55 60 69 61 88 62 53 63 54 64 68 66 89 67 56 68
REMARK SMILES IDX 40 69 41 70 49 71 42 72 44 73 50 74 43 75 45 76 46 77 47 78
REMARK SMILES IDX 48 79 72 80 73 81 81 82 74 83 76 84 82 85 75 86 77 87 78 88
REMARK SMILES IDX 79 89 80 90 57 91 58 92 66 93 59 94 61 95 67 96 60 97 62 98
REMARK SMILES IDX 63 99 64 100 65 101
REMARK H PARENT 15 13 15 14 1 29 1 30 87 54 55 65
REMARK Flexibility Score: inf
ROOT
ATOM      1  C   UNL A   1      34.667  20.627  25.011  1.00  0.00     0.188 C 
ENDROOT
BRANCH   1   2
ATOM      2  C   UNL A   1      33.562  21.564  25.543  1.00  0.00     0.188 C 
BRANCH   2   3
ATOM      3  O   UNL A   1      33.787  22.207  26.800  1.00  0.00    -0.376 OA
BRANCH   3   4
ATOM      4  C   UNL A   1      32.650  22.472  27.622  1.00  0.00     0.202 C 
BRANCH   4   5
ATOM      5  C   UNL A   1      31.450  23.115  26.927  1.00  0.00     0.261 C 
BRANCH   5   6
ATOM      6  O   UNL A   1      31.401  24.533  27.150  1.00  0.00    -0.459 OA
BRANCH   6   7
ATOM      7  C   UNL A   1      31.145  25.289  26.053  1.00  0.00     0.365 C 
ATOM      8  O   UNL A   1      30.179  26.041  25.965  1.00  0.00    -0.245 OA
BRANCH   7   9
ATOM      9  C   UNL A   1      32.241  25.199  24.974  1.00  0.00     0.304 C 
ATOM     10  C   UNL A   1      32.621  27.331  23.847  1.00  0.00     0.283 C 
ATOM     11  N   UNL A   1      32.002  26.001  23.744  1.00  0.00    -0.319 N 
ATOM     12  S   UNL A   1      33.816  27.319  25.210  1.00  0.00    -0.087 SA
ATOM     13  H   UNL A   1      32.401  25.510  22.944  1.00  0.00     0.348 HD
ATOM     14  H   UNL A   1      30.996  26.122  23.629  1.00  0.00     0.348 HD
ATOM     15  C   UNL A   1      33.606  25.555  25.545  1.00  0.00     0.153 C 
BRANCH  10  16
ATOM     16  C   UNL A   1      31.622  28.462  23.914  1.00  0.00     0.128 A 
ATOM     17  C   UNL A   1      31.531  29.441  24.842  1.00  0.00     0.205 A 
ATOM     18  O   UNL A   1      30.512  30.381  24.875  1.00  0.00    -0.440 OA
ATOM     19  C   UNL A   1      29.733  30.554  23.770  1.00  0.00     0.140 A 
ATOM     20  C   UNL A   1      30.651  28.510  22.778  1.00  0.00     0.205 A 
ATOM     21  C   UNL A   1      28.902  31.675  23.747  1.00  0.00     0.051 A 
ATOM     22  C   UNL A   1      29.773  29.684  22.690  1.00  0.00     0.068 A 
ATOM     23  O   UNL A   1      30.607  27.655  21.901  1.00  0.00    -0.288 OA
ATOM     24  C   UNL A   1      28.143  31.948  22.610  1.00  0.00     0.043 A 
ATOM     25  C   UNL A   1      29.012  29.950  21.546  1.00  0.00     0.055 A 
ATOM     26  C   UNL A   1      28.215  31.089  21.517  1.00  0.00     0.124 A 
ATOM     27  F   UNL A   1      27.511  31.376  20.414  1.00  0.00    -0.207 F 
BRANCH  17  28
ATOM     28  N   UNL A   1      32.419  29.639  25.854  1.00  0.00    -0.369 N 
ATOM     29  H   UNL A   1      32.619  30.553  26.161  1.00  0.00     0.159 HD
ATOM     30  H   UNL A   1      32.859  28.869  26.280  1.00  0.00     0.159 HD
ENDBRANCH  17  28
ENDBRANCH  10  16
ENDBRANCH   7   9
ENDBRANCH   6   7
ENDBRANCH   5   6
ENDBRANCH   4   5
ENDBRANCH   3   4
ENDBRANCH   2   3
ENDBRANCH   1   2
BRANCH   1  31
ATOM     31  O   UNL A   1      35.670  21.322  24.297  1.00  0.00    -0.376 OA
BRANCH  31  32
ATOM     32  C   UNL A   1      36.722  21.917  25.026  1.00  0.00     0.202 C 
BRANCH  32  33
ATOM     33  C   UNL A   1      38.058  21.174  25.183  1.00  0.00     0.261 C 
BRANCH  33  34
ATOM     34  O   UNL A   1      38.696  21.246  26.464  1.00  0.00    -0.460 OA
BRANCH  34  35
ATOM     35  C   UNL A   1      40.049  21.225  26.497  1.00  0.00     0.338 C 
ATOM     36  O   UNL A   1      40.777  20.350  26.059  1.00  0.00    -0.246 OA
BRANCH  35  37
ATOM     37  C   UNL A   1      40.491  22.560  26.967  1.00  0.00     0.060 A 
ATOM     38  C   UNL A   1      41.415  22.673  28.009  1.00  0.00     0.016 A 
ATOM     39  C   UNL A   1      39.912  23.707  26.409  1.00  0.00     0.016 A 
ATOM     40  C   UNL A   1      41.773  23.938  28.482  1.00  0.00     0.010 A 
ATOM     41  C   UNL A   1      40.261  24.973  26.894  1.00  0.00     0.010 A 
ATOM     42  C   UNL A   1      41.207  25.097  27.923  1.00  0.00    -0.014 A 
BRANCH  42  43
ATOM     43  C   UNL A   1      41.769  26.423  28.276  1.00  0.00     0.031 A 
ATOM     44  C   UNL A   1      43.178  26.819  27.952  1.00  0.00     0.074 A 
ATOM     45  C   UNL A   1      40.954  27.290  28.905  1.00  0.00     0.049 A 
ATOM     46  N   UNL A   1      43.743  27.992  28.082  1.00  0.00    -0.248 NA
ATOM     47  C   UNL A   1      44.069  25.777  27.421  1.00  0.00     0.031 C 
ATOM     48  C   UNL A   1      39.580  26.995  29.322  1.00  0.00     0.029 A 
ATOM     49  N   UNL A   1      41.152  28.587  29.302  1.00  0.00    -0.354 N 
ATOM     50  C   UNL A   1      45.052  27.839  27.648  1.00  0.00     0.074 A 
ATOM     51  C   UNL A   1      45.207  26.449  27.270  1.00  0.00     0.031 C 
ATOM     52  C   UNL A   1      39.055  28.083  29.902  1.00  0.00     0.029 A 
ATOM     53  C   UNL A   1      40.051  29.151  29.898  1.00  0.00     0.049 A 
ATOM     54  H   UNL A   1      42.002  29.067  29.172  1.00  0.00     0.167 HD
ATOM     55  C   UNL A   1      46.021  28.782  27.551  1.00  0.00     0.034 A 
ATOM     56  C   UNL A   1      39.849  30.396  30.368  1.00  0.00     0.034 A 
ATOM     57  C   UNL A   1      45.853  30.166  27.913  1.00  0.00     0.049 A 
ATOM     58  C   UNL A   1      40.933  31.423  30.228  1.00  0.00     0.074 A 
ATOM     59  C   UNL A   1      46.761  31.204  27.775  1.00  0.00     0.029 A 
ATOM     60  N   UNL A   1      44.716  30.708  28.490  1.00  0.00    -0.354 N 
ATOM     61  N   UNL A   1      42.110  31.299  29.666  1.00  0.00    -0.248 NA
ATOM     62  C   UNL A   1      40.652  32.766  30.753  1.00  0.00     0.031 C 
ATOM     63  C   UNL A   1      46.177  32.370  28.279  1.00  0.00     0.029 A 
ATOM     64  C   UNL A   1      44.902  32.060  28.724  1.00  0.00     0.049 A 
ATOM     65  H   UNL A   1      43.897  30.205  28.702  1.00  0.00     0.167 HD
ATOM     66  C   UNL A   1      42.704  32.552  29.751  1.00  0.00     0.074 A 
ATOM     67  C   UNL A   1      41.751  33.426  30.404  1.00  0.00     0.031 C 
ATOM     68  C   UNL A   1      43.935  32.933  29.337  1.00  0.00     0.034 A 
BRANCH  55  69
ATOM     69  C   UNL A   1      47.345  28.390  26.953  1.00  0.00     0.023 A 
ATOM     70  C   UNL A   1      48.423  28.123  27.820  1.00  0.00     0.012 A 
ATOM     71  C   UNL A   1      47.480  28.132  25.575  1.00  0.00     0.148 A 
ATOM     72  C   UNL A   1      49.618  27.603  27.325  1.00  0.00     0.002 A 
ATOM     73  C   UNL A   1      48.667  27.592  25.092  1.00  0.00     0.091 A 
ATOM     74  F   UNL A   1      46.441  28.398  24.772  1.00  0.00    -0.205 F 
ATOM     75  C   UNL A   1      49.737  27.328  25.965  1.00  0.00     0.022 A 
BRANCH  73  76
ATOM     76  S   UNL A   1      48.909  27.147  23.368  1.00  0.00     0.127 S 
ATOM     77  O   UNL A   1      50.337  26.831  23.344  1.00  0.00    -0.237 OA
ATOM     78  O   UNL A   1      48.026  25.990  23.223  1.00  0.00    -0.237 OA
ATOM     79  O   UNL A   1      48.524  28.316  22.591  1.00  0.00    -0.744 OA
ENDBRANCH  73  76
ENDBRANCH  55  69
BRANCH  56  80
ATOM     80  C   UNL A   1      38.519  30.750  30.927  1.00  0.00     0.023 A 
ATOM     81  C   UNL A   1      38.256  30.492  32.285  1.00  0.00     0.012 A 
ATOM     82  C   UNL A   1      37.553  31.411  30.145  1.00  0.00     0.148 A 
ATOM     83  C   UNL A   1      37.045  30.880  32.857  1.00  0.00     0.002 A 
ATOM     84  C   UNL A   1      36.365  31.829  30.730  1.00  0.00     0.091 A 
ATOM     85  F   UNL A   1      37.833  31.641  28.855  1.00  0.00    -0.205 F 
ATOM     86  C   UNL A   1      36.105  31.556  32.084  1.00  0.00     0.022 A 
BRANCH  84  87
ATOM     87  S   UNL A   1      35.139  32.798  29.845  1.00  0.00     0.127 S 
ATOM     88  O   UNL A   1      35.938  33.925  29.369  1.00  0.00    -0.237 OA
ATOM     89  O   UNL A   1      34.712  31.861  28.806  1.00  0.00    -0.237 OA
ATOM     90  O   UNL A   1      34.112  33.126  30.823  1.00  0.00    -0.744 OA
ENDBRANCH  84  87
ENDBRANCH  56  80
BRANCH  68  91
ATOM     91  C   UNL A   1      44.346  34.360  29.575  1.00  0.00     0.023 A 
ATOM     92  C   UNL A   1      44.930  34.709  30.808  1.00  0.00     0.012 A 
ATOM     93  C   UNL A   1      44.261  35.321  28.549  1.00  0.00     0.148 A 
ATOM     94  C   UNL A   1      45.414  35.998  31.022  1.00  0.00     0.002 A 
ATOM     95  C   UNL A   1      44.774  36.595  28.757  1.00  0.00     0.091 A 
ATOM     96  F   UNL A   1      43.692  34.965  27.389  1.00  0.00    -0.205 F 
ATOM     97  C   UNL A   1      45.347  36.937  29.994  1.00  0.00     0.022 A 
BRANCH  95  98
ATOM     98  S   UNL A   1      44.799  37.854  27.476  1.00  0.00     0.127 S 
ATOM     99  O   UNL A   1      45.250  39.028  28.220  1.00  0.00    -0.237 OA
ATOM    100  O   UNL A   1      45.778  37.315  26.532  1.00  0.00    -0.237 OA
ATOM    101  O   UNL A   1      43.439  37.934  26.961  1.00  0.00    -0.744 OA
ENDBRANCH  95  98
ENDBRANCH  68  91
ENDBRANCH  42  43
ENDBRANCH  35  37
ENDBRANCH  34  35
ENDBRANCH  33  34
ENDBRANCH  32  33
ENDBRANCH  31  32
ENDBRANCH   1  31
TORSDOF 22
ENDMDL
MODEL 3
REMARK VINA RESULT:     -11.6      1.535      7.532
REMARK SMILES Nc1oc2ccc(F)cc2c(=O)c1[C@@H]1[NH2+][C@H](C(=O)OCCOCCOCCOC(=O)c2ccc(-c3c4nc(c(-c5cccc(S(=O)(=O)[O-])c5F)c5ccc([nH]5)c(-c5cccc(S(=O)(=O)[O-])c5F)c5nc(c(-c6cccc(S(=O)(=O)[O-])c6F)c6ccc3[nH]6)C=C5)C=C4)cc2)CS1
REMARK SMILES IDX 24 1 23 2 22 3 21 4 20 5 19 6 17 7 18 8 16 9 14 10 15 11
REMARK SMILES IDX 95 12 94 15 13 16 2 17 3 18 4 19 11 20 5 21 10 22 12 23 6 24
REMARK SMILES IDX 9 25 7 26 8 27 1 28 25 31 26 32 27 33 28 34 29 35 30 36
REMARK SMILES IDX 31 37 32 38 93 39 33 40 92 41 34 42 35 43 36 44 86 45 37 46
REMARK SMILES IDX 91 47 85 48 87 49 38 50 90 51 84 52 83 53 39 55 71 56 51 57
REMARK SMILES IDX 70 58 52 59 55 60 69 61 88 62 53 63 54 64 68 66 89 67 56 68
REMARK SMILES IDX 40 69 41 70 49 71 42 72 44 73 50 74 43 75 45 76 46 77 47 78
REMARK SMILES IDX 48 79 72 80 73 81 81 82 74 83 76 84 82 85 75 86 77 87 78 88
REMARK SMILES IDX 79 89 80 90 57 91 58 92 66 93 59 94 61 95 67 96 60 97 62 98
REMARK SMILES IDX 63 99 64 100 65 101
REMARK H PARENT 15 13 15 14 1 29 1 30 87 54 55 65
REMARK Flexibility Score: inf
ROOT
ATOM      1  C   UNL A   1      32.019  29.212  26.705  1.00  0.00     0.188 C 
ENDROOT
BRANCH   1   2
ATOM      2  C   UNL A   1      31.899  29.149  25.167  1.00  0.00     0.188 C 
BRANCH   2   3
ATOM      3  O   UNL A   1      30.661  28.693  24.617  1.00  0.00    -0.376 OA
BRANCH   3   4
ATOM      4  C   UNL A   1      30.696  28.065  23.335  1.00  0.00     0.202 C 
BRANCH   4   5
ATOM      5  C   UNL A   1      30.101  26.658  23.257  1.00  0.00     0.261 C 
BRANCH   5   6
ATOM      6  O   UNL A   1      31.122  25.648  23.259  1.00  0.00    -0.459 OA
BRANCH   6   7
ATOM      7  C   UNL A   1      31.294  24.994  24.435  1.00  0.00     0.365 C 
ATOM      8  O   UNL A   1      30.451  24.246  24.919  1.00  0.00    -0.245 OA
BRANCH   7   9
ATOM      9  C   UNL A   1      32.694  25.192  25.050  1.00  0.00     0.304 C 
ATOM     10  C   UNL A   1      34.155  23.271  24.685  1.00  0.00     0.283 C 
ATOM     11  N   UNL A   1      33.309  23.981  25.656  1.00  0.00    -0.319 N 
ATOM     12  S   UNL A   1      34.498  24.374  23.288  1.00  0.00    -0.087 SA
ATOM     13  H   UNL A   1      33.880  24.261  26.453  1.00  0.00     0.348 HD
ATOM     14  H   UNL A   1      32.561  23.354  25.950  1.00  0.00     0.348 HD
ATOM     15  C   UNL A   1      33.660  25.790  24.036  1.00  0.00     0.153 C 
BRANCH  10  16
ATOM     16  C   UNL A   1      33.615  21.919  24.284  1.00  0.00     0.128 A 
ATOM     17  C   UNL A   1      32.609  21.643  23.425  1.00  0.00     0.205 A 
ATOM     18  O   UNL A   1      32.116  20.367  23.197  1.00  0.00    -0.440 OA
ATOM     19  C   UNL A   1      32.853  19.290  23.592  1.00  0.00     0.140 A 
ATOM     20  C   UNL A   1      34.329  20.753  24.891  1.00  0.00     0.205 A 
ATOM     21  C   UNL A   1      32.458  18.040  23.116  1.00  0.00     0.051 A 
ATOM     22  C   UNL A   1      33.971  19.414  24.403  1.00  0.00     0.068 A 
ATOM     23  O   UNL A   1      35.227  20.876  25.715  1.00  0.00    -0.288 OA
ATOM     24  C   UNL A   1      33.220  16.913  23.419  1.00  0.00     0.043 A 
ATOM     25  C   UNL A   1      34.740  18.288  24.715  1.00  0.00     0.055 A 
ATOM     26  C   UNL A   1      34.360  17.050  24.206  1.00  0.00     0.124 A 
ATOM     27  F   UNL A   1      35.108  15.970  24.465  1.00  0.00    -0.207 F 
BRANCH  17  28
ATOM     28  N   UNL A   1      31.953  22.567  22.671  1.00  0.00    -0.369 N 
ATOM     29  H   UNL A   1      31.959  23.515  22.939  1.00  0.00     0.159 HD
ATOM     30  H   UNL A   1      31.474  22.289  21.858  1.00  0.00     0.159 HD
ENDBRANCH  17  28
ENDBRANCH  10  16
ENDBRANCH   7   9
ENDBRANCH   6   7
ENDBRANCH   5   6
ENDBRANCH   4   5
ENDBRANCH   3   4
ENDBRANCH   2   3
ENDBRANCH   1   2
BRANCH   1  31
ATOM     31  O   UNL A   1      31.656  30.475  27.226  1.00  0.00    -0.376 OA
BRANCH  31  32
ATOM     32  C   UNL A   1      31.578  31.570  26.339  1.00  0.00     0.202 C 
BRANCH  32  33
ATOM     33  C   UNL A   1      31.737  33.001  26.876  1.00  0.00     0.261 C 
BRANCH  33  34
ATOM     34  O   UNL A   1      33.064  33.543  26.901  1.00  0.00    -0.460 OA
BRANCH  34  35
ATOM     35  C   UNL A   1      33.476  34.151  28.038  1.00  0.00     0.338 C 
ATOM     36  O   UNL A   1      32.931  35.082  28.607  1.00  0.00    -0.246 OA
BRANCH  35  37
ATOM     37  C   UNL A   1      34.587  33.337  28.585  1.00  0.00     0.060 A 
ATOM     38  C   UNL A   1      35.913  33.748  28.420  1.00  0.00     0.016 A 
ATOM     39  C   UNL A   1      34.299  32.112  29.200  1.00  0.00     0.016 A 
ATOM     40  C   UNL A   1      36.951  32.938  28.886  1.00  0.00     0.010 A 
ATOM     41  C   UNL A   1      35.341  31.295  29.653  1.00  0.00     0.010 A 
ATOM     42  C   UNL A   1      36.674  31.711  29.514  1.00  0.00    -0.014 A 
BRANCH  42  43
ATOM     43  C   UNL A   1      37.768  30.984  30.203  1.00  0.00     0.031 A 
ATOM     44  C   UNL A   1      38.614  29.954  29.517  1.00  0.00     0.074 A 
ATOM     45  C   UNL A   1      37.993  31.289  31.494  1.00  0.00     0.049 A 
ATOM     46  N   UNL A   1      39.685  29.351  29.967  1.00  0.00    -0.248 NA
ATOM     47  C   UNL A   1      38.214  29.540  28.165  1.00  0.00     0.031 C 
ATOM     48  C   UNL A   1      37.197  32.235  32.281  1.00  0.00     0.029 A 
ATOM     49  N   UNL A   1      38.949  30.846  32.371  1.00  0.00    -0.354 N 
ATOM     50  C   UNL A   1      40.095  28.491  28.959  1.00  0.00     0.074 A 
ATOM     51  C   UNL A   1      39.142  28.631  27.876  1.00  0.00     0.031 C 
ATOM     52  C   UNL A   1      37.706  32.311  33.519  1.00  0.00     0.029 A 
ATOM     53  C   UNL A   1      38.861  31.424  33.614  1.00  0.00     0.049 A 
ATOM     54  H   UNL A   1      39.632  30.178  32.133  1.00  0.00     0.167 HD
ATOM     55  C   UNL A   1      41.183  27.683  28.934  1.00  0.00     0.034 A 
ATOM     56  C   UNL A   1      39.637  31.281  34.705  1.00  0.00     0.034 A 
ATOM     57  C   UNL A   1      42.136  27.562  30.008  1.00  0.00     0.049 A 
ATOM     58  C   UNL A   1      40.845  30.394  34.640  1.00  0.00     0.074 A 
ATOM     59  C   UNL A   1      43.307  26.822  30.035  1.00  0.00     0.029 A 
ATOM     60  N   UNL A   1      42.029  28.182  31.242  1.00  0.00    -0.354 N 
ATOM     61  N   UNL A   1      41.307  29.713  33.621  1.00  0.00    -0.248 NA
ATOM     62  C   UNL A   1      41.657  30.283  35.860  1.00  0.00     0.031 C 
ATOM     63  C   UNL A   1      43.902  26.986  31.290  1.00  0.00     0.029 A 
ATOM     64  C   UNL A   1      43.105  27.834  32.041  1.00  0.00     0.049 A 
ATOM     65  H   UNL A   1      41.296  28.781  31.511  1.00  0.00     0.167 HD
ATOM     66  C   UNL A   1      42.473  29.106  34.069  1.00  0.00     0.074 A 
ATOM     67  C   UNL A   1      42.658  29.515  35.446  1.00  0.00     0.031 C 
ATOM     68  C   UNL A   1      43.304  28.275  33.397  1.00  0.00     0.034 A 
BRANCH  55  69
ATOM     69  C   UNL A   1      41.473  26.909  27.677  1.00  0.00     0.023 A 
ATOM     70  C   UNL A   1      42.079  27.582  26.596  1.00  0.00     0.012 A 
ATOM     71  C   UNL A   1      41.304  25.512  27.618  1.00  0.00     0.148 A 
ATOM     72  C   UNL A   1      42.512  26.876  25.475  1.00  0.00     0.002 A 
ATOM     73  C   UNL A   1      41.759  24.812  26.507  1.00  0.00     0.091 A 
ATOM     74  F   UNL A   1      40.722  24.897  28.658  1.00  0.00    -0.205 F 
ATOM     75  C   UNL A   1      42.363  25.491  25.435  1.00  0.00     0.022 A 
BRANCH  73  76
ATOM     76  S   UNL A   1      41.668  23.022  26.374  1.00  0.00     0.127 S 
ATOM     77  O   UNL A   1      40.223  22.805  26.321  1.00  0.00    -0.237 OA
ATOM     78  O   UNL A   1      42.368  22.772  25.115  1.00  0.00    -0.237 OA
ATOM     79  O   UNL A   1      42.327  22.494  27.560  1.00  0.00    -0.744 OA
ENDBRANCH  73  76
ENDBRANCH  55  69
BRANCH  56  80
ATOM     80  C   UNL A   1      39.331  32.082  35.917  1.00  0.00     0.023 A 
ATOM     81  C   UNL A   1      39.908  33.357  36.059  1.00  0.00     0.012 A 
ATOM     82  C   UNL A   1      38.413  31.623  36.881  1.00  0.00     0.148 A 
ATOM     83  C   UNL A   1      39.582  34.164  37.149  1.00  0.00     0.002 A 
ATOM     84  C   UNL A   1      38.063  32.447  37.943  1.00  0.00     0.091 A 
ATOM     85  F   UNL A   1      37.882  30.404  36.718  1.00  0.00    -0.205 F 
ATOM     86  C   UNL A   1      38.654  33.713  38.084  1.00  0.00     0.022 A 
BRANCH  84  87
ATOM     87  S   UNL A   1      36.801  31.998  39.139  1.00  0.00     0.127 S 
ATOM     88  O   UNL A   1      36.820  30.539  39.058  1.00  0.00    -0.237 OA
ATOM     89  O   UNL A   1      37.350  32.555  40.376  1.00  0.00    -0.237 OA
ATOM     90  O   UNL A   1      35.576  32.636  38.680  1.00  0.00    -0.744 OA
ENDBRANCH  84  87
ENDBRANCH  56  80
BRANCH  68  91
ATOM     91  C   UNL A   1      44.499  27.732  34.132  1.00  0.00     0.023 A 
ATOM     92  C   UNL A   1      45.635  28.548  34.294  1.00  0.00     0.012 A 
ATOM     93  C   UNL A   1      44.456  26.469  34.754  1.00  0.00     0.148 A 
ATOM     94  C   UNL A   1      46.716  28.113  35.056  1.00  0.00     0.002 A 
ATOM     95  C   UNL A   1      45.524  26.054  35.540  1.00  0.00     0.091 A 
ATOM     96  F   UNL A   1      43.367  25.708  34.576  1.00  0.00    -0.205 F 
ATOM     97  C   UNL A   1      46.657  26.872  35.689  1.00  0.00     0.022 A 
BRANCH  95  98
ATOM     98  S   UNL A   1      45.516  24.506  36.450  1.00  0.00     0.127 S 
ATOM     99  O   UNL A   1      46.885  24.453  36.962  1.00  0.00    -0.237 OA
ATOM    100  O   UNL A   1      44.494  24.750  37.467  1.00  0.00    -0.237 OA
ATOM    101  O   UNL A   1      45.177  23.469  35.485  1.00  0.00    -0.744 OA
ENDBRANCH  95  98
ENDBRANCH  68  91
ENDBRANCH  42  43
ENDBRANCH  35  37
ENDBRANCH  34  35
ENDBRANCH  33  34
ENDBRANCH  32  33
ENDBRANCH  31  32
ENDBRANCH   1  31
TORSDOF 22
ENDMDL
