MODEL 1
REMARK VINA RESULT:      -9.6      0.000      0.000
REMARK SMILES CC[N@@H+](C)CCNC(=O)N1CCC(CC(=O)OCCOCCOCCOC(=O)c2ccc(-c3c4nc(c(-c5cccc(S(=O)(=O)[O-])c5F)c5ccc([nH]5)c(-c5cccc(S(=O)(=O)[O-])c5F)c5nc(c(-c6cccc(S(=O)(=O)[O-])c6F)c6ccc3[nH]6)C=C5)C=C4)cc2)CC1
REMARK SMILES IDX 21 1 20 2 19 3 18 4 17 5 15 6 16 7 14 8 13 9 7 10 8 11 9 13
REMARK SMILES IDX 10 14 11 15 93 16 12 17 92 18 6 19 5 20 3 21 4 22 2 24 1 25
REMARK SMILES IDX 22 26 23 27 24 28 25 29 26 30 27 31 28 32 29 33 30 34 91 35
REMARK SMILES IDX 31 36 90 37 32 38 33 39 34 40 84 41 35 42 89 43 83 44 85 45
REMARK SMILES IDX 36 46 88 47 82 48 81 49 37 51 69 52 49 53 68 54 50 55 53 56
REMARK SMILES IDX 67 57 86 58 51 59 52 60 66 62 87 63 54 64 38 65 39 66 47 67
REMARK SMILES IDX 40 68 42 69 48 70 41 71 43 72 44 73 45 74 46 75 70 76 71 77
REMARK SMILES IDX 79 78 72 79 74 80 80 81 73 82 75 83 76 84 77 85 78 86 55 87
REMARK SMILES IDX 56 88 64 89 57 90 59 91 65 92 58 93 60 94 61 95 62 96 63 97
REMARK H PARENT 7 12 3 23 85 50 53 61
REMARK Flexibility Score: inf
ROOT
ATOM      1  C   UNL A   1      32.799  28.161  26.006  1.00  0.00     0.188 C 
ENDROOT
BRANCH   1   2
ATOM      2  O   UNL A   1      32.644  26.745  25.949  1.00  0.00    -0.376 OA
BRANCH   2   3
ATOM      3  C   UNL A   1      31.335  26.231  26.194  1.00  0.00     0.202 C 
BRANCH   3   4
ATOM      4  C   UNL A   1      31.246  24.720  26.442  1.00  0.00     0.261 C 
BRANCH   4   5
ATOM      5  O   UNL A   1      32.384  23.995  25.934  1.00  0.00    -0.463 OA
BRANCH   5   6
ATOM      6  C   UNL A   1      32.160  23.264  24.814  1.00  0.00     0.306 C 
ATOM      7  O   UNL A   1      31.506  23.649  23.851  1.00  0.00    -0.252 OA
BRANCH   6   8
ATOM      8  C   UNL A   1      32.876  21.928  24.793  1.00  0.00     0.126 C 
BRANCH   8   9
ATOM      9  C   UNL A   1      34.325  21.828  24.288  1.00  0.00     0.003 C 
ATOM     10  N   UNL A   1      38.849  22.169  26.445  1.00  0.00    -0.332 N 
ATOM     11  C   UNL A   1      37.931  22.876  25.743  1.00  0.00     0.317 C 
ATOM     12  H   UNL A   1      38.979  22.445  27.380  1.00  0.00     0.165 HD
ATOM     13  O   UNL A   1      37.826  24.079  25.986  1.00  0.00    -0.249 OA
ATOM     14  N   UNL A   1      37.172  22.235  24.797  1.00  0.00    -0.325 N 
ATOM     15  C   UNL A   1      36.487  23.035  23.791  1.00  0.00     0.121 C 
ATOM     16  C   UNL A   1      36.628  20.891  24.971  1.00  0.00     0.121 C 
ATOM     17  C   UNL A   1      35.008  23.198  24.138  1.00  0.00     0.026 C 
ATOM     18  C   UNL A   1      35.129  20.953  25.282  1.00  0.00     0.026 C 
BRANCH  10  19
ATOM     19  C   UNL A   1      39.667  21.054  25.996  1.00  0.00     0.179 C 
BRANCH  19  20
ATOM     20  C   UNL A   1      41.090  21.037  26.608  1.00  0.00     0.283 C 
BRANCH  20  21
ATOM     21  N   UNL A   1      42.250  20.684  25.768  1.00  0.00    -0.336 N 
ATOM     22  C   UNL A   1      42.853  19.410  26.154  1.00  0.00     0.332 C 
ATOM     23  H   UNL A   1      41.825  20.588  24.845  1.00  0.00     0.347 HD
BRANCH  21  24
ATOM     24  C   UNL A   1      43.272  21.716  25.582  1.00  0.00     0.258 C 
ATOM     25  C   UNL A   1      44.684  21.188  25.353  1.00  0.00     0.071 C 
ENDBRANCH  21  24
ENDBRANCH  20  21
ENDBRANCH  19  20
ENDBRANCH  10  19
ENDBRANCH   8   9
ENDBRANCH   6   8
ENDBRANCH   5   6
ENDBRANCH   4   5
ENDBRANCH   3   4
ENDBRANCH   2   3
ENDBRANCH   1   2
BRANCH   1  26
ATOM     26  C   UNL A   1      31.835  28.893  26.941  1.00  0.00     0.188 C 
BRANCH  26  27
ATOM     27  O   UNL A   1      32.162  30.256  27.198  1.00  0.00    -0.376 OA
BRANCH  27  28
ATOM     28  C   UNL A   1      31.407  31.229  26.468  1.00  0.00     0.202 C 
BRANCH  28  29
ATOM     29  C   UNL A   1      31.562  32.698  26.917  1.00  0.00     0.261 C 
BRANCH  29  30
ATOM     30  O   UNL A   1      32.926  33.161  27.011  1.00  0.00    -0.460 OA
BRANCH  30  31
ATOM     31  C   UNL A   1      33.249  33.917  28.084  1.00  0.00     0.338 C 
ATOM     32  O   UNL A   1      32.556  34.790  28.586  1.00  0.00    -0.246 OA
BRANCH  31  33
ATOM     33  C   UNL A   1      34.460  33.346  28.729  1.00  0.00     0.060 A 
ATOM     34  C   UNL A   1      34.463  31.972  29.007  1.00  0.00     0.016 A 
ATOM     35  C   UNL A   1      35.601  34.110  29.002  1.00  0.00     0.016 A 
ATOM     36  C   UNL A   1      35.572  31.376  29.609  1.00  0.00     0.010 A 
ATOM     37  C   UNL A   1      36.712  33.511  29.610  1.00  0.00     0.010 A 
ATOM     38  C   UNL A   1      36.688  32.150  29.957  1.00  0.00    -0.014 A 
BRANCH  38  39
ATOM     39  C   UNL A   1      37.729  31.557  30.837  1.00  0.00     0.031 A 
ATOM     40  C   UNL A   1      38.579  30.436  30.296  1.00  0.00     0.074 A 
ATOM     41  C   UNL A   1      37.967  32.031  32.074  1.00  0.00     0.049 A 
ATOM     42  N   UNL A   1      39.627  29.861  30.828  1.00  0.00    -0.248 NA
ATOM     43  C   UNL A   1      38.200  29.897  28.980  1.00  0.00     0.031 C 
ATOM     44  C   UNL A   1      37.215  33.098  32.733  1.00  0.00     0.029 A 
ATOM     45  N   UNL A   1      38.916  31.668  32.998  1.00  0.00    -0.354 N 
ATOM     46  C   UNL A   1      40.022  28.883  29.922  1.00  0.00     0.074 A 
ATOM     47  C   UNL A   1      39.089  28.929  28.817  1.00  0.00     0.031 C 
ATOM     48  C   UNL A   1      37.732  33.299  33.959  1.00  0.00     0.029 A 
ATOM     49  C   UNL A   1      38.846  32.376  34.174  1.00  0.00     0.049 A 
ATOM     50  H   UNL A   1      39.585  30.965  32.833  1.00  0.00     0.167 HD
ATOM     51  C   UNL A   1      41.077  28.037  29.987  1.00  0.00     0.034 A 
ATOM     52  C   UNL A   1      39.597  32.295  35.292  1.00  0.00     0.034 A 
ATOM     53  C   UNL A   1      42.018  27.991  31.072  1.00  0.00     0.049 A 
ATOM     54  C   UNL A   1      40.762  31.336  35.342  1.00  0.00     0.074 A 
ATOM     55  C   UNL A   1      43.154  27.207  31.193  1.00  0.00     0.029 A 
ATOM     56  N   UNL A   1      41.927  28.740  32.234  1.00  0.00    -0.354 N 
ATOM     57  N   UNL A   1      41.218  30.535  34.409  1.00  0.00    -0.248 NA
ATOM     58  C   UNL A   1      41.542  31.305  36.589  1.00  0.00     0.031 C 
ATOM     59  C   UNL A   1      43.731  27.461  32.442  1.00  0.00     0.029 A 
ATOM     60  C   UNL A   1      42.975  28.426  33.085  1.00  0.00     0.049 A 
ATOM     61  H   UNL A   1      41.221  29.399  32.426  1.00  0.00     0.167 HD
ATOM     62  C   UNL A   1      42.360  29.940  34.941  1.00  0.00     0.074 A 
ATOM     63  C   UNL A   1      42.536  30.490  36.268  1.00  0.00     0.031 C 
ATOM     64  C   UNL A   1      43.179  29.014  34.384  1.00  0.00     0.034 A 
BRANCH  51  65
ATOM     65  C   UNL A   1      41.283  27.098  28.828  1.00  0.00     0.023 A 
ATOM     66  C   UNL A   1      40.525  25.912  28.746  1.00  0.00     0.012 A 
ATOM     67  C   UNL A   1      42.190  27.412  27.799  1.00  0.00     0.148 A 
ATOM     68  C   UNL A   1      40.692  25.037  27.675  1.00  0.00     0.002 A 
ATOM     69  C   UNL A   1      42.318  26.557  26.711  1.00  0.00     0.091 A 
ATOM     70  F   UNL A   1      42.921  28.531  27.909  1.00  0.00    -0.205 F 
ATOM     71  C   UNL A   1      41.579  25.364  26.653  1.00  0.00     0.022 A 
BRANCH  69  72
ATOM     72  S   UNL A   1      43.377  26.932  25.311  1.00  0.00     0.127 S 
ATOM     73  O   UNL A   1      43.404  25.649  24.610  1.00  0.00    -0.237 OA
ATOM     74  O   UNL A   1      42.623  27.985  24.627  1.00  0.00    -0.237 OA
ATOM     75  O   UNL A   1      44.647  27.366  25.875  1.00  0.00    -0.744 OA
ENDBRANCH  69  72
ENDBRANCH  51  65
BRANCH  52  76
ATOM     76  C   UNL A   1      39.320  33.195  36.449  1.00  0.00     0.023 A 
ATOM     77  C   UNL A   1      39.724  34.543  36.393  1.00  0.00     0.012 A 
ATOM     78  C   UNL A   1      38.670  32.719  37.603  1.00  0.00     0.148 A 
ATOM     79  C   UNL A   1      39.516  35.394  37.480  1.00  0.00     0.002 A 
ATOM     80  C   UNL A   1      38.418  33.586  38.661  1.00  0.00     0.091 A 
ATOM     81  F   UNL A   1      38.312  31.428  37.645  1.00  0.00    -0.205 F 
ATOM     82  C   UNL A   1      38.855  34.918  38.609  1.00  0.00     0.022 A 
BRANCH  80  83
ATOM     83  S   UNL A   1      37.473  33.093  40.107  1.00  0.00     0.127 S 
ATOM     84  O   UNL A   1      36.129  32.949  39.550  1.00  0.00    -0.237 OA
ATOM     85  O   UNL A   1      38.124  31.836  40.477  1.00  0.00    -0.237 OA
ATOM     86  O   UNL A   1      37.644  34.169  41.074  1.00  0.00    -0.744 OA
ENDBRANCH  80  83
ENDBRANCH  52  76
BRANCH  64  87
ATOM     87  C   UNL A   1      44.373  28.557  35.187  1.00  0.00     0.023 A 
ATOM     88  C   UNL A   1      45.645  29.111  34.940  1.00  0.00     0.012 A 
ATOM     89  C   UNL A   1      44.227  27.612  36.223  1.00  0.00     0.148 A 
ATOM     90  C   UNL A   1      46.757  28.699  35.674  1.00  0.00     0.002 A 
ATOM     91  C   UNL A   1      45.331  27.243  36.985  1.00  0.00     0.091 A 
ATOM     92  F   UNL A   1      43.016  27.077  36.438  1.00  0.00    -0.205 F 
ATOM     93  C   UNL A   1      46.599  27.773  36.702  1.00  0.00     0.022 A 
BRANCH  91  94
ATOM     94  S   UNL A   1      45.190  26.131  38.390  1.00  0.00     0.127 S 
ATOM     95  O   UNL A   1      45.260  24.822  37.744  1.00  0.00    -0.237 OA
ATOM     96  O   UNL A   1      46.368  26.479  39.188  1.00  0.00    -0.237 OA
ATOM     97  O   UNL A   1      43.921  26.456  39.025  1.00  0.00    -0.744 OA
ENDBRANCH  91  94
ENDBRANCH  64  87
ENDBRANCH  38  39
ENDBRANCH  31  33
ENDBRANCH  30  31
ENDBRANCH  29  30
ENDBRANCH  28  29
ENDBRANCH  27  28
ENDBRANCH  26  27
ENDBRANCH   1  26
TORSDOF 25
ENDMDL
MODEL 2
REMARK VINA RESULT:      -9.3      6.033      9.354
REMARK SMILES CC[N@@H+](C)CCNC(=O)N1CCC(CC(=O)OCCOCCOCCOC(=O)c2ccc(-c3c4nc(c(-c5cccc(S(=O)(=O)[O-])c5F)c5ccc([nH]5)c(-c5cccc(S(=O)(=O)[O-])c5F)c5nc(c(-c6cccc(S(=O)(=O)[O-])c6F)c6ccc3[nH]6)C=C5)C=C4)cc2)CC1
REMARK SMILES IDX 21 1 20 2 19 3 18 4 17 5 15 6 16 7 14 8 13 9 7 10 8 11 9 13
REMARK SMILES IDX 10 14 11 15 93 16 12 17 92 18 6 19 5 20 3 21 4 22 2 24 1 25
REMARK SMILES IDX 22 26 23 27 24 28 25 29 26 30 27 31 28 32 29 33 30 34 91 35
REMARK SMILES IDX 31 36 90 37 32 38 33 39 34 40 84 41 35 42 89 43 83 44 85 45
REMARK SMILES IDX 36 46 88 47 82 48 81 49 37 51 69 52 49 53 68 54 50 55 53 56
REMARK SMILES IDX 67 57 86 58 51 59 52 60 66 62 87 63 54 64 38 65 39 66 47 67
REMARK SMILES IDX 40 68 42 69 48 70 41 71 43 72 44 73 45 74 46 75 70 76 71 77
REMARK SMILES IDX 79 78 72 79 74 80 80 81 73 82 75 83 76 84 77 85 78 86 55 87
REMARK SMILES IDX 56 88 64 89 57 90 59 91 65 92 58 93 60 94 61 95 62 96 63 97
REMARK H PARENT 7 12 3 23 85 50 53 61
REMARK Flexibility Score: inf
ROOT
ATOM      1  C   UNL A   1      36.210  23.944  25.747  1.00  0.00     0.188 C 
ENDROOT
BRANCH   1   2
ATOM      2  O   UNL A   1      34.814  24.212  25.646  1.00  0.00    -0.376 OA
BRANCH   2   3
ATOM      3  C   UNL A   1      34.430  25.326  24.839  1.00  0.00     0.202 C 
BRANCH   3   4
ATOM      4  C   UNL A   1      34.063  26.606  25.600  1.00  0.00     0.261 C 
BRANCH   4   5
ATOM      5  O   UNL A   1      32.856  26.477  26.376  1.00  0.00    -0.463 OA
BRANCH   5   6
ATOM      6  C   UNL A   1      31.756  27.070  25.849  1.00  0.00     0.306 C 
ATOM      7  O   UNL A   1      31.770  28.112  25.202  1.00  0.00    -0.252 OA
BRANCH   6   8
ATOM      8  C   UNL A   1      30.475  26.282  26.040  1.00  0.00     0.126 C 
BRANCH   8   9
ATOM      9  C   UNL A   1      30.295  24.912  25.363  1.00  0.00     0.003 C 
ATOM     10  N   UNL A   1      33.333  21.036  24.372  1.00  0.00    -0.332 N 
ATOM     11  C   UNL A   1      32.782  22.145  23.822  1.00  0.00     0.317 C 
ATOM     12  H   UNL A   1      34.307  21.067  24.513  1.00  0.00     0.165 HD
ATOM     13  O   UNL A   1      33.444  22.759  22.985  1.00  0.00    -0.249 OA
ATOM     14  N   UNL A   1      31.522  22.528  24.207  1.00  0.00    -0.325 N 
ATOM     15  C   UNL A   1      30.783  23.454  23.360  1.00  0.00     0.121 C 
ATOM     16  C   UNL A   1      31.039  22.453  25.583  1.00  0.00     0.121 C 
ATOM     17  C   UNL A   1      30.840  24.872  23.926  1.00  0.00     0.026 C 
ATOM     18  C   UNL A   1      31.019  23.845  26.222  1.00  0.00     0.026 C 
BRANCH  10  19
ATOM     19  C   UNL A   1      32.674  19.808  24.784  1.00  0.00     0.179 C 
BRANCH  19  20
ATOM     20  C   UNL A   1      33.302  18.528  24.177  1.00  0.00     0.283 C 
BRANCH  20  21
ATOM     21  N   UNL A   1      34.384  17.827  24.893  1.00  0.00    -0.336 N 
ATOM     22  C   UNL A   1      35.688  18.450  24.684  1.00  0.00     0.332 C 
ATOM     23  H   UNL A   1      34.108  17.944  25.868  1.00  0.00     0.347 HD
BRANCH  21  24
ATOM     24  C   UNL A   1      34.460  16.374  24.719  1.00  0.00     0.258 C 
ATOM     25  C   UNL A   1      33.274  15.597  25.280  1.00  0.00     0.071 C 
ENDBRANCH  21  24
ENDBRANCH  20  21
ENDBRANCH  19  20
ENDBRANCH  10  19
ENDBRANCH   8   9
ENDBRANCH   6   8
ENDBRANCH   5   6
ENDBRANCH   4   5
ENDBRANCH   3   4
ENDBRANCH   2   3
ENDBRANCH   1   2
BRANCH   1  26
ATOM     26  C   UNL A   1      36.765  22.941  24.732  1.00  0.00     0.188 C 
BRANCH  26  27
ATOM     27  O   UNL A   1      37.267  21.731  25.292  1.00  0.00    -0.376 OA
BRANCH  27  28
ATOM     28  C   UNL A   1      38.628  21.765  25.738  1.00  0.00     0.202 C 
BRANCH  28  29
ATOM     29  C   UNL A   1      39.278  20.404  26.068  1.00  0.00     0.261 C 
BRANCH  29  30
ATOM     30  O   UNL A   1      40.550  20.170  25.428  1.00  0.00    -0.460 OA
BRANCH  30  31
ATOM     31  C   UNL A   1      41.634  20.061  26.228  1.00  0.00     0.338 C 
ATOM     32  O   UNL A   1      42.270  19.041  26.445  1.00  0.00    -0.246 OA
BRANCH  31  33
ATOM     33  C   UNL A   1      42.099  21.424  26.597  1.00  0.00     0.060 A 
ATOM     34  C   UNL A   1      42.319  21.691  27.956  1.00  0.00     0.016 A 
ATOM     35  C   UNL A   1      42.381  22.409  25.643  1.00  0.00     0.016 A 
ATOM     36  C   UNL A   1      42.759  22.951  28.365  1.00  0.00     0.010 A 
ATOM     37  C   UNL A   1      42.819  23.675  26.056  1.00  0.00     0.010 A 
ATOM     38  C   UNL A   1      42.969  23.967  27.422  1.00  0.00    -0.014 A 
BRANCH  38  39
ATOM     39  C   UNL A   1      43.165  25.361  27.898  1.00  0.00     0.031 A 
ATOM     40  C   UNL A   1      44.554  25.944  27.872  1.00  0.00     0.074 A 
ATOM     41  C   UNL A   1      42.132  26.128  28.294  1.00  0.00     0.049 A 
ATOM     42  N   UNL A   1      44.942  27.171  28.110  1.00  0.00    -0.248 NA
ATOM     43  C   UNL A   1      45.650  25.023  27.530  1.00  0.00     0.031 C 
ATOM     44  C   UNL A   1      40.739  25.694  28.386  1.00  0.00     0.029 A 
ATOM     45  N   UNL A   1      42.102  27.441  28.696  1.00  0.00    -0.354 N 
ATOM     46  C   UNL A   1      46.324  27.167  27.962  1.00  0.00     0.074 A 
ATOM     47  C   UNL A   1      46.709  25.811  27.635  1.00  0.00     0.031 C 
ATOM     48  C   UNL A   1      39.991  26.724  28.821  1.00  0.00     0.029 A 
ATOM     49  C   UNL A   1      40.849  27.888  29.042  1.00  0.00     0.049 A 
ATOM     50  H   UNL A   1      42.905  28.011  28.732  1.00  0.00     0.167 HD
ATOM     51  C   UNL A   1      47.197  28.197  28.065  1.00  0.00     0.034 A 
ATOM     52  C   UNL A   1      40.440  29.096  29.481  1.00  0.00     0.034 A 
ATOM     53  C   UNL A   1      46.825  29.550  28.376  1.00  0.00     0.049 A 
ATOM     54  C   UNL A   1      41.435  30.226  29.596  1.00  0.00     0.074 A 
ATOM     55  C   UNL A   1      47.635  30.671  28.441  1.00  0.00     0.029 A 
ATOM     56  N   UNL A   1      45.544  29.967  28.697  1.00  0.00    -0.354 N 
ATOM     57  N   UNL A   1      42.710  30.242  29.293  1.00  0.00    -0.248 NA
ATOM     58  C   UNL A   1      40.918  31.518  30.074  1.00  0.00     0.031 C 
ATOM     59  C   UNL A   1      46.848  31.760  28.831  1.00  0.00     0.029 A 
ATOM     60  C   UNL A   1      45.542  31.325  28.977  1.00  0.00     0.049 A 
ATOM     61  H   UNL A   1      44.750  29.385  28.723  1.00  0.00     0.167 HD
ATOM     62  C   UNL A   1      43.136  31.552  29.502  1.00  0.00     0.074 A 
ATOM     63  C   UNL A   1      41.977  32.303  29.935  1.00  0.00     0.031 C 
ATOM     64  C   UNL A   1      44.377  32.081  29.358  1.00  0.00     0.034 A 
BRANCH  51  65
ATOM     65  C   UNL A   1      48.650  27.900  27.813  1.00  0.00     0.023 A 
ATOM     66  C   UNL A   1      49.482  27.515  28.884  1.00  0.00     0.012 A 
ATOM     67  C   UNL A   1      49.182  27.956  26.511  1.00  0.00     0.148 A 
ATOM     68  C   UNL A   1      50.827  27.223  28.669  1.00  0.00     0.002 A 
ATOM     69  C   UNL A   1      50.514  27.621  26.297  1.00  0.00     0.091 A 
ATOM     70  F   UNL A   1      48.383  28.352  25.509  1.00  0.00    -0.205 F 
ATOM     71  C   UNL A   1      51.340  27.265  27.376  1.00  0.00     0.022 A 
BRANCH  69  72
ATOM     72  S   UNL A   1      51.243  27.571  24.657  1.00  0.00     0.127 S 
ATOM     73  O   UNL A   1      52.523  26.917  24.924  1.00  0.00    -0.237 OA
ATOM     74  O   UNL A   1      50.281  26.752  23.917  1.00  0.00    -0.237 OA
ATOM     75  O   UNL A   1      51.326  28.955  24.214  1.00  0.00    -0.744 OA
ENDBRANCH  69  72
ENDBRANCH  51  65
BRANCH  52  76
ATOM     76  C   UNL A   1      39.000  29.335  29.788  1.00  0.00     0.023 A 
ATOM     77  C   UNL A   1      38.519  29.098  31.090  1.00  0.00     0.012 A 
ATOM     78  C   UNL A   1      38.106  29.782  28.796  1.00  0.00     0.148 A 
ATOM     79  C   UNL A   1      37.167  29.270  31.392  1.00  0.00     0.002 A 
ATOM     80  C   UNL A   1      36.772  30.002  29.117  1.00  0.00     0.091 A 
ATOM     81  F   UNL A   1      38.580  29.981  27.558  1.00  0.00    -0.205 F 
ATOM     82  C   UNL A   1      36.296  29.732  30.409  1.00  0.00     0.022 A 
BRANCH  80  83
ATOM     83  S   UNL A   1      35.603  30.704  27.948  1.00  0.00     0.127 S 
ATOM     84  O   UNL A   1      34.328  30.470  28.623  1.00  0.00    -0.237 OA
ATOM     85  O   UNL A   1      36.028  32.103  27.900  1.00  0.00    -0.237 OA
ATOM     86  O   UNL A   1      35.802  29.971  26.705  1.00  0.00    -0.744 OA
ENDBRANCH  80  83
ENDBRANCH  52  76
BRANCH  64  87
ATOM     87  C   UNL A   1      44.549  33.555  29.632  1.00  0.00     0.023 A 
ATOM     88  C   UNL A   1      44.897  33.998  30.924  1.00  0.00     0.012 A 
ATOM     89  C   UNL A   1      44.413  34.503  28.597  1.00  0.00     0.148 A 
ATOM     90  C   UNL A   1      45.061  35.357  31.192  1.00  0.00     0.002 A 
ATOM     91  C   UNL A   1      44.626  35.852  28.859  1.00  0.00     0.091 A 
ATOM     92  F   UNL A   1      44.062  34.073  27.375  1.00  0.00    -0.205 F 
ATOM     93  C   UNL A   1      44.935  36.282  30.159  1.00  0.00     0.022 A 
BRANCH  91  94
ATOM     94  S   UNL A   1      44.580  37.095  27.562  1.00  0.00     0.127 S 
ATOM     95  O   UNL A   1      44.906  38.312  28.302  1.00  0.00    -0.237 OA
ATOM     96  O   UNL A   1      45.629  36.638  26.649  1.00  0.00    -0.237 OA
ATOM     97  O   UNL A   1      43.235  37.035  27.006  1.00  0.00    -0.744 OA
ENDBRANCH  91  94
ENDBRANCH  64  87
ENDBRANCH  38  39
ENDBRANCH  31  33
ENDBRANCH  30  31
ENDBRANCH  29  30
ENDBRANCH  28  29
ENDBRANCH  27  28
ENDBRANCH  26  27
ENDBRANCH   1  26
TORSDOF 25
ENDMDL
MODEL 3
REMARK VINA RESULT:      -9.2      3.178      9.449
REMARK SMILES CC[N@@H+](C)CCNC(=O)N1CCC(CC(=O)OCCOCCOCCOC(=O)c2ccc(-c3c4nc(c(-c5cccc(S(=O)(=O)[O-])c5F)c5ccc([nH]5)c(-c5cccc(S(=O)(=O)[O-])c5F)c5nc(c(-c6cccc(S(=O)(=O)[O-])c6F)c6ccc3[nH]6)C=C5)C=C4)cc2)CC1
REMARK SMILES IDX 21 1 20 2 19 3 18 4 17 5 15 6 16 7 14 8 13 9 7 10 8 11 9 13
REMARK SMILES IDX 10 14 11 15 93 16 12 17 92 18 6 19 5 20 3 21 4 22 2 24 1 25
REMARK SMILES IDX 22 26 23 27 24 28 25 29 26 30 27 31 28 32 29 33 30 34 91 35
REMARK SMILES IDX 31 36 90 37 32 38 33 39 34 40 84 41 35 42 89 43 83 44 85 45
REMARK SMILES IDX 36 46 88 47 82 48 81 49 37 51 69 52 49 53 68 54 50 55 53 56
REMARK SMILES IDX 67 57 86 58 51 59 52 60 66 62 87 63 54 64 38 65 39 66 47 67
REMARK SMILES IDX 40 68 42 69 48 70 41 71 43 72 44 73 45 74 46 75 70 76 71 77
REMARK SMILES IDX 79 78 72 79 74 80 80 81 73 82 75 83 76 84 77 85 78 86 55 87
REMARK SMILES IDX 56 88 64 89 57 90 59 91 65 92 58 93 60 94 61 95 62 96 63 97
REMARK H PARENT 7 12 3 23 85 50 53 61
REMARK Flexibility Score: inf
ROOT
ATOM      1  C   UNL A   1      33.717  27.596  25.305  1.00  0.00     0.188 C 
ENDROOT
BRANCH   1   2
ATOM      2  O   UNL A   1      33.276  26.725  26.343  1.00  0.00    -0.376 OA
BRANCH   2   3
ATOM      3  C   UNL A   1      33.374  25.323  26.090  1.00  0.00     0.202 C 
BRANCH   3   4
ATOM      4  C   UNL A   1      34.682  24.851  25.442  1.00  0.00     0.261 C 
BRANCH   4   5
ATOM      5  O   UNL A   1      34.591  23.524  24.886  1.00  0.00    -0.463 OA
BRANCH   5   6
ATOM      6  C   UNL A   1      34.922  23.415  23.576  1.00  0.00     0.306 C 
ATOM      7  O   UNL A   1      36.011  23.729  23.105  1.00  0.00    -0.252 OA
BRANCH   6   8
ATOM      8  C   UNL A   1      33.853  22.767  22.718  1.00  0.00     0.126 C 
BRANCH   8   9
ATOM      9  C   UNL A   1      32.547  23.516  22.403  1.00  0.00     0.003 C 
ATOM     10  N   UNL A   1      30.419  27.755  24.059  1.00  0.00    -0.332 N 
ATOM     11  C   UNL A   1      30.410  26.409  24.215  1.00  0.00     0.317 C 
ATOM     12  H   UNL A   1      30.772  28.272  24.818  1.00  0.00     0.165 HD
ATOM     13  O   UNL A   1      30.185  25.964  25.342  1.00  0.00    -0.249 OA
ATOM     14  N   UNL A   1      30.640  25.606  23.127  1.00  0.00    -0.325 N 
ATOM     15  C   UNL A   1      30.250  24.205  23.196  1.00  0.00     0.121 C 
ATOM     16  C   UNL A   1      31.631  25.907  22.096  1.00  0.00     0.121 C 
ATOM     17  C   UNL A   1      31.462  23.316  23.474  1.00  0.00     0.026 C 
ATOM     18  C   UNL A   1      32.871  25.025  22.269  1.00  0.00     0.026 C 
BRANCH  10  19
ATOM     19  C   UNL A   1      29.977  28.535  22.915  1.00  0.00     0.179 C 
BRANCH  19  20
ATOM     20  C   UNL A   1      28.440  28.716  22.838  1.00  0.00     0.283 C 
BRANCH  20  21
ATOM     21  N   UNL A   1      27.868  30.042  22.539  1.00  0.00    -0.336 N 
ATOM     22  C   UNL A   1      28.227  30.518  21.205  1.00  0.00     0.332 C 
ATOM     23  H   UNL A   1      26.865  29.855  22.570  1.00  0.00     0.347 HD
BRANCH  21  24
ATOM     24  C   UNL A   1      28.064  31.090  23.543  1.00  0.00     0.258 C 
ATOM     25  C   UNL A   1      28.202  32.501  22.980  1.00  0.00     0.071 C 
ENDBRANCH  21  24
ENDBRANCH  20  21
ENDBRANCH  19  20
ENDBRANCH  10  19
ENDBRANCH   8   9
ENDBRANCH   6   8
ENDBRANCH   5   6
ENDBRANCH   4   5
ENDBRANCH   3   4
ENDBRANCH   2   3
ENDBRANCH   1   2
BRANCH   1  26
ATOM     26  C   UNL A   1      33.506  29.089  25.562  1.00  0.00     0.188 C 
BRANCH  26  27
ATOM     27  O   UNL A   1      32.147  29.489  25.717  1.00  0.00    -0.376 OA
BRANCH  27  28
ATOM     28  C   UNL A   1      31.909  30.546  26.655  1.00  0.00     0.202 C 
BRANCH  28  29
ATOM     29  C   UNL A   1      33.124  31.420  27.029  1.00  0.00     0.261 C 
BRANCH  29  30
ATOM     30  O   UNL A   1      33.826  31.003  28.219  1.00  0.00    -0.460 OA
BRANCH  30  31
ATOM     31  C   UNL A   1      34.687  31.888  28.770  1.00  0.00     0.338 C 
ATOM     32  O   UNL A   1      34.402  32.990  29.214  1.00  0.00    -0.246 OA
BRANCH  31  33
ATOM     33  C   UNL A   1      35.991  31.211  29.002  1.00  0.00     0.060 A 
ATOM     34  C   UNL A   1      36.005  30.102  29.858  1.00  0.00     0.016 A 
ATOM     35  C   UNL A   1      37.168  31.601  28.352  1.00  0.00     0.016 A 
ATOM     36  C   UNL A   1      37.197  29.422  30.113  1.00  0.00     0.010 A 
ATOM     37  C   UNL A   1      38.365  30.919  28.612  1.00  0.00     0.010 A 
ATOM     38  C   UNL A   1      38.395  29.854  29.527  1.00  0.00    -0.014 A 
BRANCH  38  39
ATOM     39  C   UNL A   1      39.681  29.296  30.024  1.00  0.00     0.031 A 
ATOM     40  C   UNL A   1      40.349  29.959  31.200  1.00  0.00     0.074 A 
ATOM     41  C   UNL A   1      40.227  28.188  29.488  1.00  0.00     0.049 A 
ATOM     42  N   UNL A   1      41.396  29.574  31.883  1.00  0.00    -0.248 NA
ATOM     43  C   UNL A   1      39.757  31.222  31.669  1.00  0.00     0.031 C 
ATOM     44  C   UNL A   1      39.702  27.452  28.340  1.00  0.00     0.029 A 
ATOM     45  N   UNL A   1      41.355  27.491  29.848  1.00  0.00    -0.354 N 
ATOM     46  C   UNL A   1      41.597  30.550  32.851  1.00  0.00     0.074 A 
ATOM     47  C   UNL A   1      40.578  31.558  32.653  1.00  0.00     0.031 C 
ATOM     48  C   UNL A   1      40.510  26.407  28.087  1.00  0.00     0.029 A 
ATOM     49  C   UNL A   1      41.611  26.400  29.051  1.00  0.00     0.049 A 
ATOM     50  H   UNL A   1      41.927  27.749  30.606  1.00  0.00     0.167 HD
ATOM     51  C   UNL A   1      42.529  30.600  33.833  1.00  0.00     0.034 A 
ATOM     52  C   UNL A   1      42.613  25.498  29.097  1.00  0.00     0.034 A 
ATOM     53  C   UNL A   1      43.538  29.599  34.048  1.00  0.00     0.049 A 
ATOM     54  C   UNL A   1      43.644  25.582  30.195  1.00  0.00     0.074 A 
ATOM     55  C   UNL A   1      44.485  29.537  35.056  1.00  0.00     0.029 A 
ATOM     56  N   UNL A   1      43.750  28.498  33.235  1.00  0.00    -0.354 N 
ATOM     57  N   UNL A   1      43.721  26.421  31.200  1.00  0.00    -0.248 NA
ATOM     58  C   UNL A   1      44.704  24.560  30.189  1.00  0.00     0.031 C 
ATOM     59  C   UNL A   1      45.289  28.413  34.833  1.00  0.00     0.029 A 
ATOM     60  C   UNL A   1      44.823  27.758  33.707  1.00  0.00     0.049 A 
ATOM     61  H   UNL A   1      43.217  28.274  32.439  1.00  0.00     0.167 HD
ATOM     62  C   UNL A   1      44.808  26.004  31.965  1.00  0.00     0.074 A 
ATOM     63  C   UNL A   1      45.343  24.824  31.319  1.00  0.00     0.031 C 
ATOM     64  C   UNL A   1      45.322  26.555  33.093  1.00  0.00     0.034 A 
BRANCH  51  65
ATOM     65  C   UNL A   1      42.483  31.776  34.770  1.00  0.00     0.023 A 
ATOM     66  C   UNL A   1      43.234  32.933  34.478  1.00  0.00     0.012 A 
ATOM     67  C   UNL A   1      41.663  31.755  35.914  1.00  0.00     0.148 A 
ATOM     68  C   UNL A   1      43.195  34.037  35.327  1.00  0.00     0.002 A 
ATOM     69  C   UNL A   1      41.595  32.876  36.732  1.00  0.00     0.091 A 
ATOM     70  F   UNL A   1      40.979  30.635  36.190  1.00  0.00    -0.205 F 
ATOM     71  C   UNL A   1      42.368  34.013  36.446  1.00  0.00     0.022 A 
BRANCH  69  72
ATOM     72  S   UNL A   1      40.500  32.967  38.152  1.00  0.00     0.127 S 
ATOM     73  O   UNL A   1      40.386  34.412  38.344  1.00  0.00    -0.237 OA
ATOM     74  O   UNL A   1      39.287  32.320  37.648  1.00  0.00    -0.237 OA
ATOM     75  O   UNL A   1      41.172  32.243  39.222  1.00  0.00    -0.744 OA
ENDBRANCH  69  72
ENDBRANCH  51  65
BRANCH  52  76
ATOM     76  C   UNL A   1      42.664  24.384  28.107  1.00  0.00     0.023 A 
ATOM     77  C   UNL A   1      41.744  23.322  28.207  1.00  0.00     0.012 A 
ATOM     78  C   UNL A   1      43.624  24.366  27.077  1.00  0.00     0.148 A 
ATOM     79  C   UNL A   1      41.799  22.246  27.320  1.00  0.00     0.002 A 
ATOM     80  C   UNL A   1      43.639  23.317  26.164  1.00  0.00     0.091 A 
ATOM     81  F   UNL A   1      44.504  25.375  27.012  1.00  0.00    -0.205 F 
ATOM     82  C   UNL A   1      42.740  22.248  26.293  1.00  0.00     0.022 A 
BRANCH  80  83
ATOM     83  S   UNL A   1      44.738  23.292  24.744  1.00  0.00     0.127 S 
ATOM     84  O   UNL A   1      44.077  22.323  23.872  1.00  0.00    -0.237 OA
ATOM     85  O   UNL A   1      44.669  24.680  24.286  1.00  0.00    -0.237 OA
ATOM     86  O   UNL A   1      46.040  22.891  25.261  1.00  0.00    -0.744 OA
ENDBRANCH  80  83
ENDBRANCH  52  76
BRANCH  64  87
ATOM     87  C   UNL A   1      46.504  25.871  33.735  1.00  0.00     0.023 A 
ATOM     88  C   UNL A   1      47.812  26.323  33.468  1.00  0.00     0.012 A 
ATOM     89  C   UNL A   1      46.318  24.807  34.642  1.00  0.00     0.148 A 
ATOM     90  C   UNL A   1      48.915  25.700  34.055  1.00  0.00     0.002 A 
ATOM     91  C   UNL A   1      47.418  24.225  35.262  1.00  0.00     0.091 A 
ATOM     92  F   UNL A   1      45.070  24.373  34.874  1.00  0.00    -0.205 F 
ATOM     93  C   UNL A   1      48.718  24.659  34.957  1.00  0.00     0.022 A 
BRANCH  91  94
ATOM     94  S   UNL A   1      47.242  22.945  36.511  1.00  0.00     0.127 S 
ATOM     95  O   UNL A   1      47.479  21.732  35.733  1.00  0.00    -0.237 OA
ATOM     96  O   UNL A   1      48.308  23.279  37.459  1.00  0.00    -0.237 OA
ATOM     97  O   UNL A   1      45.896  23.099  37.047  1.00  0.00    -0.744 OA
ENDBRANCH  91  94
ENDBRANCH  64  87
ENDBRANCH  38  39
ENDBRANCH  31  33
ENDBRANCH  30  31
ENDBRANCH  29  30
ENDBRANCH  28  29
ENDBRANCH  27  28
ENDBRANCH  26  27
ENDBRANCH   1  26
TORSDOF 25
ENDMDL
