MODEL 1
REMARK VINA RESULT:      -8.8      0.000      0.000
REMARK SMILES CCC[C@@](C)(Nc1cc(C)cc(C)c1)C(=O)OCCOCCOCCOC(=O)c1ccc(-c2c3nc(c(-c4cccc(S(=O)(=O)[O-])c4F)c4ccc([nH]4)c(-c4cccc(S(=O)(=O)[O-])c4F)c4nc(c(-c5cccc(S(=O)(=O)[O-])c5F)c5ccc2[nH]5)C=C4)C=C3)cc1
REMARK SMILES IDX 22 1 21 2 20 3 19 4 18 5 17 6 15 7 16 8 4 9 5 10 3 11 2 12
REMARK SMILES IDX 1 13 6 14 7 16 8 17 14 18 9 19 12 20 10 21 11 22 13 23 23 24
REMARK SMILES IDX 24 25 25 26 26 27 27 28 28 29 29 30 30 31 91 32 31 33 90 34
REMARK SMILES IDX 32 35 33 36 34 37 84 38 35 39 89 40 83 41 85 42 36 43 88 44
REMARK SMILES IDX 82 45 81 46 37 48 69 49 49 50 68 51 50 52 53 53 67 54 86 55
REMARK SMILES IDX 51 56 52 57 66 59 87 60 54 61 38 62 39 63 47 64 40 65 42 66
REMARK SMILES IDX 48 67 41 68 43 69 44 70 45 71 46 72 70 73 71 74 79 75 72 76
REMARK SMILES IDX 74 77 80 78 73 79 75 80 76 81 77 82 78 83 55 84 56 85 64 86
REMARK SMILES IDX 57 87 59 88 65 89 58 90 60 91 61 92 62 93 63 94
REMARK H PARENT 6 15 85 47 53 58
REMARK Flexibility Score: inf
ROOT
ATOM      1  C   UNL A   1      35.396  22.072  25.584  1.00  0.00     0.188 C 
ENDROOT
BRANCH   1   2
ATOM      2  C   UNL A   1      35.678  23.424  24.925  1.00  0.00     0.188 C 
BRANCH   2   3
ATOM      3  O   UNL A   1      34.805  24.500  25.242  1.00  0.00    -0.376 OA
BRANCH   3   4
ATOM      4  C   UNL A   1      34.443  25.355  24.154  1.00  0.00     0.202 C 
BRANCH   4   5
ATOM      5  C   UNL A   1      33.996  24.635  22.882  1.00  0.00     0.261 C 
BRANCH   5   6
ATOM      6  O   UNL A   1      32.560  24.688  22.789  1.00  0.00    -0.462 OA
BRANCH   6   7
ATOM      7  C   UNL A   1      31.979  25.901  22.918  1.00  0.00     0.331 C 
ATOM      8  O   UNL A   1      32.247  26.841  22.169  1.00  0.00    -0.249 OA
BRANCH   7   9
ATOM      9  C   UNL A   1      30.915  26.003  24.041  1.00  0.00     0.133 C 
ATOM     10  C   UNL A   1      29.558  25.736  23.363  1.00  0.00     0.047 C 
BRANCH   9  11
ATOM     11  C   UNL A   1      31.204  24.941  25.158  1.00  0.00     0.040 C 
BRANCH  11  12
ATOM     12  C   UNL A   1      30.233  24.754  26.332  1.00  0.00    -0.000 C 
ATOM     13  C   UNL A   1      30.092  23.318  26.818  1.00  0.00     0.004 C 
ENDBRANCH  11  12
ENDBRANCH   9  11
BRANCH   9  14
ATOM     14  N   UNL A   1      30.736  27.279  24.804  1.00  0.00    -0.370 N 
ATOM     15  H   UNL A   1      29.789  27.457  25.009  1.00  0.00     0.161 HD
BRANCH  14  16
ATOM     16  C   UNL A   1      31.560  28.265  25.290  1.00  0.00     0.035 A 
ATOM     17  C   UNL A   1      32.859  28.065  25.745  1.00  0.00     0.029 A 
ATOM     18  C   UNL A   1      31.030  29.565  25.422  1.00  0.00     0.029 A 
ATOM     19  C   UNL A   1      33.567  29.071  26.426  1.00  0.00    -0.049 A 
ATOM     20  C   UNL A   1      31.741  30.611  26.032  1.00  0.00    -0.049 A 
ATOM     21  C   UNL A   1      34.856  28.760  27.123  1.00  0.00     0.044 C 
ATOM     22  C   UNL A   1      33.009  30.348  26.548  1.00  0.00     0.007 A 
ATOM     23  C   UNL A   1      31.142  31.978  26.193  1.00  0.00     0.044 C 
ENDBRANCH  14  16
ENDBRANCH   9  14
ENDBRANCH   7   9
ENDBRANCH   6   7
ENDBRANCH   5   6
ENDBRANCH   4   5
ENDBRANCH   3   4
ENDBRANCH   2   3
ENDBRANCH   1   2
BRANCH   1  24
ATOM     24  O   UNL A   1      36.502  21.326  26.075  1.00  0.00    -0.376 OA
BRANCH  24  25
ATOM     25  C   UNL A   1      37.458  20.950  25.084  1.00  0.00     0.202 C 
BRANCH  25  26
ATOM     26  C   UNL A   1      38.908  21.042  25.574  1.00  0.00     0.261 C 
BRANCH  26  27
ATOM     27  O   UNL A   1      39.283  22.413  25.774  1.00  0.00    -0.460 OA
BRANCH  27  28
ATOM     28  C   UNL A   1      39.970  22.662  26.914  1.00  0.00     0.338 C 
ATOM     29  O   UNL A   1      40.713  21.900  27.512  1.00  0.00    -0.246 OA
BRANCH  28  30
ATOM     30  C   UNL A   1      39.842  24.089  27.267  1.00  0.00     0.060 A 
ATOM     31  C   UNL A   1      40.330  25.032  26.350  1.00  0.00     0.016 A 
ATOM     32  C   UNL A   1      39.266  24.499  28.472  1.00  0.00     0.016 A 
ATOM     33  C   UNL A   1      40.356  26.381  26.688  1.00  0.00     0.010 A 
ATOM     34  C   UNL A   1      39.290  25.851  28.810  1.00  0.00     0.010 A 
ATOM     35  C   UNL A   1      39.908  26.778  27.952  1.00  0.00    -0.014 A 
BRANCH  35  36
ATOM     36  C   UNL A   1      40.354  28.080  28.495  1.00  0.00     0.031 A 
ATOM     37  C   UNL A   1      41.839  28.302  28.637  1.00  0.00     0.074 A 
ATOM     38  C   UNL A   1      39.477  29.037  28.836  1.00  0.00     0.049 A 
ATOM     39  N   UNL A   1      42.484  29.324  29.128  1.00  0.00    -0.248 NA
ATOM     40  C   UNL A   1      42.715  27.210  28.170  1.00  0.00     0.031 C 
ATOM     41  C   UNL A   1      38.023  28.932  28.727  1.00  0.00     0.029 A 
ATOM     42  N   UNL A   1      39.689  30.281  29.371  1.00  0.00    -0.354 N 
ATOM     43  C   UNL A   1      43.831  28.985  29.068  1.00  0.00     0.074 A 
ATOM     44  C   UNL A   1      43.914  27.656  28.506  1.00  0.00     0.031 C 
ATOM     45  C   UNL A   1      37.469  30.057  29.214  1.00  0.00     0.029 A 
ATOM     46  C   UNL A   1      38.529  30.944  29.690  1.00  0.00     0.049 A 
ATOM     47  H   UNL A   1      40.585  30.662  29.513  1.00  0.00     0.167 HD
ATOM     48  C   UNL A   1      44.906  29.718  29.436  1.00  0.00     0.034 A 
ATOM     49  C   UNL A   1      38.352  32.122  30.318  1.00  0.00     0.034 A 
ATOM     50  C   UNL A   1      44.813  31.046  29.974  1.00  0.00     0.049 A 
ATOM     51  C   UNL A   1      39.566  32.920  30.722  1.00  0.00     0.074 A 
ATOM     52  C   UNL A   1      45.836  31.899  30.346  1.00  0.00     0.029 A 
ATOM     53  N   UNL A   1      43.622  31.710  30.229  1.00  0.00    -0.354 N 
ATOM     54  N   UNL A   1      40.837  32.627  30.576  1.00  0.00    -0.248 NA
ATOM     55  C   UNL A   1      39.322  34.232  31.337  1.00  0.00     0.031 C 
ATOM     56  C   UNL A   1      45.261  33.067  30.859  1.00  0.00     0.029 A 
ATOM     57  C   UNL A   1      43.882  32.961  30.756  1.00  0.00     0.049 A 
ATOM     58  H   UNL A   1      42.725  31.344  30.059  1.00  0.00     0.167 HD
ATOM     59  C   UNL A   1      41.541  33.737  31.031  1.00  0.00     0.074 A 
ATOM     60  C   UNL A   1      40.552  34.712  31.445  1.00  0.00     0.031 C 
ATOM     61  C   UNL A   1      42.882  33.934  31.109  1.00  0.00     0.034 A 
BRANCH  48  62
ATOM     62  C   UNL A   1      46.270  29.102  29.264  1.00  0.00     0.023 A 
ATOM     63  C   UNL A   1      46.845  28.352  30.312  1.00  0.00     0.012 A 
ATOM     64  C   UNL A   1      46.965  29.229  28.046  1.00  0.00     0.148 A 
ATOM     65  C   UNL A   1      48.103  27.768  30.160  1.00  0.00     0.002 A 
ATOM     66  C   UNL A   1      48.193  28.601  27.883  1.00  0.00     0.091 A 
ATOM     67  F   UNL A   1      46.414  29.968  27.072  1.00  0.00    -0.205 F 
ATOM     68  C   UNL A   1      48.770  27.882  28.943  1.00  0.00     0.022 A 
BRANCH  66  69
ATOM     69  S   UNL A   1      49.092  28.618  26.330  1.00  0.00     0.127 S 
ATOM     70  O   UNL A   1      49.701  29.948  26.355  1.00  0.00    -0.237 OA
ATOM     71  O   UNL A   1      50.034  27.514  26.511  1.00  0.00    -0.237 OA
ATOM     72  O   UNL A   1      48.100  28.410  25.285  1.00  0.00    -0.744 OA
ENDBRANCH  66  69
ENDBRANCH  48  62
BRANCH  49  73
ATOM     73  C   UNL A   1      36.978  32.635  30.579  1.00  0.00     0.023 A 
ATOM     74  C   UNL A   1      36.422  32.523  31.869  1.00  0.00     0.012 A 
ATOM     75  C   UNL A   1      36.220  33.233  29.554  1.00  0.00     0.148 A 
ATOM     76  C   UNL A   1      35.121  32.958  32.122  1.00  0.00     0.002 A 
ATOM     77  C   UNL A   1      34.946  33.717  29.828  1.00  0.00     0.091 A 
ATOM     78  F   UNL A   1      36.762  33.320  28.332  1.00  0.00    -0.205 F 
ATOM     79  C   UNL A   1      34.387  33.563  31.106  1.00  0.00     0.022 A 
BRANCH  77  80
ATOM     80  S   UNL A   1      33.978  34.620  28.615  1.00  0.00     0.127 S 
ATOM     81  O   UNL A   1      32.711  34.801  29.317  1.00  0.00    -0.237 OA
ATOM     82  O   UNL A   1      34.770  35.840  28.450  1.00  0.00    -0.237 OA
ATOM     83  O   UNL A   1      33.932  33.769  27.435  1.00  0.00    -0.744 OA
ENDBRANCH  77  80
ENDBRANCH  49  73
BRANCH  61  84
ATOM     84  C   UNL A   1      43.359  35.282  31.585  1.00  0.00     0.023 A 
ATOM     85  C   UNL A   1      43.644  35.499  32.947  1.00  0.00     0.012 A 
ATOM     86  C   UNL A   1      43.568  36.324  30.659  1.00  0.00     0.148 A 
ATOM     87  C   UNL A   1      44.075  36.751  33.387  1.00  0.00     0.002 A 
ATOM     88  C   UNL A   1      44.056  37.547  31.097  1.00  0.00     0.091 A 
ATOM     89  F   UNL A   1      43.277  36.102  29.368  1.00  0.00    -0.205 F 
ATOM     90  C   UNL A   1      44.291  37.770  32.463  1.00  0.00     0.022 A 
BRANCH  88  91
ATOM     91  S   UNL A   1      44.462  38.876  29.959  1.00  0.00     0.127 S 
ATOM     92  O   UNL A   1      43.334  38.829  29.031  1.00  0.00    -0.237 OA
ATOM     93  O   UNL A   1      44.478  40.045  30.841  1.00  0.00    -0.237 OA
ATOM     94  O   UNL A   1      45.758  38.534  29.391  1.00  0.00    -0.744 OA
ENDBRANCH  88  91
ENDBRANCH  61  84
ENDBRANCH  35  36
ENDBRANCH  28  30
ENDBRANCH  27  28
ENDBRANCH  26  27
ENDBRANCH  25  26
ENDBRANCH  24  25
ENDBRANCH   1  24
TORSDOF 24
ENDMDL
MODEL 2
REMARK VINA RESULT:      -8.7      2.273      2.683
REMARK SMILES CCC[C@@](C)(Nc1cc(C)cc(C)c1)C(=O)OCCOCCOCCOC(=O)c1ccc(-c2c3nc(c(-c4cccc(S(=O)(=O)[O-])c4F)c4ccc([nH]4)c(-c4cccc(S(=O)(=O)[O-])c4F)c4nc(c(-c5cccc(S(=O)(=O)[O-])c5F)c5ccc2[nH]5)C=C4)C=C3)cc1
REMARK SMILES IDX 22 1 21 2 20 3 19 4 18 5 17 6 15 7 16 8 4 9 5 10 3 11 2 12
REMARK SMILES IDX 1 13 6 14 7 16 8 17 14 18 9 19 12 20 10 21 11 22 13 23 23 24
REMARK SMILES IDX 24 25 25 26 26 27 27 28 28 29 29 30 30 31 91 32 31 33 90 34
REMARK SMILES IDX 32 35 33 36 34 37 84 38 35 39 89 40 83 41 85 42 36 43 88 44
REMARK SMILES IDX 82 45 81 46 37 48 69 49 49 50 68 51 50 52 53 53 67 54 86 55
REMARK SMILES IDX 51 56 52 57 66 59 87 60 54 61 38 62 39 63 47 64 40 65 42 66
REMARK SMILES IDX 48 67 41 68 43 69 44 70 45 71 46 72 70 73 71 74 79 75 72 76
REMARK SMILES IDX 74 77 80 78 73 79 75 80 76 81 77 82 78 83 55 84 56 85 64 86
REMARK SMILES IDX 57 87 59 88 65 89 58 90 60 91 61 92 62 93 63 94
REMARK H PARENT 6 15 85 47 53 58
REMARK Flexibility Score: inf
ROOT
ATOM      1  C   UNL A   1      34.929  23.086  25.537  1.00  0.00     0.188 C 
ENDROOT
BRANCH   1   2
ATOM      2  C   UNL A   1      34.963  23.841  24.207  1.00  0.00     0.188 C 
BRANCH   2   3
ATOM      3  O   UNL A   1      34.307  25.101  24.153  1.00  0.00    -0.376 OA
BRANCH   3   4
ATOM      4  C   UNL A   1      33.865  25.523  22.860  1.00  0.00     0.202 C 
BRANCH   4   5
ATOM      5  C   UNL A   1      32.381  25.296  22.573  1.00  0.00     0.261 C 
BRANCH   5   6
ATOM      6  O   UNL A   1      31.697  25.029  23.812  1.00  0.00    -0.462 OA
BRANCH   6   7
ATOM      7  C   UNL A   1      31.170  26.088  24.464  1.00  0.00     0.331 C 
ATOM      8  O   UNL A   1      30.823  27.115  23.879  1.00  0.00    -0.249 OA
BRANCH   7   9
ATOM      9  C   UNL A   1      30.987  25.894  25.992  1.00  0.00     0.133 C 
ATOM     10  C   UNL A   1      29.484  25.643  26.209  1.00  0.00     0.047 C 
BRANCH   9  11
ATOM     11  C   UNL A   1      31.839  24.674  26.487  1.00  0.00     0.040 C 
BRANCH  11  12
ATOM     12  C   UNL A   1      31.165  23.340  26.841  1.00  0.00    -0.000 C 
ATOM     13  C   UNL A   1      30.933  22.411  25.657  1.00  0.00     0.004 C 
ENDBRANCH  11  12
ENDBRANCH   9  11
BRANCH   9  14
ATOM     14  N   UNL A   1      31.351  26.989  26.947  1.00  0.00    -0.370 N 
ATOM     15  H   UNL A   1      30.963  26.844  27.840  1.00  0.00     0.161 HD
BRANCH  14  16
ATOM     16  C   UNL A   1      32.089  28.146  26.889  1.00  0.00     0.035 A 
ATOM     17  C   UNL A   1      33.452  28.237  27.149  1.00  0.00     0.029 A 
ATOM     18  C   UNL A   1      31.407  29.354  26.630  1.00  0.00     0.029 A 
ATOM     19  C   UNL A   1      34.099  29.477  27.283  1.00  0.00    -0.049 A 
ATOM     20  C   UNL A   1      32.041  30.605  26.684  1.00  0.00    -0.049 A 
ATOM     21  C   UNL A   1      35.500  29.556  27.809  1.00  0.00     0.044 C 
ATOM     22  C   UNL A   1      33.391  30.657  27.030  1.00  0.00     0.007 A 
ATOM     23  C   UNL A   1      31.287  31.879  26.440  1.00  0.00     0.044 C 
ENDBRANCH  14  16
ENDBRANCH   9  14
ENDBRANCH   7   9
ENDBRANCH   6   7
ENDBRANCH   5   6
ENDBRANCH   4   5
ENDBRANCH   3   4
ENDBRANCH   2   3
ENDBRANCH   1   2
BRANCH   1  24
ATOM     24  O   UNL A   1      36.150  22.561  26.038  1.00  0.00    -0.376 OA
BRANCH  24  25
ATOM     25  C   UNL A   1      36.561  21.329  25.445  1.00  0.00     0.202 C 
BRANCH  25  26
ATOM     26  C   UNL A   1      38.080  21.121  25.467  1.00  0.00     0.261 C 
BRANCH  26  27
ATOM     27  O   UNL A   1      38.756  22.383  25.570  1.00  0.00    -0.460 OA
BRANCH  27  28
ATOM     28  C   UNL A   1      39.602  22.498  26.621  1.00  0.00     0.338 C 
ATOM     29  O   UNL A   1      40.287  21.619  27.122  1.00  0.00    -0.246 OA
BRANCH  28  30
ATOM     30  C   UNL A   1      39.734  23.919  26.997  1.00  0.00     0.060 A 
ATOM     31  C   UNL A   1      40.083  24.828  25.987  1.00  0.00     0.016 A 
ATOM     32  C   UNL A   1      39.528  24.355  28.308  1.00  0.00     0.016 A 
ATOM     33  C   UNL A   1      40.350  26.155  26.309  1.00  0.00     0.010 A 
ATOM     34  C   UNL A   1      39.793  25.684  28.631  1.00  0.00     0.010 A 
ATOM     35  C   UNL A   1      40.281  26.562  27.646  1.00  0.00    -0.014 A 
BRANCH  35  36
ATOM     36  C   UNL A   1      40.997  27.789  28.060  1.00  0.00     0.031 A 
ATOM     37  C   UNL A   1      42.483  27.841  27.815  1.00  0.00     0.074 A 
ATOM     38  C   UNL A   1      40.351  28.824  28.619  1.00  0.00     0.049 A 
ATOM     39  N   UNL A   1      43.345  28.770  28.127  1.00  0.00    -0.248 NA
ATOM     40  C   UNL A   1      43.080  26.677  27.133  1.00  0.00     0.031 C 
ATOM     41  C   UNL A   1      38.916  28.883  28.889  1.00  0.00     0.029 A 
ATOM     42  N   UNL A   1      40.835  30.018  29.087  1.00  0.00    -0.354 N 
ATOM     43  C   UNL A   1      44.585  28.288  27.720  1.00  0.00     0.074 A 
ATOM     44  C   UNL A   1      44.369  26.978  27.151  1.00  0.00     0.031 C 
ATOM     45  C   UNL A   1      38.638  30.044  29.506  1.00  0.00     0.029 A 
ATOM     46  C   UNL A   1      39.877  30.793  29.696  1.00  0.00     0.049 A 
ATOM     47  H   UNL A   1      41.774  30.294  28.994  1.00  0.00     0.167 HD
ATOM     48  C   UNL A   1      45.794  28.887  27.801  1.00  0.00     0.034 A 
ATOM     49  C   UNL A   1      40.004  31.963  30.354  1.00  0.00     0.034 A 
ATOM     50  C   UNL A   1      45.994  30.199  28.350  1.00  0.00     0.049 A 
ATOM     51  C   UNL A   1      41.364  32.609  30.433  1.00  0.00     0.074 A 
ATOM     52  C   UNL A   1      47.169  30.921  28.448  1.00  0.00     0.029 A 
ATOM     53  N   UNL A   1      44.992  30.979  28.905  1.00  0.00    -0.354 N 
ATOM     54  N   UNL A   1      42.513  32.184  29.963  1.00  0.00    -0.248 NA
ATOM     55  C   UNL A   1      41.436  33.919  31.096  1.00  0.00     0.031 C 
ATOM     56  C   UNL A   1      46.882  32.127  29.097  1.00  0.00     0.029 A 
ATOM     57  C   UNL A   1      45.520  32.177  29.353  1.00  0.00     0.049 A 
ATOM     58  H   UNL A   1      44.046  30.720  28.972  1.00  0.00     0.167 HD
ATOM     59  C   UNL A   1      43.432  33.194  30.226  1.00  0.00     0.074 A 
ATOM     60  C   UNL A   1      42.700  34.257  30.884  1.00  0.00     0.031 C 
ATOM     61  C   UNL A   1      44.761  33.240  29.956  1.00  0.00     0.034 A 
BRANCH  48  62
ATOM     62  C   UNL A   1      46.990  28.131  27.280  1.00  0.00     0.023 A 
ATOM     63  C   UNL A   1      47.825  27.426  28.173  1.00  0.00     0.012 A 
ATOM     64  C   UNL A   1      47.260  28.083  25.899  1.00  0.00     0.148 A 
ATOM     65  C   UNL A   1      48.928  26.714  27.701  1.00  0.00     0.002 A 
ATOM     66  C   UNL A   1      48.329  27.330  25.432  1.00  0.00     0.091 A 
ATOM     67  F   UNL A   1      46.471  28.782  25.071  1.00  0.00    -0.205 F 
ATOM     68  C   UNL A   1      49.172  26.656  26.331  1.00  0.00     0.022 A 
BRANCH  66  69
ATOM     69  S   UNL A   1      48.678  27.124  23.683  1.00  0.00     0.127 S 
ATOM     70  O   UNL A   1      47.945  28.247  23.101  1.00  0.00    -0.237 OA
ATOM     71  O   UNL A   1      50.134  27.262  23.644  1.00  0.00    -0.237 OA
ATOM     72  O   UNL A   1      48.180  25.804  23.323  1.00  0.00    -0.744 OA
ENDBRANCH  66  69
ENDBRANCH  48  62
BRANCH  49  73
ATOM     73  C   UNL A   1      38.810  32.614  30.963  1.00  0.00     0.023 A 
ATOM     74  C   UNL A   1      37.876  33.274  30.140  1.00  0.00     0.012 A 
ATOM     75  C   UNL A   1      38.598  32.583  32.354  1.00  0.00     0.148 A 
ATOM     76  C   UNL A   1      36.775  33.926  30.696  1.00  0.00     0.002 A 
ATOM     77  C   UNL A   1      37.468  33.186  32.896  1.00  0.00     0.091 A 
ATOM     78  F   UNL A   1      39.504  31.961  33.121  1.00  0.00    -0.205 F 
ATOM     79  C   UNL A   1      36.567  33.874  32.071  1.00  0.00     0.022 A 
BRANCH  77  80
ATOM     80  S   UNL A   1      37.054  33.062  34.639  1.00  0.00     0.127 S 
ATOM     81  O   UNL A   1      37.445  31.688  34.942  1.00  0.00    -0.237 OA
ATOM     82  O   UNL A   1      37.915  34.092  35.224  1.00  0.00    -0.237 OA
ATOM     83  O   UNL A   1      35.629  33.349  34.727  1.00  0.00    -0.744 OA
ENDBRANCH  77  80
ENDBRANCH  49  73
BRANCH  61  84
ATOM     84  C   UNL A   1      45.495  34.512  30.298  1.00  0.00     0.023 A 
ATOM     85  C   UNL A   1      45.942  34.748  31.612  1.00  0.00     0.012 A 
ATOM     86  C   UNL A   1      45.780  35.455  29.290  1.00  0.00     0.148 A 
ATOM     87  C   UNL A   1      46.612  35.930  31.929  1.00  0.00     0.002 A 
ATOM     88  C   UNL A   1      46.500  36.600  29.602  1.00  0.00     0.091 A 
ATOM     89  F   UNL A   1      45.332  35.220  28.047  1.00  0.00    -0.205 F 
ATOM     90  C   UNL A   1      46.900  36.850  30.923  1.00  0.00     0.022 A 
BRANCH  88  91
ATOM     91  S   UNL A   1      47.004  37.782  28.347  1.00  0.00     0.127 S 
ATOM     92  O   UNL A   1      48.032  37.034  27.627  1.00  0.00    -0.237 OA
ATOM     93  O   UNL A   1      45.762  37.989  27.599  1.00  0.00    -0.237 OA
ATOM     94  O   UNL A   1      47.472  38.957  29.070  1.00  0.00    -0.744 OA
ENDBRANCH  88  91
ENDBRANCH  61  84
ENDBRANCH  35  36
ENDBRANCH  28  30
ENDBRANCH  27  28
ENDBRANCH  26  27
ENDBRANCH  25  26
ENDBRANCH  24  25
ENDBRANCH   1  24
TORSDOF 24
ENDMDL
MODEL 3
REMARK VINA RESULT:      -8.0      4.994      8.404
REMARK SMILES CCC[C@@](C)(Nc1cc(C)cc(C)c1)C(=O)OCCOCCOCCOC(=O)c1ccc(-c2c3nc(c(-c4cccc(S(=O)(=O)[O-])c4F)c4ccc([nH]4)c(-c4cccc(S(=O)(=O)[O-])c4F)c4nc(c(-c5cccc(S(=O)(=O)[O-])c5F)c5ccc2[nH]5)C=C4)C=C3)cc1
REMARK SMILES IDX 22 1 21 2 20 3 19 4 18 5 17 6 15 7 16 8 4 9 5 10 3 11 2 12
REMARK SMILES IDX 1 13 6 14 7 16 8 17 14 18 9 19 12 20 10 21 11 22 13 23 23 24
REMARK SMILES IDX 24 25 25 26 26 27 27 28 28 29 29 30 30 31 91 32 31 33 90 34
REMARK SMILES IDX 32 35 33 36 34 37 84 38 35 39 89 40 83 41 85 42 36 43 88 44
REMARK SMILES IDX 82 45 81 46 37 48 69 49 49 50 68 51 50 52 53 53 67 54 86 55
REMARK SMILES IDX 51 56 52 57 66 59 87 60 54 61 38 62 39 63 47 64 40 65 42 66
REMARK SMILES IDX 48 67 41 68 43 69 44 70 45 71 46 72 70 73 71 74 79 75 72 76
REMARK SMILES IDX 74 77 80 78 73 79 75 80 76 81 77 82 78 83 55 84 56 85 64 86
REMARK SMILES IDX 57 87 59 88 65 89 58 90 60 91 61 92 62 93 63 94
REMARK H PARENT 6 15 85 47 53 58
REMARK Flexibility Score: inf
ROOT
ATOM      1  C   UNL A   1      44.238  25.672  25.019  1.00  0.00     0.188 C 
ENDROOT
BRANCH   1   2
ATOM      2  C   UNL A   1      42.874  26.331  25.234  1.00  0.00     0.188 C 
BRANCH   2   3
ATOM      3  O   UNL A   1      42.654  27.593  24.619  1.00  0.00    -0.376 OA
BRANCH   3   4
ATOM      4  C   UNL A   1      42.102  28.613  25.457  1.00  0.00     0.202 C 
BRANCH   4   5
ATOM      5  C   UNL A   1      42.094  28.291  26.951  1.00  0.00     0.261 C 
BRANCH   5   6
ATOM      6  O   UNL A   1      41.088  29.091  27.601  1.00  0.00    -0.462 OA
BRANCH   6   7
ATOM      7  C   UNL A   1      40.655  28.673  28.810  1.00  0.00     0.331 C 
ATOM      8  O   UNL A   1      41.275  28.906  29.848  1.00  0.00    -0.249 OA
BRANCH   7   9
ATOM      9  C   UNL A   1      39.295  27.927  28.797  1.00  0.00     0.133 C 
ATOM     10  C   UNL A   1      39.078  27.421  30.235  1.00  0.00     0.047 C 
BRANCH   9  11
ATOM     11  C   UNL A   1      38.147  28.905  28.366  1.00  0.00     0.040 C 
BRANCH  11  12
ATOM     12  C   UNL A   1      37.064  29.332  29.366  1.00  0.00    -0.000 C 
ATOM     13  C   UNL A   1      37.260  30.720  29.960  1.00  0.00     0.004 C 
ENDBRANCH  11  12
ENDBRANCH   9  11
BRANCH   9  14
ATOM     14  N   UNL A   1      39.091  26.732  27.918  1.00  0.00    -0.370 N 
ATOM     15  H   UNL A   1      38.413  26.897  27.224  1.00  0.00     0.161 HD
BRANCH  14  16
ATOM     16  C   UNL A   1      39.613  25.464  27.837  1.00  0.00     0.035 A 
ATOM     17  C   UNL A   1      40.845  25.074  28.351  1.00  0.00     0.029 A 
ATOM     18  C   UNL A   1      38.891  24.498  27.106  1.00  0.00     0.029 A 
ATOM     19  C   UNL A   1      41.411  23.825  28.047  1.00  0.00    -0.049 A 
ATOM     20  C   UNL A   1      39.399  23.215  26.847  1.00  0.00    -0.049 A 
ATOM     21  C   UNL A   1      42.837  23.525  28.399  1.00  0.00     0.044 C 
ATOM     22  C   UNL A   1      40.674  22.892  27.311  1.00  0.00     0.007 A 
ATOM     23  C   UNL A   1      38.628  22.215  26.036  1.00  0.00     0.044 C 
ENDBRANCH  14  16
ENDBRANCH   9  14
ENDBRANCH   7   9
ENDBRANCH   6   7
ENDBRANCH   5   6
ENDBRANCH   4   5
ENDBRANCH   3   4
ENDBRANCH   2   3
ENDBRANCH   1   2
BRANCH   1  24
ATOM     24  O   UNL A   1      44.264  24.331  24.551  1.00  0.00    -0.376 OA
BRANCH  24  25
ATOM     25  C   UNL A   1      44.896  23.401  25.430  1.00  0.00     0.202 C 
BRANCH  25  26
ATOM     26  C   UNL A   1      46.357  23.752  25.738  1.00  0.00     0.261 C 
BRANCH  26  27
ATOM     27  O   UNL A   1      46.587  23.741  27.155  1.00  0.00    -0.460 OA
BRANCH  27  28
ATOM     28  C   UNL A   1      47.451  24.681  27.605  1.00  0.00     0.338 C 
ATOM     29  O   UNL A   1      48.671  24.638  27.580  1.00  0.00    -0.246 OA
BRANCH  28  30
ATOM     30  C   UNL A   1      46.706  25.895  27.990  1.00  0.00     0.060 A 
ATOM     31  C   UNL A   1      47.451  27.026  28.357  1.00  0.00     0.016 A 
ATOM     32  C   UNL A   1      45.309  25.928  28.000  1.00  0.00     0.016 A 
ATOM     33  C   UNL A   1      46.804  28.152  28.854  1.00  0.00     0.010 A 
ATOM     34  C   UNL A   1      44.661  27.057  28.497  1.00  0.00     0.010 A 
ATOM     35  C   UNL A   1      45.412  28.135  28.997  1.00  0.00    -0.014 A 
BRANCH  35  36
ATOM     36  C   UNL A   1      44.775  29.090  29.931  1.00  0.00     0.031 A 
ATOM     37  C   UNL A   1      44.394  28.576  31.296  1.00  0.00     0.074 A 
ATOM     38  C   UNL A   1      44.557  30.369  29.587  1.00  0.00     0.049 A 
ATOM     39  N   UNL A   1      43.782  29.188  32.274  1.00  0.00    -0.248 NA
ATOM     40  C   UNL A   1      44.740  27.173  31.593  1.00  0.00     0.031 C 
ATOM     41  C   UNL A   1      44.899  30.971  28.300  1.00  0.00     0.029 A 
ATOM     42  N   UNL A   1      43.966  31.384  30.292  1.00  0.00    -0.354 N 
ATOM     43  C   UNL A   1      43.634  28.239  33.279  1.00  0.00     0.074 A 
ATOM     44  C   UNL A   1      44.206  27.005  32.791  1.00  0.00     0.031 C 
ATOM     45  C   UNL A   1      44.481  32.249  28.295  1.00  0.00     0.029 A 
ATOM     46  C   UNL A   1      43.821  32.542  29.565  1.00  0.00     0.049 A 
ATOM     47  H   UNL A   1      43.674  31.294  31.227  1.00  0.00     0.167 HD
ATOM     48  C   UNL A   1      43.083  28.384  34.505  1.00  0.00     0.034 A 
ATOM     49  C   UNL A   1      43.202  33.693  29.890  1.00  0.00     0.034 A 
ATOM     50  C   UNL A   1      42.536  29.621  34.987  1.00  0.00     0.049 A 
ATOM     51  C   UNL A   1      42.592  33.830  31.262  1.00  0.00     0.074 A 
ATOM     52  C   UNL A   1      41.986  29.895  36.226  1.00  0.00     0.029 A 
ATOM     53  N   UNL A   1      42.460  30.789  34.244  1.00  0.00    -0.354 N 
ATOM     54  N   UNL A   1      42.540  32.953  32.237  1.00  0.00    -0.248 NA
ATOM     55  C   UNL A   1      41.993  35.129  31.594  1.00  0.00     0.031 C 
ATOM     56  C   UNL A   1      41.544  31.222  36.219  1.00  0.00     0.029 A 
ATOM     57  C   UNL A   1      41.868  31.788  34.995  1.00  0.00     0.049 A 
ATOM     58  H   UNL A   1      42.778  30.892  33.319  1.00  0.00     0.167 HD
ATOM     59  C   UNL A   1      41.953  33.610  33.312  1.00  0.00     0.074 A 
ATOM     60  C   UNL A   1      41.680  34.963  32.871  1.00  0.00     0.031 C 
ATOM     61  C   UNL A   1      41.657  33.141  34.551  1.00  0.00     0.034 A 
BRANCH  48  62
ATOM     62  C   UNL A   1      43.049  27.178  35.408  1.00  0.00     0.023 A 
ATOM     63  C   UNL A   1      41.972  26.269  35.336  1.00  0.00     0.012 A 
ATOM     64  C   UNL A   1      44.109  26.921  36.299  1.00  0.00     0.148 A 
ATOM     65  C   UNL A   1      41.935  25.144  36.159  1.00  0.00     0.002 A 
ATOM     66  C   UNL A   1      44.092  25.771  37.078  1.00  0.00     0.091 A 
ATOM     67  F   UNL A   1      45.110  27.810  36.372  1.00  0.00    -0.205 F 
ATOM     68  C   UNL A   1      43.000  24.889  37.020  1.00  0.00     0.022 A 
BRANCH  66  69
ATOM     69  S   UNL A   1      45.451  25.310  38.156  1.00  0.00     0.127 S 
ATOM     70  O   UNL A   1      44.962  24.056  38.728  1.00  0.00    -0.237 OA
ATOM     71  O   UNL A   1      46.554  25.158  37.207  1.00  0.00    -0.237 OA
ATOM     72  O   UNL A   1      45.607  26.405  39.103  1.00  0.00    -0.744 OA
ENDBRANCH  66  69
ENDBRANCH  48  62
BRANCH  49  73
ATOM     73  C   UNL A   1      43.151  34.819  28.915  1.00  0.00     0.023 A 
ATOM     74  C   UNL A   1      41.968  35.067  28.192  1.00  0.00     0.012 A 
ATOM     75  C   UNL A   1      44.273  35.643  28.700  1.00  0.00     0.148 A 
ATOM     76  C   UNL A   1      41.915  36.089  27.244  1.00  0.00     0.002 A 
ATOM     77  C   UNL A   1      44.194  36.696  27.795  1.00  0.00     0.091 A 
ATOM     78  F   UNL A   1      45.393  35.384  29.388  1.00  0.00    -0.205 F 
ATOM     79  C   UNL A   1      43.024  36.908  27.052  1.00  0.00     0.022 A 
BRANCH  77  80
ATOM     80  S   UNL A   1      45.529  37.877  27.576  1.00  0.00     0.127 S 
ATOM     81  O   UNL A   1      45.692  38.399  28.930  1.00  0.00    -0.237 OA
ATOM     82  O   UNL A   1      46.617  37.015  27.111  1.00  0.00    -0.237 OA
ATOM     83  O   UNL A   1      45.052  38.830  26.584  1.00  0.00    -0.744 OA
ENDBRANCH  77  80
ENDBRANCH  49  73
BRANCH  61  84
ATOM     84  C   UNL A   1      41.080  34.117  35.544  1.00  0.00     0.023 A 
ATOM     85  C   UNL A   1      39.686  34.234  35.704  1.00  0.00     0.012 A 
ATOM     86  C   UNL A   1      41.937  34.889  36.355  1.00  0.00     0.148 A 
ATOM     87  C   UNL A   1      39.153  35.146  36.616  1.00  0.00     0.002 A 
ATOM     88  C   UNL A   1      41.400  35.749  37.302  1.00  0.00     0.091 A 
ATOM     89  F   UNL A   1      43.262  34.774  36.178  1.00  0.00    -0.205 F 
ATOM     90  C   UNL A   1      40.009  35.895  37.421  1.00  0.00     0.022 A 
BRANCH  88  91
ATOM     91  S   UNL A   1      42.429  36.669  38.451  1.00  0.00     0.127 S 
ATOM     92  O   UNL A   1      43.276  37.438  37.542  1.00  0.00    -0.237 OA
ATOM     93  O   UNL A   1      41.442  37.462  39.186  1.00  0.00    -0.237 OA
ATOM     94  O   UNL A   1      43.118  35.670  39.257  1.00  0.00    -0.744 OA
ENDBRANCH  88  91
ENDBRANCH  61  84
ENDBRANCH  35  36
ENDBRANCH  28  30
ENDBRANCH  27  28
ENDBRANCH  26  27
ENDBRANCH  25  26
ENDBRANCH  24  25
ENDBRANCH   1  24
TORSDOF 24
ENDMDL
