MODEL 1
REMARK VINA RESULT:     -11.1      0.000      0.000
REMARK SMILES COc1ccc([C@H](NC(=O)[C@H]2CC(C)=C(C)C[C@@H]2C(=O)OCCOCCOCCOC(=O)c2ccc(-c3c4nc(c(-c5cccc(S(=O)(=O)[O-])c5F)c5ccc([nH]5)c(-c5cccc(S(=O)(=O)[O-])c5F)c5nc(c(-c6cccc(S(=O)(=O)[O-])c6F)c6ccc3[nH]6)C=C5)C=C4)cc2)c2ccccc2)cc1
REMARK SMILES IDX 25 1 24 2 23 3 22 4 21 5 19 6 20 7 18 8 11 9 12 10 13 11
REMARK SMILES IDX 17 12 14 13 15 14 16 15 9 16 8 17 10 19 7 20 6 21 3 22 4 23
REMARK SMILES IDX 103 24 5 25 102 26 2 27 1 28 96 29 97 30 101 31 98 32 100 33
REMARK SMILES IDX 99 34 26 35 27 36 28 37 29 38 30 39 31 40 32 41 33 42 34 43
REMARK SMILES IDX 95 44 35 45 94 46 36 47 37 48 38 49 88 50 39 51 93 52 87 53
REMARK SMILES IDX 89 54 40 55 92 56 86 57 85 58 41 60 73 61 53 62 72 63 54 64
REMARK SMILES IDX 57 65 71 66 90 67 55 68 56 69 70 71 91 72 58 73 42 74 43 75
REMARK SMILES IDX 51 76 44 77 46 78 52 79 45 80 47 81 48 82 49 83 50 84 74 85
REMARK SMILES IDX 75 86 83 87 76 88 78 89 84 90 77 91 79 92 80 93 81 94 82 95
REMARK SMILES IDX 59 96 60 97 68 98 61 99 63 100 69 101 62 102 64 103 65 104
REMARK SMILES IDX 66 105 67 106
REMARK H PARENT 8 18 89 59 57 70
REMARK Flexibility Score: inf
ROOT
ATOM      1  C   UNL A   1      35.527  19.551  25.013  1.00  0.00     0.188 C 
ENDROOT
BRANCH   1   2
ATOM      2  O   UNL A   1      34.130  19.761  25.002  1.00  0.00    -0.376 OA
BRANCH   2   3
ATOM      3  C   UNL A   1      33.385  18.828  24.249  1.00  0.00     0.202 C 
BRANCH   3   4
ATOM      4  C   UNL A   1      32.408  19.560  23.348  1.00  0.00     0.261 C 
BRANCH   4   5
ATOM      5  O   UNL A   1      32.298  20.983  23.571  1.00  0.00    -0.463 OA
BRANCH   5   6
ATOM      6  C   UNL A   1      32.099  21.837  22.524  1.00  0.00     0.310 C 
ATOM      7  O   UNL A   1      32.014  21.487  21.352  1.00  0.00    -0.252 OA
BRANCH   6   8
ATOM      8  C   UNL A   1      32.039  23.264  23.057  1.00  0.00     0.116 C 
ATOM      9  C   UNL A   1      32.981  24.264  22.433  1.00  0.00     0.097 C 
ATOM     10  C   UNL A   1      34.057  24.854  23.390  1.00  0.00     0.045 C 
ATOM     11  C   UNL A   1      33.968  24.541  24.863  1.00  0.00    -0.074 C 
ATOM     12  C   UNL A   1      31.798  23.376  24.551  1.00  0.00     0.046 C 
ATOM     13  C   UNL A   1      35.107  25.091  25.691  1.00  0.00     0.039 C 
ATOM     14  C   UNL A   1      32.924  23.878  25.392  1.00  0.00    -0.073 C 
ATOM     15  C   UNL A   1      32.723  23.665  26.869  1.00  0.00     0.039 C 
BRANCH   9  16
ATOM     16  C   UNL A   1      32.311  25.414  21.667  1.00  0.00     0.225 C 
ATOM     17  N   UNL A   1      31.484  26.391  22.062  1.00  0.00    -0.345 N 
ATOM     18  H   UNL A   1      31.385  26.963  21.268  1.00  0.00     0.164 HD
ATOM     19  O   UNL A   1      32.505  25.457  20.436  1.00  0.00    -0.275 OA
BRANCH  17  20
ATOM     20  C   UNL A   1      30.633  27.051  23.104  1.00  0.00     0.143 C 
BRANCH  20  21
ATOM     21  C   UNL A   1      31.518  27.423  24.319  1.00  0.00    -0.021 A 
ATOM     22  C   UNL A   1      33.225  28.081  26.478  1.00  0.00     0.118 A 
ATOM     23  C   UNL A   1      33.553  28.455  25.176  1.00  0.00     0.047 A 
ATOM     24  C   UNL A   1      32.040  27.388  26.708  1.00  0.00     0.047 A 
ATOM     25  C   UNL A   1      32.702  28.152  24.113  1.00  0.00     0.010 A 
ATOM     26  C   UNL A   1      31.207  27.043  25.639  1.00  0.00     0.010 A 
BRANCH  22  27
ATOM     27  O   UNL A   1      34.134  28.451  27.429  1.00  0.00    -0.497 OA
ATOM     28  C   UNL A   1      34.613  29.789  27.356  1.00  0.00     0.278 C 
ENDBRANCH  22  27
ENDBRANCH  20  21
BRANCH  20  29
ATOM     29  C   UNL A   1      29.620  28.150  22.776  1.00  0.00    -0.021 A 
ATOM     30  C   UNL A   1      28.287  28.111  23.225  1.00  0.00     0.006 A 
ATOM     31  C   UNL A   1      29.995  29.246  21.971  1.00  0.00     0.006 A 
ATOM     32  C   UNL A   1      27.398  29.155  22.944  1.00  0.00     0.000 A 
ATOM     33  C   UNL A   1      29.141  30.341  21.795  1.00  0.00     0.000 A 
ATOM     34  C   UNL A   1      27.844  30.299  22.291  1.00  0.00     0.000 A 
ENDBRANCH  20  29
ENDBRANCH  17  20
ENDBRANCH   9  16
ENDBRANCH   6   8
ENDBRANCH   5   6
ENDBRANCH   4   5
ENDBRANCH   3   4
ENDBRANCH   2   3
ENDBRANCH   1   2
BRANCH   1  35
ATOM     35  C   UNL A   1      36.304  20.874  25.058  1.00  0.00     0.188 C 
BRANCH  35  36
ATOM     36  O   UNL A   1      37.720  20.825  24.942  1.00  0.00    -0.376 OA
BRANCH  36  37
ATOM     37  C   UNL A   1      38.470  21.856  25.573  1.00  0.00     0.202 C 
BRANCH  37  38
ATOM     38  C   UNL A   1      39.671  21.432  26.439  1.00  0.00     0.261 C 
BRANCH  38  39
ATOM     39  O   UNL A   1      40.096  20.051  26.315  1.00  0.00    -0.460 OA
BRANCH  39  40
ATOM     40  C   UNL A   1      41.424  19.834  26.097  1.00  0.00     0.338 C 
ATOM     41  O   UNL A   1      41.918  18.815  25.643  1.00  0.00    -0.246 OA
BRANCH  40  42
ATOM     42  C   UNL A   1      42.244  21.061  26.319  1.00  0.00     0.060 A 
ATOM     43  C   UNL A   1      42.491  21.479  27.638  1.00  0.00     0.016 A 
ATOM     44  C   UNL A   1      42.648  21.873  25.260  1.00  0.00     0.016 A 
ATOM     45  C   UNL A   1      43.102  22.715  27.899  1.00  0.00     0.010 A 
ATOM     46  C   UNL A   1      43.238  23.126  25.526  1.00  0.00     0.010 A 
ATOM     47  C   UNL A   1      43.434  23.576  26.848  1.00  0.00    -0.014 A 
BRANCH  47  48
ATOM     48  C   UNL A   1      43.767  25.008  27.125  1.00  0.00     0.031 A 
ATOM     49  C   UNL A   1      45.199  25.459  26.964  1.00  0.00     0.074 A 
ATOM     50  C   UNL A   1      42.842  25.915  27.501  1.00  0.00     0.049 A 
ATOM     51  N   UNL A   1      45.753  26.611  27.247  1.00  0.00    -0.248 NA
ATOM     52  C   UNL A   1      46.132  24.468  26.403  1.00  0.00     0.031 C 
ATOM     53  C   UNL A   1      41.413  25.658  27.652  1.00  0.00     0.029 A 
ATOM     54  N   UNL A   1      42.987  27.238  27.859  1.00  0.00    -0.354 N 
ATOM     55  C   UNL A   1      47.104  26.470  26.945  1.00  0.00     0.074 A 
ATOM     56  C   UNL A   1      47.284  25.119  26.457  1.00  0.00     0.031 C 
ATOM     57  C   UNL A   1      40.818  26.770  28.119  1.00  0.00     0.029 A 
ATOM     58  C   UNL A   1      41.827  27.809  28.335  1.00  0.00     0.049 A 
ATOM     59  H   UNL A   1      43.837  27.728  27.784  1.00  0.00     0.167 HD
ATOM     60  C   UNL A   1      48.108  27.374  27.057  1.00  0.00     0.034 A 
ATOM     61  C   UNL A   1      41.608  29.009  28.916  1.00  0.00     0.034 A 
ATOM     62  C   UNL A   1      47.941  28.724  27.525  1.00  0.00     0.049 A 
ATOM     63  C   UNL A   1      42.748  29.987  29.079  1.00  0.00     0.074 A 
ATOM     64  C   UNL A   1      48.898  29.718  27.644  1.00  0.00     0.029 A 
ATOM     65  N   UNL A   1      46.747  29.269  27.969  1.00  0.00    -0.354 N 
ATOM     66  N   UNL A   1      44.003  29.866  28.721  1.00  0.00    -0.248 NA
ATOM     67  C   UNL A   1      42.432  31.284  29.703  1.00  0.00     0.031 C 
ATOM     68  C   UNL A   1      48.290  30.850  28.196  1.00  0.00     0.029 A 
ATOM     69  C   UNL A   1      46.944  30.578  28.377  1.00  0.00     0.049 A 
ATOM     70  H   UNL A   1      45.885  28.794  27.991  1.00  0.00     0.167 HD
ATOM     71  C   UNL A   1      44.615  31.075  29.041  1.00  0.00     0.074 A 
ATOM     72  C   UNL A   1      43.588  31.926  29.604  1.00  0.00     0.031 C 
ATOM     73  C   UNL A   1      45.913  31.443  28.893  1.00  0.00     0.034 A 
BRANCH  60  74
ATOM     74  C   UNL A   1      49.493  26.921  26.668  1.00  0.00     0.023 A 
ATOM     75  C   UNL A   1      50.263  26.147  27.562  1.00  0.00     0.012 A 
ATOM     76  C   UNL A   1      50.024  27.242  25.402  1.00  0.00     0.148 A 
ATOM     77  C   UNL A   1      51.553  25.743  27.222  1.00  0.00     0.002 A 
ATOM     78  C   UNL A   1      51.290  26.792  25.050  1.00  0.00     0.091 A 
ATOM     79  F   UNL A   1      49.286  27.993  24.572  1.00  0.00    -0.205 F 
ATOM     80  C   UNL A   1      52.063  26.057  25.964  1.00  0.00     0.022 A 
BRANCH  78  81
ATOM     81  S   UNL A   1      52.001  27.073  23.425  1.00  0.00     0.127 S 
ATOM     82  O   UNL A   1      52.378  28.483  23.506  1.00  0.00    -0.237 OA
ATOM     83  O   UNL A   1      53.130  26.141  23.418  1.00  0.00    -0.237 OA
ATOM     84  O   UNL A   1      50.950  26.760  22.467  1.00  0.00    -0.744 OA
ENDBRANCH  78  81
ENDBRANCH  60  74
BRANCH  61  85
ATOM     85  C   UNL A   1      40.242  29.363  29.406  1.00  0.00     0.023 A 
ATOM     86  C   UNL A   1      39.258  29.798  28.498  1.00  0.00     0.012 A 
ATOM     87  C   UNL A   1      39.919  29.277  30.775  1.00  0.00     0.148 A 
ATOM     88  C   UNL A   1      37.988  30.168  28.946  1.00  0.00     0.002 A 
ATOM     89  C   UNL A   1      38.635  29.588  31.207  1.00  0.00     0.091 A 
ATOM     90  F   UNL A   1      40.876  28.886  31.628  1.00  0.00    -0.205 F 
ATOM     91  C   UNL A   1      37.673  30.052  30.297  1.00  0.00     0.022 A 
BRANCH  89  92
ATOM     92  S   UNL A   1      38.101  29.354  32.906  1.00  0.00     0.127 S 
ATOM     93  O   UNL A   1      37.083  30.391  33.046  1.00  0.00    -0.237 OA
ATOM     94  O   UNL A   1      37.585  27.985  32.870  1.00  0.00    -0.237 OA
ATOM     95  O   UNL A   1      39.293  29.529  33.724  1.00  0.00    -0.744 OA
ENDBRANCH  89  92
ENDBRANCH  61  85
BRANCH  73  96
ATOM     96  C   UNL A   1      46.304  32.846  29.292  1.00  0.00     0.023 A 
ATOM     97  C   UNL A   1      46.741  33.117  30.605  1.00  0.00     0.012 A 
ATOM     98  C   UNL A   1      46.299  33.889  28.342  1.00  0.00     0.148 A 
ATOM     99  C   UNL A   1      47.125  34.406  30.975  1.00  0.00     0.002 A 
ATOM    100  C   UNL A   1      46.733  35.160  28.705  1.00  0.00     0.091 A 
ATOM    101  F   UNL A   1      45.867  33.621  27.101  1.00  0.00    -0.205 F 
ATOM    102  C   UNL A   1      47.131  35.424  30.024  1.00  0.00     0.022 A 
BRANCH 100 103
ATOM    103  S   UNL A   1      46.868  36.507  27.523  1.00  0.00     0.127 S 
ATOM    104  O   UNL A   1      45.896  37.464  28.050  1.00  0.00    -0.237 OA
ATOM    105  O   UNL A   1      48.266  36.914  27.675  1.00  0.00    -0.237 OA
ATOM    106  O   UNL A   1      46.542  35.937  26.224  1.00  0.00    -0.744 OA
ENDBRANCH 100 103
ENDBRANCH  73  96
ENDBRANCH  47  48
ENDBRANCH  40  42
ENDBRANCH  39  40
ENDBRANCH  38  39
ENDBRANCH  37  38
ENDBRANCH  36  37
ENDBRANCH  35  36
ENDBRANCH   1  35
TORSDOF 25
ENDMDL
MODEL 2
REMARK VINA RESULT:     -11.1      3.138      4.761
REMARK SMILES COc1ccc([C@H](NC(=O)[C@H]2CC(C)=C(C)C[C@@H]2C(=O)OCCOCCOCCOC(=O)c2ccc(-c3c4nc(c(-c5cccc(S(=O)(=O)[O-])c5F)c5ccc([nH]5)c(-c5cccc(S(=O)(=O)[O-])c5F)c5nc(c(-c6cccc(S(=O)(=O)[O-])c6F)c6ccc3[nH]6)C=C5)C=C4)cc2)c2ccccc2)cc1
REMARK SMILES IDX 25 1 24 2 23 3 22 4 21 5 19 6 20 7 18 8 11 9 12 10 13 11
REMARK SMILES IDX 17 12 14 13 15 14 16 15 9 16 8 17 10 19 7 20 6 21 3 22 4 23
REMARK SMILES IDX 103 24 5 25 102 26 2 27 1 28 96 29 97 30 101 31 98 32 100 33
REMARK SMILES IDX 99 34 26 35 27 36 28 37 29 38 30 39 31 40 32 41 33 42 34 43
REMARK SMILES IDX 95 44 35 45 94 46 36 47 37 48 38 49 88 50 39 51 93 52 87 53
REMARK SMILES IDX 89 54 40 55 92 56 86 57 85 58 41 60 73 61 53 62 72 63 54 64
REMARK SMILES IDX 57 65 71 66 90 67 55 68 56 69 70 71 91 72 58 73 42 74 43 75
REMARK SMILES IDX 51 76 44 77 46 78 52 79 45 80 47 81 48 82 49 83 50 84 74 85
REMARK SMILES IDX 75 86 83 87 76 88 78 89 84 90 77 91 79 92 80 93 81 94 82 95
REMARK SMILES IDX 59 96 60 97 68 98 61 99 63 100 69 101 62 102 64 103 65 104
REMARK SMILES IDX 66 105 67 106
REMARK H PARENT 8 18 89 59 57 70
REMARK Flexibility Score: inf
ROOT
ATOM      1  C   UNL A   1      36.408  20.273  25.003  1.00  0.00     0.188 C 
ENDROOT
BRANCH   1   2
ATOM      2  O   UNL A   1      35.108  20.631  24.582  1.00  0.00    -0.376 OA
BRANCH   2   3
ATOM      3  C   UNL A   1      34.081  19.748  24.980  1.00  0.00     0.202 C 
BRANCH   3   4
ATOM      4  C   UNL A   1      33.232  20.402  26.055  1.00  0.00     0.261 C 
BRANCH   4   5
ATOM      5  O   UNL A   1      33.870  21.468  26.793  1.00  0.00    -0.463 OA
BRANCH   5   6
ATOM      6  C   UNL A   1      33.122  22.428  27.411  1.00  0.00     0.310 C 
ATOM      7  O   UNL A   1      32.687  22.338  28.554  1.00  0.00    -0.252 OA
BRANCH   6   8
ATOM      8  C   UNL A   1      32.901  23.582  26.438  1.00  0.00     0.116 C 
ATOM      9  C   UNL A   1      31.600  23.589  25.674  1.00  0.00     0.097 C 
ATOM     10  C   UNL A   1      31.732  23.431  24.132  1.00  0.00     0.045 C 
ATOM     11  C   UNL A   1      33.108  23.471  23.513  1.00  0.00    -0.074 C 
ATOM     12  C   UNL A   1      34.145  24.036  25.697  1.00  0.00     0.046 C 
ATOM     13  C   UNL A   1      33.133  23.222  22.022  1.00  0.00     0.039 C 
ATOM     14  C   UNL A   1      34.207  23.763  24.231  1.00  0.00    -0.073 C 
ATOM     15  C   UNL A   1      35.576  23.952  23.635  1.00  0.00     0.039 C 
BRANCH   9  16
ATOM     16  C   UNL A   1      30.663  24.768  25.975  1.00  0.00     0.225 C 
ATOM     17  N   UNL A   1      30.722  26.065  25.648  1.00  0.00    -0.345 N 
ATOM     18  H   UNL A   1      29.865  26.435  25.959  1.00  0.00     0.164 HD
ATOM     19  O   UNL A   1      29.675  24.529  26.698  1.00  0.00    -0.275 OA
BRANCH  17  20
ATOM     20  C   UNL A   1      31.437  27.238  25.049  1.00  0.00     0.143 C 
BRANCH  20  21
ATOM     21  C   UNL A   1      30.425  28.084  24.237  1.00  0.00    -0.021 A 
ATOM     22  C   UNL A   1      28.569  29.547  22.680  1.00  0.00     0.118 A 
ATOM     23  C   UNL A   1      28.407  28.176  22.873  1.00  0.00     0.047 A 
ATOM     24  C   UNL A   1      29.650  30.193  23.272  1.00  0.00     0.047 A 
ATOM     25  C   UNL A   1      29.307  27.457  23.659  1.00  0.00     0.010 A 
ATOM     26  C   UNL A   1      30.580  29.467  24.023  1.00  0.00     0.010 A 
BRANCH  22  27
ATOM     27  O   UNL A   1      27.610  30.136  21.904  1.00  0.00    -0.497 OA
ATOM     28  C   UNL A   1      28.056  31.152  21.015  1.00  0.00     0.278 C 
ENDBRANCH  22  27
ENDBRANCH  20  21
BRANCH  20  29
ATOM     29  C   UNL A   1      32.409  28.114  25.841  1.00  0.00    -0.021 A 
ATOM     30  C   UNL A   1      31.982  29.012  26.837  1.00  0.00     0.006 A 
ATOM     31  C   UNL A   1      33.792  28.066  25.569  1.00  0.00     0.006 A 
ATOM     32  C   UNL A   1      32.903  29.767  27.574  1.00  0.00     0.000 A 
ATOM     33  C   UNL A   1      34.714  28.731  26.386  1.00  0.00     0.000 A 
ATOM     34  C   UNL A   1      34.268  29.574  27.397  1.00  0.00     0.000 A 
ENDBRANCH  20  29
ENDBRANCH  17  20
ENDBRANCH   9  16
ENDBRANCH   6   8
ENDBRANCH   5   6
ENDBRANCH   4   5
ENDBRANCH   3   4
ENDBRANCH   2   3
ENDBRANCH   1   2
BRANCH   1  35
ATOM     35  C   UNL A   1      37.210  21.491  25.483  1.00  0.00     0.188 C 
BRANCH  35  36
ATOM     36  O   UNL A   1      38.629  21.424  25.430  1.00  0.00    -0.376 OA
BRANCH  36  37
ATOM     37  C   UNL A   1      39.239  20.161  25.668  1.00  0.00     0.202 C 
BRANCH  37  38
ATOM     38  C   UNL A   1      40.649  20.159  26.290  1.00  0.00     0.261 C 
BRANCH  38  39
ATOM     39  O   UNL A   1      41.021  21.345  27.038  1.00  0.00    -0.460 OA
BRANCH  39  40
ATOM     40  C   UNL A   1      41.685  22.319  26.353  1.00  0.00     0.338 C 
ATOM     41  O   UNL A   1      42.329  22.162  25.329  1.00  0.00    -0.246 OA
BRANCH  40  42
ATOM     42  C   UNL A   1      41.413  23.681  26.897  1.00  0.00     0.060 A 
ATOM     43  C   UNL A   1      41.181  24.735  25.995  1.00  0.00     0.016 A 
ATOM     44  C   UNL A   1      41.522  23.963  28.258  1.00  0.00     0.016 A 
ATOM     45  C   UNL A   1      41.096  26.061  26.444  1.00  0.00     0.010 A 
ATOM     46  C   UNL A   1      41.462  25.298  28.703  1.00  0.00     0.010 A 
ATOM     47  C   UNL A   1      41.288  26.364  27.796  1.00  0.00    -0.014 A 
BRANCH  47  48
ATOM     48  C   UNL A   1      41.532  27.778  28.222  1.00  0.00     0.031 A 
ATOM     49  C   UNL A   1      42.955  28.283  28.258  1.00  0.00     0.074 A 
ATOM     50  C   UNL A   1      40.538  28.621  28.564  1.00  0.00     0.049 A 
ATOM     51  N   UNL A   1      43.430  29.423  28.692  1.00  0.00    -0.248 NA
ATOM     52  C   UNL A   1      43.982  27.370  27.727  1.00  0.00     0.031 C 
ATOM     53  C   UNL A   1      39.112  28.311  28.533  1.00  0.00     0.029 A 
ATOM     54  N   UNL A   1      40.591  29.914  29.040  1.00  0.00    -0.354 N 
ATOM     55  C   UNL A   1      44.810  29.348  28.532  1.00  0.00     0.074 A 
ATOM     56  C   UNL A   1      45.094  28.048  27.961  1.00  0.00     0.031 C 
ATOM     57  C   UNL A   1      38.427  29.362  29.019  1.00  0.00     0.029 A 
ATOM     58  C   UNL A   1      39.366  30.408  29.428  1.00  0.00     0.049 A 
ATOM     59  H   UNL A   1      41.425  30.434  29.099  1.00  0.00     0.167 HD
ATOM     60  C   UNL A   1      45.761  30.269  28.827  1.00  0.00     0.034 A 
ATOM     61  C   UNL A   1      39.038  31.549  30.074  1.00  0.00     0.034 A 
ATOM     62  C   UNL A   1      45.491  31.570  29.379  1.00  0.00     0.049 A 
ATOM     63  C   UNL A   1      40.116  32.543  30.442  1.00  0.00     0.074 A 
ATOM     64  C   UNL A   1      46.391  32.578  29.683  1.00  0.00     0.029 A 
ATOM     65  N   UNL A   1      44.236  32.040  29.730  1.00  0.00    -0.354 N 
ATOM     66  N   UNL A   1      41.406  32.490  30.217  1.00  0.00    -0.248 NA
ATOM     67  C   UNL A   1      39.683  33.773  31.127  1.00  0.00     0.031 C 
ATOM     68  C   UNL A   1      45.682  33.641  30.253  1.00  0.00     0.029 A 
ATOM     69  C   UNL A   1      44.337  33.316  30.260  1.00  0.00     0.049 A 
ATOM     70  H   UNL A   1      43.395  31.540  29.618  1.00  0.00     0.167 HD
ATOM     71  C   UNL A   1      41.932  33.686  30.698  1.00  0.00     0.074 A 
ATOM     72  C   UNL A   1      40.818  34.456  31.210  1.00  0.00     0.031 C 
ATOM     73  C   UNL A   1      43.223  34.103  30.726  1.00  0.00     0.034 A 
BRANCH  60  74
ATOM     74  C   UNL A   1      47.196  29.892  28.560  1.00  0.00     0.023 A 
ATOM     75  C   UNL A   1      47.743  30.056  27.270  1.00  0.00     0.012 A 
ATOM     76  C   UNL A   1      48.014  29.400  29.597  1.00  0.00     0.148 A 
ATOM     77  C   UNL A   1      49.063  29.690  27.006  1.00  0.00     0.002 A 
ATOM     78  C   UNL A   1      49.342  29.086  29.339  1.00  0.00     0.091 A 
ATOM     79  F   UNL A   1      47.473  29.234  30.813  1.00  0.00    -0.205 F 
ATOM     80  C   UNL A   1      49.864  29.214  28.042  1.00  0.00     0.022 A 
BRANCH  78  81
ATOM     81  S   UNL A   1      50.477  28.545  30.623  1.00  0.00     0.127 S 
ATOM     82  O   UNL A   1      51.645  28.150  29.838  1.00  0.00    -0.237 OA
ATOM     83  O   UNL A   1      50.656  29.767  31.409  1.00  0.00    -0.237 OA
ATOM     84  O   UNL A   1      49.801  27.465  31.327  1.00  0.00    -0.744 OA
ENDBRANCH  78  81
ENDBRANCH  60  74
BRANCH  61  85
ATOM     85  C   UNL A   1      37.615  31.819  30.436  1.00  0.00     0.023 A 
ATOM     86  C   UNL A   1      37.093  31.339  31.653  1.00  0.00     0.012 A 
ATOM     87  C   UNL A   1      36.773  32.546  29.571  1.00  0.00     0.148 A 
ATOM     88  C   UNL A   1      35.754  31.553  31.989  1.00  0.00     0.002 A 
ATOM     89  C   UNL A   1      35.458  32.808  29.938  1.00  0.00     0.091 A 
ATOM     90  F   UNL A   1      37.279  32.972  28.405  1.00  0.00    -0.205 F 
ATOM     91  C   UNL A   1      34.940  32.296  31.138  1.00  0.00     0.022 A 
BRANCH  89  92
ATOM     92  S   UNL A   1      34.372  33.856  28.966  1.00  0.00     0.127 S 
ATOM     93  O   UNL A   1      33.824  32.908  28.000  1.00  0.00    -0.237 OA
ATOM     94  O   UNL A   1      33.423  34.321  29.978  1.00  0.00    -0.237 OA
ATOM     95  O   UNL A   1      35.221  34.900  28.409  1.00  0.00    -0.744 OA
ENDBRANCH  89  92
ENDBRANCH  61  85
BRANCH  73  96
ATOM     96  C   UNL A   1      43.513  35.479  31.276  1.00  0.00     0.023 A 
ATOM     97  C   UNL A   1      43.694  35.667  32.662  1.00  0.00     0.012 A 
ATOM     98  C   UNL A   1      43.671  36.580  30.409  1.00  0.00     0.148 A 
ATOM     99  C   UNL A   1      43.985  36.931  33.176  1.00  0.00     0.002 A 
ATOM    100  C   UNL A   1      44.013  37.826  30.923  1.00  0.00     0.091 A 
ATOM    101  F   UNL A   1      43.481  36.390  29.094  1.00  0.00    -0.205 F 
ATOM    102  C   UNL A   1      44.155  38.007  32.307  1.00  0.00     0.022 A 
BRANCH 100 103
ATOM    103  S   UNL A   1      44.347  39.246  29.873  1.00  0.00     0.127 S 
ATOM    104  O   UNL A   1      44.824  40.229  30.845  1.00  0.00    -0.237 OA
ATOM    105  O   UNL A   1      45.378  38.730  28.973  1.00  0.00    -0.237 OA
ATOM    106  O   UNL A   1      43.084  39.571  29.223  1.00  0.00    -0.744 OA
ENDBRANCH 100 103
ENDBRANCH  73  96
ENDBRANCH  47  48
ENDBRANCH  40  42
ENDBRANCH  39  40
ENDBRANCH  38  39
ENDBRANCH  37  38
ENDBRANCH  36  37
ENDBRANCH  35  36
ENDBRANCH   1  35
TORSDOF 25
ENDMDL
MODEL 3
REMARK VINA RESULT:     -10.7      1.729      3.149
REMARK SMILES COc1ccc([C@H](NC(=O)[C@H]2CC(C)=C(C)C[C@@H]2C(=O)OCCOCCOCCOC(=O)c2ccc(-c3c4nc(c(-c5cccc(S(=O)(=O)[O-])c5F)c5ccc([nH]5)c(-c5cccc(S(=O)(=O)[O-])c5F)c5nc(c(-c6cccc(S(=O)(=O)[O-])c6F)c6ccc3[nH]6)C=C5)C=C4)cc2)c2ccccc2)cc1
REMARK SMILES IDX 25 1 24 2 23 3 22 4 21 5 19 6 20 7 18 8 11 9 12 10 13 11
REMARK SMILES IDX 17 12 14 13 15 14 16 15 9 16 8 17 10 19 7 20 6 21 3 22 4 23
REMARK SMILES IDX 103 24 5 25 102 26 2 27 1 28 96 29 97 30 101 31 98 32 100 33
REMARK SMILES IDX 99 34 26 35 27 36 28 37 29 38 30 39 31 40 32 41 33 42 34 43
REMARK SMILES IDX 95 44 35 45 94 46 36 47 37 48 38 49 88 50 39 51 93 52 87 53
REMARK SMILES IDX 89 54 40 55 92 56 86 57 85 58 41 60 73 61 53 62 72 63 54 64
REMARK SMILES IDX 57 65 71 66 90 67 55 68 56 69 70 71 91 72 58 73 42 74 43 75
REMARK SMILES IDX 51 76 44 77 46 78 52 79 45 80 47 81 48 82 49 83 50 84 74 85
REMARK SMILES IDX 75 86 83 87 76 88 78 89 84 90 77 91 79 92 80 93 81 94 82 95
REMARK SMILES IDX 59 96 60 97 68 98 61 99 63 100 69 101 62 102 64 103 65 104
REMARK SMILES IDX 66 105 67 106
REMARK H PARENT 8 18 89 59 57 70
REMARK Flexibility Score: inf
ROOT
ATOM      1  C   UNL A   1      35.942  19.315  24.834  1.00  0.00     0.188 C 
ENDROOT
BRANCH   1   2
ATOM      2  O   UNL A   1      35.034  20.385  24.674  1.00  0.00    -0.376 OA
BRANCH   2   3
ATOM      3  C   UNL A   1      33.669  20.029  24.717  1.00  0.00     0.202 C 
BRANCH   3   4
ATOM      4  C   UNL A   1      33.100  20.346  26.088  1.00  0.00     0.261 C 
BRANCH   4   5
ATOM      5  O   UNL A   1      33.799  21.367  26.834  1.00  0.00    -0.463 OA
BRANCH   5   6
ATOM      6  C   UNL A   1      33.107  22.364  27.461  1.00  0.00     0.310 C 
ATOM      7  O   UNL A   1      32.664  22.287  28.601  1.00  0.00    -0.252 OA
BRANCH   6   8
ATOM      8  C   UNL A   1      32.960  23.540  26.502  1.00  0.00     0.116 C 
ATOM      9  C   UNL A   1      31.674  23.622  25.717  1.00  0.00     0.097 C 
ATOM     10  C   UNL A   1      31.823  23.479  24.175  1.00  0.00     0.045 C 
ATOM     11  C   UNL A   1      33.209  23.458  23.579  1.00  0.00    -0.074 C 
ATOM     12  C   UNL A   1      34.237  23.941  25.786  1.00  0.00     0.046 C 
ATOM     13  C   UNL A   1      33.245  23.229  22.085  1.00  0.00     0.039 C 
ATOM     14  C   UNL A   1      34.309  23.685  24.318  1.00  0.00    -0.073 C 
ATOM     15  C   UNL A   1      35.695  23.813  23.745  1.00  0.00     0.039 C 
BRANCH   9  16
ATOM     16  C   UNL A   1      30.792  24.843  26.021  1.00  0.00     0.225 C 
ATOM     17  N   UNL A   1      30.912  26.136  25.698  1.00  0.00    -0.345 N 
ATOM     18  H   UNL A   1      30.072  26.545  26.009  1.00  0.00     0.164 HD
ATOM     19  O   UNL A   1      29.793  24.648  26.742  1.00  0.00    -0.275 OA
BRANCH  17  20
ATOM     20  C   UNL A   1      31.681  27.277  25.102  1.00  0.00     0.143 C 
BRANCH  20  21
ATOM     21  C   UNL A   1      30.779  28.016  24.082  1.00  0.00    -0.021 A 
ATOM     22  C   UNL A   1      29.081  29.269  22.196  1.00  0.00     0.118 A 
ATOM     23  C   UNL A   1      28.589  28.282  23.048  1.00  0.00     0.047 A 
ATOM     24  C   UNL A   1      30.419  29.641  22.290  1.00  0.00     0.047 A 
ATOM     25  C   UNL A   1      29.417  27.679  23.994  1.00  0.00     0.010 A 
ATOM     26  C   UNL A   1      31.265  29.006  23.207  1.00  0.00     0.010 A 
BRANCH  22  27
ATOM     27  O   UNL A   1      28.164  29.790  21.327  1.00  0.00    -0.497 OA
ATOM     28  C   UNL A   1      28.354  31.149  20.951  1.00  0.00     0.278 C 
ENDBRANCH  22  27
ENDBRANCH  20  21
BRANCH  20  29
ATOM     29  C   UNL A   1      32.510  28.250  25.942  1.00  0.00    -0.021 A 
ATOM     30  C   UNL A   1      33.846  27.993  26.302  1.00  0.00     0.006 A 
ATOM     31  C   UNL A   1      31.936  29.448  26.416  1.00  0.00     0.006 A 
ATOM     32  C   UNL A   1      34.590  28.925  27.035  1.00  0.00     0.000 A 
ATOM     33  C   UNL A   1      32.717  30.427  27.043  1.00  0.00     0.000 A 
ATOM     34  C   UNL A   1      34.048  30.168  27.343  1.00  0.00     0.000 A 
ENDBRANCH  20  29
ENDBRANCH  17  20
ENDBRANCH   9  16
ENDBRANCH   6   8
ENDBRANCH   5   6
ENDBRANCH   4   5
ENDBRANCH   3   4
ENDBRANCH   2   3
ENDBRANCH   1   2
BRANCH   1  35
ATOM     35  C   UNL A   1      37.393  19.806  24.940  1.00  0.00     0.188 C 
BRANCH  35  36
ATOM     36  O   UNL A   1      37.618  21.163  25.297  1.00  0.00    -0.376 OA
BRANCH  36  37
ATOM     37  C   UNL A   1      38.940  21.537  25.668  1.00  0.00     0.202 C 
BRANCH  37  38
ATOM     38  C   UNL A   1      39.804  20.478  26.378  1.00  0.00     0.261 C 
BRANCH  38  39
ATOM     39  O   UNL A   1      40.671  19.683  25.530  1.00  0.00    -0.460 OA
BRANCH  39  40
ATOM     40  C   UNL A   1      41.938  19.461  25.982  1.00  0.00     0.338 C 
ATOM     41  O   UNL A   1      42.467  18.371  26.123  1.00  0.00    -0.246 OA
BRANCH  40  42
ATOM     42  C   UNL A   1      42.712  20.725  26.143  1.00  0.00     0.060 A 
ATOM     43  C   UNL A   1      42.988  21.189  27.442  1.00  0.00     0.016 A 
ATOM     44  C   UNL A   1      43.045  21.526  25.051  1.00  0.00     0.016 A 
ATOM     45  C   UNL A   1      43.555  22.455  27.650  1.00  0.00     0.010 A 
ATOM     46  C   UNL A   1      43.591  22.807  25.264  1.00  0.00     0.010 A 
ATOM     47  C   UNL A   1      43.814  23.301  26.566  1.00  0.00    -0.014 A 
BRANCH  47  48
ATOM     48  C   UNL A   1      44.096  24.752  26.796  1.00  0.00     0.031 A 
ATOM     49  C   UNL A   1      45.489  25.267  26.524  1.00  0.00     0.074 A 
ATOM     50  C   UNL A   1      43.158  25.621  27.222  1.00  0.00     0.049 A 
ATOM     51  N   UNL A   1      46.006  26.448  26.748  1.00  0.00    -0.248 NA
ATOM     52  C   UNL A   1      46.428  24.309  25.914  1.00  0.00     0.031 C 
ATOM     53  C   UNL A   1      41.757  25.301  27.479  1.00  0.00     0.029 A 
ATOM     54  N   UNL A   1      43.263  26.957  27.547  1.00  0.00    -0.354 N 
ATOM     55  C   UNL A   1      47.337  26.365  26.352  1.00  0.00     0.074 A 
ATOM     56  C   UNL A   1      47.547  25.014  25.875  1.00  0.00     0.031 C 
ATOM     57  C   UNL A   1      41.144  26.393  27.969  1.00  0.00     0.029 A 
ATOM     58  C   UNL A   1      42.114  27.482  28.095  1.00  0.00     0.049 A 
ATOM     59  H   UNL A   1      44.081  27.485  27.403  1.00  0.00     0.167 HD
ATOM     60  C   UNL A   1      48.302  27.317  26.377  1.00  0.00     0.034 A 
ATOM     61  C   UNL A   1      41.879  28.682  28.670  1.00  0.00     0.034 A 
ATOM     62  C   UNL A   1      48.103  28.667  26.833  1.00  0.00     0.049 A 
ATOM     63  C   UNL A   1      42.980  29.716  28.735  1.00  0.00     0.074 A 
ATOM     64  C   UNL A   1      49.018  29.707  26.866  1.00  0.00     0.029 A 
ATOM     65  N   UNL A   1      46.919  29.164  27.353  1.00  0.00    -0.354 N 
ATOM     66  N   UNL A   1      44.210  29.646  28.290  1.00  0.00    -0.248 NA
ATOM     67  C   UNL A   1      42.646  31.008  29.359  1.00  0.00     0.031 C 
ATOM     68  C   UNL A   1      48.396  30.820  27.443  1.00  0.00     0.029 A 
ATOM     69  C   UNL A   1      47.082  30.489  27.724  1.00  0.00     0.049 A 
ATOM     70  H   UNL A   1      46.085  28.650  27.444  1.00  0.00     0.167 HD
ATOM     71  C   UNL A   1      44.784  30.889  28.545  1.00  0.00     0.074 A 
ATOM     72  C   UNL A   1      43.760  31.702  29.166  1.00  0.00     0.031 C 
ATOM     73  C   UNL A   1      46.049  31.314  28.298  1.00  0.00     0.034 A 
BRANCH  60  74
ATOM     74  C   UNL A   1      49.677  26.923  25.897  1.00  0.00     0.023 A 
ATOM     75  C   UNL A   1      50.555  26.229  26.756  1.00  0.00     0.012 A 
ATOM     76  C   UNL A   1      50.089  27.217  24.582  1.00  0.00     0.148 A 
ATOM     77  C   UNL A   1      51.836  25.880  26.330  1.00  0.00     0.002 A 
ATOM     78  C   UNL A   1      51.348  26.820  24.148  1.00  0.00     0.091 A 
ATOM     79  F   UNL A   1      49.249  27.892  23.784  1.00  0.00    -0.205 F 
ATOM     80  C   UNL A   1      52.229  26.167  25.025  1.00  0.00     0.022 A 
BRANCH  78  81
ATOM     81  S   UNL A   1      51.914  27.069  22.462  1.00  0.00     0.127 S 
ATOM     82  O   UNL A   1      50.774  26.579  21.691  1.00  0.00    -0.237 OA
ATOM     83  O   UNL A   1      52.104  28.520  22.412  1.00  0.00    -0.237 OA
ATOM     84  O   UNL A   1      53.139  26.293  22.330  1.00  0.00    -0.744 OA
ENDBRANCH  78  81
ENDBRANCH  60  74
BRANCH  61  85
ATOM     85  C   UNL A   1      40.536  28.981  29.252  1.00  0.00     0.023 A 
ATOM     86  C   UNL A   1      39.460  29.314  28.406  1.00  0.00     0.012 A 
ATOM     87  C   UNL A   1      40.325  28.944  30.644  1.00  0.00     0.148 A 
ATOM     88  C   UNL A   1      38.208  29.632  28.937  1.00  0.00     0.002 A 
ATOM     89  C   UNL A   1      39.061  29.202  31.163  1.00  0.00     0.091 A 
ATOM     90  F   UNL A   1      41.367  28.651  31.435  1.00  0.00    -0.205 F 
ATOM     91  C   UNL A   1      38.005  29.565  30.313  1.00  0.00     0.022 A 
BRANCH  89  92
ATOM     92  S   UNL A   1      38.675  29.022  32.908  1.00  0.00     0.127 S 
ATOM     93  O   UNL A   1      38.680  30.410  33.361  1.00  0.00    -0.237 OA
ATOM     94  O   UNL A   1      37.354  28.395  32.857  1.00  0.00    -0.237 OA
ATOM     95  O   UNL A   1      39.724  28.178  33.461  1.00  0.00    -0.744 OA
ENDBRANCH  89  92
ENDBRANCH  61  85
BRANCH  73  96
ATOM     96  C   UNL A   1      46.399  32.742  28.645  1.00  0.00     0.023 A 
ATOM     97  C   UNL A   1      46.210  33.771  27.699  1.00  0.00     0.012 A 
ATOM     98  C   UNL A   1      46.855  33.075  29.938  1.00  0.00     0.148 A 
ATOM     99  C   UNL A   1      46.509  35.095  28.020  1.00  0.00     0.002 A 
ATOM    100  C   UNL A   1      47.101  34.404  30.267  1.00  0.00     0.091 A 
ATOM    101  F   UNL A   1      47.045  32.085  30.823  1.00  0.00    -0.205 F 
ATOM    102  C   UNL A   1      46.944  35.413  29.305  1.00  0.00     0.022 A 
BRANCH 100 103
ATOM    103  S   UNL A   1      47.571  34.917  31.924  1.00  0.00     0.127 S 
ATOM    104  O   UNL A   1      47.592  36.373  31.790  1.00  0.00    -0.237 OA
ATOM    105  O   UNL A   1      46.469  34.397  32.734  1.00  0.00    -0.237 OA
ATOM    106  O   UNL A   1      48.861  34.294  32.187  1.00  0.00    -0.744 OA
ENDBRANCH 100 103
ENDBRANCH  73  96
ENDBRANCH  47  48
ENDBRANCH  40  42
ENDBRANCH  39  40
ENDBRANCH  38  39
ENDBRANCH  37  38
ENDBRANCH  36  37
ENDBRANCH  35  36
ENDBRANCH   1  35
TORSDOF 25
ENDMDL
