MODEL 1
REMARK VINA RESULT:      -9.5      0.000      0.000
REMARK SMILES Cn1c(=O)c2c(nc(Nc3cccc(Cl)c3Cl)n2CC(=O)OCCOCCOCCOC(=O)c2ccc(-c3c4nc(c(-c5cccc(S(=O)(=O)[O-])c5F)c5ccc([nH]5)c(-c5cccc(S(=O)(=O)[O-])c5F)c5nc(c(-c6cccc(S(=O)(=O)[O-])c6F)c6ccc3[nH]6)C=C5)C=C4)cc2)n(C)c1=O
REMARK SMILES IDX 26 1 25 2 24 3 23 4 22 5 20 6 21 7 19 8 18 9 1 10 2 11 3 12
REMARK SMILES IDX 99 13 4 14 5 15 97 16 100 17 6 18 98 19 7 20 8 21 9 22 10 24
REMARK SMILES IDX 11 25 16 26 12 27 14 28 17 29 13 30 15 31 27 32 28 33 29 34
REMARK SMILES IDX 30 35 31 36 32 37 33 38 34 39 35 40 96 41 36 42 95 43 37 44
REMARK SMILES IDX 38 45 39 46 89 47 40 48 94 49 88 50 90 51 41 52 93 53 87 54
REMARK SMILES IDX 86 55 42 57 74 58 54 59 73 60 55 61 58 62 72 63 91 64 56 65
REMARK SMILES IDX 57 66 71 68 92 69 59 70 43 71 44 72 52 73 45 74 47 75 53 76
REMARK SMILES IDX 46 77 48 78 49 79 50 80 51 81 75 82 76 83 84 84 77 85 79 86
REMARK SMILES IDX 85 87 78 88 80 89 81 90 82 91 83 92 60 93 61 94 69 95 62 96
REMARK SMILES IDX 64 97 70 98 63 99 65 100 66 101 67 102 68 103
REMARK H PARENT 9 23 90 56 58 67
REMARK Flexibility Score: inf
ROOT
ATOM      1  C   UNL A   1      45.221  41.840  27.477  1.00  0.00     0.188 C 
ENDROOT
BRANCH   1   2
ATOM      2  O   UNL A   1      44.004  41.825  26.738  1.00  0.00    -0.376 OA
BRANCH   2   3
ATOM      3  C   UNL A   1      44.052  41.625  25.330  1.00  0.00     0.202 C 
BRANCH   3   4
ATOM      4  C   UNL A   1      42.792  41.997  24.526  1.00  0.00     0.261 C 
BRANCH   4   5
ATOM      5  O   UNL A   1      42.945  41.849  23.095  1.00  0.00    -0.462 OA
BRANCH   5   6
ATOM      6  C   UNL A   1      42.113  42.584  22.311  1.00  0.00     0.326 C 
ATOM      7  O   UNL A   1      41.203  43.275  22.761  1.00  0.00    -0.250 OA
BRANCH   6   8
ATOM      8  C   UNL A   1      42.544  42.655  20.857  1.00  0.00     0.248 C 
BRANCH   8   9
ATOM      9  N   UNL A   1      43.397  43.756  20.418  1.00  0.00    -0.293 N 
ATOM     10  C   UNL A   1      41.483  45.574  16.136  1.00  0.00     0.159 C 
ATOM     11  N   UNL A   1      42.383  45.513  17.273  1.00  0.00    -0.261 N 
ATOM     12  C   UNL A   1      42.196  44.499  18.232  1.00  0.00     0.282 A 
ATOM     13  C   UNL A   1      43.360  46.519  17.316  1.00  0.00     0.332 A 
ATOM     14  O   UNL A   1      41.295  43.691  18.198  1.00  0.00    -0.267 OA
ATOM     15  C   UNL A   1      43.189  44.527  19.275  1.00  0.00     0.154 A 
ATOM     16  N   UNL A   1      44.300  46.442  18.339  1.00  0.00    -0.279 N 
ATOM     17  O   UNL A   1      43.402  47.416  16.470  1.00  0.00    -0.247 OA
ATOM     18  C   UNL A   1      44.193  45.444  19.279  1.00  0.00     0.170 A 
ATOM     19  C   UNL A   1      45.401  47.383  18.379  1.00  0.00     0.157 C 
ATOM     20  N   UNL A   1      45.069  45.227  20.282  1.00  0.00    -0.194 NA
ATOM     21  C   UNL A   1      44.636  44.152  20.910  1.00  0.00     0.210 A 
BRANCH  21  22
ATOM     22  N   UNL A   1      45.367  43.617  21.906  1.00  0.00    -0.324 N 
ATOM     23  H   UNL A   1      45.720  42.722  21.693  1.00  0.00     0.170 HD
BRANCH  22  24
ATOM     24  C   UNL A   1      45.731  44.066  23.182  1.00  0.00     0.061 A 
ATOM     25  C   UNL A   1      44.756  44.807  23.873  1.00  0.00     0.028 A 
ATOM     26  C   UNL A   1      47.006  43.917  23.765  1.00  0.00     0.083 A 
ATOM     27  C   UNL A   1      44.992  45.295  25.154  1.00  0.00     0.004 A 
ATOM     28  C   UNL A   1      47.223  44.367  25.077  1.00  0.00     0.061 A 
ATOM     29  Cl  UNL A   1      48.315  43.255  22.832  1.00  0.00    -0.080 Cl
ATOM     30  C   UNL A   1      46.215  45.048  25.768  1.00  0.00     0.022 A 
ATOM     31  Cl  UNL A   1      48.718  44.114  25.912  1.00  0.00    -0.083 Cl
ENDBRANCH  22  24
ENDBRANCH  21  22
ENDBRANCH   8   9
ENDBRANCH   6   8
ENDBRANCH   5   6
ENDBRANCH   4   5
ENDBRANCH   3   4
ENDBRANCH   2   3
ENDBRANCH   1   2
BRANCH   1  32
ATOM     32  C   UNL A   1      46.279  40.750  27.226  1.00  0.00     0.188 C 
BRANCH  32  33
ATOM     33  O   UNL A   1      45.766  39.431  27.163  1.00  0.00    -0.376 OA
BRANCH  33  34
ATOM     34  C   UNL A   1      46.347  38.563  26.209  1.00  0.00     0.202 C 
BRANCH  34  35
ATOM     35  C   UNL A   1      47.451  37.697  26.820  1.00  0.00     0.261 C 
BRANCH  35  36
ATOM     36  O   UNL A   1      47.066  37.005  28.005  1.00  0.00    -0.460 OA
BRANCH  36  37
ATOM     37  C   UNL A   1      46.618  35.759  27.775  1.00  0.00     0.338 C 
ATOM     38  O   UNL A   1      47.204  34.841  27.221  1.00  0.00    -0.246 OA
BRANCH  37  39
ATOM     39  C   UNL A   1      45.270  35.621  28.300  1.00  0.00     0.060 A 
ATOM     40  C   UNL A   1      45.157  35.555  29.684  1.00  0.00     0.016 A 
ATOM     41  C   UNL A   1      44.293  35.139  27.434  1.00  0.00     0.016 A 
ATOM     42  C   UNL A   1      44.214  34.706  30.206  1.00  0.00     0.010 A 
ATOM     43  C   UNL A   1      43.304  34.346  27.965  1.00  0.00     0.010 A 
ATOM     44  C   UNL A   1      43.362  34.028  29.325  1.00  0.00    -0.014 A 
BRANCH  44  45
ATOM     45  C   UNL A   1      42.486  33.019  29.897  1.00  0.00     0.031 A 
ATOM     46  C   UNL A   1      41.218  33.580  30.411  1.00  0.00     0.074 A 
ATOM     47  C   UNL A   1      42.770  31.700  29.857  1.00  0.00     0.049 A 
ATOM     48  N   UNL A   1      40.736  33.490  31.608  1.00  0.00    -0.248 NA
ATOM     49  C   UNL A   1      40.477  34.493  29.523  1.00  0.00     0.031 C 
ATOM     50  C   UNL A   1      43.894  31.077  29.147  1.00  0.00     0.029 A 
ATOM     51  N   UNL A   1      42.031  30.624  30.272  1.00  0.00    -0.354 N 
ATOM     52  C   UNL A   1      39.486  34.095  31.520  1.00  0.00     0.074 A 
ATOM     53  C   UNL A   1      39.478  34.880  30.314  1.00  0.00     0.031 C 
ATOM     54  C   UNL A   1      43.595  29.786  28.902  1.00  0.00     0.029 A 
ATOM     55  C   UNL A   1      42.345  29.464  29.568  1.00  0.00     0.049 A 
ATOM     56  H   UNL A   1      41.355  30.666  30.986  1.00  0.00     0.167 HD
ATOM     57  C   UNL A   1      38.438  33.597  32.223  1.00  0.00     0.034 A 
ATOM     58  C   UNL A   1      41.584  28.354  29.444  1.00  0.00     0.034 A 
ATOM     59  C   UNL A   1      38.853  32.778  33.323  1.00  0.00     0.049 A 
ATOM     60  C   UNL A   1      40.638  28.307  30.579  1.00  0.00     0.074 A 
ATOM     61  C   UNL A   1      39.315  32.948  34.607  1.00  0.00     0.029 A 
ATOM     62  N   UNL A   1      39.068  31.475  32.978  1.00  0.00    -0.354 N 
ATOM     63  N   UNL A   1      40.998  28.133  31.822  1.00  0.00    -0.248 NA
ATOM     64  C   UNL A   1      39.248  28.705  30.373  1.00  0.00     0.031 C 
ATOM     65  C   UNL A   1      39.867  31.696  35.006  1.00  0.00     0.029 A 
ATOM     66  C   UNL A   1      39.734  30.793  33.957  1.00  0.00     0.049 A 
ATOM     67  H   UNL A   1      38.778  31.075  32.125  1.00  0.00     0.167 HD
ATOM     68  C   UNL A   1      40.027  28.801  32.542  1.00  0.00     0.074 A 
ATOM     69  C   UNL A   1      38.899  28.957  31.636  1.00  0.00     0.031 C 
ATOM     70  C   UNL A   1      40.342  29.513  33.659  1.00  0.00     0.034 A 
BRANCH  57  71
ATOM     71  C   UNL A   1      37.058  33.416  31.625  1.00  0.00     0.023 A 
ATOM     72  C   UNL A   1      36.928  32.491  30.569  1.00  0.00     0.012 A 
ATOM     73  C   UNL A   1      35.976  34.303  31.835  1.00  0.00     0.148 A 
ATOM     74  C   UNL A   1      35.785  32.456  29.763  1.00  0.00     0.002 A 
ATOM     75  C   UNL A   1      34.804  34.198  31.098  1.00  0.00     0.091 A 
ATOM     76  F   UNL A   1      36.119  35.362  32.637  1.00  0.00    -0.205 F 
ATOM     77  C   UNL A   1      34.713  33.295  30.040  1.00  0.00     0.022 A 
BRANCH  75  78
ATOM     78  S   UNL A   1      33.376  35.219  31.478  1.00  0.00     0.127 S 
ATOM     79  O   UNL A   1      32.944  34.659  32.753  1.00  0.00    -0.237 OA
ATOM     80  O   UNL A   1      33.973  36.553  31.553  1.00  0.00    -0.237 OA
ATOM     81  O   UNL A   1      32.468  35.040  30.349  1.00  0.00    -0.744 OA
ENDBRANCH  75  78
ENDBRANCH  57  71
BRANCH  58  82
ATOM     82  C   UNL A   1      41.464  27.420  28.298  1.00  0.00     0.023 A 
ATOM     83  C   UNL A   1      41.033  27.923  27.054  1.00  0.00     0.012 A 
ATOM     84  C   UNL A   1      42.018  26.119  28.334  1.00  0.00     0.148 A 
ATOM     85  C   UNL A   1      41.194  27.182  25.879  1.00  0.00     0.002 A 
ATOM     86  C   UNL A   1      42.158  25.377  27.164  1.00  0.00     0.091 A 
ATOM     87  F   UNL A   1      42.495  25.646  29.492  1.00  0.00    -0.205 F 
ATOM     88  C   UNL A   1      41.764  25.913  25.932  1.00  0.00     0.022 A 
BRANCH  86  89
ATOM     89  S   UNL A   1      42.879  23.729  27.158  1.00  0.00     0.127 S 
ATOM     90  O   UNL A   1      41.959  22.992  28.025  1.00  0.00    -0.237 OA
ATOM     91  O   UNL A   1      42.805  23.372  25.745  1.00  0.00    -0.237 OA
ATOM     92  O   UNL A   1      44.220  23.883  27.709  1.00  0.00    -0.744 OA
ENDBRANCH  86  89
ENDBRANCH  58  82
BRANCH  70  93
ATOM     93  C   UNL A   1      41.508  29.083  34.490  1.00  0.00     0.023 A 
ATOM     94  C   UNL A   1      41.431  28.050  35.442  1.00  0.00     0.012 A 
ATOM     95  C   UNL A   1      42.758  29.658  34.199  1.00  0.00     0.148 A 
ATOM     96  C   UNL A   1      42.585  27.601  36.091  1.00  0.00     0.002 A 
ATOM     97  C   UNL A   1      43.907  29.171  34.803  1.00  0.00     0.091 A 
ATOM     98  F   UNL A   1      42.802  30.660  33.308  1.00  0.00    -0.205 F 
ATOM     99  C   UNL A   1      43.825  28.147  35.758  1.00  0.00     0.022 A 
BRANCH  97 100
ATOM    100  S   UNL A   1      45.534  29.741  34.304  1.00  0.00     0.127 S 
ATOM    101  O   UNL A   1      45.662  29.170  32.965  1.00  0.00    -0.237 OA
ATOM    102  O   UNL A   1      45.382  31.196  34.337  1.00  0.00    -0.237 OA
ATOM    103  O   UNL A   1      46.462  29.220  35.300  1.00  0.00    -0.744 OA
ENDBRANCH  97 100
ENDBRANCH  70  93
ENDBRANCH  44  45
ENDBRANCH  37  39
ENDBRANCH  36  37
ENDBRANCH  35  36
ENDBRANCH  34  35
ENDBRANCH  33  34
ENDBRANCH  32  33
ENDBRANCH   1  32
TORSDOF 23
ENDMDL
MODEL 2
REMARK VINA RESULT:      -9.5      4.571      9.279
REMARK SMILES Cn1c(=O)c2c(nc(Nc3cccc(Cl)c3Cl)n2CC(=O)OCCOCCOCCOC(=O)c2ccc(-c3c4nc(c(-c5cccc(S(=O)(=O)[O-])c5F)c5ccc([nH]5)c(-c5cccc(S(=O)(=O)[O-])c5F)c5nc(c(-c6cccc(S(=O)(=O)[O-])c6F)c6ccc3[nH]6)C=C5)C=C4)cc2)n(C)c1=O
REMARK SMILES IDX 26 1 25 2 24 3 23 4 22 5 20 6 21 7 19 8 18 9 1 10 2 11 3 12
REMARK SMILES IDX 99 13 4 14 5 15 97 16 100 17 6 18 98 19 7 20 8 21 9 22 10 24
REMARK SMILES IDX 11 25 16 26 12 27 14 28 17 29 13 30 15 31 27 32 28 33 29 34
REMARK SMILES IDX 30 35 31 36 32 37 33 38 34 39 35 40 96 41 36 42 95 43 37 44
REMARK SMILES IDX 38 45 39 46 89 47 40 48 94 49 88 50 90 51 41 52 93 53 87 54
REMARK SMILES IDX 86 55 42 57 74 58 54 59 73 60 55 61 58 62 72 63 91 64 56 65
REMARK SMILES IDX 57 66 71 68 92 69 59 70 43 71 44 72 52 73 45 74 47 75 53 76
REMARK SMILES IDX 46 77 48 78 49 79 50 80 51 81 75 82 76 83 84 84 77 85 79 86
REMARK SMILES IDX 85 87 78 88 80 89 81 90 82 91 83 92 60 93 61 94 69 95 62 96
REMARK SMILES IDX 64 97 70 98 63 99 65 100 66 101 67 102 68 103
REMARK H PARENT 9 23 90 56 58 67
REMARK Flexibility Score: inf
ROOT
ATOM      1  C   UNL A   1      40.169  34.236  30.081  1.00  0.00     0.188 C 
ENDROOT
BRANCH   1   2
ATOM      2  O   UNL A   1      41.332  35.048  29.952  1.00  0.00    -0.376 OA
BRANCH   2   3
ATOM      3  C   UNL A   1      42.080  34.998  28.742  1.00  0.00     0.202 C 
BRANCH   3   4
ATOM      4  C   UNL A   1      41.957  36.205  27.793  1.00  0.00     0.261 C 
BRANCH   4   5
ATOM      5  O   UNL A   1      42.278  37.472  28.412  1.00  0.00    -0.462 OA
BRANCH   5   6
ATOM      6  C   UNL A   1      41.958  38.593  27.713  1.00  0.00     0.326 C 
ATOM      7  O   UNL A   1      41.659  38.580  26.522  1.00  0.00    -0.250 OA
BRANCH   6   8
ATOM      8  C   UNL A   1      41.785  39.828  28.580  1.00  0.00     0.248 C 
BRANCH   8   9
ATOM      9  N   UNL A   1      42.922  40.721  28.785  1.00  0.00    -0.293 N 
ATOM     10  C   UNL A   1      42.461  42.770  33.356  1.00  0.00     0.159 C 
ATOM     11  N   UNL A   1      43.096  42.482  32.083  1.00  0.00    -0.261 N 
ATOM     12  C   UNL A   1      42.444  41.621  31.180  1.00  0.00     0.282 A 
ATOM     13  C   UNL A   1      44.348  43.086  31.890  1.00  0.00     0.332 A 
ATOM     14  O   UNL A   1      41.395  41.061  31.414  1.00  0.00    -0.267 OA
ATOM     15  C   UNL A   1      43.160  41.465  29.940  1.00  0.00     0.154 A 
ATOM     16  N   UNL A   1      44.947  42.909  30.646  1.00  0.00    -0.279 N 
ATOM     17  O   UNL A   1      44.882  43.765  32.771  1.00  0.00    -0.247 OA
ATOM     18  C   UNL A   1      44.330  42.116  29.708  1.00  0.00     0.170 A 
ATOM     19  C   UNL A   1      46.186  43.595  30.339  1.00  0.00     0.157 C 
ATOM     20  N   UNL A   1      44.778  41.912  28.450  1.00  0.00    -0.194 NA
ATOM     21  C   UNL A   1      43.877  41.147  27.869  1.00  0.00     0.210 A 
BRANCH  21  22
ATOM     22  N   UNL A   1      43.990  40.854  26.559  1.00  0.00    -0.324 N 
ATOM     23  H   UNL A   1      44.149  39.897  26.386  1.00  0.00     0.170 HD
BRANCH  22  24
ATOM     24  C   UNL A   1      43.929  41.624  25.391  1.00  0.00     0.061 A 
ATOM     25  C   UNL A   1      45.131  42.243  25.001  1.00  0.00     0.028 A 
ATOM     26  C   UNL A   1      42.758  41.898  24.657  1.00  0.00     0.083 A 
ATOM     27  C   UNL A   1      45.202  43.022  23.850  1.00  0.00     0.004 A 
ATOM     28  C   UNL A   1      42.844  42.643  23.469  1.00  0.00     0.061 A 
ATOM     29  Cl  UNL A   1      41.212  41.384  25.263  1.00  0.00    -0.080 Cl
ATOM     30  C   UNL A   1      44.065  43.196  23.068  1.00  0.00     0.022 A 
ATOM     31  Cl  UNL A   1      41.478  42.920  22.443  1.00  0.00    -0.083 Cl
ENDBRANCH  22  24
ENDBRANCH  21  22
ENDBRANCH   8   9
ENDBRANCH   6   8
ENDBRANCH   5   6
ENDBRANCH   4   5
ENDBRANCH   3   4
ENDBRANCH   2   3
ENDBRANCH   1   2
BRANCH   1  32
ATOM     32  C   UNL A   1      38.936  34.526  29.208  1.00  0.00     0.188 C 
BRANCH  32  33
ATOM     33  O   UNL A   1      37.985  33.477  29.159  1.00  0.00    -0.376 OA
BRANCH  33  34
ATOM     34  C   UNL A   1      36.627  33.850  29.014  1.00  0.00     0.202 C 
BRANCH  34  35
ATOM     35  C   UNL A   1      35.685  32.656  29.176  1.00  0.00     0.261 C 
BRANCH  35  36
ATOM     36  O   UNL A   1      36.024  31.782  30.250  1.00  0.00    -0.460 OA
BRANCH  36  37
ATOM     37  C   UNL A   1      36.358  30.544  29.847  1.00  0.00     0.338 C 
ATOM     38  O   UNL A   1      35.930  29.927  28.883  1.00  0.00    -0.246 OA
BRANCH  37  39
ATOM     39  C   UNL A   1      37.357  29.992  30.746  1.00  0.00     0.060 A 
ATOM     40  C   UNL A   1      38.401  30.841  31.096  1.00  0.00     0.016 A 
ATOM     41  C   UNL A   1      37.445  28.606  30.830  1.00  0.00     0.016 A 
ATOM     42  C   UNL A   1      39.652  30.294  31.218  1.00  0.00     0.010 A 
ATOM     43  C   UNL A   1      38.689  28.055  31.025  1.00  0.00     0.010 A 
ATOM     44  C   UNL A   1      39.795  28.908  31.076  1.00  0.00    -0.014 A 
BRANCH  44  45
ATOM     45  C   UNL A   1      41.150  28.381  31.050  1.00  0.00     0.031 A 
ATOM     46  C   UNL A   1      41.805  28.409  32.375  1.00  0.00     0.074 A 
ATOM     47  C   UNL A   1      41.697  27.831  29.945  1.00  0.00     0.049 A 
ATOM     48  N   UNL A   1      42.918  28.982  32.701  1.00  0.00    -0.248 NA
ATOM     49  C   UNL A   1      41.041  27.872  33.515  1.00  0.00     0.031 C 
ATOM     50  C   UNL A   1      41.005  27.561  28.678  1.00  0.00     0.029 A 
ATOM     51  N   UNL A   1      42.913  27.225  29.770  1.00  0.00    -0.354 N 
ATOM     52  C   UNL A   1      43.119  28.611  34.027  1.00  0.00     0.074 A 
ATOM     53  C   UNL A   1      41.857  28.140  34.532  1.00  0.00     0.031 C 
ATOM     54  C   UNL A   1      41.668  26.593  28.016  1.00  0.00     0.029 A 
ATOM     55  C   UNL A   1      42.894  26.295  28.733  1.00  0.00     0.049 A 
ATOM     56  H   UNL A   1      43.708  27.425  30.314  1.00  0.00     0.167 HD
ATOM     57  C   UNL A   1      44.372  28.350  34.477  1.00  0.00     0.034 A 
ATOM     58  C   UNL A   1      43.763  25.278  28.536  1.00  0.00     0.034 A 
ATOM     59  C   UNL A   1      45.387  28.927  33.646  1.00  0.00     0.049 A 
ATOM     60  C   UNL A   1      45.027  25.601  29.229  1.00  0.00     0.074 A 
ATOM     61  C   UNL A   1      45.977  30.155  33.457  1.00  0.00     0.029 A 
ATOM     62  N   UNL A   1      45.744  28.133  32.595  1.00  0.00    -0.354 N 
ATOM     63  N   UNL A   1      45.822  26.576  28.880  1.00  0.00    -0.248 NA
ATOM     64  C   UNL A   1      45.323  24.974  30.514  1.00  0.00     0.031 C 
ATOM     65  C   UNL A   1      46.669  30.082  32.213  1.00  0.00     0.029 A 
ATOM     66  C   UNL A   1      46.483  28.815  31.670  1.00  0.00     0.049 A 
ATOM     67  H   UNL A   1      45.498  27.182  32.514  1.00  0.00     0.167 HD
ATOM     68  C   UNL A   1      46.423  26.950  30.065  1.00  0.00     0.074 A 
ATOM     69  C   UNL A   1      46.237  25.830  30.976  1.00  0.00     0.031 C 
ATOM     70  C   UNL A   1      46.675  28.258  30.347  1.00  0.00     0.034 A 
BRANCH  57  71
ATOM     71  C   UNL A   1      44.700  27.158  35.351  1.00  0.00     0.023 A 
ATOM     72  C   UNL A   1      45.476  27.396  36.504  1.00  0.00     0.012 A 
ATOM     73  C   UNL A   1      44.550  25.809  34.949  1.00  0.00     0.148 A 
ATOM     74  C   UNL A   1      46.075  26.349  37.213  1.00  0.00     0.002 A 
ATOM     75  C   UNL A   1      45.060  24.768  35.712  1.00  0.00     0.091 A 
ATOM     76  F   UNL A   1      44.051  25.518  33.744  1.00  0.00    -0.205 F 
ATOM     77  C   UNL A   1      45.850  25.032  36.830  1.00  0.00     0.022 A 
BRANCH  75  78
ATOM     78  S   UNL A   1      44.728  23.056  35.284  1.00  0.00     0.127 S 
ATOM     79  O   UNL A   1      43.309  23.105  34.953  1.00  0.00    -0.237 OA
ATOM     80  O   UNL A   1      45.627  22.852  34.147  1.00  0.00    -0.237 OA
ATOM     81  O   UNL A   1      45.092  22.288  36.471  1.00  0.00    -0.744 OA
ENDBRANCH  75  78
ENDBRANCH  57  71
BRANCH  58  82
ATOM     82  C   UNL A   1      43.518  23.933  27.960  1.00  0.00     0.023 A 
ATOM     83  C   UNL A   1      42.312  23.271  28.266  1.00  0.00     0.012 A 
ATOM     84  C   UNL A   1      44.315  23.413  26.913  1.00  0.00     0.148 A 
ATOM     85  C   UNL A   1      41.886  22.165  27.524  1.00  0.00     0.002 A 
ATOM     86  C   UNL A   1      43.896  22.299  26.191  1.00  0.00     0.091 A 
ATOM     87  F   UNL A   1      45.432  24.062  26.560  1.00  0.00    -0.205 F 
ATOM     88  C   UNL A   1      42.672  21.684  26.482  1.00  0.00     0.022 A 
BRANCH  86  89
ATOM     89  S   UNL A   1      44.863  21.618  24.836  1.00  0.00     0.127 S 
ATOM     90  O   UNL A   1      46.163  21.397  25.472  1.00  0.00    -0.237 OA
ATOM     91  O   UNL A   1      44.124  20.401  24.518  1.00  0.00    -0.237 OA
ATOM     92  O   UNL A   1      44.875  22.647  23.803  1.00  0.00    -0.744 OA
ENDBRANCH  86  89
ENDBRANCH  58  82
BRANCH  70  93
ATOM     93  C   UNL A   1      46.940  29.206  29.222  1.00  0.00     0.023 A 
ATOM     94  C   UNL A   1      48.194  29.320  28.593  1.00  0.00     0.012 A 
ATOM     95  C   UNL A   1      45.842  29.910  28.696  1.00  0.00     0.148 A 
ATOM     96  C   UNL A   1      48.344  30.124  27.460  1.00  0.00     0.002 A 
ATOM     97  C   UNL A   1      45.983  30.660  27.539  1.00  0.00     0.091 A 
ATOM     98  F   UNL A   1      44.662  29.807  29.328  1.00  0.00    -0.205 F 
ATOM     99  C   UNL A   1      47.236  30.778  26.921  1.00  0.00     0.022 A 
BRANCH  97 100
ATOM    100  S   UNL A   1      44.562  31.400  26.729  1.00  0.00     0.127 S 
ATOM    101  O   UNL A   1      43.679  30.250  26.546  1.00  0.00    -0.237 OA
ATOM    102  O   UNL A   1      44.104  32.372  27.723  1.00  0.00    -0.237 OA
ATOM    103  O   UNL A   1      45.071  32.003  25.504  1.00  0.00    -0.744 OA
ENDBRANCH  97 100
ENDBRANCH  70  93
ENDBRANCH  44  45
ENDBRANCH  37  39
ENDBRANCH  36  37
ENDBRANCH  35  36
ENDBRANCH  34  35
ENDBRANCH  33  34
ENDBRANCH  32  33
ENDBRANCH   1  32
TORSDOF 23
ENDMDL
MODEL 3
REMARK VINA RESULT:      -9.4      8.197     14.185
REMARK SMILES Cn1c(=O)c2c(nc(Nc3cccc(Cl)c3Cl)n2CC(=O)OCCOCCOCCOC(=O)c2ccc(-c3c4nc(c(-c5cccc(S(=O)(=O)[O-])c5F)c5ccc([nH]5)c(-c5cccc(S(=O)(=O)[O-])c5F)c5nc(c(-c6cccc(S(=O)(=O)[O-])c6F)c6ccc3[nH]6)C=C5)C=C4)cc2)n(C)c1=O
REMARK SMILES IDX 26 1 25 2 24 3 23 4 22 5 20 6 21 7 19 8 18 9 1 10 2 11 3 12
REMARK SMILES IDX 99 13 4 14 5 15 97 16 100 17 6 18 98 19 7 20 8 21 9 22 10 24
REMARK SMILES IDX 11 25 16 26 12 27 14 28 17 29 13 30 15 31 27 32 28 33 29 34
REMARK SMILES IDX 30 35 31 36 32 37 33 38 34 39 35 40 96 41 36 42 95 43 37 44
REMARK SMILES IDX 38 45 39 46 89 47 40 48 94 49 88 50 90 51 41 52 93 53 87 54
REMARK SMILES IDX 86 55 42 57 74 58 54 59 73 60 55 61 58 62 72 63 91 64 56 65
REMARK SMILES IDX 57 66 71 68 92 69 59 70 43 71 44 72 52 73 45 74 47 75 53 76
REMARK SMILES IDX 46 77 48 78 49 79 50 80 51 81 75 82 76 83 84 84 77 85 79 86
REMARK SMILES IDX 85 87 78 88 80 89 81 90 82 91 83 92 60 93 61 94 69 95 62 96
REMARK SMILES IDX 64 97 70 98 63 99 65 100 66 101 67 102 68 103
REMARK H PARENT 9 23 90 56 58 67
REMARK Flexibility Score: inf
ROOT
ATOM      1  C   UNL A   1      40.164  25.994  28.796  1.00  0.00     0.188 C 
ENDROOT
BRANCH   1   2
ATOM      2  O   UNL A   1      39.851  27.344  28.468  1.00  0.00    -0.376 OA
BRANCH   2   3
ATOM      3  C   UNL A   1      38.654  27.920  28.978  1.00  0.00     0.202 C 
BRANCH   3   4
ATOM      4  C   UNL A   1      37.937  28.951  28.086  1.00  0.00     0.261 C 
BRANCH   4   5
ATOM      5  O   UNL A   1      36.656  29.382  28.602  1.00  0.00    -0.462 OA
BRANCH   5   6
ATOM      6  C   UNL A   1      35.939  30.236  27.825  1.00  0.00     0.326 C 
ATOM      7  O   UNL A   1      35.066  29.863  27.046  1.00  0.00    -0.250 OA
BRANCH   6   8
ATOM      8  C   UNL A   1      36.153  31.700  28.164  1.00  0.00     0.248 C 
BRANCH   8   9
ATOM      9  N   UNL A   1      35.706  32.206  29.458  1.00  0.00    -0.293 N 
ATOM     10  C   UNL A   1      33.278  36.540  28.660  1.00  0.00     0.159 C 
ATOM     11  N   UNL A   1      33.781  35.416  29.429  1.00  0.00    -0.261 N 
ATOM     12  C   UNL A   1      34.500  34.406  28.763  1.00  0.00     0.282 A 
ATOM     13  C   UNL A   1      33.464  35.439  30.796  1.00  0.00     0.332 A 
ATOM     14  O   UNL A   1      34.692  34.386  27.567  1.00  0.00    -0.267 OA
ATOM     15  C   UNL A   1      34.982  33.382  29.654  1.00  0.00     0.154 A 
ATOM     16  N   UNL A   1      34.006  34.429  31.585  1.00  0.00    -0.279 N 
ATOM     17  O   UNL A   1      32.761  36.329  31.282  1.00  0.00    -0.247 OA
ATOM     18  C   UNL A   1      34.756  33.440  30.993  1.00  0.00     0.170 A 
ATOM     19  C   UNL A   1      33.810  34.453  33.021  1.00  0.00     0.157 C 
ATOM     20  N   UNL A   1      35.380  32.442  31.653  1.00  0.00    -0.194 NA
ATOM     21  C   UNL A   1      36.029  31.755  30.733  1.00  0.00     0.210 A 
BRANCH  21  22
ATOM     22  N   UNL A   1      36.842  30.746  31.099  1.00  0.00    -0.324 N 
ATOM     23  H   UNL A   1      36.382  29.879  31.164  1.00  0.00     0.170 HD
BRANCH  22  24
ATOM     24  C   UNL A   1      38.207  30.673  31.405  1.00  0.00     0.061 A 
ATOM     25  C   UNL A   1      39.013  31.690  30.862  1.00  0.00     0.028 A 
ATOM     26  C   UNL A   1      38.827  29.626  32.115  1.00  0.00     0.083 A 
ATOM     27  C   UNL A   1      40.382  31.735  31.107  1.00  0.00     0.004 A 
ATOM     28  C   UNL A   1      40.200  29.702  32.403  1.00  0.00     0.061 A 
ATOM     29  Cl  UNL A   1      37.911  28.217  32.559  1.00  0.00    -0.080 Cl
ATOM     30  C   UNL A   1      40.970  30.758  31.904  1.00  0.00     0.022 A 
ATOM     31  Cl  UNL A   1      41.014  28.524  33.374  1.00  0.00    -0.083 Cl
ENDBRANCH  22  24
ENDBRANCH  21  22
ENDBRANCH   8   9
ENDBRANCH   6   8
ENDBRANCH   5   6
ENDBRANCH   4   5
ENDBRANCH   3   4
ENDBRANCH   2   3
ENDBRANCH   1   2
BRANCH   1  32
ATOM     32  C   UNL A   1      40.574  25.014  27.683  1.00  0.00     0.188 C 
BRANCH  32  33
ATOM     33  O   UNL A   1      41.645  24.149  28.020  1.00  0.00    -0.376 OA
BRANCH  33  34
ATOM     34  C   UNL A   1      41.350  22.768  28.102  1.00  0.00     0.202 C 
BRANCH  34  35
ATOM     35  C   UNL A   1      40.756  22.230  26.799  1.00  0.00     0.261 C 
BRANCH  35  36
ATOM     36  O   UNL A   1      41.525  22.528  25.636  1.00  0.00    -0.460 OA
BRANCH  36  37
ATOM     37  C   UNL A   1      42.634  21.777  25.522  1.00  0.00     0.338 C 
ATOM     38  O   UNL A   1      42.717  20.559  25.501  1.00  0.00    -0.246 OA
BRANCH  37  39
ATOM     39  C   UNL A   1      43.797  22.641  25.413  1.00  0.00     0.060 A 
ATOM     40  C   UNL A   1      44.913  22.261  26.151  1.00  0.00     0.016 A 
ATOM     41  C   UNL A   1      43.587  23.944  24.972  1.00  0.00     0.016 A 
ATOM     42  C   UNL A   1      45.659  23.253  26.734  1.00  0.00     0.010 A 
ATOM     43  C   UNL A   1      44.381  24.934  25.500  1.00  0.00     0.010 A 
ATOM     44  C   UNL A   1      45.315  24.587  26.481  1.00  0.00    -0.014 A 
BRANCH  44  45
ATOM     45  C   UNL A   1      46.020  25.608  27.238  1.00  0.00     0.031 A 
ATOM     46  C   UNL A   1      47.482  25.582  27.018  1.00  0.00     0.074 A 
ATOM     47  C   UNL A   1      45.381  26.540  27.976  1.00  0.00     0.049 A 
ATOM     48  N   UNL A   1      48.418  25.453  27.901  1.00  0.00    -0.248 NA
ATOM     49  C   UNL A   1      47.951  25.528  25.622  1.00  0.00     0.031 C 
ATOM     50  C   UNL A   1      43.930  26.755  28.032  1.00  0.00     0.029 A 
ATOM     51  N   UNL A   1      45.880  27.605  28.678  1.00  0.00    -0.354 N 
ATOM     52  C   UNL A   1      49.596  25.601  27.177  1.00  0.00     0.074 A 
ATOM     53  C   UNL A   1      49.268  25.414  25.789  1.00  0.00     0.031 C 
ATOM     54  C   UNL A   1      43.690  28.019  28.434  1.00  0.00     0.029 A 
ATOM     55  C   UNL A   1      44.951  28.635  28.805  1.00  0.00     0.049 A 
ATOM     56  H   UNL A   1      46.790  27.638  29.051  1.00  0.00     0.167 HD
ATOM     57  C   UNL A   1      50.655  26.248  27.725  1.00  0.00     0.034 A 
ATOM     58  C   UNL A   1      45.207  29.933  29.085  1.00  0.00     0.034 A 
ATOM     59  C   UNL A   1      50.584  26.306  29.155  1.00  0.00     0.049 A 
ATOM     60  C   UNL A   1      46.513  30.014  29.772  1.00  0.00     0.074 A 
ATOM     61  C   UNL A   1      50.847  25.484  30.225  1.00  0.00     0.029 A 
ATOM     62  N   UNL A   1      49.865  27.369  29.620  1.00  0.00    -0.354 N 
ATOM     63  N   UNL A   1      46.743  29.532  30.962  1.00  0.00    -0.248 NA
ATOM     64  C   UNL A   1      47.694  30.438  29.023  1.00  0.00     0.031 C 
ATOM     65  C   UNL A   1      50.209  26.075  31.354  1.00  0.00     0.029 A 
ATOM     66  C   UNL A   1      49.568  27.241  30.947  1.00  0.00     0.049 A 
ATOM     67  H   UNL A   1      49.593  28.136  29.064  1.00  0.00     0.167 HD
ATOM     68  C   UNL A   1      48.084  29.204  30.932  1.00  0.00     0.074 A 
ATOM     69  C   UNL A   1      48.649  29.948  29.816  1.00  0.00     0.031 C 
ATOM     70  C   UNL A   1      48.549  28.080  31.543  1.00  0.00     0.034 A 
BRANCH  57  71
ATOM     71  C   UNL A   1      51.476  27.271  26.968  1.00  0.00     0.023 A 
ATOM     72  C   UNL A   1      50.841  28.483  26.625  1.00  0.00     0.012 A 
ATOM     73  C   UNL A   1      52.706  26.990  26.327  1.00  0.00     0.148 A 
ATOM     74  C   UNL A   1      51.399  29.362  25.691  1.00  0.00     0.002 A 
ATOM     75  C   UNL A   1      53.304  27.912  25.479  1.00  0.00     0.091 A 
ATOM     76  F   UNL A   1      53.240  25.768  26.401  1.00  0.00    -0.205 F 
ATOM     77  C   UNL A   1      52.641  29.088  25.132  1.00  0.00     0.022 A 
BRANCH  75  78
ATOM     78  S   UNL A   1      54.940  27.619  24.797  1.00  0.00     0.127 S 
ATOM     79  O   UNL A   1      55.261  28.923  24.229  1.00  0.00    -0.237 OA
ATOM     80  O   UNL A   1      55.702  27.256  25.993  1.00  0.00    -0.237 OA
ATOM     81  O   UNL A   1      54.768  26.522  23.850  1.00  0.00    -0.744 OA
ENDBRANCH  75  78
ENDBRANCH  57  71
BRANCH  58  82
ATOM     82  C   UNL A   1      44.501  31.151  28.619  1.00  0.00     0.023 A 
ATOM     83  C   UNL A   1      43.732  31.887  29.543  1.00  0.00     0.012 A 
ATOM     84  C   UNL A   1      44.786  31.747  27.369  1.00  0.00     0.148 A 
ATOM     85  C   UNL A   1      43.306  33.188  29.257  1.00  0.00     0.002 A 
ATOM     86  C   UNL A   1      44.343  33.035  27.080  1.00  0.00     0.091 A 
ATOM     87  F   UNL A   1      45.570  31.096  26.500  1.00  0.00    -0.205 F 
ATOM     88  C   UNL A   1      43.618  33.765  28.030  1.00  0.00     0.022 A 
BRANCH  86  89
ATOM     89  S   UNL A   1      44.701  33.842  25.514  1.00  0.00     0.127 S 
ATOM     90  O   UNL A   1      44.196  32.866  24.547  1.00  0.00    -0.237 OA
ATOM     91  O   UNL A   1      43.913  35.066  25.615  1.00  0.00    -0.237 OA
ATOM     92  O   UNL A   1      46.149  34.016  25.481  1.00  0.00    -0.744 OA
ENDBRANCH  86  89
ENDBRANCH  58  82
BRANCH  70  93
ATOM     93  C   UNL A   1      47.839  27.563  32.754  1.00  0.00     0.023 A 
ATOM     94  C   UNL A   1      48.017  28.109  34.038  1.00  0.00     0.012 A 
ATOM     95  C   UNL A   1      46.856  26.577  32.556  1.00  0.00     0.148 A 
ATOM     96  C   UNL A   1      47.225  27.674  35.105  1.00  0.00     0.002 A 
ATOM     97  C   UNL A   1      46.035  26.190  33.604  1.00  0.00     0.091 A 
ATOM     98  F   UNL A   1      46.724  26.052  31.327  1.00  0.00    -0.205 F 
ATOM     99  C   UNL A   1      46.222  26.730  34.885  1.00  0.00     0.022 A 
BRANCH  97 100
ATOM    100  S   UNL A   1      44.642  25.090  33.338  1.00  0.00     0.127 S 
ATOM    101  O   UNL A   1      45.184  23.800  33.758  1.00  0.00    -0.237 OA
ATOM    102  O   UNL A   1      43.626  25.648  34.232  1.00  0.00    -0.237 OA
ATOM    103  O   UNL A   1      44.311  25.202  31.923  1.00  0.00    -0.744 OA
ENDBRANCH  97 100
ENDBRANCH  70  93
ENDBRANCH  44  45
ENDBRANCH  37  39
ENDBRANCH  36  37
ENDBRANCH  35  36
ENDBRANCH  34  35
ENDBRANCH  33  34
ENDBRANCH  32  33
ENDBRANCH   1  32
TORSDOF 23
ENDMDL
