MODEL 1
REMARK VINA RESULT:     -10.9      0.000      0.000
REMARK SMILES C[N@H+]1CCO[C@H](CNC(=O)N2CC[C@@](C)(C(=O)OCCOCCOCCOC(=O)c3ccc(-c4c5nc(c(-c6cccc(S(=O)(=O)[O-])c6F)c6ccc([nH]6)c(-c6cccc(S(=O)(=O)[O-])c6F)c6nc(c(-c7cccc(S(=O)(=O)[O-])c7F)c7ccc4[nH]7)C=C6)C=C5)cc3)C2)C1
REMARK SMILES IDX 22 1 21 2 20 3 19 4 18 5 16 6 17 7 14 8 11 9 12 10 93 11
REMARK SMILES IDX 13 12 15 13 9 14 8 15 10 17 7 18 6 19 1 20 2 21 3 22 94 23
REMARK SMILES IDX 4 25 5 26 23 27 24 28 25 29 26 30 27 31 28 32 29 33 30 34
REMARK SMILES IDX 31 35 92 36 32 37 91 38 33 39 34 40 35 41 85 42 36 43 90 44
REMARK SMILES IDX 84 45 86 46 37 47 89 48 83 49 82 50 38 52 70 53 50 54 69 55
REMARK SMILES IDX 51 56 54 57 68 58 87 59 52 60 53 61 67 63 88 64 55 65 39 66
REMARK SMILES IDX 40 67 48 68 41 69 43 70 49 71 42 72 44 73 45 74 46 75 47 76
REMARK SMILES IDX 71 77 72 78 80 79 73 80 75 81 81 82 74 83 76 84 77 85 78 86
REMARK SMILES IDX 79 87 56 88 57 89 65 90 58 91 60 92 66 93 59 94 61 95 62 96
REMARK SMILES IDX 63 97 64 98
REMARK H PARENT 8 16 2 24 86 51 54 62
REMARK Flexibility Score: inf
ROOT
ATOM      1  C   UNL A   1      31.903  28.747  25.518  1.00  0.00     0.188 C 
ENDROOT
BRANCH   1   2
ATOM      2  O   UNL A   1      32.944  28.185  24.729  1.00  0.00    -0.376 OA
BRANCH   2   3
ATOM      3  C   UNL A   1      32.912  28.469  23.330  1.00  0.00     0.202 C 
BRANCH   3   4
ATOM      4  C   UNL A   1      33.643  27.474  22.413  1.00  0.00     0.261 C 
BRANCH   4   5
ATOM      5  O   UNL A   1      33.954  26.215  23.053  1.00  0.00    -0.463 OA
BRANCH   5   6
ATOM      6  C   UNL A   1      33.590  25.098  22.365  1.00  0.00     0.313 C 
ATOM      7  O   UNL A   1      33.252  25.108  21.185  1.00  0.00    -0.252 OA
BRANCH   6   8
ATOM      8  C   UNL A   1      33.680  23.796  23.167  1.00  0.00     0.084 C 
ATOM      9  N   UNL A   1      31.933  22.817  24.485  1.00  0.00    -0.324 N 
ATOM     10  C   UNL A   1      31.574  22.626  23.097  1.00  0.00     0.122 C 
ATOM     11  C   UNL A   1      33.025  23.783  24.572  1.00  0.00     0.139 C 
ATOM     12  C   UNL A   1      32.904  22.714  22.380  1.00  0.00     0.042 C 
ATOM     13  C   UNL A   1      35.162  23.394  23.263  1.00  0.00     0.026 C 
BRANCH   9  14
ATOM     14  C   UNL A   1      31.489  21.931  25.417  1.00  0.00     0.317 C 
ATOM     15  N   UNL A   1      32.078  20.740  25.607  1.00  0.00    -0.335 N 
ATOM     16  H   UNL A   1      31.459  20.050  25.940  1.00  0.00     0.165 HD
ATOM     17  O   UNL A   1      30.504  22.172  26.121  1.00  0.00    -0.249 OA
BRANCH  15  18
ATOM     18  C   UNL A   1      33.438  20.250  25.427  1.00  0.00     0.155 C 
BRANCH  18  19
ATOM     19  C   UNL A   1      33.541  18.706  25.528  1.00  0.00     0.192 C 
ATOM     20  C   UNL A   1      35.384  16.134  25.280  1.00  0.00     0.332 C 
ATOM     21  N   UNL A   1      34.418  16.638  24.310  1.00  0.00    -0.333 N 
ATOM     22  C   UNL A   1      33.070  16.075  24.516  1.00  0.00     0.290 C 
ATOM     23  C   UNL A   1      34.338  18.119  24.334  1.00  0.00     0.296 C 
ATOM     24  H   UNL A   1      34.759  16.336  23.397  1.00  0.00     0.348 HD
ATOM     25  C   UNL A   1      32.308  16.694  25.696  1.00  0.00     0.222 C 
ATOM     26  O   UNL A   1      32.222  18.115  25.551  1.00  0.00    -0.365 OA
ENDBRANCH  18  19
ENDBRANCH  15  18
ENDBRANCH   9  14
ENDBRANCH   6   8
ENDBRANCH   5   6
ENDBRANCH   4   5
ENDBRANCH   3   4
ENDBRANCH   2   3
ENDBRANCH   1   2
BRANCH   1  27
ATOM     27  C   UNL A   1      31.005  29.762  24.805  1.00  0.00     0.188 C 
BRANCH  27  28
ATOM     28  O   UNL A   1      30.968  31.050  25.407  1.00  0.00    -0.376 OA
BRANCH  28  29
ATOM     29  C   UNL A   1      31.799  31.260  26.549  1.00  0.00     0.202 C 
BRANCH  29  30
ATOM     30  C   UNL A   1      32.105  32.721  26.930  1.00  0.00     0.261 C 
BRANCH  30  31
ATOM     31  O   UNL A   1      32.910  32.897  28.114  1.00  0.00    -0.460 OA
BRANCH  31  32
ATOM     32  C   UNL A   1      33.994  33.702  28.038  1.00  0.00     0.338 C 
ATOM     33  O   UNL A   1      33.988  34.911  27.869  1.00  0.00    -0.246 OA
BRANCH  32  34
ATOM     34  C   UNL A   1      35.188  32.934  28.480  1.00  0.00     0.060 A 
ATOM     35  C   UNL A   1      34.997  31.611  28.903  1.00  0.00     0.016 A 
ATOM     36  C   UNL A   1      36.482  33.461  28.402  1.00  0.00     0.016 A 
ATOM     37  C   UNL A   1      36.088  30.830  29.288  1.00  0.00     0.010 A 
ATOM     38  C   UNL A   1      37.573  32.678  28.792  1.00  0.00     0.010 A 
ATOM     39  C   UNL A   1      37.380  31.371  29.271  1.00  0.00    -0.014 A 
BRANCH  39  40
ATOM     40  C   UNL A   1      38.496  30.647  29.928  1.00  0.00     0.031 A 
ATOM     41  C   UNL A   1      38.854  31.020  31.342  1.00  0.00     0.074 A 
ATOM     42  C   UNL A   1      39.189  29.680  29.297  1.00  0.00     0.049 A 
ATOM     43  N   UNL A   1      39.794  30.543  32.113  1.00  0.00    -0.248 NA
ATOM     44  C   UNL A   1      38.038  32.075  31.968  1.00  0.00     0.031 C 
ATOM     45  C   UNL A   1      38.951  29.218  27.932  1.00  0.00     0.029 A 
ATOM     46  N   UNL A   1      40.256  28.929  29.727  1.00  0.00    -0.354 N 
ATOM     47  C   UNL A   1      39.703  31.253  33.304  1.00  0.00     0.074 A 
ATOM     48  C   UNL A   1      38.624  32.204  33.148  1.00  0.00     0.031 C 
ATOM     49  C   UNL A   1      39.866  28.281  27.625  1.00  0.00     0.029 A 
ATOM     50  C   UNL A   1      40.765  28.091  28.763  1.00  0.00     0.049 A 
ATOM     51  H   UNL A   1      40.621  28.985  30.640  1.00  0.00     0.167 HD
ATOM     52  C   UNL A   1      40.436  31.120  34.433  1.00  0.00     0.034 A 
ATOM     53  C   UNL A   1      41.845  27.283  28.789  1.00  0.00     0.034 A 
ATOM     54  C   UNL A   1      41.499  30.169  34.604  1.00  0.00     0.049 A 
ATOM     55  C   UNL A   1      42.670  27.177  30.049  1.00  0.00     0.074 A 
ATOM     56  C   UNL A   1      42.263  29.929  35.733  1.00  0.00     0.029 A 
ATOM     57  N   UNL A   1      41.965  29.316  33.617  1.00  0.00    -0.354 N 
ATOM     58  N   UNL A   1      42.488  27.759  31.210  1.00  0.00    -0.248 NA
ATOM     59  C   UNL A   1      43.833  26.276  30.011  1.00  0.00     0.031 C 
ATOM     60  C   UNL A   1      43.213  28.952  35.418  1.00  0.00     0.029 A 
ATOM     61  C   UNL A   1      43.019  28.561  34.103  1.00  0.00     0.049 A 
ATOM     62  H   UNL A   1      41.601  29.256  32.704  1.00  0.00     0.167 HD
ATOM     63  C   UNL A   1      43.490  27.271  32.045  1.00  0.00     0.074 A 
ATOM     64  C   UNL A   1      44.262  26.329  31.264  1.00  0.00     0.031 C 
ATOM     65  C   UNL A   1      43.753  27.586  33.338  1.00  0.00     0.034 A 
BRANCH  52  66
ATOM     66  C   UNL A   1      40.093  32.018  35.590  1.00  0.00     0.023 A 
ATOM     67  C   UNL A   1      40.825  33.206  35.793  1.00  0.00     0.012 A 
ATOM     68  C   UNL A   1      39.021  31.709  36.449  1.00  0.00     0.148 A 
ATOM     69  C   UNL A   1      40.515  34.056  36.854  1.00  0.00     0.002 A 
ATOM     70  C   UNL A   1      38.691  32.583  37.477  1.00  0.00     0.091 A 
ATOM     71  F   UNL A   1      38.357  30.560  36.254  1.00  0.00    -0.205 F 
ATOM     72  C   UNL A   1      39.444  33.750  37.687  1.00  0.00     0.022 A 
BRANCH  70  73
ATOM     73  S   UNL A   1      37.282  32.314  38.557  1.00  0.00     0.127 S 
ATOM     74  O   UNL A   1      37.725  32.968  39.788  1.00  0.00    -0.237 OA
ATOM     75  O   UNL A   1      36.212  33.014  37.846  1.00  0.00    -0.237 OA
ATOM     76  O   UNL A   1      37.111  30.871  38.641  1.00  0.00    -0.744 OA
ENDBRANCH  70  73
ENDBRANCH  52  66
BRANCH  53  77
ATOM     77  C   UNL A   1      42.206  26.480  27.585  1.00  0.00     0.023 A 
ATOM     78  C   UNL A   1      42.887  27.093  26.517  1.00  0.00     0.012 A 
ATOM     79  C   UNL A   1      41.873  25.114  27.494  1.00  0.00     0.148 A 
ATOM     80  C   UNL A   1      43.204  26.369  25.367  1.00  0.00     0.002 A 
ATOM     81  C   UNL A   1      42.240  24.386  26.369  1.00  0.00     0.091 A 
ATOM     82  F   UNL A   1      41.204  24.555  28.513  1.00  0.00    -0.205 F 
ATOM     83  C   UNL A   1      42.891  25.014  25.297  1.00  0.00     0.022 A 
BRANCH  81  84
ATOM     84  S   UNL A   1      41.983  22.613  26.243  1.00  0.00     0.127 S 
ATOM     85  O   UNL A   1      40.525  22.525  26.187  1.00  0.00    -0.237 OA
ATOM     86  O   UNL A   1      42.667  22.300  24.988  1.00  0.00    -0.237 OA
ATOM     87  O   UNL A   1      42.605  22.038  27.427  1.00  0.00    -0.744 OA
ENDBRANCH  81  84
ENDBRANCH  53  77
BRANCH  65  88
ATOM     88  C   UNL A   1      44.906  26.888  34.018  1.00  0.00     0.023 A 
ATOM     89  C   UNL A   1      46.221  27.357  33.826  1.00  0.00     0.012 A 
ATOM     90  C   UNL A   1      44.677  25.823  34.913  1.00  0.00     0.148 A 
ATOM     91  C   UNL A   1      47.292  26.757  34.488  1.00  0.00     0.002 A 
ATOM     92  C   UNL A   1      45.744  25.262  35.607  1.00  0.00     0.091 A 
ATOM     93  F   UNL A   1      43.421  25.380  35.073  1.00  0.00    -0.205 F 
ATOM     94  C   UNL A   1      47.053  25.720  35.387  1.00  0.00     0.022 A 
BRANCH  92  95
ATOM     95  S   UNL A   1      45.520  23.989  36.855  1.00  0.00     0.127 S 
ATOM     96  O   UNL A   1      45.148  22.834  36.039  1.00  0.00    -0.237 OA
ATOM     97  O   UNL A   1      46.851  23.905  37.456  1.00  0.00    -0.237 OA
ATOM     98  O   UNL A   1      44.482  24.482  37.750  1.00  0.00    -0.744 OA
ENDBRANCH  92  95
ENDBRANCH  65  88
ENDBRANCH  39  40
ENDBRANCH  32  34
ENDBRANCH  31  32
ENDBRANCH  30  31
ENDBRANCH  29  30
ENDBRANCH  28  29
ENDBRANCH  27  28
ENDBRANCH   1  27
TORSDOF 23
ENDMDL
MODEL 2
REMARK VINA RESULT:     -10.7      1.485      2.127
REMARK SMILES C[N@H+]1CCO[C@H](CNC(=O)N2CC[C@@](C)(C(=O)OCCOCCOCCOC(=O)c3ccc(-c4c5nc(c(-c6cccc(S(=O)(=O)[O-])c6F)c6ccc([nH]6)c(-c6cccc(S(=O)(=O)[O-])c6F)c6nc(c(-c7cccc(S(=O)(=O)[O-])c7F)c7ccc4[nH]7)C=C6)C=C5)cc3)C2)C1
REMARK SMILES IDX 22 1 21 2 20 3 19 4 18 5 16 6 17 7 14 8 11 9 12 10 93 11
REMARK SMILES IDX 13 12 15 13 9 14 8 15 10 17 7 18 6 19 1 20 2 21 3 22 94 23
REMARK SMILES IDX 4 25 5 26 23 27 24 28 25 29 26 30 27 31 28 32 29 33 30 34
REMARK SMILES IDX 31 35 92 36 32 37 91 38 33 39 34 40 35 41 85 42 36 43 90 44
REMARK SMILES IDX 84 45 86 46 37 47 89 48 83 49 82 50 38 52 70 53 50 54 69 55
REMARK SMILES IDX 51 56 54 57 68 58 87 59 52 60 53 61 67 63 88 64 55 65 39 66
REMARK SMILES IDX 40 67 48 68 41 69 43 70 49 71 42 72 44 73 45 74 46 75 47 76
REMARK SMILES IDX 71 77 72 78 80 79 73 80 75 81 81 82 74 83 76 84 77 85 78 86
REMARK SMILES IDX 79 87 56 88 57 89 65 90 58 91 60 92 66 93 59 94 61 95 62 96
REMARK SMILES IDX 63 97 64 98
REMARK H PARENT 8 16 2 24 86 51 54 62
REMARK Flexibility Score: inf
ROOT
ATOM      1  C   UNL A   1      33.688  28.998  25.373  1.00  0.00     0.188 C 
ENDROOT
BRANCH   1   2
ATOM      2  O   UNL A   1      34.177  28.160  24.333  1.00  0.00    -0.376 OA
BRANCH   2   3
ATOM      3  C   UNL A   1      33.854  28.544  22.996  1.00  0.00     0.202 C 
BRANCH   3   4
ATOM      4  C   UNL A   1      33.246  27.453  22.100  1.00  0.00     0.261 C 
BRANCH   4   5
ATOM      5  O   UNL A   1      32.419  26.506  22.816  1.00  0.00    -0.463 OA
BRANCH   5   6
ATOM      6  C   UNL A   1      31.102  26.831  22.917  1.00  0.00     0.313 C 
ATOM      7  O   UNL A   1      30.543  27.638  22.179  1.00  0.00    -0.252 OA
BRANCH   6   8
ATOM      8  C   UNL A   1      30.337  26.070  24.005  1.00  0.00     0.084 C 
ATOM      9  N   UNL A   1      31.185  24.270  25.341  1.00  0.00    -0.324 N 
ATOM     10  C   UNL A   1      31.820  25.482  25.811  1.00  0.00     0.122 C 
ATOM     11  C   UNL A   1      30.530  24.533  24.063  1.00  0.00     0.139 C 
ATOM     12  C   UNL A   1      30.862  26.568  25.372  1.00  0.00     0.042 C 
ATOM     13  C   UNL A   1      28.844  26.418  23.873  1.00  0.00     0.026 C 
BRANCH   9  14
ATOM     14  C   UNL A   1      31.009  23.232  26.203  1.00  0.00     0.317 C 
ATOM     15  N   UNL A   1      31.250  21.960  25.845  1.00  0.00    -0.335 N 
ATOM     16  H   UNL A   1      30.698  21.308  26.336  1.00  0.00     0.165 HD
ATOM     17  O   UNL A   1      30.596  23.407  27.353  1.00  0.00    -0.249 OA
BRANCH  15  18
ATOM     18  C   UNL A   1      32.154  21.338  24.887  1.00  0.00     0.155 C 
BRANCH  18  19
ATOM     19  C   UNL A   1      33.637  21.728  25.118  1.00  0.00     0.192 C 
ATOM     20  C   UNL A   1      35.786  24.058  25.290  1.00  0.00     0.332 C 
ATOM     21  N   UNL A   1      35.542  23.149  24.176  1.00  0.00    -0.333 N 
ATOM     22  C   UNL A   1      36.358  21.922  24.263  1.00  0.00     0.290 C 
ATOM     23  C   UNL A   1      34.109  22.776  24.076  1.00  0.00     0.296 C 
ATOM     24  H   UNL A   1      35.814  23.660  23.336  1.00  0.00     0.348 HD
ATOM     25  C   UNL A   1      35.847  20.904  25.293  1.00  0.00     0.222 C 
ATOM     26  O   UNL A   1      34.484  20.561  25.030  1.00  0.00    -0.365 OA
ENDBRANCH  18  19
ENDBRANCH  15  18
ENDBRANCH   9  14
ENDBRANCH   6   8
ENDBRANCH   5   6
ENDBRANCH   4   5
ENDBRANCH   3   4
ENDBRANCH   2   3
ENDBRANCH   1   2
BRANCH   1  27
ATOM     27  C   UNL A   1      32.334  29.663  25.107  1.00  0.00     0.188 C 
BRANCH  27  28
ATOM     28  O   UNL A   1      31.810  30.403  26.202  1.00  0.00    -0.376 OA
BRANCH  28  29
ATOM     29  C   UNL A   1      32.741  31.138  26.998  1.00  0.00     0.202 C 
BRANCH  29  30
ATOM     30  C   UNL A   1      32.572  32.669  27.032  1.00  0.00     0.261 C 
BRANCH  30  31
ATOM     31  O   UNL A   1      32.918  33.302  28.282  1.00  0.00    -0.460 OA
BRANCH  31  32
ATOM     32  C   UNL A   1      34.020  34.087  28.319  1.00  0.00     0.338 C 
ATOM     33  O   UNL A   1      34.042  35.305  28.256  1.00  0.00    -0.246 OA
BRANCH  32  34
ATOM     34  C   UNL A   1      35.180  33.258  28.738  1.00  0.00     0.060 A 
ATOM     35  C   UNL A   1      34.919  32.054  29.408  1.00  0.00     0.016 A 
ATOM     36  C   UNL A   1      36.496  33.601  28.410  1.00  0.00     0.016 A 
ATOM     37  C   UNL A   1      35.969  31.215  29.787  1.00  0.00     0.010 A 
ATOM     38  C   UNL A   1      37.548  32.762  28.795  1.00  0.00     0.010 A 
ATOM     39  C   UNL A   1      37.293  31.583  29.516  1.00  0.00    -0.014 A 
BRANCH  39  40
ATOM     40  C   UNL A   1      38.412  30.841  30.148  1.00  0.00     0.031 A 
ATOM     41  C   UNL A   1      38.793  31.192  31.561  1.00  0.00     0.074 A 
ATOM     42  C   UNL A   1      39.087  29.876  29.495  1.00  0.00     0.049 A 
ATOM     43  N   UNL A   1      39.741  30.697  32.312  1.00  0.00    -0.248 NA
ATOM     44  C   UNL A   1      37.996  32.247  32.212  1.00  0.00     0.031 C 
ATOM     45  C   UNL A   1      38.825  29.434  28.128  1.00  0.00     0.029 A 
ATOM     46  N   UNL A   1      40.154  29.111  29.899  1.00  0.00    -0.354 N 
ATOM     47  C   UNL A   1      39.673  31.394  33.512  1.00  0.00     0.074 A 
ATOM     48  C   UNL A   1      38.600  32.356  33.384  1.00  0.00     0.031 C 
ATOM     49  C   UNL A   1      39.728  28.493  27.796  1.00  0.00     0.029 A 
ATOM     50  C   UNL A   1      40.642  28.281  28.918  1.00  0.00     0.049 A 
ATOM     51  H   UNL A   1      40.533  29.152  30.807  1.00  0.00     0.167 HD
ATOM     52  C   UNL A   1      40.421  31.240  34.630  1.00  0.00     0.034 A 
ATOM     53  C   UNL A   1      41.715  27.463  28.918  1.00  0.00     0.034 A 
ATOM     54  C   UNL A   1      41.478  30.278  34.773  1.00  0.00     0.049 A 
ATOM     55  C   UNL A   1      42.557  27.334  30.164  1.00  0.00     0.074 A 
ATOM     56  C   UNL A   1      42.256  30.017  35.887  1.00  0.00     0.029 A 
ATOM     57  N   UNL A   1      41.923  29.434  33.769  1.00  0.00    -0.354 N 
ATOM     58  N   UNL A   1      42.397  27.903  31.335  1.00  0.00    -0.248 NA
ATOM     59  C   UNL A   1      43.711  26.424  30.098  1.00  0.00     0.031 C 
ATOM     60  C   UNL A   1      43.193  29.036  35.547  1.00  0.00     0.029 A 
ATOM     61  C   UNL A   1      42.977  28.663  34.230  1.00  0.00     0.049 A 
ATOM     62  H   UNL A   1      41.545  29.388  32.860  1.00  0.00     0.167 HD
ATOM     63  C   UNL A   1      43.406  27.396  32.149  1.00  0.00     0.074 A 
ATOM     64  C   UNL A   1      44.159  26.457  31.345  1.00  0.00     0.031 C 
ATOM     65  C   UNL A   1      43.691  27.692  33.442  1.00  0.00     0.034 A 
BRANCH  52  66
ATOM     66  C   UNL A   1      40.102  32.126  35.802  1.00  0.00     0.023 A 
ATOM     67  C   UNL A   1      40.846  33.306  36.009  1.00  0.00     0.012 A 
ATOM     68  C   UNL A   1      39.042  31.814  36.675  1.00  0.00     0.148 A 
ATOM     69  C   UNL A   1      40.559  34.145  37.084  1.00  0.00     0.002 A 
ATOM     70  C   UNL A   1      38.734  32.677  37.718  1.00  0.00     0.091 A 
ATOM     71  F   UNL A   1      38.367  30.672  36.476  1.00  0.00    -0.205 F 
ATOM     72  C   UNL A   1      39.498  33.837  37.931  1.00  0.00     0.022 A 
BRANCH  70  73
ATOM     73  S   UNL A   1      37.340  32.405  38.816  1.00  0.00     0.127 S 
ATOM     74  O   UNL A   1      37.652  33.315  39.919  1.00  0.00    -0.237 OA
ATOM     75  O   UNL A   1      36.209  32.819  37.987  1.00  0.00    -0.237 OA
ATOM     76  O   UNL A   1      37.362  30.988  39.149  1.00  0.00    -0.744 OA
ENDBRANCH  70  73
ENDBRANCH  52  66
BRANCH  53  77
ATOM     77  C   UNL A   1      42.051  26.672  27.699  1.00  0.00     0.023 A 
ATOM     78  C   UNL A   1      42.649  27.312  26.596  1.00  0.00     0.012 A 
ATOM     79  C   UNL A   1      41.778  25.293  27.627  1.00  0.00     0.148 A 
ATOM     80  C   UNL A   1      42.941  26.598  25.433  1.00  0.00     0.002 A 
ATOM     81  C   UNL A   1      42.122  24.577  26.487  1.00  0.00     0.091 A 
ATOM     82  F   UNL A   1      41.189  24.708  28.680  1.00  0.00    -0.205 F 
ATOM     83  C   UNL A   1      42.687  25.230  25.382  1.00  0.00     0.022 A 
BRANCH  81  84
ATOM     84  S   UNL A   1      41.941  22.793  26.377  1.00  0.00     0.127 S 
ATOM     85  O   UNL A   1      42.687  22.344  27.550  1.00  0.00    -0.237 OA
ATOM     86  O   UNL A   1      40.490  22.633  26.471  1.00  0.00    -0.237 OA
ATOM     87  O   UNL A   1      42.506  22.418  25.088  1.00  0.00    -0.744 OA
ENDBRANCH  81  84
ENDBRANCH  53  77
BRANCH  65  88
ATOM     88  C   UNL A   1      44.847  26.976  34.096  1.00  0.00     0.023 A 
ATOM     89  C   UNL A   1      46.107  27.603  34.173  1.00  0.00     0.012 A 
ATOM     90  C   UNL A   1      44.664  25.720  34.709  1.00  0.00     0.148 A 
ATOM     91  C   UNL A   1      47.173  26.978  34.821  1.00  0.00     0.002 A 
ATOM     92  C   UNL A   1      45.717  25.125  35.395  1.00  0.00     0.091 A 
ATOM     93  F   UNL A   1      43.463  25.131  34.614  1.00  0.00    -0.205 F 
ATOM     94  C   UNL A   1      46.975  25.747  35.442  1.00  0.00     0.022 A 
BRANCH  92  95
ATOM     95  S   UNL A   1      45.529  23.587  36.307  1.00  0.00     0.127 S 
ATOM     96  O   UNL A   1      44.275  23.070  35.762  1.00  0.00    -0.237 OA
ATOM     97  O   UNL A   1      46.722  22.840  35.906  1.00  0.00    -0.237 OA
ATOM     98  O   UNL A   1      45.493  23.958  37.715  1.00  0.00    -0.744 OA
ENDBRANCH  92  95
ENDBRANCH  65  88
ENDBRANCH  39  40
ENDBRANCH  32  34
ENDBRANCH  31  32
ENDBRANCH  30  31
ENDBRANCH  29  30
ENDBRANCH  28  29
ENDBRANCH  27  28
ENDBRANCH   1  27
TORSDOF 23
ENDMDL
MODEL 3
REMARK VINA RESULT:     -10.0      5.766     11.154
REMARK SMILES C[N@H+]1CCO[C@H](CNC(=O)N2CC[C@@](C)(C(=O)OCCOCCOCCOC(=O)c3ccc(-c4c5nc(c(-c6cccc(S(=O)(=O)[O-])c6F)c6ccc([nH]6)c(-c6cccc(S(=O)(=O)[O-])c6F)c6nc(c(-c7cccc(S(=O)(=O)[O-])c7F)c7ccc4[nH]7)C=C6)C=C5)cc3)C2)C1
REMARK SMILES IDX 22 1 21 2 20 3 19 4 18 5 16 6 17 7 14 8 11 9 12 10 93 11
REMARK SMILES IDX 13 12 15 13 9 14 8 15 10 17 7 18 6 19 1 20 2 21 3 22 94 23
REMARK SMILES IDX 4 25 5 26 23 27 24 28 25 29 26 30 27 31 28 32 29 33 30 34
REMARK SMILES IDX 31 35 92 36 32 37 91 38 33 39 34 40 35 41 85 42 36 43 90 44
REMARK SMILES IDX 84 45 86 46 37 47 89 48 83 49 82 50 38 52 70 53 50 54 69 55
REMARK SMILES IDX 51 56 54 57 68 58 87 59 52 60 53 61 67 63 88 64 55 65 39 66
REMARK SMILES IDX 40 67 48 68 41 69 43 70 49 71 42 72 44 73 45 74 46 75 47 76
REMARK SMILES IDX 71 77 72 78 80 79 73 80 75 81 81 82 74 83 76 84 77 85 78 86
REMARK SMILES IDX 79 87 56 88 57 89 65 90 58 91 60 92 66 93 59 94 61 95 62 96
REMARK SMILES IDX 63 97 64 98
REMARK H PARENT 8 16 2 24 86 51 54 62
REMARK Flexibility Score: inf
ROOT
ATOM      1  C   UNL A   1      38.899  23.695  26.409  1.00  0.00     0.188 C 
ENDROOT
BRANCH   1   2
ATOM      2  O   UNL A   1      37.499  23.473  26.296  1.00  0.00    -0.376 OA
BRANCH   2   3
ATOM      3  C   UNL A   1      36.927  23.642  24.999  1.00  0.00     0.202 C 
BRANCH   3   4
ATOM      4  C   UNL A   1      36.606  22.356  24.219  1.00  0.00     0.261 C 
BRANCH   4   5
ATOM      5  O   UNL A   1      35.273  22.335  23.656  1.00  0.00    -0.463 OA
BRANCH   5   6
ATOM      6  C   UNL A   1      34.276  21.995  24.517  1.00  0.00     0.313 C 
ATOM      7  O   UNL A   1      34.287  20.975  25.200  1.00  0.00    -0.252 OA
BRANCH   6   8
ATOM      8  C   UNL A   1      33.138  23.016  24.612  1.00  0.00     0.084 C 
ATOM      9  N   UNL A   1      31.449  23.107  26.311  1.00  0.00    -0.324 N 
ATOM     10  C   UNL A   1      32.685  23.548  26.918  1.00  0.00     0.122 C 
ATOM     11  C   UNL A   1      31.741  22.485  25.022  1.00  0.00     0.139 C 
ATOM     12  C   UNL A   1      33.506  24.014  25.735  1.00  0.00     0.042 C 
ATOM     13  C   UNL A   1      33.054  23.765  23.270  1.00  0.00     0.026 C 
BRANCH   9  14
ATOM     14  C   UNL A   1      30.264  23.563  26.799  1.00  0.00     0.317 C 
ATOM     15  N   UNL A   1      29.813  24.801  26.535  1.00  0.00    -0.335 N 
ATOM     16  H   UNL A   1      29.237  25.163  27.247  1.00  0.00     0.165 HD
ATOM     17  O   UNL A   1      29.554  22.868  27.531  1.00  0.00    -0.249 OA
BRANCH  15  18
ATOM     18  C   UNL A   1      29.995  25.721  25.421  1.00  0.00     0.155 C 
BRANCH  18  19
ATOM     19  C   UNL A   1      30.849  26.959  25.795  1.00  0.00     0.192 C 
ATOM     20  C   UNL A   1      32.578  29.415  24.768  1.00  0.00     0.332 C 
ATOM     21  N   UNL A   1      33.059  28.140  25.288  1.00  0.00    -0.333 N 
ATOM     22  C   UNL A   1      33.257  28.168  26.750  1.00  0.00     0.290 C 
ATOM     23  C   UNL A   1      32.143  27.026  24.940  1.00  0.00     0.296 C 
ATOM     24  H   UNL A   1      33.963  27.981  24.842  1.00  0.00     0.348 HD
ATOM     25  C   UNL A   1      31.955  28.083  27.558  1.00  0.00     0.222 C 
ATOM     26  O   UNL A   1      31.209  26.918  27.194  1.00  0.00    -0.365 OA
ENDBRANCH  18  19
ENDBRANCH  15  18
ENDBRANCH   9  14
ENDBRANCH   6   8
ENDBRANCH   5   6
ENDBRANCH   4   5
ENDBRANCH   3   4
ENDBRANCH   2   3
ENDBRANCH   1   2
BRANCH   1  27
ATOM     27  C   UNL A   1      39.759  22.438  26.568  1.00  0.00     0.188 C 
BRANCH  27  28
ATOM     28  O   UNL A   1      39.260  21.287  25.897  1.00  0.00    -0.376 OA
BRANCH  28  29
ATOM     29  C   UNL A   1      40.015  20.081  26.023  1.00  0.00     0.202 C 
BRANCH  29  30
ATOM     30  C   UNL A   1      40.992  19.991  27.209  1.00  0.00     0.261 C 
BRANCH  30  31
ATOM     31  O   UNL A   1      42.280  19.415  26.908  1.00  0.00    -0.460 OA
BRANCH  31  32
ATOM     32  C   UNL A   1      42.959  19.886  25.837  1.00  0.00     0.338 C 
ATOM     33  O   UNL A   1      43.042  19.354  24.742  1.00  0.00    -0.246 OA
BRANCH  32  34
ATOM     34  C   UNL A   1      43.352  21.294  26.105  1.00  0.00     0.060 A 
ATOM     35  C   UNL A   1      43.627  21.657  27.431  1.00  0.00     0.016 A 
ATOM     36  C   UNL A   1      43.534  22.224  25.076  1.00  0.00     0.016 A 
ATOM     37  C   UNL A   1      44.043  22.955  27.736  1.00  0.00     0.010 A 
ATOM     38  C   UNL A   1      43.946  23.526  25.383  1.00  0.00     0.010 A 
ATOM     39  C   UNL A   1      44.168  23.909  26.717  1.00  0.00    -0.014 A 
BRANCH  39  40
ATOM     40  C   UNL A   1      44.342  25.342  27.061  1.00  0.00     0.031 A 
ATOM     41  C   UNL A   1      45.722  25.936  26.963  1.00  0.00     0.074 A 
ATOM     42  C   UNL A   1      43.310  26.111  27.455  1.00  0.00     0.049 A 
ATOM     43  N   UNL A   1      46.122  27.152  27.226  1.00  0.00    -0.248 NA
ATOM     44  C   UNL A   1      46.794  25.033  26.510  1.00  0.00     0.031 C 
ATOM     45  C   UNL A   1      41.925  25.668  27.592  1.00  0.00     0.029 A 
ATOM     46  N   UNL A   1      43.283  27.431  27.835  1.00  0.00    -0.354 N 
ATOM     47  C   UNL A   1      47.492  27.156  26.995  1.00  0.00     0.074 A 
ATOM     48  C   UNL A   1      47.857  25.818  26.585  1.00  0.00     0.031 C 
ATOM     49  C   UNL A   1      41.186  26.693  28.054  1.00  0.00     0.029 A 
ATOM     50  C   UNL A   1      42.048  27.856  28.264  1.00  0.00     0.049 A 
ATOM     51  H   UNL A   1      44.073  28.017  27.803  1.00  0.00     0.167 HD
ATOM     52  C   UNL A   1      48.369  28.181  27.097  1.00  0.00     0.034 A 
ATOM     53  C   UNL A   1      41.663  29.039  28.787  1.00  0.00     0.034 A 
ATOM     54  C   UNL A   1      48.015  29.517  27.489  1.00  0.00     0.049 A 
ATOM     55  C   UNL A   1      42.667  30.158  28.924  1.00  0.00     0.074 A 
ATOM     56  C   UNL A   1      48.830  30.633  27.570  1.00  0.00     0.029 A 
ATOM     57  N   UNL A   1      46.750  29.918  27.885  1.00  0.00    -0.354 N 
ATOM     58  N   UNL A   1      43.931  30.184  28.576  1.00  0.00    -0.248 NA
ATOM     59  C   UNL A   1      42.182  31.422  29.500  1.00  0.00     0.031 C 
ATOM     60  C   UNL A   1      48.063  31.701  28.046  1.00  0.00     0.029 A 
ATOM     61  C   UNL A   1      46.763  31.258  28.231  1.00  0.00     0.049 A 
ATOM     62  H   UNL A   1      45.956  29.334  27.917  1.00  0.00     0.167 HD
ATOM     63  C   UNL A   1      44.380  31.472  28.859  1.00  0.00     0.074 A 
ATOM     64  C   UNL A   1      43.248  32.202  29.387  1.00  0.00     0.031 C 
ATOM     65  C   UNL A   1      45.622  31.996  28.707  1.00  0.00     0.034 A 
BRANCH  52  66
ATOM     66  C   UNL A   1      49.806  27.898  26.754  1.00  0.00     0.023 A 
ATOM     67  C   UNL A   1      50.690  27.458  27.760  1.00  0.00     0.012 A 
ATOM     68  C   UNL A   1      50.271  28.028  25.431  1.00  0.00     0.148 A 
ATOM     69  C   UNL A   1      52.024  27.181  27.460  1.00  0.00     0.002 A 
ATOM     70  C   UNL A   1      51.588  27.708  25.132  1.00  0.00     0.091 A 
ATOM     71  F   UNL A   1      49.420  28.476  24.496  1.00  0.00    -0.205 F 
ATOM     72  C   UNL A   1      52.468  27.295  26.146  1.00  0.00     0.022 A 
BRANCH  70  73
ATOM     73  S   UNL A   1      52.236  27.752  23.457  1.00  0.00     0.127 S 
ATOM     74  O   UNL A   1      51.326  26.838  22.767  1.00  0.00    -0.237 OA
ATOM     75  O   UNL A   1      52.071  29.161  23.100  1.00  0.00    -0.237 OA
ATOM     76  O   UNL A   1      53.619  27.307  23.551  1.00  0.00    -0.744 OA
ENDBRANCH  70  73
ENDBRANCH  52  66
BRANCH  53  77
ATOM     77  C   UNL A   1      40.246  29.246  29.203  1.00  0.00     0.023 A 
ATOM     78  C   UNL A   1      39.277  29.577  28.237  1.00  0.00     0.012 A 
ATOM     79  C   UNL A   1      39.857  29.119  30.551  1.00  0.00     0.148 A 
ATOM     80  C   UNL A   1      37.952  29.808  28.609  1.00  0.00     0.002 A 
ATOM     81  C   UNL A   1      38.525  29.296  30.906  1.00  0.00     0.091 A 
ATOM     82  F   UNL A   1      40.800  28.825  31.458  1.00  0.00    -0.205 F 
ATOM     83  C   UNL A   1      37.574  29.657  29.941  1.00  0.00     0.022 A 
BRANCH  81  84
ATOM     84  S   UNL A   1      37.927  29.008  32.575  1.00  0.00     0.127 S 
ATOM     85  O   UNL A   1      38.789  29.890  33.359  1.00  0.00    -0.237 OA
ATOM     86  O   UNL A   1      36.533  29.442  32.473  1.00  0.00    -0.237 OA
ATOM     87  O   UNL A   1      38.097  27.582  32.815  1.00  0.00    -0.744 OA
ENDBRANCH  81  84
ENDBRANCH  53  77
BRANCH  65  88
ATOM     88  C   UNL A   1      45.833  33.443  29.083  1.00  0.00     0.023 A 
ATOM     89  C   UNL A   1      46.450  33.766  30.308  1.00  0.00     0.012 A 
ATOM     90  C   UNL A   1      45.498  34.477  28.186  1.00  0.00     0.148 A 
ATOM     91  C   UNL A   1      46.700  35.096  30.648  1.00  0.00     0.002 A 
ATOM     92  C   UNL A   1      45.794  35.796  28.510  1.00  0.00     0.091 A 
ATOM     93  F   UNL A   1      44.898  34.153  27.031  1.00  0.00    -0.205 F 
ATOM     94  C   UNL A   1      46.384  36.108  29.745  1.00  0.00     0.022 A 
BRANCH  92  95
ATOM     95  S   UNL A   1      45.513  37.157  27.370  1.00  0.00     0.127 S 
ATOM     96  O   UNL A   1      45.767  38.317  28.223  1.00  0.00    -0.237 OA
ATOM     97  O   UNL A   1      46.530  36.920  26.345  1.00  0.00    -0.237 OA
ATOM     98  O   UNL A   1      44.140  37.012  26.904  1.00  0.00    -0.744 OA
ENDBRANCH  92  95
ENDBRANCH  65  88
ENDBRANCH  39  40
ENDBRANCH  32  34
ENDBRANCH  31  32
ENDBRANCH  30  31
ENDBRANCH  29  30
ENDBRANCH  28  29
ENDBRANCH  27  28
ENDBRANCH   1  27
TORSDOF 23
ENDMDL
