MODEL 1
REMARK VINA RESULT:     -11.2      0.000      0.000
REMARK SMILES Cc1cc(C)c2c(c1)C=C(C(=O)OCCOCCOCCOC(=O)c1ccc(-c3c4nc(c(-c5cccc(S(=O)(=O)[O-])c5F)c5ccc([nH]5)c(-c5cccc(S(=O)(=O)[O-])c5F)c5nc(c(-c6cccc(S(=O)(=O)[O-])c6F)c6ccc3[nH]6)C=C5)C=C4)cc1)[C@@H](C(F)(F)F)O2
REMARK SMILES IDX 18 1 17 2 16 3 15 4 14 5 13 6 11 7 12 8 10 9 1 10 2 11 3 12
REMARK SMILES IDX 8 13 4 14 7 15 5 16 6 17 9 18 93 19 88 20 89 21 90 22 91 23
REMARK SMILES IDX 92 24 19 25 20 26 21 27 22 28 23 29 24 30 25 31 26 32 87 33
REMARK SMILES IDX 27 34 86 35 28 36 29 37 30 38 80 39 31 40 85 41 79 42 81 43
REMARK SMILES IDX 32 44 84 45 78 46 77 47 33 49 65 50 45 51 64 52 46 53 49 54
REMARK SMILES IDX 63 55 82 56 47 57 48 58 62 60 83 61 50 62 34 63 35 64 43 65
REMARK SMILES IDX 36 66 38 67 44 68 37 69 39 70 40 71 41 72 42 73 66 74 67 75
REMARK SMILES IDX 75 76 68 77 70 78 76 79 69 80 71 81 72 82 73 83 74 84 51 85
REMARK SMILES IDX 52 86 60 87 53 88 55 89 61 90 54 91 56 92 57 93 58 94 59 95
REMARK H PARENT 81 48 49 59
REMARK Flexibility Score: inf
ROOT
ATOM      1  C   UNL A   1      36.433  21.861  24.977  1.00  0.00     0.188 C 
ENDROOT
BRANCH   1   2
ATOM      2  C   UNL A   1      35.434  21.456  26.083  1.00  0.00     0.188 C 
BRANCH   2   3
ATOM      3  O   UNL A   1      34.101  21.397  25.630  1.00  0.00    -0.376 OA
BRANCH   3   4
ATOM      4  C   UNL A   1      33.779  21.709  24.290  1.00  0.00     0.202 C 
BRANCH   4   5
ATOM      5  C   UNL A   1      32.341  21.849  23.758  1.00  0.00     0.261 C 
BRANCH   5   6
ATOM      6  O   UNL A   1      31.760  23.154  23.767  1.00  0.00    -0.460 OA
BRANCH   6   7
ATOM      7  C   UNL A   1      31.217  23.565  24.936  1.00  0.00     0.338 C 
ATOM      8  O   UNL A   1      30.906  22.863  25.884  1.00  0.00    -0.246 OA
BRANCH   7   9
ATOM      9  C   UNL A   1      31.133  25.039  24.931  1.00  0.00     0.087 C 
ATOM     10  C   UNL A   1      28.350  29.743  22.083  1.00  0.00     0.044 C 
ATOM     11  C   UNL A   1      29.301  29.072  23.030  1.00  0.00    -0.050 A 
ATOM     12  C   UNL A   1      30.179  29.831  23.813  1.00  0.00     0.010 A 
ATOM     13  C   UNL A   1      29.299  27.678  23.165  1.00  0.00     0.015 A 
ATOM     14  C   UNL A   1      31.062  29.212  24.712  1.00  0.00    -0.008 A 
ATOM     15  C   UNL A   1      30.183  27.046  24.046  1.00  0.00     0.018 A 
ATOM     16  C   UNL A   1      32.017  30.047  25.517  1.00  0.00     0.048 C 
ATOM     17  C   UNL A   1      31.045  27.814  24.835  1.00  0.00     0.130 A 
ATOM     18  C   UNL A   1      30.246  25.594  24.098  1.00  0.00     0.027 C 
ATOM     19  O   UNL A   1      31.906  27.270  25.749  1.00  0.00    -0.475 OA
ATOM     20  C   UNL A   1      32.020  25.827  25.856  1.00  0.00     0.316 C 
BRANCH  20  21
ATOM     21  C   UNL A   1      33.503  25.459  25.708  1.00  0.00     0.430 C 
ATOM     22  F   UNL A   1      33.811  24.355  26.434  1.00  0.00    -0.167 F 
ATOM     23  F   UNL A   1      33.829  25.173  24.424  1.00  0.00    -0.167 F 
ATOM     24  F   UNL A   1      34.322  26.453  26.121  1.00  0.00    -0.167 F 
ENDBRANCH  20  21
ENDBRANCH   7   9
ENDBRANCH   6   7
ENDBRANCH   5   6
ENDBRANCH   4   5
ENDBRANCH   3   4
ENDBRANCH   2   3
ENDBRANCH   1   2
BRANCH   1  25
ATOM     25  O   UNL A   1      37.763  21.354  25.001  1.00  0.00    -0.376 OA
BRANCH  25  26
ATOM     26  C   UNL A   1      37.964  19.944  25.030  1.00  0.00     0.202 C 
BRANCH  26  27
ATOM     27  C   UNL A   1      39.326  19.379  25.459  1.00  0.00     0.261 C 
BRANCH  27  28
ATOM     28  O   UNL A   1      39.849  19.927  26.679  1.00  0.00    -0.460 OA
BRANCH  28  29
ATOM     29  C   UNL A   1      41.143  20.332  26.628  1.00  0.00     0.338 C 
ATOM     30  O   UNL A   1      42.085  19.732  26.139  1.00  0.00    -0.246 OA
BRANCH  29  31
ATOM     31  C   UNL A   1      41.237  21.732  27.088  1.00  0.00     0.060 A 
ATOM     32  C   UNL A   1      40.742  22.738  26.246  1.00  0.00     0.016 A 
ATOM     33  C   UNL A   1      41.844  22.056  28.301  1.00  0.00     0.016 A 
ATOM     34  C   UNL A   1      40.868  24.078  26.609  1.00  0.00     0.010 A 
ATOM     35  C   UNL A   1      41.997  23.402  28.650  1.00  0.00     0.010 A 
ATOM     36  C   UNL A   1      41.535  24.416  27.792  1.00  0.00    -0.014 A 
BRANCH  36  37
ATOM     37  C   UNL A   1      41.915  25.827  28.035  1.00  0.00     0.031 A 
ATOM     38  C   UNL A   1      43.304  26.268  27.667  1.00  0.00     0.074 A 
ATOM     39  C   UNL A   1      41.041  26.703  28.563  1.00  0.00     0.049 A 
ATOM     40  N   UNL A   1      43.861  27.443  27.800  1.00  0.00    -0.248 NA
ATOM     41  C   UNL A   1      44.183  25.248  27.069  1.00  0.00     0.031 C 
ATOM     42  C   UNL A   1      39.664  26.399  28.941  1.00  0.00     0.029 A 
ATOM     43  N   UNL A   1      41.198  28.028  28.889  1.00  0.00    -0.354 N 
ATOM     44  C   UNL A   1      45.154  27.304  27.312  1.00  0.00     0.074 A 
ATOM     45  C   UNL A   1      45.307  25.928  26.897  1.00  0.00     0.031 C 
ATOM     46  C   UNL A   1      39.105  27.502  29.473  1.00  0.00     0.029 A 
ATOM     47  C   UNL A   1      40.092  28.581  29.491  1.00  0.00     0.049 A 
ATOM     48  H   UNL A   1      42.023  28.533  28.709  1.00  0.00     0.167 HD
ATOM     49  C   UNL A   1      46.122  28.243  27.201  1.00  0.00     0.034 A 
ATOM     50  C   UNL A   1      39.907  29.813  30.009  1.00  0.00     0.034 A 
ATOM     51  C   UNL A   1      45.969  29.611  27.610  1.00  0.00     0.049 A 
ATOM     52  C   UNL A   1      41.022  30.825  29.927  1.00  0.00     0.074 A 
ATOM     53  C   UNL A   1      46.886  30.642  27.514  1.00  0.00     0.029 A 
ATOM     54  N   UNL A   1      44.832  30.138  28.202  1.00  0.00    -0.354 N 
ATOM     55  N   UNL A   1      42.201  30.711  29.361  1.00  0.00    -0.248 NA
ATOM     56  C   UNL A   1      40.774  32.144  30.530  1.00  0.00     0.031 C 
ATOM     57  C   UNL A   1      46.311  31.788  28.071  1.00  0.00     0.029 A 
ATOM     58  C   UNL A   1      45.028  31.477  28.491  1.00  0.00     0.049 A 
ATOM     59  H   UNL A   1      44.007  29.634  28.391  1.00  0.00     0.167 HD
ATOM     60  C   UNL A   1      42.821  31.949  29.514  1.00  0.00     0.074 A 
ATOM     61  C   UNL A   1      41.880  32.804  30.205  1.00  0.00     0.031 C 
ATOM     62  C   UNL A   1      44.063  32.335  29.131  1.00  0.00     0.034 A 
BRANCH  49  63
ATOM     63  C   UNL A   1      47.427  27.832  26.574  1.00  0.00     0.023 A 
ATOM     64  C   UNL A   1      48.478  27.384  27.400  1.00  0.00     0.012 A 
ATOM     65  C   UNL A   1      47.587  27.813  25.175  1.00  0.00     0.148 A 
ATOM     66  C   UNL A   1      49.677  26.941  26.843  1.00  0.00     0.002 A 
ATOM     67  C   UNL A   1      48.769  27.331  24.626  1.00  0.00     0.091 A 
ATOM     68  F   UNL A   1      46.583  28.266  24.411  1.00  0.00    -0.205 F 
ATOM     69  C   UNL A   1      49.817  26.903  25.459  1.00  0.00     0.022 A 
BRANCH  67  70
ATOM     70  S   UNL A   1      49.021  27.167  22.857  1.00  0.00     0.127 S 
ATOM     71  O   UNL A   1      48.418  28.402  22.357  1.00  0.00    -0.237 OA
ATOM     72  O   UNL A   1      50.480  27.118  22.757  1.00  0.00    -0.237 OA
ATOM     73  O   UNL A   1      48.343  25.940  22.464  1.00  0.00    -0.744 OA
ENDBRANCH  67  70
ENDBRANCH  49  63
BRANCH  50  74
ATOM     74  C   UNL A   1      38.591  30.175  30.611  1.00  0.00     0.023 A 
ATOM     75  C   UNL A   1      38.313  29.802  31.940  1.00  0.00     0.012 A 
ATOM     76  C   UNL A   1      37.629  30.908  29.888  1.00  0.00     0.148 A 
ATOM     77  C   UNL A   1      37.094  30.134  32.533  1.00  0.00     0.002 A 
ATOM     78  C   UNL A   1      36.440  31.283  30.503  1.00  0.00     0.091 A 
ATOM     79  F   UNL A   1      37.903  31.236  28.618  1.00  0.00    -0.205 F 
ATOM     80  C   UNL A   1      36.164  30.884  31.820  1.00  0.00     0.022 A 
BRANCH  78  81
ATOM     81  S   UNL A   1      35.237  32.356  29.708  1.00  0.00     0.127 S 
ATOM     82  O   UNL A   1      34.303  32.619  30.800  1.00  0.00    -0.237 OA
ATOM     83  O   UNL A   1      36.064  33.496  29.315  1.00  0.00    -0.237 OA
ATOM     84  O   UNL A   1      34.701  31.588  28.592  1.00  0.00    -0.744 OA
ENDBRANCH  78  81
ENDBRANCH  50  74
BRANCH  62  85
ATOM     85  C   UNL A   1      44.495  33.748  29.429  1.00  0.00     0.023 A 
ATOM     86  C   UNL A   1      45.126  34.038  30.655  1.00  0.00     0.012 A 
ATOM     87  C   UNL A   1      44.395  34.757  28.448  1.00  0.00     0.148 A 
ATOM     88  C   UNL A   1      45.633  35.312  30.908  1.00  0.00     0.002 A 
ATOM     89  C   UNL A   1      44.948  36.010  28.688  1.00  0.00     0.091 A 
ATOM     90  F   UNL A   1      43.779  34.465  27.293  1.00  0.00    -0.205 F 
ATOM     91  C   UNL A   1      45.557  36.292  29.921  1.00  0.00     0.022 A 
BRANCH  89  92
ATOM     92  S   UNL A   1      44.994  37.300  27.438  1.00  0.00     0.127 S 
ATOM     93  O   UNL A   1      45.955  36.756  26.482  1.00  0.00    -0.237 OA
ATOM     94  O   UNL A   1      43.609  37.324  26.965  1.00  0.00    -0.237 OA
ATOM     95  O   UNL A   1      45.417  38.512  28.127  1.00  0.00    -0.744 OA
ENDBRANCH  89  92
ENDBRANCH  62  85
ENDBRANCH  36  37
ENDBRANCH  29  31
ENDBRANCH  28  29
ENDBRANCH  27  28
ENDBRANCH  26  27
ENDBRANCH  25  26
ENDBRANCH   1  25
TORSDOF 21
ENDMDL
MODEL 2
REMARK VINA RESULT:     -10.9      1.481      2.313
REMARK SMILES Cc1cc(C)c2c(c1)C=C(C(=O)OCCOCCOCCOC(=O)c1ccc(-c3c4nc(c(-c5cccc(S(=O)(=O)[O-])c5F)c5ccc([nH]5)c(-c5cccc(S(=O)(=O)[O-])c5F)c5nc(c(-c6cccc(S(=O)(=O)[O-])c6F)c6ccc3[nH]6)C=C5)C=C4)cc1)[C@@H](C(F)(F)F)O2
REMARK SMILES IDX 18 1 17 2 16 3 15 4 14 5 13 6 11 7 12 8 10 9 1 10 2 11 3 12
REMARK SMILES IDX 8 13 4 14 7 15 5 16 6 17 9 18 93 19 88 20 89 21 90 22 91 23
REMARK SMILES IDX 92 24 19 25 20 26 21 27 22 28 23 29 24 30 25 31 26 32 87 33
REMARK SMILES IDX 27 34 86 35 28 36 29 37 30 38 80 39 31 40 85 41 79 42 81 43
REMARK SMILES IDX 32 44 84 45 78 46 77 47 33 49 65 50 45 51 64 52 46 53 49 54
REMARK SMILES IDX 63 55 82 56 47 57 48 58 62 60 83 61 50 62 34 63 35 64 43 65
REMARK SMILES IDX 36 66 38 67 44 68 37 69 39 70 40 71 41 72 42 73 66 74 67 75
REMARK SMILES IDX 75 76 68 77 70 78 76 79 69 80 71 81 72 82 73 83 74 84 51 85
REMARK SMILES IDX 52 86 60 87 53 88 55 89 61 90 54 91 56 92 57 93 58 94 59 95
REMARK H PARENT 81 48 49 59
REMARK Flexibility Score: inf
ROOT
ATOM      1  C   UNL A   1      34.116  21.139  26.097  1.00  0.00     0.188 C 
ENDROOT
BRANCH   1   2
ATOM      2  C   UNL A   1      33.277  19.963  25.548  1.00  0.00     0.188 C 
BRANCH   2   3
ATOM      3  O   UNL A   1      31.979  20.346  25.156  1.00  0.00    -0.376 OA
BRANCH   3   4
ATOM      4  C   UNL A   1      31.520  21.666  25.370  1.00  0.00     0.202 C 
BRANCH   4   5
ATOM      5  C   UNL A   1      31.546  22.772  24.300  1.00  0.00     0.261 C 
BRANCH   5   6
ATOM      6  O   UNL A   1      32.297  23.953  24.591  1.00  0.00    -0.460 OA
BRANCH   6   7
ATOM      7  C   UNL A   1      32.414  24.856  23.591  1.00  0.00     0.338 C 
ATOM      8  O   UNL A   1      32.425  24.622  22.394  1.00  0.00    -0.246 OA
BRANCH   7   9
ATOM      9  C   UNL A   1      32.441  26.212  24.173  1.00  0.00     0.087 C 
ATOM     10  C   UNL A   1      35.632  29.776  28.060  1.00  0.00     0.044 C 
ATOM     11  C   UNL A   1      34.512  29.404  27.133  1.00  0.00    -0.050 A 
ATOM     12  C   UNL A   1      33.446  30.285  26.915  1.00  0.00     0.010 A 
ATOM     13  C   UNL A   1      34.535  28.182  26.449  1.00  0.00     0.015 A 
ATOM     14  C   UNL A   1      32.401  29.952  26.039  1.00  0.00    -0.008 A 
ATOM     15  C   UNL A   1      33.494  27.829  25.584  1.00  0.00     0.018 A 
ATOM     16  C   UNL A   1      31.253  30.901  25.848  1.00  0.00     0.048 C 
ATOM     17  C   UNL A   1      32.442  28.723  25.361  1.00  0.00     0.130 A 
ATOM     18  C   UNL A   1      33.476  26.514  24.964  1.00  0.00     0.027 C 
ATOM     19  O   UNL A   1      31.412  28.466  24.498  1.00  0.00    -0.475 OA
ATOM     20  C   UNL A   1      31.332  27.174  23.843  1.00  0.00     0.316 C 
BRANCH  20  21
ATOM     21  C   UNL A   1      29.940  26.589  24.123  1.00  0.00     0.430 C 
ATOM     22  F   UNL A   1      29.654  25.571  23.272  1.00  0.00    -0.167 F 
ATOM     23  F   UNL A   1      29.847  26.077  25.374  1.00  0.00    -0.167 F 
ATOM     24  F   UNL A   1      28.960  27.511  23.990  1.00  0.00    -0.167 F 
ENDBRANCH  20  21
ENDBRANCH   7   9
ENDBRANCH   6   7
ENDBRANCH   5   6
ENDBRANCH   4   5
ENDBRANCH   3   4
ENDBRANCH   2   3
ENDBRANCH   1   2
BRANCH   1  25
ATOM     25  O   UNL A   1      35.416  21.388  25.573  1.00  0.00    -0.376 OA
BRANCH  25  26
ATOM     26  C   UNL A   1      36.120  20.326  24.938  1.00  0.00     0.202 C 
BRANCH  26  27
ATOM     27  C   UNL A   1      37.656  20.331  24.929  1.00  0.00     0.261 C 
BRANCH  27  28
ATOM     28  O   UNL A   1      38.259  21.530  25.442  1.00  0.00    -0.460 OA
BRANCH  28  29
ATOM     29  C   UNL A   1      39.387  21.346  26.173  1.00  0.00     0.338 C 
ATOM     30  O   UNL A   1      40.088  20.350  26.211  1.00  0.00    -0.246 OA
BRANCH  29  31
ATOM     31  C   UNL A   1      39.780  22.625  26.798  1.00  0.00     0.060 A 
ATOM     32  C   UNL A   1      39.140  23.796  26.365  1.00  0.00     0.016 A 
ATOM     33  C   UNL A   1      40.791  22.682  27.757  1.00  0.00     0.016 A 
ATOM     34  C   UNL A   1      39.523  25.033  26.879  1.00  0.00     0.010 A 
ATOM     35  C   UNL A   1      41.195  23.927  28.249  1.00  0.00     0.010 A 
ATOM     36  C   UNL A   1      40.583  25.107  27.791  1.00  0.00    -0.014 A 
BRANCH  36  37
ATOM     37  C   UNL A   1      41.171  26.427  28.118  1.00  0.00     0.031 A 
ATOM     38  C   UNL A   1      42.600  26.689  27.733  1.00  0.00     0.074 A 
ATOM     39  C   UNL A   1      40.448  27.379  28.734  1.00  0.00     0.049 A 
ATOM     40  N   UNL A   1      43.326  27.758  27.927  1.00  0.00    -0.248 NA
ATOM     41  C   UNL A   1      43.305  25.599  27.036  1.00  0.00     0.031 C 
ATOM     42  C   UNL A   1      39.050  27.249  29.138  1.00  0.00     0.029 A 
ATOM     43  N   UNL A   1      40.804  28.639  29.146  1.00  0.00    -0.354 N 
ATOM     44  C   UNL A   1      44.573  27.470  27.387  1.00  0.00     0.074 A 
ATOM     45  C   UNL A   1      44.513  26.120  26.872  1.00  0.00     0.031 C 
ATOM     46  C   UNL A   1      38.672  28.380  29.763  1.00  0.00     0.029 A 
ATOM     47  C   UNL A   1      39.806  29.301  29.821  1.00  0.00     0.049 A 
ATOM     48  H   UNL A   1      41.690  29.032  28.973  1.00  0.00     0.167 HD
ATOM     49  C   UNL A   1      45.665  28.265  27.307  1.00  0.00     0.034 A 
ATOM     50  C   UNL A   1      39.816  30.505  30.430  1.00  0.00     0.034 A 
ATOM     51  C   UNL A   1      45.723  29.607  27.815  1.00  0.00     0.049 A 
ATOM     52  C   UNL A   1      41.065  31.349  30.379  1.00  0.00     0.074 A 
ATOM     53  C   UNL A   1      46.778  30.499  27.759  1.00  0.00     0.029 A 
ATOM     54  N   UNL A   1      44.690  30.248  28.481  1.00  0.00    -0.354 N 
ATOM     55  N   UNL A   1      42.200  31.108  29.767  1.00  0.00    -0.248 NA
ATOM     56  C   UNL A   1      41.027  32.642  31.080  1.00  0.00     0.031 C 
ATOM     57  C   UNL A   1      46.392  31.672  28.413  1.00  0.00     0.029 A 
ATOM     58  C   UNL A   1      45.087  31.519  28.855  1.00  0.00     0.049 A 
ATOM     59  H   UNL A   1      43.806  29.855  28.663  1.00  0.00     0.167 HD
ATOM     60  C   UNL A   1      42.998  32.229  29.983  1.00  0.00     0.074 A 
ATOM     61  C   UNL A   1      42.209  33.158  30.764  1.00  0.00     0.031 C 
ATOM     62  C   UNL A   1      44.274  32.459  29.585  1.00  0.00     0.034 A 
BRANCH  49  63
ATOM     63  C   UNL A   1      46.880  27.717  26.609  1.00  0.00     0.023 A 
ATOM     64  C   UNL A   1      47.788  26.917  27.331  1.00  0.00     0.012 A 
ATOM     65  C   UNL A   1      47.081  27.925  25.230  1.00  0.00     0.148 A 
ATOM     66  C   UNL A   1      48.891  26.347  26.697  1.00  0.00     0.002 A 
ATOM     67  C   UNL A   1      48.159  27.319  24.596  1.00  0.00     0.091 A 
ATOM     68  F   UNL A   1      46.218  28.709  24.570  1.00  0.00    -0.205 F 
ATOM     69  C   UNL A   1      49.068  26.538  25.329  1.00  0.00     0.022 A 
BRANCH  67  70
ATOM     70  S   UNL A   1      48.435  27.438  22.826  1.00  0.00     0.127 S 
ATOM     71  O   UNL A   1      47.313  28.279  22.409  1.00  0.00    -0.237 OA
ATOM     72  O   UNL A   1      49.742  28.091  22.762  1.00  0.00    -0.237 OA
ATOM     73  O   UNL A   1      48.410  26.072  22.322  1.00  0.00    -0.744 OA
ENDBRANCH  67  70
ENDBRANCH  49  63
BRANCH  50  74
ATOM     74  C   UNL A   1      38.582  31.008  31.100  1.00  0.00     0.023 A 
ATOM     75  C   UNL A   1      38.388  30.754  32.471  1.00  0.00     0.012 A 
ATOM     76  C   UNL A   1      37.617  31.758  30.398  1.00  0.00     0.148 A 
ATOM     77  C   UNL A   1      37.248  31.220  33.128  1.00  0.00     0.002 A 
ATOM     78  C   UNL A   1      36.511  32.265  31.070  1.00  0.00     0.091 A 
ATOM     79  F   UNL A   1      37.809  31.972  29.089  1.00  0.00    -0.205 F 
ATOM     80  C   UNL A   1      36.317  31.985  32.431  1.00  0.00     0.022 A 
BRANCH  78  81
ATOM     81  S   UNL A   1      35.326  33.366  30.288  1.00  0.00     0.127 S 
ATOM     82  O   UNL A   1      34.667  33.967  31.446  1.00  0.00    -0.237 OA
ATOM     83  O   UNL A   1      36.200  34.267  29.539  1.00  0.00    -0.237 OA
ATOM     84  O   UNL A   1      34.485  32.514  29.458  1.00  0.00    -0.744 OA
ENDBRANCH  78  81
ENDBRANCH  50  74
BRANCH  62  85
ATOM     85  C   UNL A   1      44.915  33.769  29.965  1.00  0.00     0.023 A 
ATOM     86  C   UNL A   1      45.713  33.842  31.124  1.00  0.00     0.012 A 
ATOM     87  C   UNL A   1      44.836  34.887  29.109  1.00  0.00     0.148 A 
ATOM     88  C   UNL A   1      46.405  35.012  31.436  1.00  0.00     0.002 A 
ATOM     89  C   UNL A   1      45.568  36.032  29.400  1.00  0.00     0.091 A 
ATOM     90  F   UNL A   1      44.061  34.803  28.017  1.00  0.00    -0.205 F 
ATOM     91  C   UNL A   1      46.345  36.100  30.569  1.00  0.00     0.022 A 
BRANCH  89  92
ATOM     92  S   UNL A   1      45.639  37.443  28.289  1.00  0.00     0.127 S 
ATOM     93  O   UNL A   1      44.257  37.916  28.319  1.00  0.00    -0.237 OA
ATOM     94  O   UNL A   1      46.599  38.320  28.961  1.00  0.00    -0.237 OA
ATOM     95  O   UNL A   1      46.092  36.922  27.006  1.00  0.00    -0.744 OA
ENDBRANCH  89  92
ENDBRANCH  62  85
ENDBRANCH  36  37
ENDBRANCH  29  31
ENDBRANCH  28  29
ENDBRANCH  27  28
ENDBRANCH  26  27
ENDBRANCH  25  26
ENDBRANCH   1  25
TORSDOF 21
ENDMDL
MODEL 3
REMARK VINA RESULT:     -10.7      5.006      8.592
REMARK SMILES Cc1cc(C)c2c(c1)C=C(C(=O)OCCOCCOCCOC(=O)c1ccc(-c3c4nc(c(-c5cccc(S(=O)(=O)[O-])c5F)c5ccc([nH]5)c(-c5cccc(S(=O)(=O)[O-])c5F)c5nc(c(-c6cccc(S(=O)(=O)[O-])c6F)c6ccc3[nH]6)C=C5)C=C4)cc1)[C@@H](C(F)(F)F)O2
REMARK SMILES IDX 18 1 17 2 16 3 15 4 14 5 13 6 11 7 12 8 10 9 1 10 2 11 3 12
REMARK SMILES IDX 8 13 4 14 7 15 5 16 6 17 9 18 93 19 88 20 89 21 90 22 91 23
REMARK SMILES IDX 92 24 19 25 20 26 21 27 22 28 23 29 24 30 25 31 26 32 87 33
REMARK SMILES IDX 27 34 86 35 28 36 29 37 30 38 80 39 31 40 85 41 79 42 81 43
REMARK SMILES IDX 32 44 84 45 78 46 77 47 33 49 65 50 45 51 64 52 46 53 49 54
REMARK SMILES IDX 63 55 82 56 47 57 48 58 62 60 83 61 50 62 34 63 35 64 43 65
REMARK SMILES IDX 36 66 38 67 44 68 37 69 39 70 40 71 41 72 42 73 66 74 67 75
REMARK SMILES IDX 75 76 68 77 70 78 76 79 69 80 71 81 72 82 73 83 74 84 51 85
REMARK SMILES IDX 52 86 60 87 53 88 55 89 61 90 54 91 56 92 57 93 58 94 59 95
REMARK H PARENT 81 48 49 59
REMARK Flexibility Score: inf
ROOT
ATOM      1  C   UNL A   1      33.087  29.312  24.438  1.00  0.00     0.188 C 
ENDROOT
BRANCH   1   2
ATOM      2  C   UNL A   1      31.940  29.029  23.444  1.00  0.00     0.188 C 
BRANCH   2   3
ATOM      3  O   UNL A   1      30.701  28.806  24.077  1.00  0.00    -0.376 OA
BRANCH   3   4
ATOM      4  C   UNL A   1      30.011  27.585  23.907  1.00  0.00     0.202 C 
BRANCH   4   5
ATOM      5  C   UNL A   1      30.310  26.574  22.784  1.00  0.00     0.261 C 
BRANCH   5   6
ATOM      6  O   UNL A   1      31.071  25.415  23.127  1.00  0.00    -0.460 OA
BRANCH   6   7
ATOM      7  C   UNL A   1      32.173  25.173  22.382  1.00  0.00     0.338 C 
ATOM      8  O   UNL A   1      32.566  25.823  21.427  1.00  0.00    -0.246 OA
BRANCH   7   9
ATOM      9  C   UNL A   1      32.901  24.028  22.963  1.00  0.00     0.087 C 
ATOM     10  C   UNL A   1      32.354  17.999  24.122  1.00  0.00     0.044 C 
ATOM     11  C   UNL A   1      32.995  19.356  24.146  1.00  0.00    -0.050 A 
ATOM     12  C   UNL A   1      34.209  19.557  24.813  1.00  0.00     0.010 A 
ATOM     13  C   UNL A   1      32.400  20.431  23.475  1.00  0.00     0.015 A 
ATOM     14  C   UNL A   1      34.822  20.820  24.830  1.00  0.00    -0.008 A 
ATOM     15  C   UNL A   1      32.992  21.699  23.495  1.00  0.00     0.018 A 
ATOM     16  C   UNL A   1      36.109  21.017  25.581  1.00  0.00     0.048 C 
ATOM     17  C   UNL A   1      34.213  21.886  24.151  1.00  0.00     0.130 A 
ATOM     18  C   UNL A   1      32.310  22.830  22.886  1.00  0.00     0.027 C 
ATOM     19  O   UNL A   1      34.872  23.085  24.176  1.00  0.00    -0.475 OA
ATOM     20  C   UNL A   1      34.252  24.257  23.586  1.00  0.00     0.316 C 
BRANCH  20  21
ATOM     21  C   UNL A   1      34.231  25.364  24.649  1.00  0.00     0.430 C 
ATOM     22  F   UNL A   1      33.031  25.417  25.281  1.00  0.00    -0.167 F 
ATOM     23  F   UNL A   1      35.159  25.159  25.614  1.00  0.00    -0.167 F 
ATOM     24  F   UNL A   1      34.461  26.588  24.121  1.00  0.00    -0.167 F 
ENDBRANCH  20  21
ENDBRANCH   7   9
ENDBRANCH   6   7
ENDBRANCH   5   6
ENDBRANCH   4   5
ENDBRANCH   3   4
ENDBRANCH   2   3
ENDBRANCH   1   2
BRANCH   1  25
ATOM     25  O   UNL A   1      32.944  28.952  25.809  1.00  0.00    -0.376 OA
BRANCH  25  26
ATOM     26  C   UNL A   1      32.186  29.797  26.669  1.00  0.00     0.202 C 
BRANCH  26  27
ATOM     27  C   UNL A   1      32.438  31.312  26.661  1.00  0.00     0.261 C 
BRANCH  27  28
ATOM     28  O   UNL A   1      32.901  31.854  27.907  1.00  0.00    -0.460 OA
BRANCH  28  29
ATOM     29  C   UNL A   1      33.891  32.775  27.810  1.00  0.00     0.338 C 
ATOM     30  O   UNL A   1      33.773  33.962  27.559  1.00  0.00    -0.246 OA
BRANCH  29  31
ATOM     31  C   UNL A   1      35.165  32.174  28.250  1.00  0.00     0.060 A 
ATOM     32  C   UNL A   1      35.161  30.825  28.634  1.00  0.00     0.016 A 
ATOM     33  C   UNL A   1      36.334  32.931  28.330  1.00  0.00     0.016 A 
ATOM     34  C   UNL A   1      36.326  30.233  29.119  1.00  0.00     0.010 A 
ATOM     35  C   UNL A   1      37.494  32.344  28.844  1.00  0.00     0.010 A 
ATOM     36  C   UNL A   1      37.486  31.002  29.266  1.00  0.00    -0.014 A 
BRANCH  36  37
ATOM     37  C   UNL A   1      38.629  30.456  30.035  1.00  0.00     0.031 A 
ATOM     38  C   UNL A   1      39.485  29.401  29.392  1.00  0.00     0.074 A 
ATOM     39  C   UNL A   1      38.908  30.896  31.275  1.00  0.00     0.049 A 
ATOM     40  N   UNL A   1      40.524  28.772  29.875  1.00  0.00    -0.248 NA
ATOM     41  C   UNL A   1      39.121  29.002  28.022  1.00  0.00     0.031 C 
ATOM     42  C   UNL A   1      38.164  31.926  31.994  1.00  0.00     0.029 A 
ATOM     43  N   UNL A   1      39.888  30.509  32.156  1.00  0.00    -0.354 N 
ATOM     44  C   UNL A   1      40.932  27.898  28.875  1.00  0.00     0.074 A 
ATOM     45  C   UNL A   1      40.021  28.064  27.766  1.00  0.00     0.031 C 
ATOM     46  C   UNL A   1      38.700  32.075  33.219  1.00  0.00     0.029 A 
ATOM     47  C   UNL A   1      39.809  31.136  33.377  1.00  0.00     0.049 A 
ATOM     48  H   UNL A   1      40.581  29.846  31.934  1.00  0.00     0.167 HD
ATOM     49  C   UNL A   1      41.985  27.048  28.874  1.00  0.00     0.034 A 
ATOM     50  C   UNL A   1      40.541  30.957  34.497  1.00  0.00     0.034 A 
ATOM     51  C   UNL A   1      42.893  26.886  29.975  1.00  0.00     0.049 A 
ATOM     52  C   UNL A   1      41.673  29.960  34.489  1.00  0.00     0.074 A 
ATOM     53  C   UNL A   1      44.004  26.067  30.057  1.00  0.00     0.029 A 
ATOM     54  N   UNL A   1      42.790  27.546  31.190  1.00  0.00    -0.354 N 
ATOM     55  N   UNL A   1      42.117  29.222  33.499  1.00  0.00    -0.248 NA
ATOM     56  C   UNL A   1      42.421  29.789  35.744  1.00  0.00     0.031 C 
ATOM     57  C   UNL A   1      44.559  26.214  31.330  1.00  0.00     0.029 A 
ATOM     58  C   UNL A   1      43.809  27.142  32.034  1.00  0.00     0.049 A 
ATOM     59  H   UNL A   1      42.094  28.204  31.418  1.00  0.00     0.167 HD
ATOM     60  C   UNL A   1      43.212  28.524  34.002  1.00  0.00     0.074 A 
ATOM     61  C   UNL A   1      43.377  28.943  35.378  1.00  0.00     0.031 C 
ATOM     62  C   UNL A   1      43.998  27.607  33.385  1.00  0.00     0.034 A 
BRANCH  49  63
ATOM     63  C   UNL A   1      42.239  26.251  27.623  1.00  0.00     0.023 A 
ATOM     64  C   UNL A   1      42.902  26.862  26.539  1.00  0.00     0.012 A 
ATOM     65  C   UNL A   1      41.897  24.887  27.549  1.00  0.00     0.148 A 
ATOM     66  C   UNL A   1      43.203  26.132  25.391  1.00  0.00     0.002 A 
ATOM     67  C   UNL A   1      42.238  24.155  26.417  1.00  0.00     0.091 A 
ATOM     68  F   UNL A   1      41.246  24.334  28.582  1.00  0.00    -0.205 F 
ATOM     69  C   UNL A   1      42.883  24.778  25.336  1.00  0.00     0.022 A 
BRANCH  67  70
ATOM     70  S   UNL A   1      41.942  22.390  26.278  1.00  0.00     0.127 S 
ATOM     71  O   UNL A   1      40.481  22.343  26.198  1.00  0.00    -0.237 OA
ATOM     72  O   UNL A   1      42.630  22.061  25.029  1.00  0.00    -0.237 OA
ATOM     73  O   UNL A   1      42.520  21.788  27.470  1.00  0.00    -0.744 OA
ENDBRANCH  67  70
ENDBRANCH  49  63
BRANCH  50  74
ATOM     74  C   UNL A   1      40.256  31.779  35.708  1.00  0.00     0.023 A 
ATOM     75  C   UNL A   1      41.122  32.837  36.044  1.00  0.00     0.012 A 
ATOM     76  C   UNL A   1      39.122  31.539  36.510  1.00  0.00     0.148 A 
ATOM     77  C   UNL A   1      40.877  33.630  37.166  1.00  0.00     0.002 A 
ATOM     78  C   UNL A   1      38.854  32.366  37.595  1.00  0.00     0.091 A 
ATOM     79  F   UNL A   1      38.321  30.514  36.187  1.00  0.00    -0.205 F 
ATOM     80  C   UNL A   1      39.738  33.403  37.933  1.00  0.00     0.022 A 
BRANCH  78  81
ATOM     81  S   UNL A   1      37.348  32.231  38.565  1.00  0.00     0.127 S 
ATOM     82  O   UNL A   1      36.405  33.008  37.762  1.00  0.00    -0.237 OA
ATOM     83  O   UNL A   1      37.117  30.788  38.563  1.00  0.00    -0.237 OA
ATOM     84  O   UNL A   1      37.670  32.788  39.872  1.00  0.00    -0.744 OA
ENDBRANCH  78  81
ENDBRANCH  50  74
BRANCH  62  85
ATOM     85  C   UNL A   1      45.126  26.988  34.170  1.00  0.00     0.023 A 
ATOM     86  C   UNL A   1      46.400  27.590  34.148  1.00  0.00     0.012 A 
ATOM     87  C   UNL A   1      44.893  25.893  35.028  1.00  0.00     0.148 A 
ATOM     88  C   UNL A   1      47.429  27.101  34.952  1.00  0.00     0.002 A 
ATOM     89  C   UNL A   1      45.910  25.444  35.864  1.00  0.00     0.091 A 
ATOM     90  F   UNL A   1      43.678  25.326  35.025  1.00  0.00    -0.205 F 
ATOM     91  C   UNL A   1      47.181  26.040  35.819  1.00  0.00     0.022 A 
BRANCH  89  92
ATOM     92  S   UNL A   1      45.654  24.155  37.089  1.00  0.00     0.127 S 
ATOM     93  O   UNL A   1      45.074  23.085  36.280  1.00  0.00    -0.237 OA
ATOM     94  O   UNL A   1      47.017  23.895  37.556  1.00  0.00    -0.237 OA
ATOM     95  O   UNL A   1      44.769  24.726  38.095  1.00  0.00    -0.744 OA
ENDBRANCH  89  92
ENDBRANCH  62  85
ENDBRANCH  36  37
ENDBRANCH  29  31
ENDBRANCH  28  29
ENDBRANCH  27  28
ENDBRANCH  26  27
ENDBRANCH  25  26
ENDBRANCH   1  25
TORSDOF 21
ENDMDL
