MODEL 1
REMARK VINA RESULT:     -10.6      0.000      0.000
REMARK SMILES COc1ccc([C@H]2C[NH2+]C[C@@H]2C(=O)OCCOCCOCCOC(=O)c2ccc(-c3c4nc(c(-c5cccc(S(=O)(=O)[O-])c5F)c5ccc([nH]5)c(-c5cccc(S(=O)(=O)[O-])c5F)c5nc(c(-c6cccc(S(=O)(=O)[O-])c6F)c6ccc3[nH]6)C=C5)C=C4)cc2)cc1
REMARK SMILES IDX 19 1 18 2 17 3 16 4 15 5 14 6 12 7 13 8 11 9 7 10 8 11 9 12
REMARK SMILES IDX 10 13 6 16 3 17 4 18 90 19 5 20 89 21 2 22 1 23 20 24 21 25
REMARK SMILES IDX 22 26 23 27 24 28 25 29 26 30 27 31 88 32 28 33 87 34 29 35
REMARK SMILES IDX 30 36 31 37 81 38 32 39 86 40 80 41 82 42 33 43 85 44 79 45
REMARK SMILES IDX 78 46 34 48 66 49 46 50 65 51 47 52 50 53 64 54 83 55 48 56
REMARK SMILES IDX 49 57 63 59 84 60 51 61 35 62 36 63 44 64 37 65 39 66 45 67
REMARK SMILES IDX 38 68 40 69 41 70 42 71 43 72 67 73 68 74 76 75 69 76 71 77
REMARK SMILES IDX 77 78 70 79 72 80 73 81 74 82 75 83 52 84 53 85 61 86 54 87
REMARK SMILES IDX 56 88 62 89 55 90 57 91 58 92 59 93 60 94
REMARK H PARENT 9 14 9 15 82 47 50 58
REMARK Flexibility Score: inf
ROOT
ATOM      1  C   UNL A   1      31.787  29.169  26.635  1.00  0.00     0.188 C 
ENDROOT
BRANCH   1   2
ATOM      2  C   UNL A   1      32.454  28.102  25.741  1.00  0.00     0.188 C 
BRANCH   2   3
ATOM      3  O   UNL A   1      31.806  27.950  24.494  1.00  0.00    -0.376 OA
BRANCH   3   4
ATOM      4  C   UNL A   1      32.438  27.120  23.535  1.00  0.00     0.202 C 
BRANCH   4   5
ATOM      5  C   UNL A   1      31.603  26.492  22.403  1.00  0.00     0.261 C 
BRANCH   5   6
ATOM      6  O   UNL A   1      31.846  25.108  22.103  1.00  0.00    -0.463 OA
BRANCH   6   7
ATOM      7  C   UNL A   1      31.480  24.181  23.031  1.00  0.00     0.315 C 
ATOM      8  O   UNL A   1      30.607  24.363  23.865  1.00  0.00    -0.252 OA
BRANCH   7   9
ATOM      9  C   UNL A   1      32.295  22.898  22.841  1.00  0.00     0.167 C 
ATOM     10  C   UNL A   1      32.609  22.192  24.174  1.00  0.00     0.094 C 
ATOM     11  C   UNL A   1      33.870  22.975  24.588  1.00  0.00     0.269 C 
ATOM     12  N   UNL A   1      34.650  23.116  23.344  1.00  0.00    -0.345 N 
ATOM     13  C   UNL A   1      33.661  23.246  22.261  1.00  0.00     0.276 C 
ATOM     14  H   UNL A   1      35.233  22.291  23.196  1.00  0.00     0.346 HD
ATOM     15  H   UNL A   1      35.273  23.923  23.381  1.00  0.00     0.346 HD
BRANCH  10  16
ATOM     16  C   UNL A   1      32.904  20.681  24.125  1.00  0.00    -0.038 A 
ATOM     17  C   UNL A   1      33.696  17.967  23.920  1.00  0.00     0.118 A 
ATOM     18  C   UNL A   1      34.415  18.846  24.721  1.00  0.00     0.047 A 
ATOM     19  C   UNL A   1      32.532  18.409  23.300  1.00  0.00     0.047 A 
ATOM     20  C   UNL A   1      34.019  20.183  24.830  1.00  0.00     0.008 A 
ATOM     21  C   UNL A   1      32.138  19.754  23.403  1.00  0.00     0.008 A 
BRANCH  17  22
ATOM     22  O   UNL A   1      34.164  16.684  23.844  1.00  0.00    -0.497 OA
ATOM     23  C   UNL A   1      33.565  15.797  24.785  1.00  0.00     0.278 C 
ENDBRANCH  17  22
ENDBRANCH  10  16
ENDBRANCH   7   9
ENDBRANCH   6   7
ENDBRANCH   5   6
ENDBRANCH   4   5
ENDBRANCH   3   4
ENDBRANCH   2   3
ENDBRANCH   1   2
BRANCH   1  24
ATOM     24  O   UNL A   1      32.292  30.500  26.662  1.00  0.00    -0.376 OA
BRANCH  24  25
ATOM     25  C   UNL A   1      31.389  31.586  26.485  1.00  0.00     0.202 C 
BRANCH  25  26
ATOM     26  C   UNL A   1      31.768  33.008  26.939  1.00  0.00     0.261 C 
BRANCH  26  27
ATOM     27  O   UNL A   1      33.171  33.312  26.984  1.00  0.00    -0.460 OA
BRANCH  27  28
ATOM     28  C   UNL A   1      33.677  33.559  28.214  1.00  0.00     0.338 C 
ATOM     29  O   UNL A   1      33.136  34.197  29.117  1.00  0.00    -0.246 OA
BRANCH  28  30
ATOM     30  C   UNL A   1      34.914  32.785  28.422  1.00  0.00     0.060 A 
ATOM     31  C   UNL A   1      34.804  31.434  28.787  1.00  0.00     0.016 A 
ATOM     32  C   UNL A   1      36.169  33.389  28.326  1.00  0.00     0.016 A 
ATOM     33  C   UNL A   1      35.942  30.695  29.104  1.00  0.00     0.010 A 
ATOM     34  C   UNL A   1      37.310  32.655  28.670  1.00  0.00     0.010 A 
ATOM     35  C   UNL A   1      37.194  31.320  29.105  1.00  0.00    -0.014 A 
BRANCH  35  36
ATOM     36  C   UNL A   1      38.331  30.657  29.790  1.00  0.00     0.031 A 
ATOM     37  C   UNL A   1      38.609  31.027  31.223  1.00  0.00     0.074 A 
ATOM     38  C   UNL A   1      39.091  29.739  29.169  1.00  0.00     0.049 A 
ATOM     39  N   UNL A   1      39.553  30.604  32.022  1.00  0.00    -0.248 NA
ATOM     40  C   UNL A   1      37.700  32.012  31.835  1.00  0.00     0.031 C 
ATOM     41  C   UNL A   1      38.918  29.286  27.791  1.00  0.00     0.029 A 
ATOM     42  N   UNL A   1      40.182  29.039  29.620  1.00  0.00    -0.354 N 
ATOM     43  C   UNL A   1      39.373  31.292  33.217  1.00  0.00     0.074 A 
ATOM     44  C   UNL A   1      38.238  32.170  33.034  1.00  0.00     0.031 C 
ATOM     45  C   UNL A   1      39.891  28.405  27.497  1.00  0.00     0.029 A 
ATOM     46  C   UNL A   1      40.766  28.248  28.659  1.00  0.00     0.049 A 
ATOM     47  H   UNL A   1      40.515  29.097  30.545  1.00  0.00     0.167 HD
ATOM     48  C   UNL A   1      40.077  31.194  34.369  1.00  0.00     0.034 A 
ATOM     49  C   UNL A   1      41.888  27.502  28.709  1.00  0.00     0.034 A 
ATOM     50  C   UNL A   1      41.194  30.310  34.556  1.00  0.00     0.049 A 
ATOM     51  C   UNL A   1      42.666  27.421  29.999  1.00  0.00     0.074 A 
ATOM     52  C   UNL A   1      41.951  30.110  35.697  1.00  0.00     0.029 A 
ATOM     53  N   UNL A   1      41.723  29.487  33.575  1.00  0.00    -0.354 N 
ATOM     54  N   UNL A   1      42.420  27.995  31.152  1.00  0.00    -0.248 NA
ATOM     55  C   UNL A   1      43.854  26.556  30.005  1.00  0.00     0.031 C 
ATOM     56  C   UNL A   1      42.957  29.187  35.397  1.00  0.00     0.029 A 
ATOM     57  C   UNL A   1      42.801  28.780  34.082  1.00  0.00     0.049 A 
ATOM     58  H   UNL A   1      41.383  29.415  32.655  1.00  0.00     0.167 HD
ATOM     59  C   UNL A   1      43.390  27.522  32.031  1.00  0.00     0.074 A 
ATOM     60  C   UNL A   1      44.220  26.605  31.279  1.00  0.00     0.031 C 
ATOM     61  C   UNL A   1      43.580  27.823  33.340  1.00  0.00     0.034 A 
BRANCH  48  62
ATOM     62  C   UNL A   1      39.645  32.059  35.524  1.00  0.00     0.023 A 
ATOM     63  C   UNL A   1      40.036  33.413  35.570  1.00  0.00     0.012 A 
ATOM     64  C   UNL A   1      38.820  31.543  36.542  1.00  0.00     0.148 A 
ATOM     65  C   UNL A   1      39.642  34.230  36.630  1.00  0.00     0.002 A 
ATOM     66  C   UNL A   1      38.393  32.375  37.569  1.00  0.00     0.091 A 
ATOM     67  F   UNL A   1      38.480  30.247  36.495  1.00  0.00    -0.205 F 
ATOM     68  C   UNL A   1      38.813  33.714  37.623  1.00  0.00     0.022 A 
BRANCH  66  69
ATOM     69  S   UNL A   1      37.259  31.827  38.850  1.00  0.00     0.127 S 
ATOM     70  O   UNL A   1      36.184  32.811  38.733  1.00  0.00    -0.237 OA
ATOM     71  O   UNL A   1      36.907  30.482  38.393  1.00  0.00    -0.237 OA
ATOM     72  O   UNL A   1      38.010  31.866  40.096  1.00  0.00    -0.744 OA
ENDBRANCH  66  69
ENDBRANCH  48  62
BRANCH  49  73
ATOM     73  C   UNL A   1      42.329  26.734  27.510  1.00  0.00     0.023 A 
ATOM     74  C   UNL A   1      43.014  27.396  26.473  1.00  0.00     0.012 A 
ATOM     75  C   UNL A   1      42.070  25.355  27.392  1.00  0.00     0.148 A 
ATOM     76  C   UNL A   1      43.402  26.707  25.323  1.00  0.00     0.002 A 
ATOM     77  C   UNL A   1      42.506  24.663  26.268  1.00  0.00     0.091 A 
ATOM     78  F   UNL A   1      41.403  24.747  28.383  1.00  0.00    -0.205 F 
ATOM     79  C   UNL A   1      43.156  25.339  25.224  1.00  0.00     0.022 A 
BRANCH  77  80
ATOM     80  S   UNL A   1      42.339  22.881  26.106  1.00  0.00     0.127 S 
ATOM     81  O   UNL A   1      40.893  22.706  26.208  1.00  0.00    -0.237 OA
ATOM     82  O   UNL A   1      42.897  22.650  24.773  1.00  0.00    -0.237 OA
ATOM     83  O   UNL A   1      43.123  22.312  27.194  1.00  0.00    -0.744 OA
ENDBRANCH  77  80
ENDBRANCH  49  73
BRANCH  61  84
ATOM     84  C   UNL A   1      44.684  27.105  34.076  1.00  0.00     0.023 A 
ATOM     85  C   UNL A   1      45.999  27.610  34.053  1.00  0.00     0.012 A 
ATOM     86  C   UNL A   1      44.397  25.963  34.851  1.00  0.00     0.148 A 
ATOM     87  C   UNL A   1      47.017  26.967  34.757  1.00  0.00     0.002 A 
ATOM     88  C   UNL A   1      45.405  25.360  35.592  1.00  0.00     0.091 A 
ATOM     89  F   UNL A   1      43.143  25.486  34.848  1.00  0.00    -0.205 F 
ATOM     90  C   UNL A   1      46.718  25.851  35.535  1.00  0.00     0.022 A 
BRANCH  88  91
ATOM     91  S   UNL A   1      45.088  23.981  36.700  1.00  0.00     0.127 S 
ATOM     92  O   UNL A   1      46.417  23.733  37.256  1.00  0.00    -0.237 OA
ATOM     93  O   UNL A   1      44.129  24.555  37.646  1.00  0.00    -0.237 OA
ATOM     94  O   UNL A   1      44.547  22.916  35.867  1.00  0.00    -0.744 OA
ENDBRANCH  88  91
ENDBRANCH  61  84
ENDBRANCH  35  36
ENDBRANCH  28  30
ENDBRANCH  27  28
ENDBRANCH  26  27
ENDBRANCH  25  26
ENDBRANCH  24  25
ENDBRANCH   1  24
TORSDOF 22
ENDMDL
MODEL 2
REMARK VINA RESULT:     -10.6      0.892      7.516
REMARK SMILES COc1ccc([C@H]2C[NH2+]C[C@@H]2C(=O)OCCOCCOCCOC(=O)c2ccc(-c3c4nc(c(-c5cccc(S(=O)(=O)[O-])c5F)c5ccc([nH]5)c(-c5cccc(S(=O)(=O)[O-])c5F)c5nc(c(-c6cccc(S(=O)(=O)[O-])c6F)c6ccc3[nH]6)C=C5)C=C4)cc2)cc1
REMARK SMILES IDX 19 1 18 2 17 3 16 4 15 5 14 6 12 7 13 8 11 9 7 10 8 11 9 12
REMARK SMILES IDX 10 13 6 16 3 17 4 18 90 19 5 20 89 21 2 22 1 23 20 24 21 25
REMARK SMILES IDX 22 26 23 27 24 28 25 29 26 30 27 31 88 32 28 33 87 34 29 35
REMARK SMILES IDX 30 36 31 37 81 38 32 39 86 40 80 41 82 42 33 43 85 44 79 45
REMARK SMILES IDX 78 46 34 48 66 49 46 50 65 51 47 52 50 53 64 54 83 55 48 56
REMARK SMILES IDX 49 57 63 59 84 60 51 61 35 62 36 63 44 64 37 65 39 66 45 67
REMARK SMILES IDX 38 68 40 69 41 70 42 71 43 72 67 73 68 74 76 75 69 76 71 77
REMARK SMILES IDX 77 78 70 79 72 80 73 81 74 82 75 83 52 84 53 85 61 86 54 87
REMARK SMILES IDX 56 88 62 89 55 90 57 91 58 92 59 93 60 94
REMARK H PARENT 9 14 9 15 82 47 50 58
REMARK Flexibility Score: inf
ROOT
ATOM      1  C   UNL A   1      32.329  29.696  24.939  1.00  0.00     0.188 C 
ENDROOT
BRANCH   1   2
ATOM      2  C   UNL A   1      33.223  28.550  24.420  1.00  0.00     0.188 C 
BRANCH   2   3
ATOM      3  O   UNL A   1      32.579  27.751  23.447  1.00  0.00    -0.376 OA
BRANCH   3   4
ATOM      4  C   UNL A   1      32.362  26.389  23.771  1.00  0.00     0.202 C 
BRANCH   4   5
ATOM      5  C   UNL A   1      32.109  25.370  22.645  1.00  0.00     0.261 C 
BRANCH   5   6
ATOM      6  O   UNL A   1      32.682  24.061  22.807  1.00  0.00    -0.463 OA
BRANCH   6   7
ATOM      7  C   UNL A   1      31.872  23.061  23.251  1.00  0.00     0.315 C 
ATOM      8  O   UNL A   1      30.690  23.212  23.516  1.00  0.00    -0.252 OA
BRANCH   7   9
ATOM      9  C   UNL A   1      32.656  21.748  23.332  1.00  0.00     0.167 C 
ATOM     10  C   UNL A   1      32.287  20.912  24.573  1.00  0.00     0.094 C 
ATOM     11  C   UNL A   1      33.215  21.571  25.611  1.00  0.00     0.269 C 
ATOM     12  N   UNL A   1      34.495  21.764  24.903  1.00  0.00    -0.345 N 
ATOM     13  C   UNL A   1      34.140  22.052  23.503  1.00  0.00     0.276 C 
ATOM     14  H   UNL A   1      35.062  20.919  24.959  1.00  0.00     0.346 HD
ATOM     15  H   UNL A   1      35.040  22.522  25.314  1.00  0.00     0.346 HD
BRANCH  10  16
ATOM     16  C   UNL A   1      32.542  19.395  24.508  1.00  0.00    -0.038 A 
ATOM     17  C   UNL A   1      33.230  16.645  24.562  1.00  0.00     0.118 A 
ATOM     18  C   UNL A   1      32.845  17.291  25.730  1.00  0.00     0.047 A 
ATOM     19  C   UNL A   1      33.181  17.334  23.355  1.00  0.00     0.047 A 
ATOM     20  C   UNL A   1      32.496  18.646  25.703  1.00  0.00     0.008 A 
ATOM     21  C   UNL A   1      32.838  18.697  23.328  1.00  0.00     0.008 A 
BRANCH  17  22
ATOM     22  O   UNL A   1      33.583  15.329  24.677  1.00  0.00    -0.497 OA
ATOM     23  C   UNL A   1      32.696  14.565  25.491  1.00  0.00     0.278 C 
ENDBRANCH  17  22
ENDBRANCH  10  16
ENDBRANCH   7   9
ENDBRANCH   6   7
ENDBRANCH   5   6
ENDBRANCH   4   5
ENDBRANCH   3   4
ENDBRANCH   2   3
ENDBRANCH   1   2
BRANCH   1  24
ATOM     24  O   UNL A   1      32.672  30.386  26.136  1.00  0.00    -0.376 OA
BRANCH  24  25
ATOM     25  C   UNL A   1      31.660  31.099  26.838  1.00  0.00     0.202 C 
BRANCH  25  26
ATOM     26  C   UNL A   1      31.669  32.639  26.886  1.00  0.00     0.261 C 
BRANCH  26  27
ATOM     27  O   UNL A   1      32.953  33.275  26.790  1.00  0.00    -0.460 OA
BRANCH  27  28
ATOM     28  C   UNL A   1      33.455  33.759  27.948  1.00  0.00     0.338 C 
ATOM     29  O   UNL A   1      32.912  34.564  28.705  1.00  0.00    -0.246 OA
BRANCH  28  30
ATOM     30  C   UNL A   1      34.690  33.040  28.310  1.00  0.00     0.060 A 
ATOM     31  C   UNL A   1      34.581  31.729  28.801  1.00  0.00     0.016 A 
ATOM     32  C   UNL A   1      35.937  33.662  28.234  1.00  0.00     0.016 A 
ATOM     33  C   UNL A   1      35.708  31.053  29.260  1.00  0.00     0.010 A 
ATOM     34  C   UNL A   1      37.066  32.993  28.721  1.00  0.00     0.010 A 
ATOM     35  C   UNL A   1      36.946  31.705  29.278  1.00  0.00    -0.014 A 
BRANCH  35  36
ATOM     36  C   UNL A   1      38.048  31.141  30.097  1.00  0.00     0.031 A 
ATOM     37  C   UNL A   1      38.938  30.101  29.467  1.00  0.00     0.074 A 
ATOM     38  C   UNL A   1      38.268  31.545  31.359  1.00  0.00     0.049 A 
ATOM     39  N   UNL A   1      39.945  29.448  29.984  1.00  0.00    -0.248 NA
ATOM     40  C   UNL A   1      38.646  29.748  28.067  1.00  0.00     0.031 C 
ATOM     41  C   UNL A   1      37.488  32.550  32.076  1.00  0.00     0.029 A 
ATOM     42  N   UNL A   1      39.209  31.134  32.270  1.00  0.00    -0.354 N 
ATOM     43  C   UNL A   1      40.387  28.586  28.986  1.00  0.00     0.074 A 
ATOM     44  C   UNL A   1      39.530  28.789  27.839  1.00  0.00     0.031 C 
ATOM     45  C   UNL A   1      37.962  32.655  33.331  1.00  0.00     0.029 A 
ATOM     46  C   UNL A   1      39.066  31.712  33.509  1.00  0.00     0.049 A 
ATOM     47  H   UNL A   1      39.920  30.487  32.057  1.00  0.00     0.167 HD
ATOM     48  C   UNL A   1      41.423  27.714  29.013  1.00  0.00     0.034 A 
ATOM     49  C   UNL A   1      39.737  31.488  34.657  1.00  0.00     0.034 A 
ATOM     50  C   UNL A   1      42.284  27.522  30.146  1.00  0.00     0.049 A 
ATOM     51  C   UNL A   1      40.875  30.498  34.668  1.00  0.00     0.074 A 
ATOM     52  C   UNL A   1      43.382  26.689  30.261  1.00  0.00     0.029 A 
ATOM     53  N   UNL A   1      42.138  28.164  31.366  1.00  0.00    -0.354 N 
ATOM     54  N   UNL A   1      41.349  29.770  33.686  1.00  0.00    -0.248 NA
ATOM     55  C   UNL A   1      41.597  30.331  35.937  1.00  0.00     0.031 C 
ATOM     56  C   UNL A   1      43.884  26.805  31.562  1.00  0.00     0.029 A 
ATOM     57  C   UNL A   1      43.124  27.743  32.243  1.00  0.00     0.049 A 
ATOM     58  H   UNL A   1      41.438  28.823  31.578  1.00  0.00     0.167 HD
ATOM     59  C   UNL A   1      42.453  29.100  34.203  1.00  0.00     0.074 A 
ATOM     60  C   UNL A   1      42.583  29.517  35.584  1.00  0.00     0.031 C 
ATOM     61  C   UNL A   1      43.280  28.213  33.595  1.00  0.00     0.034 A 
BRANCH  48  62
ATOM     62  C   UNL A   1      41.686  26.909  27.768  1.00  0.00     0.023 A 
ATOM     63  C   UNL A   1      42.242  27.533  26.632  1.00  0.00     0.012 A 
ATOM     64  C   UNL A   1      41.420  25.527  27.734  1.00  0.00     0.148 A 
ATOM     65  C   UNL A   1      42.495  26.803  25.472  1.00  0.00     0.002 A 
ATOM     66  C   UNL A   1      41.719  24.795  26.591  1.00  0.00     0.091 A 
ATOM     67  F   UNL A   1      40.868  24.955  28.814  1.00  0.00    -0.205 F 
ATOM     68  C   UNL A   1      42.243  25.433  25.455  1.00  0.00     0.022 A 
BRANCH  66  69
ATOM     69  S   UNL A   1      41.508  23.014  26.499  1.00  0.00     0.127 S 
ATOM     70  O   UNL A   1      40.056  22.894  26.375  1.00  0.00    -0.237 OA
ATOM     71  O   UNL A   1      42.254  22.679  25.285  1.00  0.00    -0.237 OA
ATOM     72  O   UNL A   1      42.077  22.478  27.727  1.00  0.00    -0.744 OA
ENDBRANCH  66  69
ENDBRANCH  48  62
BRANCH  49  73
ATOM     73  C   UNL A   1      39.378  32.243  35.891  1.00  0.00     0.023 A 
ATOM     74  C   UNL A   1      39.955  33.506  36.128  1.00  0.00     0.012 A 
ATOM     75  C   UNL A   1      38.472  31.714  36.831  1.00  0.00     0.148 A 
ATOM     76  C   UNL A   1      39.665  34.213  37.296  1.00  0.00     0.002 A 
ATOM     77  C   UNL A   1      38.146  32.448  37.965  1.00  0.00     0.091 A 
ATOM     78  F   UNL A   1      37.945  30.505  36.594  1.00  0.00    -0.205 F 
ATOM     79  C   UNL A   1      38.754  33.689  38.210  1.00  0.00     0.022 A 
BRANCH  77  80
ATOM     80  S   UNL A   1      36.896  31.907  39.138  1.00  0.00     0.127 S 
ATOM     81  O   UNL A   1      35.703  32.586  38.637  1.00  0.00    -0.237 OA
ATOM     82  O   UNL A   1      36.910  30.457  38.942  1.00  0.00    -0.237 OA
ATOM     83  O   UNL A   1      37.368  32.342  40.445  1.00  0.00    -0.744 OA
ENDBRANCH  77  80
ENDBRANCH  49  73
BRANCH  61  84
ATOM     84  C   UNL A   1      44.450  27.682  34.385  1.00  0.00     0.023 A 
ATOM     85  C   UNL A   1      45.670  28.386  34.411  1.00  0.00     0.012 A 
ATOM     86  C   UNL A   1      44.312  26.513  35.161  1.00  0.00     0.148 A 
ATOM     87  C   UNL A   1      46.745  27.914  35.165  1.00  0.00     0.002 A 
ATOM     88  C   UNL A   1      45.368  26.079  35.951  1.00  0.00     0.091 A 
ATOM     89  F   UNL A   1      43.149  25.846  35.111  1.00  0.00    -0.205 F 
ATOM     90  C   UNL A   1      46.590  26.769  35.943  1.00  0.00     0.022 A 
BRANCH  88  91
ATOM     91  S   UNL A   1      45.223  24.674  37.062  1.00  0.00     0.127 S 
ATOM     92  O   UNL A   1      45.006  23.574  36.125  1.00  0.00    -0.237 OA
ATOM     93  O   UNL A   1      46.528  24.663  37.724  1.00  0.00    -0.237 OA
ATOM     94  O   UNL A   1      44.103  24.977  37.944  1.00  0.00    -0.744 OA
ENDBRANCH  88  91
ENDBRANCH  61  84
ENDBRANCH  35  36
ENDBRANCH  28  30
ENDBRANCH  27  28
ENDBRANCH  26  27
ENDBRANCH  25  26
ENDBRANCH  24  25
ENDBRANCH   1  24
TORSDOF 22
ENDMDL
MODEL 3
REMARK VINA RESULT:     -10.3      1.843      2.269
REMARK SMILES COc1ccc([C@H]2C[NH2+]C[C@@H]2C(=O)OCCOCCOCCOC(=O)c2ccc(-c3c4nc(c(-c5cccc(S(=O)(=O)[O-])c5F)c5ccc([nH]5)c(-c5cccc(S(=O)(=O)[O-])c5F)c5nc(c(-c6cccc(S(=O)(=O)[O-])c6F)c6ccc3[nH]6)C=C5)C=C4)cc2)cc1
REMARK SMILES IDX 19 1 18 2 17 3 16 4 15 5 14 6 12 7 13 8 11 9 7 10 8 11 9 12
REMARK SMILES IDX 10 13 6 16 3 17 4 18 90 19 5 20 89 21 2 22 1 23 20 24 21 25
REMARK SMILES IDX 22 26 23 27 24 28 25 29 26 30 27 31 88 32 28 33 87 34 29 35
REMARK SMILES IDX 30 36 31 37 81 38 32 39 86 40 80 41 82 42 33 43 85 44 79 45
REMARK SMILES IDX 78 46 34 48 66 49 46 50 65 51 47 52 50 53 64 54 83 55 48 56
REMARK SMILES IDX 49 57 63 59 84 60 51 61 35 62 36 63 44 64 37 65 39 66 45 67
REMARK SMILES IDX 38 68 40 69 41 70 42 71 43 72 67 73 68 74 76 75 69 76 71 77
REMARK SMILES IDX 77 78 70 79 72 80 73 81 74 82 75 83 52 84 53 85 61 86 54 87
REMARK SMILES IDX 56 88 62 89 55 90 57 91 58 92 59 93 60 94
REMARK H PARENT 9 14 9 15 82 47 50 58
REMARK Flexibility Score: inf
ROOT
ATOM      1  C   UNL A   1      31.848  28.678  26.221  1.00  0.00     0.188 C 
ENDROOT
BRANCH   1   2
ATOM      2  C   UNL A   1      33.039  27.723  26.456  1.00  0.00     0.188 C 
BRANCH   2   3
ATOM      3  O   UNL A   1      32.686  26.362  26.310  1.00  0.00    -0.376 OA
BRANCH   3   4
ATOM      4  C   UNL A   1      31.603  26.065  25.446  1.00  0.00     0.202 C 
BRANCH   4   5
ATOM      5  C   UNL A   1      30.635  24.923  25.804  1.00  0.00     0.261 C 
BRANCH   5   6
ATOM      6  O   UNL A   1      30.832  23.666  25.135  1.00  0.00    -0.463 OA
BRANCH   6   7
ATOM      7  C   UNL A   1      31.035  23.685  23.789  1.00  0.00     0.315 C 
ATOM      8  O   UNL A   1      30.531  24.506  23.039  1.00  0.00    -0.252 OA
BRANCH   7   9
ATOM      9  C   UNL A   1      31.995  22.561  23.388  1.00  0.00     0.167 C 
ATOM     10  C   UNL A   1      32.661  21.887  24.603  1.00  0.00     0.094 C 
ATOM     11  C   UNL A   1      33.834  22.859  24.826  1.00  0.00     0.269 C 
ATOM     12  N   UNL A   1      34.337  23.157  23.471  1.00  0.00    -0.345 N 
ATOM     13  C   UNL A   1      33.156  23.146  22.592  1.00  0.00     0.276 C 
ATOM     14  H   UNL A   1      35.006  22.446  23.176  1.00  0.00     0.346 HD
ATOM     15  H   UNL A   1      34.819  24.056  23.439  1.00  0.00     0.346 HD
BRANCH  10  16
ATOM     16  C   UNL A   1      33.179  20.448  24.421  1.00  0.00    -0.038 A 
ATOM     17  C   UNL A   1      33.926  17.718  24.262  1.00  0.00     0.118 A 
ATOM     18  C   UNL A   1      32.675  18.126  23.817  1.00  0.00     0.047 A 
ATOM     19  C   UNL A   1      34.840  18.674  24.694  1.00  0.00     0.047 A 
ATOM     20  C   UNL A   1      32.309  19.475  23.887  1.00  0.00     0.008 A 
ATOM     21  C   UNL A   1      34.471  20.027  24.771  1.00  0.00     0.008 A 
BRANCH  17  22
ATOM     22  O   UNL A   1      34.197  16.380  24.187  1.00  0.00    -0.497 OA
ATOM     23  C   UNL A   1      35.150  15.932  25.148  1.00  0.00     0.278 C 
ENDBRANCH  17  22
ENDBRANCH  10  16
ENDBRANCH   7   9
ENDBRANCH   6   7
ENDBRANCH   5   6
ENDBRANCH   4   5
ENDBRANCH   3   4
ENDBRANCH   2   3
ENDBRANCH   1   2
BRANCH   1  24
ATOM     24  O   UNL A   1      31.775  29.917  26.917  1.00  0.00    -0.376 OA
BRANCH  24  25
ATOM     25  C   UNL A   1      31.500  31.106  26.186  1.00  0.00     0.202 C 
BRANCH  25  26
ATOM     26  C   UNL A   1      31.772  32.492  26.802  1.00  0.00     0.261 C 
BRANCH  26  27
ATOM     27  O   UNL A   1      32.649  32.525  27.939  1.00  0.00    -0.460 OA
BRANCH  27  28
ATOM     28  C   UNL A   1      33.698  33.373  27.845  1.00  0.00     0.338 C 
ATOM     29  O   UNL A   1      33.645  34.595  27.705  1.00  0.00    -0.246 OA
BRANCH  28  30
ATOM     30  C   UNL A   1      34.957  32.661  28.131  1.00  0.00     0.060 A 
ATOM     31  C   UNL A   1      34.906  31.274  28.346  1.00  0.00     0.016 A 
ATOM     32  C   UNL A   1      36.165  33.350  28.254  1.00  0.00     0.016 A 
ATOM     33  C   UNL A   1      36.050  30.580  28.730  1.00  0.00     0.010 A 
ATOM     34  C   UNL A   1      37.308  32.656  28.667  1.00  0.00     0.010 A 
ATOM     35  C   UNL A   1      37.242  31.278  28.951  1.00  0.00    -0.014 A 
BRANCH  35  36
ATOM     36  C   UNL A   1      38.336  30.618  29.706  1.00  0.00     0.031 A 
ATOM     37  C   UNL A   1      38.537  31.006  31.148  1.00  0.00     0.074 A 
ATOM     38  C   UNL A   1      39.124  29.688  29.140  1.00  0.00     0.049 A 
ATOM     39  N   UNL A   1      39.433  30.589  32.003  1.00  0.00    -0.248 NA
ATOM     40  C   UNL A   1      37.601  32.003  31.695  1.00  0.00     0.031 C 
ATOM     41  C   UNL A   1      39.024  29.218  27.760  1.00  0.00     0.029 A 
ATOM     42  N   UNL A   1      40.185  28.989  29.660  1.00  0.00    -0.354 N 
ATOM     43  C   UNL A   1      39.190  31.294  33.177  1.00  0.00     0.074 A 
ATOM     44  C   UNL A   1      38.073  32.175  32.920  1.00  0.00     0.031 C 
ATOM     45  C   UNL A   1      40.008  28.329  27.532  1.00  0.00     0.029 A 
ATOM     46  C   UNL A   1      40.816  28.183  28.743  1.00  0.00     0.049 A 
ATOM     47  H   UNL A   1      40.467  29.058  30.601  1.00  0.00     0.167 HD
ATOM     48  C   UNL A   1      39.829  31.207  34.368  1.00  0.00     0.034 A 
ATOM     49  C   UNL A   1      41.929  27.432  28.864  1.00  0.00     0.034 A 
ATOM     50  C   UNL A   1      40.930  30.321  34.628  1.00  0.00     0.049 A 
ATOM     51  C   UNL A   1      42.634  27.365  30.196  1.00  0.00     0.074 A 
ATOM     52  C   UNL A   1      41.621  30.133  35.811  1.00  0.00     0.029 A 
ATOM     53  N   UNL A   1      41.507  29.483  33.688  1.00  0.00    -0.354 N 
ATOM     54  N   UNL A   1      42.329  27.955  31.326  1.00  0.00    -0.248 NA
ATOM     55  C   UNL A   1      43.816  26.494  30.279  1.00  0.00     0.031 C 
ATOM     56  C   UNL A   1      42.638  29.201  35.579  1.00  0.00     0.029 A 
ATOM     57  C   UNL A   1      42.551  28.777  34.262  1.00  0.00     0.049 A 
ATOM     58  H   UNL A   1      41.218  29.400  32.751  1.00  0.00     0.167 HD
ATOM     59  C   UNL A   1      43.246  27.489  32.264  1.00  0.00     0.074 A 
ATOM     60  C   UNL A   1      44.111  26.558  31.570  1.00  0.00     0.031 C 
ATOM     61  C   UNL A   1      43.365  27.806  33.577  1.00  0.00     0.034 A 
BRANCH  48  62
ATOM     62  C   UNL A   1      39.339  32.090  35.485  1.00  0.00     0.023 A 
ATOM     63  C   UNL A   1      38.394  31.596  36.407  1.00  0.00     0.012 A 
ATOM     64  C   UNL A   1      39.843  33.395  35.645  1.00  0.00     0.148 A 
ATOM     65  C   UNL A   1      37.931  32.398  37.449  1.00  0.00     0.002 A 
ATOM     66  C   UNL A   1      39.413  34.173  36.714  1.00  0.00     0.091 A 
ATOM     67  F   UNL A   1      40.721  33.857  34.744  1.00  0.00    -0.205 F 
ATOM     68  C   UNL A   1      38.448  33.681  37.609  1.00  0.00     0.022 A 
BRANCH  66  69
ATOM     69  S   UNL A   1      40.079  35.806  37.051  1.00  0.00     0.127 S 
ATOM     70  O   UNL A   1      41.504  35.517  37.208  1.00  0.00    -0.237 OA
ATOM     71  O   UNL A   1      39.735  36.536  35.831  1.00  0.00    -0.237 OA
ATOM     72  O   UNL A   1      39.401  36.277  38.251  1.00  0.00    -0.744 OA
ENDBRANCH  66  69
ENDBRANCH  48  62
BRANCH  49  73
ATOM     73  C   UNL A   1      42.431  26.647  27.702  1.00  0.00     0.023 A 
ATOM     74  C   UNL A   1      43.278  27.262  26.759  1.00  0.00     0.012 A 
ATOM     75  C   UNL A   1      42.073  25.296  27.524  1.00  0.00     0.148 A 
ATOM     76  C   UNL A   1      43.729  26.558  25.641  1.00  0.00     0.002 A 
ATOM     77  C   UNL A   1      42.568  24.586  26.438  1.00  0.00     0.091 A 
ATOM     78  F   UNL A   1      41.255  24.734  28.425  1.00  0.00    -0.205 F 
ATOM     79  C   UNL A   1      43.382  25.218  25.485  1.00  0.00     0.022 A 
BRANCH  77  80
ATOM     80  S   UNL A   1      42.272  22.827  26.218  1.00  0.00     0.127 S 
ATOM     81  O   UNL A   1      42.982  22.259  27.361  1.00  0.00    -0.237 OA
ATOM     82  O   UNL A   1      40.813  22.758  26.301  1.00  0.00    -0.237 OA
ATOM     83  O   UNL A   1      42.817  22.497  24.909  1.00  0.00    -0.744 OA
ENDBRANCH  77  80
ENDBRANCH  49  73
BRANCH  61  84
ATOM     84  C   UNL A   1      44.423  27.093  34.382  1.00  0.00     0.023 A 
ATOM     85  C   UNL A   1      44.128  25.876  35.026  1.00  0.00     0.012 A 
ATOM     86  C   UNL A   1      45.737  27.602  34.439  1.00  0.00     0.148 A 
ATOM     87  C   UNL A   1      45.110  25.198  35.747  1.00  0.00     0.002 A 
ATOM     88  C   UNL A   1      46.724  26.894  35.113  1.00  0.00     0.091 A 
ATOM     89  F   UNL A   1      45.997  28.771  33.834  1.00  0.00    -0.205 F 
ATOM     90  C   UNL A   1      46.410  25.700  35.780  1.00  0.00     0.022 A 
BRANCH  88  91
ATOM     91  S   UNL A   1      48.444  27.414  35.120  1.00  0.00     0.127 S 
ATOM     92  O   UNL A   1      49.065  26.381  35.946  1.00  0.00    -0.237 OA
ATOM     93  O   UNL A   1      48.794  27.353  33.700  1.00  0.00    -0.237 OA
ATOM     94  O   UNL A   1      48.452  28.758  35.684  1.00  0.00    -0.744 OA
ENDBRANCH  88  91
ENDBRANCH  61  84
ENDBRANCH  35  36
ENDBRANCH  28  30
ENDBRANCH  27  28
ENDBRANCH  26  27
ENDBRANCH  25  26
ENDBRANCH  24  25
ENDBRANCH   1  24
TORSDOF 22
ENDMDL
