MODEL 1
REMARK VINA RESULT:     -10.5      0.000      0.000
REMARK SMILES O=C(OCCOCCOCCOC(=O)[C@@]1(Cl)C=CC=C(c2ccccc2)[C@H]1Cl)c1ccc(-c2c3nc(c(-c4cccc(S(=O)(=O)[O-])c4F)c4ccc([nH]4)c(-c4cccc(S(=O)(=O)[O-])c4F)c4nc(c(-c5cccc(S(=O)(=O)[O-])c5F)c5ccc2[nH]5)C=C4)C=C3)cc1
REMARK SMILES IDX 7 1 6 2 5 3 4 4 3 5 2 6 1 7 29 8 30 9 91 10 31 11 90 12
REMARK SMILES IDX 32 13 33 14 34 15 84 16 35 17 89 18 83 19 85 20 36 21 88 22
REMARK SMILES IDX 82 23 81 24 37 26 69 27 49 28 68 29 50 30 53 31 67 32 86 33
REMARK SMILES IDX 51 34 52 35 66 37 87 38 54 39 38 40 39 41 47 42 40 43 42 44
REMARK SMILES IDX 48 45 41 46 43 47 44 48 45 49 46 50 70 51 71 52 79 53 72 54
REMARK SMILES IDX 74 55 80 56 73 57 75 58 76 59 77 60 78 61 55 62 56 63 64 64
REMARK SMILES IDX 57 65 59 66 65 67 58 68 60 69 61 70 62 71 63 72 8 73 9 74
REMARK SMILES IDX 10 75 11 76 12 77 13 78 14 79 15 80 16 81 17 82 27 83 18 84
REMARK SMILES IDX 20 85 28 86 19 87 21 88 22 89 26 90 23 91 25 92 24 93
REMARK H PARENT 85 25 53 36
REMARK Flexibility Score: inf
ROOT
ATOM      1  C   UNL A   1      41.452  20.121  26.061  1.00  0.00     0.188 C 
ENDROOT
BRANCH   1   2
ATOM      2  O   UNL A   1      42.463  20.896  25.426  1.00  0.00    -0.376 OA
BRANCH   2   3
ATOM      3  C   UNL A   1      43.831  20.599  25.747  1.00  0.00     0.202 C 
BRANCH   3   4
ATOM      4  C   UNL A   1      44.919  21.674  25.551  1.00  0.00     0.261 C 
BRANCH   4   5
ATOM      5  O   UNL A   1      44.505  22.899  26.160  1.00  0.00    -0.460 OA
BRANCH   5   6
ATOM      6  C   UNL A   1      44.200  23.948  25.361  1.00  0.00     0.338 C 
ATOM      7  O   UNL A   1      44.632  24.201  24.252  1.00  0.00    -0.246 OA
BRANCH   6   8
ATOM      8  C   UNL A   1      43.291  24.776  26.175  1.00  0.00     0.060 A 
ATOM      9  C   UNL A   1      43.392  26.171  26.047  1.00  0.00     0.016 A 
ATOM     10  C   UNL A   1      42.457  24.204  27.130  1.00  0.00     0.016 A 
ATOM     11  C   UNL A   1      42.831  26.997  26.994  1.00  0.00     0.010 A 
ATOM     12  C   UNL A   1      41.841  25.044  28.055  1.00  0.00     0.010 A 
ATOM     13  C   UNL A   1      42.090  26.427  28.027  1.00  0.00    -0.014 A 
BRANCH  13  14
ATOM     14  C   UNL A   1      41.662  27.301  29.132  1.00  0.00     0.031 A 
ATOM     15  C   UNL A   1      42.544  27.428  30.315  1.00  0.00     0.074 A 
ATOM     16  C   UNL A   1      40.512  27.981  29.030  1.00  0.00     0.049 A 
ATOM     17  N   UNL A   1      42.342  28.120  31.397  1.00  0.00    -0.248 NA
ATOM     18  C   UNL A   1      43.802  26.666  30.292  1.00  0.00     0.031 C 
ATOM     19  C   UNL A   1      39.664  27.889  27.861  1.00  0.00     0.029 A 
ATOM     20  N   UNL A   1      39.854  28.854  29.848  1.00  0.00    -0.354 N 
ATOM     21  C   UNL A   1      43.392  27.795  32.234  1.00  0.00     0.074 A 
ATOM     22  C   UNL A   1      44.261  26.892  31.512  1.00  0.00     0.031 C 
ATOM     23  C   UNL A   1      38.607  28.696  28.008  1.00  0.00     0.029 A 
ATOM     24  C   UNL A   1      38.674  29.323  29.309  1.00  0.00     0.049 A 
ATOM     25  H   UNL A   1      40.189  29.121  30.735  1.00  0.00     0.167 HD
ATOM     26  C   UNL A   1      43.561  28.185  33.515  1.00  0.00     0.034 A 
ATOM     27  C   UNL A   1      37.744  30.158  29.810  1.00  0.00     0.034 A 
ATOM     28  C   UNL A   1      42.634  29.049  34.191  1.00  0.00     0.049 A 
ATOM     29  C   UNL A   1      38.015  30.657  31.197  1.00  0.00     0.074 A 
ATOM     30  C   UNL A   1      42.655  29.486  35.499  1.00  0.00     0.029 A 
ATOM     31  N   UNL A   1      41.493  29.591  33.602  1.00  0.00    -0.354 N 
ATOM     32  N   UNL A   1      39.043  30.385  31.967  1.00  0.00    -0.248 NA
ATOM     33  C   UNL A   1      37.034  31.567  31.793  1.00  0.00     0.031 C 
ATOM     34  C   UNL A   1      41.507  30.259  35.711  1.00  0.00     0.029 A 
ATOM     35  C   UNL A   1      40.795  30.348  34.522  1.00  0.00     0.049 A 
ATOM     36  H   UNL A   1      41.223  29.453  32.665  1.00  0.00     0.167 HD
ATOM     37  C   UNL A   1      38.844  31.091  33.137  1.00  0.00     0.074 A 
ATOM     38  C   UNL A   1      37.612  31.843  32.957  1.00  0.00     0.031 C 
ATOM     39  C   UNL A   1      39.588  31.098  34.268  1.00  0.00     0.034 A 
BRANCH  26  40
ATOM     40  C   UNL A   1      44.717  27.565  34.243  1.00  0.00     0.023 A 
ATOM     41  C   UNL A   1      45.972  28.208  34.279  1.00  0.00     0.012 A 
ATOM     42  C   UNL A   1      44.583  26.274  34.791  1.00  0.00     0.148 A 
ATOM     43  C   UNL A   1      47.090  27.548  34.789  1.00  0.00     0.002 A 
ATOM     44  C   UNL A   1      45.692  25.643  35.340  1.00  0.00     0.091 A 
ATOM     45  F   UNL A   1      43.394  25.664  34.710  1.00  0.00    -0.205 F 
ATOM     46  C   UNL A   1      46.949  26.269  35.322  1.00  0.00     0.022 A 
BRANCH  44  47
ATOM     47  S   UNL A   1      45.597  24.019  36.096  1.00  0.00     0.127 S 
ATOM     48  O   UNL A   1      44.521  24.207  37.067  1.00  0.00    -0.237 OA
ATOM     49  O   UNL A   1      45.249  23.173  34.953  1.00  0.00    -0.237 OA
ATOM     50  O   UNL A   1      46.913  23.761  36.662  1.00  0.00    -0.744 OA
ENDBRANCH  44  47
ENDBRANCH  26  40
BRANCH  27  51
ATOM     51  C   UNL A   1      36.571  30.603  28.990  1.00  0.00     0.023 A 
ATOM     52  C   UNL A   1      35.745  29.636  28.383  1.00  0.00     0.012 A 
ATOM     53  C   UNL A   1      36.200  31.961  28.878  1.00  0.00     0.148 A 
ATOM     54  C   UNL A   1      34.595  30.004  27.677  1.00  0.00     0.002 A 
ATOM     55  C   UNL A   1      35.004  32.314  28.256  1.00  0.00     0.091 A 
ATOM     56  F   UNL A   1      37.003  32.888  29.420  1.00  0.00    -0.205 F 
ATOM     57  C   UNL A   1      34.211  31.340  27.636  1.00  0.00     0.022 A 
BRANCH  55  58
ATOM     58  S   UNL A   1      34.331  33.980  28.323  1.00  0.00     0.127 S 
ATOM     59  O   UNL A   1      34.857  34.465  29.596  1.00  0.00    -0.237 OA
ATOM     60  O   UNL A   1      34.929  34.590  27.134  1.00  0.00    -0.237 OA
ATOM     61  O   UNL A   1      32.884  33.825  28.255  1.00  0.00    -0.744 OA
ENDBRANCH  55  58
ENDBRANCH  27  51
BRANCH  39  62
ATOM     62  C   UNL A   1      39.091  31.965  35.382  1.00  0.00     0.023 A 
ATOM     63  C   UNL A   1      38.206  31.440  36.343  1.00  0.00     0.012 A 
ATOM     64  C   UNL A   1      39.589  33.273  35.520  1.00  0.00     0.148 A 
ATOM     65  C   UNL A   1      37.806  32.219  37.424  1.00  0.00     0.002 A 
ATOM     66  C   UNL A   1      39.231  34.021  36.628  1.00  0.00     0.091 A 
ATOM     67  F   UNL A   1      40.408  33.747  34.570  1.00  0.00    -0.205 F 
ATOM     68  C   UNL A   1      38.331  33.501  37.575  1.00  0.00     0.022 A 
BRANCH  66  69
ATOM     69  S   UNL A   1      39.939  35.634  36.960  1.00  0.00     0.127 S 
ATOM     70  O   UNL A   1      39.277  35.996  38.212  1.00  0.00    -0.237 OA
ATOM     71  O   UNL A   1      41.362  35.322  37.086  1.00  0.00    -0.237 OA
ATOM     72  O   UNL A   1      39.598  36.470  35.817  1.00  0.00    -0.744 OA
ENDBRANCH  66  69
ENDBRANCH  39  62
ENDBRANCH  13  14
ENDBRANCH   6   8
ENDBRANCH   5   6
ENDBRANCH   4   5
ENDBRANCH   3   4
ENDBRANCH   2   3
ENDBRANCH   1   2
BRANCH   1  73
ATOM     73  C   UNL A   1      40.526  20.872  27.023  1.00  0.00     0.188 C 
BRANCH  73  74
ATOM     74  O   UNL A   1      39.699  21.901  26.494  1.00  0.00    -0.376 OA
BRANCH  74  75
ATOM     75  C   UNL A   1      38.538  21.497  25.782  1.00  0.00     0.202 C 
BRANCH  75  76
ATOM     76  C   UNL A   1      37.353  22.463  25.664  1.00  0.00     0.261 C 
BRANCH  76  77
ATOM     77  O   UNL A   1      36.404  22.171  24.633  1.00  0.00    -0.462 OA
BRANCH  77  78
ATOM     78  C   UNL A   1      35.085  22.276  24.991  1.00  0.00     0.333 C 
ATOM     79  O   UNL A   1      34.615  21.740  25.989  1.00  0.00    -0.250 OA
BRANCH  78  80
ATOM     80  C   UNL A   1      34.288  23.083  23.947  1.00  0.00     0.180 C 
ATOM     81  Cl  UNL A   1      35.255  22.992  22.379  1.00  0.00    -0.100 Cl
ATOM     82  C   UNL A   1      32.985  22.398  23.565  1.00  0.00     0.009 C 
ATOM     83  C   UNL A   1      34.163  24.594  24.360  1.00  0.00     0.148 C 
ATOM     84  C   UNL A   1      31.907  23.104  23.212  1.00  0.00    -0.002 C 
ATOM     85  C   UNL A   1      32.870  25.239  23.899  1.00  0.00    -0.020 C 
ATOM     86  Cl  UNL A   1      34.384  24.932  26.130  1.00  0.00    -0.115 Cl
ATOM     87  C   UNL A   1      31.932  24.540  23.240  1.00  0.00     0.006 C 
BRANCH  85  88
ATOM     88  C   UNL A   1      32.663  26.668  24.194  1.00  0.00    -0.021 A 
ATOM     89  C   UNL A   1      31.644  27.042  25.093  1.00  0.00     0.008 A 
ATOM     90  C   UNL A   1      33.479  27.654  23.648  1.00  0.00     0.008 A 
ATOM     91  C   UNL A   1      31.460  28.376  25.456  1.00  0.00     0.001 A 
ATOM     92  C   UNL A   1      33.310  28.987  24.035  1.00  0.00     0.001 A 
ATOM     93  C   UNL A   1      32.304  29.349  24.933  1.00  0.00     0.000 A 
ENDBRANCH  85  88
ENDBRANCH  78  80
ENDBRANCH  77  78
ENDBRANCH  76  77
ENDBRANCH  75  76
ENDBRANCH  74  75
ENDBRANCH  73  74
ENDBRANCH   1  73
TORSDOF 21
ENDMDL
MODEL 2
REMARK VINA RESULT:     -10.5      5.571      7.874
REMARK SMILES O=C(OCCOCCOCCOC(=O)[C@@]1(Cl)C=CC=C(c2ccccc2)[C@H]1Cl)c1ccc(-c2c3nc(c(-c4cccc(S(=O)(=O)[O-])c4F)c4ccc([nH]4)c(-c4cccc(S(=O)(=O)[O-])c4F)c4nc(c(-c5cccc(S(=O)(=O)[O-])c5F)c5ccc2[nH]5)C=C4)C=C3)cc1
REMARK SMILES IDX 7 1 6 2 5 3 4 4 3 5 2 6 1 7 29 8 30 9 91 10 31 11 90 12
REMARK SMILES IDX 32 13 33 14 34 15 84 16 35 17 89 18 83 19 85 20 36 21 88 22
REMARK SMILES IDX 82 23 81 24 37 26 69 27 49 28 68 29 50 30 53 31 67 32 86 33
REMARK SMILES IDX 51 34 52 35 66 37 87 38 54 39 38 40 39 41 47 42 40 43 42 44
REMARK SMILES IDX 48 45 41 46 43 47 44 48 45 49 46 50 70 51 71 52 79 53 72 54
REMARK SMILES IDX 74 55 80 56 73 57 75 58 76 59 77 60 78 61 55 62 56 63 64 64
REMARK SMILES IDX 57 65 59 66 65 67 58 68 60 69 61 70 62 71 63 72 8 73 9 74
REMARK SMILES IDX 10 75 11 76 12 77 13 78 14 79 15 80 16 81 17 82 27 83 18 84
REMARK SMILES IDX 20 85 28 86 19 87 21 88 22 89 26 90 23 91 25 92 24 93
REMARK H PARENT 85 25 53 36
REMARK Flexibility Score: inf
ROOT
ATOM      1  C   UNL A   1      36.758  23.647  25.364  1.00  0.00     0.188 C 
ENDROOT
BRANCH   1   2
ATOM      2  O   UNL A   1      37.526  22.954  26.341  1.00  0.00    -0.376 OA
BRANCH   2   3
ATOM      3  C   UNL A   1      38.848  22.529  25.971  1.00  0.00     0.202 C 
BRANCH   3   4
ATOM      4  C   UNL A   1      39.156  21.028  25.803  1.00  0.00     0.261 C 
BRANCH   4   5
ATOM      5  O   UNL A   1      40.143  20.626  26.756  1.00  0.00    -0.460 OA
BRANCH   5   6
ATOM      6  C   UNL A   1      41.312  20.117  26.299  1.00  0.00     0.338 C 
ATOM      7  O   UNL A   1      41.553  18.975  25.954  1.00  0.00    -0.246 OA
BRANCH   6   8
ATOM      8  C   UNL A   1      42.264  21.239  26.401  1.00  0.00     0.060 A 
ATOM      9  C   UNL A   1      42.710  21.600  27.682  1.00  0.00     0.016 A 
ATOM     10  C   UNL A   1      42.605  21.996  25.285  1.00  0.00     0.016 A 
ATOM     11  C   UNL A   1      43.317  22.817  27.889  1.00  0.00     0.010 A 
ATOM     12  C   UNL A   1      43.272  23.203  25.486  1.00  0.00     0.010 A 
ATOM     13  C   UNL A   1      43.558  23.641  26.791  1.00  0.00    -0.014 A 
BRANCH  13  14
ATOM     14  C   UNL A   1      44.028  25.013  27.048  1.00  0.00     0.031 A 
ATOM     15  C   UNL A   1      45.406  25.375  26.647  1.00  0.00     0.074 A 
ATOM     16  C   UNL A   1      43.194  25.903  27.604  1.00  0.00     0.049 A 
ATOM     17  N   UNL A   1      46.016  26.512  26.805  1.00  0.00    -0.248 NA
ATOM     18  C   UNL A   1      46.211  24.323  26.006  1.00  0.00     0.031 C 
ATOM     19  C   UNL A   1      41.835  25.565  27.965  1.00  0.00     0.029 A 
ATOM     20  N   UNL A   1      43.313  27.217  27.956  1.00  0.00    -0.354 N 
ATOM     21  C   UNL A   1      47.313  26.286  26.385  1.00  0.00     0.074 A 
ATOM     22  C   UNL A   1      47.386  24.923  25.909  1.00  0.00     0.031 C 
ATOM     23  C   UNL A   1      41.220  26.645  28.460  1.00  0.00     0.029 A 
ATOM     24  C   UNL A   1      42.161  27.742  28.503  1.00  0.00     0.049 A 
ATOM     25  H   UNL A   1      44.140  27.738  27.833  1.00  0.00     0.167 HD
ATOM     26  C   UNL A   1      48.352  27.145  26.458  1.00  0.00     0.034 A 
ATOM     27  C   UNL A   1      41.894  28.967  28.994  1.00  0.00     0.034 A 
ATOM     28  C   UNL A   1      48.223  28.474  26.987  1.00  0.00     0.049 A 
ATOM     29  C   UNL A   1      43.041  29.931  28.963  1.00  0.00     0.074 A 
ATOM     30  C   UNL A   1      49.199  29.433  27.165  1.00  0.00     0.029 A 
ATOM     31  N   UNL A   1      47.029  29.023  27.451  1.00  0.00    -0.354 N 
ATOM     32  N   UNL A   1      44.257  29.725  28.513  1.00  0.00    -0.248 NA
ATOM     33  C   UNL A   1      42.808  31.278  29.488  1.00  0.00     0.031 C 
ATOM     34  C   UNL A   1      48.602  30.545  27.771  1.00  0.00     0.029 A 
ATOM     35  C   UNL A   1      47.244  30.301  27.925  1.00  0.00     0.049 A 
ATOM     36  H   UNL A   1      46.157  28.564  27.442  1.00  0.00     0.167 HD
ATOM     37  C   UNL A   1      44.938  30.914  28.690  1.00  0.00     0.074 A 
ATOM     38  C   UNL A   1      43.981  31.855  29.251  1.00  0.00     0.031 C 
ATOM     39  C   UNL A   1      46.238  31.198  28.444  1.00  0.00     0.034 A 
BRANCH  26  40
ATOM     40  C   UNL A   1      49.690  26.592  26.066  1.00  0.00     0.023 A 
ATOM     41  C   UNL A   1      50.405  25.751  26.945  1.00  0.00     0.012 A 
ATOM     42  C   UNL A   1      50.294  27.014  24.866  1.00  0.00     0.148 A 
ATOM     43  C   UNL A   1      51.723  25.393  26.664  1.00  0.00     0.002 A 
ATOM     44  C   UNL A   1      51.590  26.613  24.571  1.00  0.00     0.091 A 
ATOM     45  F   UNL A   1      49.614  27.846  24.066  1.00  0.00    -0.205 F 
ATOM     46  C   UNL A   1      52.314  25.820  25.477  1.00  0.00     0.022 A 
BRANCH  44  47
ATOM     47  S   UNL A   1      52.415  27.071  23.045  1.00  0.00     0.127 S 
ATOM     48  O   UNL A   1      51.369  26.812  22.056  1.00  0.00    -0.237 OA
ATOM     49  O   UNL A   1      52.705  28.488  23.271  1.00  0.00    -0.237 OA
ATOM     50  O   UNL A   1      53.590  26.219  22.951  1.00  0.00    -0.744 OA
ENDBRANCH  44  47
ENDBRANCH  26  40
BRANCH  27  51
ATOM     51  C   UNL A   1      40.518  29.340  29.459  1.00  0.00     0.023 A 
ATOM     52  C   UNL A   1      39.508  29.584  28.506  1.00  0.00     0.012 A 
ATOM     53  C   UNL A   1      40.164  29.364  30.826  1.00  0.00     0.148 A 
ATOM     54  C   UNL A   1      38.193  29.855  28.897  1.00  0.00     0.002 A 
ATOM     55  C   UNL A   1      38.835  29.540  31.204  1.00  0.00     0.091 A 
ATOM     56  F   UNL A   1      41.128  29.171  31.737  1.00  0.00    -0.205 F 
ATOM     57  C   UNL A   1      37.851  29.807  30.243  1.00  0.00     0.022 A 
BRANCH  55  58
ATOM     58  S   UNL A   1      38.268  29.302  32.895  1.00  0.00     0.127 S 
ATOM     59  O   UNL A   1      37.291  30.378  33.037  1.00  0.00    -0.237 OA
ATOM     60  O   UNL A   1      37.700  27.955  32.829  1.00  0.00    -0.237 OA
ATOM     61  O   UNL A   1      39.456  29.413  33.730  1.00  0.00    -0.744 OA
ENDBRANCH  55  58
ENDBRANCH  27  51
BRANCH  39  62
ATOM     62  C   UNL A   1      46.683  32.591  28.762  1.00  0.00     0.023 A 
ATOM     63  C   UNL A   1      47.200  32.892  30.037  1.00  0.00     0.012 A 
ATOM     64  C   UNL A   1      46.673  33.572  27.754  1.00  0.00     0.148 A 
ATOM     65  C   UNL A   1      47.690  34.165  30.310  1.00  0.00     0.002 A 
ATOM     66  C   UNL A   1      47.213  34.819  28.017  1.00  0.00     0.091 A 
ATOM     67  F   UNL A   1      46.147  33.256  26.562  1.00  0.00    -0.205 F 
ATOM     68  C   UNL A   1      47.711  35.122  29.297  1.00  0.00     0.022 A 
BRANCH  66  69
ATOM     69  S   UNL A   1      47.381  36.073  26.747  1.00  0.00     0.127 S 
ATOM     70  O   UNL A   1      45.990  36.277  26.346  1.00  0.00    -0.237 OA
ATOM     71  O   UNL A   1      47.974  37.183  27.491  1.00  0.00    -0.237 OA
ATOM     72  O   UNL A   1      48.243  35.499  25.722  1.00  0.00    -0.744 OA
ENDBRANCH  66  69
ENDBRANCH  39  62
ENDBRANCH  13  14
ENDBRANCH   6   8
ENDBRANCH   5   6
ENDBRANCH   4   5
ENDBRANCH   3   4
ENDBRANCH   2   3
ENDBRANCH   1   2
BRANCH   1  73
ATOM     73  C   UNL A   1      36.628  22.970  23.996  1.00  0.00     0.188 C 
BRANCH  73  74
ATOM     74  O   UNL A   1      35.703  21.899  23.861  1.00  0.00    -0.376 OA
BRANCH  74  75
ATOM     75  C   UNL A   1      34.375  22.131  24.311  1.00  0.00     0.202 C 
BRANCH  75  76
ATOM     76  C   UNL A   1      33.243  22.258  23.283  1.00  0.00     0.261 C 
BRANCH  76  77
ATOM     77  O   UNL A   1      32.491  23.475  23.322  1.00  0.00    -0.462 OA
BRANCH  77  78
ATOM     78  C   UNL A   1      33.201  24.621  23.072  1.00  0.00     0.333 C 
ATOM     79  O   UNL A   1      34.157  24.665  22.305  1.00  0.00    -0.250 OA
BRANCH  78  80
ATOM     80  C   UNL A   1      32.684  25.792  23.929  1.00  0.00     0.180 C 
ATOM     81  Cl  UNL A   1      32.195  25.067  25.553  1.00  0.00    -0.100 Cl
ATOM     82  C   UNL A   1      33.796  26.751  24.323  1.00  0.00     0.009 C 
ATOM     83  C   UNL A   1      31.413  26.458  23.286  1.00  0.00     0.148 C 
ATOM     84  C   UNL A   1      33.562  28.056  24.495  1.00  0.00    -0.002 C 
ATOM     85  C   UNL A   1      31.310  27.947  23.560  1.00  0.00    -0.020 C 
ATOM     86  Cl  UNL A   1      31.212  26.177  21.504  1.00  0.00    -0.115 Cl
ATOM     87  C   UNL A   1      32.255  28.601  24.253  1.00  0.00     0.006 C 
BRANCH  85  88
ATOM     88  C   UNL A   1      30.134  28.668  23.040  1.00  0.00    -0.021 A 
ATOM     89  C   UNL A   1      30.324  29.714  22.115  1.00  0.00     0.008 A 
ATOM     90  C   UNL A   1      28.838  28.311  23.400  1.00  0.00     0.008 A 
ATOM     91  C   UNL A   1      29.238  30.375  21.544  1.00  0.00     0.001 A 
ATOM     92  C   UNL A   1      27.750  28.957  22.806  1.00  0.00     0.001 A 
ATOM     93  C   UNL A   1      27.946  29.986  21.883  1.00  0.00     0.000 A 
ENDBRANCH  85  88
ENDBRANCH  78  80
ENDBRANCH  77  78
ENDBRANCH  76  77
ENDBRANCH  75  76
ENDBRANCH  74  75
ENDBRANCH  73  74
ENDBRANCH   1  73
TORSDOF 21
ENDMDL
MODEL 3
REMARK VINA RESULT:     -10.4      5.232      9.379
REMARK SMILES O=C(OCCOCCOCCOC(=O)[C@@]1(Cl)C=CC=C(c2ccccc2)[C@H]1Cl)c1ccc(-c2c3nc(c(-c4cccc(S(=O)(=O)[O-])c4F)c4ccc([nH]4)c(-c4cccc(S(=O)(=O)[O-])c4F)c4nc(c(-c5cccc(S(=O)(=O)[O-])c5F)c5ccc2[nH]5)C=C4)C=C3)cc1
REMARK SMILES IDX 7 1 6 2 5 3 4 4 3 5 2 6 1 7 29 8 30 9 91 10 31 11 90 12
REMARK SMILES IDX 32 13 33 14 34 15 84 16 35 17 89 18 83 19 85 20 36 21 88 22
REMARK SMILES IDX 82 23 81 24 37 26 69 27 49 28 68 29 50 30 53 31 67 32 86 33
REMARK SMILES IDX 51 34 52 35 66 37 87 38 54 39 38 40 39 41 47 42 40 43 42 44
REMARK SMILES IDX 48 45 41 46 43 47 44 48 45 49 46 50 70 51 71 52 79 53 72 54
REMARK SMILES IDX 74 55 80 56 73 57 75 58 76 59 77 60 78 61 55 62 56 63 64 64
REMARK SMILES IDX 57 65 59 66 65 67 58 68 60 69 61 70 62 71 63 72 8 73 9 74
REMARK SMILES IDX 10 75 11 76 12 77 13 78 14 79 15 80 16 81 17 82 27 83 18 84
REMARK SMILES IDX 20 85 28 86 19 87 21 88 22 89 26 90 23 91 25 92 24 93
REMARK H PARENT 85 25 53 36
REMARK Flexibility Score: inf
ROOT
ATOM      1  C   UNL A   1      36.993  22.835  24.750  1.00  0.00     0.188 C 
ENDROOT
BRANCH   1   2
ATOM      2  O   UNL A   1      37.667  23.039  25.986  1.00  0.00    -0.376 OA
BRANCH   2   3
ATOM      3  C   UNL A   1      38.982  22.479  26.130  1.00  0.00     0.202 C 
BRANCH   3   4
ATOM      4  C   UNL A   1      39.235  21.003  25.762  1.00  0.00     0.261 C 
BRANCH   4   5
ATOM      5  O   UNL A   1      40.179  20.431  26.671  1.00  0.00    -0.460 OA
BRANCH   5   6
ATOM      6  C   UNL A   1      41.344  19.952  26.176  1.00  0.00     0.338 C 
ATOM      7  O   UNL A   1      41.581  18.835  25.755  1.00  0.00    -0.246 OA
BRANCH   6   8
ATOM      8  C   UNL A   1      42.298  21.063  26.345  1.00  0.00     0.060 A 
ATOM      9  C   UNL A   1      42.671  21.406  27.655  1.00  0.00     0.016 A 
ATOM     10  C   UNL A   1      42.711  21.829  25.260  1.00  0.00     0.016 A 
ATOM     11  C   UNL A   1      43.276  22.615  27.910  1.00  0.00     0.010 A 
ATOM     12  C   UNL A   1      43.376  23.027  25.513  1.00  0.00     0.010 A 
ATOM     13  C   UNL A   1      43.589  23.448  26.838  1.00  0.00    -0.014 A 
BRANCH  13  14
ATOM     14  C   UNL A   1      44.055  24.812  27.137  1.00  0.00     0.031 A 
ATOM     15  C   UNL A   1      43.118  25.752  27.795  1.00  0.00     0.074 A 
ATOM     16  C   UNL A   1      45.315  25.160  26.842  1.00  0.00     0.049 A 
ATOM     17  N   UNL A   1      43.321  26.994  28.119  1.00  0.00    -0.248 NA
ATOM     18  C   UNL A   1      41.775  25.241  28.110  1.00  0.00     0.031 C 
ATOM     19  C   UNL A   1      46.246  24.235  26.233  1.00  0.00     0.029 A 
ATOM     20  N   UNL A   1      46.039  26.307  26.993  1.00  0.00    -0.354 N 
ATOM     21  C   UNL A   1      42.101  27.452  28.577  1.00  0.00     0.074 A 
ATOM     22  C   UNL A   1      41.178  26.338  28.546  1.00  0.00     0.031 C 
ATOM     23  C   UNL A   1      47.436  24.828  26.085  1.00  0.00     0.029 A 
ATOM     24  C   UNL A   1      47.338  26.197  26.539  1.00  0.00     0.049 A 
ATOM     25  H   UNL A   1      45.671  27.132  27.385  1.00  0.00     0.167 HD
ATOM     26  C   UNL A   1      41.787  28.716  28.930  1.00  0.00     0.034 A 
ATOM     27  C   UNL A   1      48.335  27.100  26.487  1.00  0.00     0.034 A 
ATOM     28  C   UNL A   1      42.741  29.790  28.894  1.00  0.00     0.049 A 
ATOM     29  C   UNL A   1      47.984  28.469  26.986  1.00  0.00     0.074 A 
ATOM     30  C   UNL A   1      42.549  31.126  29.179  1.00  0.00     0.029 A 
ATOM     31  N   UNL A   1      44.076  29.643  28.522  1.00  0.00    -0.354 N 
ATOM     32  N   UNL A   1      46.836  28.883  27.469  1.00  0.00    -0.248 NA
ATOM     33  C   UNL A   1      49.031  29.492  26.948  1.00  0.00     0.031 C 
ATOM     34  C   UNL A   1      43.758  31.792  28.941  1.00  0.00     0.029 A 
ATOM     35  C   UNL A   1      44.718  30.864  28.558  1.00  0.00     0.049 A 
ATOM     36  H   UNL A   1      44.499  28.790  28.270  1.00  0.00     0.167 HD
ATOM     37  C   UNL A   1      47.016  30.211  27.802  1.00  0.00     0.074 A 
ATOM     38  C   UNL A   1      48.405  30.523  27.505  1.00  0.00     0.031 C 
ATOM     39  C   UNL A   1      46.115  31.101  28.279  1.00  0.00     0.034 A 
BRANCH  26  40
ATOM     40  C   UNL A   1      40.344  28.970  29.251  1.00  0.00     0.023 A 
ATOM     41  C   UNL A   1      39.452  29.409  28.250  1.00  0.00     0.012 A 
ATOM     42  C   UNL A   1      39.902  28.890  30.586  1.00  0.00     0.148 A 
ATOM     43  C   UNL A   1      38.164  29.826  28.584  1.00  0.00     0.002 A 
ATOM     44  C   UNL A   1      38.603  29.261  30.903  1.00  0.00     0.091 A 
ATOM     45  F   UNL A   1      40.777  28.510  31.527  1.00  0.00    -0.205 F 
ATOM     46  C   UNL A   1      37.739  29.748  29.908  1.00  0.00     0.022 A 
BRANCH  44  47
ATOM     47  S   UNL A   1      37.950  29.147  32.570  1.00  0.00     0.127 S 
ATOM     48  O   UNL A   1      38.015  27.707  32.815  1.00  0.00    -0.237 OA
ATOM     49  O   UNL A   1      38.917  29.941  33.329  1.00  0.00    -0.237 OA
ATOM     50  O   UNL A   1      36.609  29.713  32.517  1.00  0.00    -0.744 OA
ENDBRANCH  44  47
ENDBRANCH  26  40
BRANCH  27  51
ATOM     51  C   UNL A   1      49.711  26.718  26.030  1.00  0.00     0.023 A 
ATOM     52  C   UNL A   1      50.468  25.811  26.798  1.00  0.00     0.012 A 
ATOM     53  C   UNL A   1      50.248  27.161  24.801  1.00  0.00     0.148 A 
ATOM     54  C   UNL A   1      51.722  25.367  26.369  1.00  0.00     0.002 A 
ATOM     55  C   UNL A   1      51.454  26.641  24.334  1.00  0.00     0.091 A 
ATOM     56  F   UNL A   1      49.550  28.053  24.085  1.00  0.00    -0.205 F 
ATOM     57  C   UNL A   1      52.203  25.760  25.125  1.00  0.00     0.022 A 
BRANCH  55  58
ATOM     58  S   UNL A   1      52.055  26.937  22.665  1.00  0.00     0.127 S 
ATOM     59  O   UNL A   1      50.846  26.737  21.870  1.00  0.00    -0.237 OA
ATOM     60  O   UNL A   1      52.512  28.325  22.757  1.00  0.00    -0.237 OA
ATOM     61  O   UNL A   1      53.120  25.967  22.450  1.00  0.00    -0.744 OA
ENDBRANCH  55  58
ENDBRANCH  27  51
BRANCH  39  62
ATOM     62  C   UNL A   1      46.621  32.488  28.526  1.00  0.00     0.023 A 
ATOM     63  C   UNL A   1      46.555  33.455  27.505  1.00  0.00     0.012 A 
ATOM     64  C   UNL A   1      47.071  32.845  29.810  1.00  0.00     0.148 A 
ATOM     65  C   UNL A   1      46.950  34.765  27.757  1.00  0.00     0.002 A 
ATOM     66  C   UNL A   1      47.409  34.162  30.067  1.00  0.00     0.091 A 
ATOM     67  F   UNL A   1      47.147  31.890  30.748  1.00  0.00    -0.205 F 
ATOM     68  C   UNL A   1      47.360  35.121  29.040  1.00  0.00     0.022 A 
BRANCH  66  69
ATOM     69  S   UNL A   1      47.843  34.733  31.711  1.00  0.00     0.127 S 
ATOM     70  O   UNL A   1      49.052  33.957  31.984  1.00  0.00    -0.237 OA
ATOM     71  O   UNL A   1      48.068  36.160  31.488  1.00  0.00    -0.237 OA
ATOM     72  O   UNL A   1      46.703  34.422  32.562  1.00  0.00    -0.744 OA
ENDBRANCH  66  69
ENDBRANCH  39  62
ENDBRANCH  13  14
ENDBRANCH   6   8
ENDBRANCH   5   6
ENDBRANCH   4   5
ENDBRANCH   3   4
ENDBRANCH   2   3
ENDBRANCH   1   2
BRANCH   1  73
ATOM     73  C   UNL A   1      35.463  22.832  24.804  1.00  0.00     0.188 C 
BRANCH  73  74
ATOM     74  O   UNL A   1      34.747  23.066  23.598  1.00  0.00    -0.376 OA
BRANCH  74  75
ATOM     75  C   UNL A   1      33.446  23.625  23.716  1.00  0.00     0.202 C 
BRANCH  75  76
ATOM     76  C   UNL A   1      32.823  24.341  22.510  1.00  0.00     0.261 C 
BRANCH  76  77
ATOM     77  O   UNL A   1      31.456  24.742  22.654  1.00  0.00    -0.462 OA
BRANCH  77  78
ATOM     78  C   UNL A   1      31.206  26.077  22.475  1.00  0.00     0.333 C 
ATOM     79  O   UNL A   1      31.394  26.659  21.412  1.00  0.00    -0.250 OA
BRANCH  78  80
ATOM     80  C   UNL A   1      30.735  26.735  23.787  1.00  0.00     0.180 C 
ATOM     81  Cl  UNL A   1      29.171  27.626  23.384  1.00  0.00    -0.100 Cl
ATOM     82  C   UNL A   1      30.270  25.710  24.809  1.00  0.00     0.009 C 
ATOM     83  C   UNL A   1      31.779  27.787  24.310  1.00  0.00     0.148 C 
ATOM     84  C   UNL A   1      30.408  25.924  26.121  1.00  0.00    -0.002 C 
ATOM     85  C   UNL A   1      31.823  27.891  25.823  1.00  0.00    -0.020 C 
ATOM     86  Cl  UNL A   1      33.472  27.570  23.692  1.00  0.00    -0.115 Cl
ATOM     87  C   UNL A   1      31.056  27.112  26.603  1.00  0.00     0.006 C 
BRANCH  85  88
ATOM     88  C   UNL A   1      32.736  28.878  26.425  1.00  0.00    -0.021 A 
ATOM     89  C   UNL A   1      32.285  30.197  26.626  1.00  0.00     0.008 A 
ATOM     90  C   UNL A   1      34.017  28.530  26.846  1.00  0.00     0.008 A 
ATOM     91  C   UNL A   1      33.091  31.145  27.257  1.00  0.00     0.001 A 
ATOM     92  C   UNL A   1      34.812  29.474  27.503  1.00  0.00     0.001 A 
ATOM     93  C   UNL A   1      34.354  30.777  27.707  1.00  0.00     0.000 A 
ENDBRANCH  85  88
ENDBRANCH  78  80
ENDBRANCH  77  78
ENDBRANCH  76  77
ENDBRANCH  75  76
ENDBRANCH  74  75
ENDBRANCH  73  74
ENDBRANCH   1  73
TORSDOF 21
ENDMDL
