MODEL 1
REMARK VINA RESULT:     -11.3      0.000      0.000
REMARK SMILES O=C(OCCOCCOCCOC(=O)c1cc(/C=C/c2cc(O)cc(O)c2)ccc1O)c1ccc(-c2c3nc(c(-c4cccc(S(=O)(=O)[O-])c4F)c4ccc([nH]4)c(-c4cccc(S(=O)(=O)[O-])c4F)c4nc(c(-c5cccc(S(=O)(=O)[O-])c5F)c5ccc2[nH]5)C=C4)C=C3)cc1
REMARK SMILES IDX 7 1 6 2 5 3 4 4 3 5 2 6 1 7 32 8 33 9 94 10 34 11 93 12
REMARK SMILES IDX 35 13 36 14 37 15 87 16 38 17 92 18 86 19 88 20 39 21 91 22
REMARK SMILES IDX 85 23 84 24 40 26 72 27 52 28 71 29 53 30 56 31 70 32 89 33
REMARK SMILES IDX 54 34 55 35 69 37 90 38 57 39 41 40 42 41 50 42 43 43 45 44
REMARK SMILES IDX 51 45 44 46 46 47 47 48 48 49 49 50 73 51 74 52 82 53 75 54
REMARK SMILES IDX 77 55 83 56 76 57 78 58 79 59 80 60 81 61 58 62 59 63 67 64
REMARK SMILES IDX 60 65 62 66 68 67 61 68 63 69 64 70 65 71 66 72 8 73 9 74
REMARK SMILES IDX 10 75 11 76 12 77 13 78 14 79 15 80 16 81 30 82 17 83 29 84
REMARK SMILES IDX 28 85 31 86 18 88 19 89 20 90 21 91 27 92 22 93 25 94 24 95
REMARK SMILES IDX 23 96 26 98
REMARK H PARENT 88 25 56 36 31 87 23 97 26 99
REMARK Flexibility Score: inf
ROOT
ATOM      1  C   UNL A   1      35.821  20.496  25.010  1.00  0.00     0.188 C 
ENDROOT
BRANCH   1   2
ATOM      2  O   UNL A   1      36.778  21.351  25.645  1.00  0.00    -0.376 OA
BRANCH   2   3
ATOM      3  C   UNL A   1      38.113  21.190  25.163  1.00  0.00     0.202 C 
BRANCH   3   4
ATOM      4  C   UNL A   1      38.754  19.848  25.534  1.00  0.00     0.261 C 
BRANCH   4   5
ATOM      5  O   UNL A   1      40.174  19.969  25.728  1.00  0.00    -0.460 OA
BRANCH   5   6
ATOM      6  C   UNL A   1      40.826  20.379  26.848  1.00  0.00     0.338 C 
ATOM      7  O   UNL A   1      41.333  19.531  27.582  1.00  0.00    -0.246 OA
BRANCH   6   8
ATOM      8  C   UNL A   1      41.026  21.816  27.201  1.00  0.00     0.060 A 
ATOM      9  C   UNL A   1      40.496  22.896  26.494  1.00  0.00     0.016 A 
ATOM     10  C   UNL A   1      41.766  22.089  28.364  1.00  0.00     0.016 A 
ATOM     11  C   UNL A   1      40.822  24.205  26.831  1.00  0.00     0.010 A 
ATOM     12  C   UNL A   1      42.028  23.406  28.757  1.00  0.00     0.010 A 
ATOM     13  C   UNL A   1      41.604  24.470  27.955  1.00  0.00    -0.014 A 
BRANCH  13  14
ATOM     14  C   UNL A   1      42.038  25.860  28.213  1.00  0.00     0.031 A 
ATOM     15  C   UNL A   1      43.399  26.296  27.756  1.00  0.00     0.074 A 
ATOM     16  C   UNL A   1      41.181  26.742  28.758  1.00  0.00     0.049 A 
ATOM     17  N   UNL A   1      43.965  27.468  27.860  1.00  0.00    -0.248 NA
ATOM     18  C   UNL A   1      44.225  25.285  27.074  1.00  0.00     0.031 C 
ATOM     19  C   UNL A   1      39.810  26.434  29.166  1.00  0.00     0.029 A 
ATOM     20  N   UNL A   1      41.324  28.075  29.045  1.00  0.00    -0.354 N 
ATOM     21  C   UNL A   1      45.223  27.328  27.288  1.00  0.00     0.074 A 
ATOM     22  C   UNL A   1      45.342  25.959  26.843  1.00  0.00     0.031 C 
ATOM     23  C   UNL A   1      39.234  27.551  29.635  1.00  0.00     0.029 A 
ATOM     24  C   UNL A   1      40.209  28.634  29.624  1.00  0.00     0.049 A 
ATOM     25  H   UNL A   1      42.146  28.583  28.856  1.00  0.00     0.167 HD
ATOM     26  C   UNL A   1      46.186  28.265  27.133  1.00  0.00     0.034 A 
ATOM     27  C   UNL A   1      40.004  29.872  30.111  1.00  0.00     0.034 A 
ATOM     28  C   UNL A   1      46.048  29.630  27.559  1.00  0.00     0.049 A 
ATOM     29  C   UNL A   1      41.111  30.879  29.980  1.00  0.00     0.074 A 
ATOM     30  C   UNL A   1      46.968  30.658  27.473  1.00  0.00     0.029 A 
ATOM     31  N   UNL A   1      44.909  30.153  28.155  1.00  0.00    -0.354 N 
ATOM     32  N   UNL A   1      42.278  30.743  29.396  1.00  0.00    -0.248 NA
ATOM     33  C   UNL A   1      40.872  32.212  30.546  1.00  0.00     0.031 C 
ATOM     34  C   UNL A   1      46.387  31.804  28.030  1.00  0.00     0.029 A 
ATOM     35  C   UNL A   1      45.103  31.491  28.450  1.00  0.00     0.049 A 
ATOM     36  H   UNL A   1      44.086  29.648  28.342  1.00  0.00     0.167 HD
ATOM     37  C   UNL A   1      42.901  31.978  29.499  1.00  0.00     0.074 A 
ATOM     38  C   UNL A   1      41.973  32.857  30.184  1.00  0.00     0.031 C 
ATOM     39  C   UNL A   1      44.136  32.350  29.084  1.00  0.00     0.034 A 
BRANCH  26  40
ATOM     40  C   UNL A   1      47.462  27.828  26.470  1.00  0.00     0.023 A 
ATOM     41  C   UNL A   1      48.575  27.481  27.261  1.00  0.00     0.012 A 
ATOM     42  C   UNL A   1      47.565  27.782  25.067  1.00  0.00     0.148 A 
ATOM     43  C   UNL A   1      49.784  27.122  26.665  1.00  0.00     0.002 A 
ATOM     44  C   UNL A   1      48.763  27.393  24.480  1.00  0.00     0.091 A 
ATOM     45  F   UNL A   1      46.504  28.149  24.335  1.00  0.00    -0.205 F 
ATOM     46  C   UNL A   1      49.875  27.072  25.275  1.00  0.00     0.022 A 
BRANCH  44  47
ATOM     47  S   UNL A   1      48.964  27.258  22.701  1.00  0.00     0.127 S 
ATOM     48  O   UNL A   1      48.354  25.956  22.433  1.00  0.00    -0.237 OA
ATOM     49  O   UNL A   1      48.193  28.403  22.215  1.00  0.00    -0.237 OA
ATOM     50  O   UNL A   1      50.396  27.344  22.453  1.00  0.00    -0.744 OA
ENDBRANCH  44  47
ENDBRANCH  26  40
BRANCH  27  51
ATOM     51  C   UNL A   1      38.698  30.219  30.742  1.00  0.00     0.023 A 
ATOM     52  C   UNL A   1      38.483  29.953  32.107  1.00  0.00     0.012 A 
ATOM     53  C   UNL A   1      37.687  30.865  30.004  1.00  0.00     0.148 A 
ATOM     54  C   UNL A   1      37.277  30.303  32.719  1.00  0.00     0.002 A 
ATOM     55  C   UNL A   1      36.520  31.276  30.637  1.00  0.00     0.091 A 
ATOM     56  F   UNL A   1      37.895  31.095  28.700  1.00  0.00    -0.205 F 
ATOM     57  C   UNL A   1      36.302  30.977  31.989  1.00  0.00     0.022 A 
BRANCH  55  58
ATOM     58  S   UNL A   1      35.323  32.334  29.817  1.00  0.00     0.127 S 
ATOM     59  O   UNL A   1      34.360  32.588  30.881  1.00  0.00    -0.237 OA
ATOM     60  O   UNL A   1      36.154  33.477  29.433  1.00  0.00    -0.237 OA
ATOM     61  O   UNL A   1      34.840  31.558  28.681  1.00  0.00    -0.744 OA
ENDBRANCH  55  58
ENDBRANCH  27  51
BRANCH  39  62
ATOM     62  C   UNL A   1      44.546  33.773  29.338  1.00  0.00     0.023 A 
ATOM     63  C   UNL A   1      45.009  34.145  30.613  1.00  0.00     0.012 A 
ATOM     64  C   UNL A   1      44.547  34.715  28.293  1.00  0.00     0.148 A 
ATOM     65  C   UNL A   1      45.452  35.444  30.852  1.00  0.00     0.002 A 
ATOM     66  C   UNL A   1      45.029  35.997  28.526  1.00  0.00     0.091 A 
ATOM     67  F   UNL A   1      44.073  34.345  27.094  1.00  0.00    -0.205 F 
ATOM     68  C   UNL A   1      45.474  36.366  29.806  1.00  0.00     0.022 A 
BRANCH  66  69
ATOM     69  S   UNL A   1      45.178  37.207  27.210  1.00  0.00     0.127 S 
ATOM     70  O   UNL A   1      43.778  37.486  26.900  1.00  0.00    -0.237 OA
ATOM     71  O   UNL A   1      45.887  38.305  27.870  1.00  0.00    -0.237 OA
ATOM     72  O   UNL A   1      45.941  36.551  26.156  1.00  0.00    -0.744 OA
ENDBRANCH  66  69
ENDBRANCH  39  62
ENDBRANCH  13  14
ENDBRANCH   6   8
ENDBRANCH   5   6
ENDBRANCH   4   5
ENDBRANCH   3   4
ENDBRANCH   2   3
ENDBRANCH   1   2
BRANCH   1  73
ATOM     73  C   UNL A   1      34.524  21.257  24.724  1.00  0.00     0.188 C 
BRANCH  73  74
ATOM     74  O   UNL A   1      33.338  20.470  24.853  1.00  0.00    -0.376 OA
BRANCH  74  75
ATOM     75  C   UNL A   1      32.229  20.853  24.040  1.00  0.00     0.202 C 
BRANCH  75  76
ATOM     76  C   UNL A   1      32.530  21.777  22.854  1.00  0.00     0.261 C 
BRANCH  76  77
ATOM     77  O   UNL A   1      31.712  22.957  22.774  1.00  0.00    -0.460 OA
BRANCH  77  78
ATOM     78  C   UNL A   1      32.411  24.123  22.778  1.00  0.00     0.342 C 
ATOM     79  O   UNL A   1      33.467  24.345  22.206  1.00  0.00    -0.246 OA
BRANCH  78  80
ATOM     80  C   UNL A   1      31.698  25.157  23.540  1.00  0.00     0.102 A 
ATOM     81  C   UNL A   1      31.185  26.279  22.864  1.00  0.00     0.027 A 
ATOM     82  C   UNL A   1      31.718  25.118  24.936  1.00  0.00     0.130 A 
ATOM     83  C   UNL A   1      30.679  27.369  23.587  1.00  0.00    -0.025 A 
ATOM     84  C   UNL A   1      31.233  26.201  25.659  1.00  0.00     0.048 A 
ATOM     85  C   UNL A   1      30.716  27.312  24.989  1.00  0.00     0.012 A 
BRANCH  82  86
ATOM     86  O   UNL A   1      32.235  24.042  25.600  1.00  0.00    -0.507 OA
ATOM     87  H   UNL A   1      31.683  23.522  26.149  1.00  0.00     0.293 HD
ENDBRANCH  82  86
BRANCH  83  88
ATOM     88  C   UNL A   1      30.209  28.624  22.972  1.00  0.00     0.009 C 
ATOM     89  C   UNL A   1      29.104  29.321  23.283  1.00  0.00     0.009 C 
BRANCH  89  90
ATOM     90  C   UNL A   1      28.728  30.556  22.570  1.00  0.00    -0.018 A 
ATOM     91  C   UNL A   1      28.221  30.528  21.260  1.00  0.00     0.054 A 
ATOM     92  C   UNL A   1      28.838  31.788  23.227  1.00  0.00     0.054 A 
ATOM     93  C   UNL A   1      27.866  31.715  20.620  1.00  0.00     0.119 A 
ATOM     94  C   UNL A   1      28.481  32.965  22.566  1.00  0.00     0.119 A 
ATOM     95  C   UNL A   1      27.995  32.937  21.265  1.00  0.00     0.092 A 
BRANCH  93  96
ATOM     96  O   UNL A   1      27.381  31.712  19.343  1.00  0.00    -0.508 OA
ATOM     97  H   UNL A   1      27.970  31.627  18.619  1.00  0.00     0.293 HD
ENDBRANCH  93  96
BRANCH  94  98
ATOM     98  O   UNL A   1      28.598  34.182  23.174  1.00  0.00    -0.508 OA
ATOM     99  H   UNL A   1      27.835  34.694  23.348  1.00  0.00     0.293 HD
ENDBRANCH  94  98
ENDBRANCH  89  90
ENDBRANCH  83  88
ENDBRANCH  78  80
ENDBRANCH  77  78
ENDBRANCH  76  77
ENDBRANCH  75  76
ENDBRANCH  74  75
ENDBRANCH  73  74
ENDBRANCH   1  73
TORSDOF 25
ENDMDL
MODEL 2
REMARK VINA RESULT:     -10.8      1.635      2.082
REMARK SMILES O=C(OCCOCCOCCOC(=O)c1cc(/C=C/c2cc(O)cc(O)c2)ccc1O)c1ccc(-c2c3nc(c(-c4cccc(S(=O)(=O)[O-])c4F)c4ccc([nH]4)c(-c4cccc(S(=O)(=O)[O-])c4F)c4nc(c(-c5cccc(S(=O)(=O)[O-])c5F)c5ccc2[nH]5)C=C4)C=C3)cc1
REMARK SMILES IDX 7 1 6 2 5 3 4 4 3 5 2 6 1 7 32 8 33 9 94 10 34 11 93 12
REMARK SMILES IDX 35 13 36 14 37 15 87 16 38 17 92 18 86 19 88 20 39 21 91 22
REMARK SMILES IDX 85 23 84 24 40 26 72 27 52 28 71 29 53 30 56 31 70 32 89 33
REMARK SMILES IDX 54 34 55 35 69 37 90 38 57 39 41 40 42 41 50 42 43 43 45 44
REMARK SMILES IDX 51 45 44 46 46 47 47 48 48 49 49 50 73 51 74 52 82 53 75 54
REMARK SMILES IDX 77 55 83 56 76 57 78 58 79 59 80 60 81 61 58 62 59 63 67 64
REMARK SMILES IDX 60 65 62 66 68 67 61 68 63 69 64 70 65 71 66 72 8 73 9 74
REMARK SMILES IDX 10 75 11 76 12 77 13 78 14 79 15 80 16 81 30 82 17 83 29 84
REMARK SMILES IDX 28 85 31 86 18 88 19 89 20 90 21 91 27 92 22 93 25 94 24 95
REMARK SMILES IDX 23 96 26 98
REMARK H PARENT 88 25 56 36 31 87 23 97 26 99
REMARK Flexibility Score: inf
ROOT
ATOM      1  C   UNL A   1      35.002  22.093  24.545  1.00  0.00     0.188 C 
ENDROOT
BRANCH   1   2
ATOM      2  O   UNL A   1      36.297  21.688  24.089  1.00  0.00    -0.376 OA
BRANCH   2   3
ATOM      3  C   UNL A   1      36.880  20.632  24.854  1.00  0.00     0.202 C 
BRANCH   3   4
ATOM      4  C   UNL A   1      38.108  21.056  25.668  1.00  0.00     0.261 C 
BRANCH   4   5
ATOM      5  O   UNL A   1      39.094  20.010  25.730  1.00  0.00    -0.460 OA
BRANCH   5   6
ATOM      6  C   UNL A   1      40.390  20.114  26.127  1.00  0.00     0.338 C 
ATOM      7  O   UNL A   1      41.112  19.119  26.061  1.00  0.00    -0.246 OA
BRANCH   6   8
ATOM      8  C   UNL A   1      41.010  21.397  26.574  1.00  0.00     0.060 A 
ATOM      9  C   UNL A   1      41.116  21.817  27.900  1.00  0.00     0.016 A 
ATOM     10  C   UNL A   1      41.571  22.215  25.577  1.00  0.00     0.016 A 
ATOM     11  C   UNL A   1      41.612  23.076  28.218  1.00  0.00     0.010 A 
ATOM     12  C   UNL A   1      42.148  23.447  25.899  1.00  0.00     0.010 A 
ATOM     13  C   UNL A   1      42.118  23.908  27.219  1.00  0.00    -0.014 A 
BRANCH  13  14
ATOM     14  C   UNL A   1      42.519  25.287  27.571  1.00  0.00     0.031 A 
ATOM     15  C   UNL A   1      43.901  25.757  27.221  1.00  0.00     0.074 A 
ATOM     16  C   UNL A   1      41.621  26.133  28.105  1.00  0.00     0.049 A 
ATOM     17  N   UNL A   1      44.446  26.926  27.418  1.00  0.00    -0.248 NA
ATOM     18  C   UNL A   1      44.778  24.788  26.542  1.00  0.00     0.031 C 
ATOM     19  C   UNL A   1      40.231  25.794  28.412  1.00  0.00     0.029 A 
ATOM     20  N   UNL A   1      41.731  27.451  28.467  1.00  0.00    -0.354 N 
ATOM     21  C   UNL A   1      45.738  26.826  26.919  1.00  0.00     0.074 A 
ATOM     22  C   UNL A   1      45.900  25.481  26.414  1.00  0.00     0.031 C 
ATOM     23  C   UNL A   1      39.615  26.882  28.900  1.00  0.00     0.029 A 
ATOM     24  C   UNL A   1      40.577  27.971  29.003  1.00  0.00     0.049 A 
ATOM     25  H   UNL A   1      42.558  27.975  28.354  1.00  0.00     0.167 HD
ATOM     26  C   UNL A   1      46.699  27.777  26.869  1.00  0.00     0.034 A 
ATOM     27  C   UNL A   1      40.328  29.182  29.537  1.00  0.00     0.034 A 
ATOM     28  C   UNL A   1      46.519  29.117  27.354  1.00  0.00     0.049 A 
ATOM     29  C   UNL A   1      41.430  30.203  29.525  1.00  0.00     0.074 A 
ATOM     30  C   UNL A   1      47.431  30.156  27.376  1.00  0.00     0.029 A 
ATOM     31  N   UNL A   1      45.341  29.601  27.904  1.00  0.00    -0.354 N 
ATOM     32  N   UNL A   1      42.632  30.106  29.008  1.00  0.00    -0.248 NA
ATOM     33  C   UNL A   1      41.141  31.504  30.141  1.00  0.00     0.031 C 
ATOM     34  C   UNL A   1      46.805  31.268  27.952  1.00  0.00     0.029 A 
ATOM     35  C   UNL A   1      45.501  30.923  28.276  1.00  0.00     0.049 A 
ATOM     36  H   UNL A   1      44.513  29.081  28.014  1.00  0.00     0.167 HD
ATOM     37  C   UNL A   1      43.234  31.340  29.211  1.00  0.00     0.074 A 
ATOM     38  C   UNL A   1      42.255  32.175  29.879  1.00  0.00     0.031 C 
ATOM     39  C   UNL A   1      44.488  31.742  28.891  1.00  0.00     0.034 A 
BRANCH  26  40
ATOM     40  C   UNL A   1      48.018  27.384  26.266  1.00  0.00     0.023 A 
ATOM     41  C   UNL A   1      48.255  27.618  24.896  1.00  0.00     0.012 A 
ATOM     42  C   UNL A   1      49.011  26.766  27.047  1.00  0.00     0.148 A 
ATOM     43  C   UNL A   1      49.452  27.214  24.306  1.00  0.00     0.002 A 
ATOM     44  C   UNL A   1      50.214  26.395  26.459  1.00  0.00     0.091 A 
ATOM     45  F   UNL A   1      48.750  26.523  28.339  1.00  0.00    -0.205 F 
ATOM     46  C   UNL A   1      50.433  26.608  25.088  1.00  0.00     0.022 A 
BRANCH  44  47
ATOM     47  S   UNL A   1      51.553  25.647  27.394  1.00  0.00     0.127 S 
ATOM     48  O   UNL A   1      52.247  24.887  26.356  1.00  0.00    -0.237 OA
ATOM     49  O   UNL A   1      52.282  26.819  27.881  1.00  0.00    -0.237 OA
ATOM     50  O   UNL A   1      50.918  24.854  28.436  1.00  0.00    -0.744 OA
ENDBRANCH  44  47
ENDBRANCH  26  40
BRANCH  27  51
ATOM     51  C   UNL A   1      38.983  29.486  30.103  1.00  0.00     0.023 A 
ATOM     52  C   UNL A   1      38.679  29.127  31.429  1.00  0.00     0.012 A 
ATOM     53  C   UNL A   1      38.020  30.182  29.346  1.00  0.00     0.148 A 
ATOM     54  C   UNL A   1      37.433  29.435  31.983  1.00  0.00     0.002 A 
ATOM     55  C   UNL A   1      36.812  30.549  29.927  1.00  0.00     0.091 A 
ATOM     56  F   UNL A   1      38.313  30.501  28.077  1.00  0.00    -0.205 F 
ATOM     57  C   UNL A   1      36.507  30.159  31.238  1.00  0.00     0.022 A 
BRANCH  55  58
ATOM     58  S   UNL A   1      35.668  31.663  29.104  1.00  0.00     0.127 S 
ATOM     59  O   UNL A   1      34.763  32.027  30.188  1.00  0.00    -0.237 OA
ATOM     60  O   UNL A   1      36.567  32.726  28.650  1.00  0.00    -0.237 OA
ATOM     61  O   UNL A   1      35.092  30.884  28.016  1.00  0.00    -0.744 OA
ENDBRANCH  55  58
ENDBRANCH  27  51
BRANCH  39  62
ATOM     62  C   UNL A   1      44.865  33.153  29.240  1.00  0.00     0.023 A 
ATOM     63  C   UNL A   1      45.428  33.430  30.499  1.00  0.00     0.012 A 
ATOM     64  C   UNL A   1      44.735  34.185  28.292  1.00  0.00     0.148 A 
ATOM     65  C   UNL A   1      45.841  34.722  30.819  1.00  0.00     0.002 A 
ATOM     66  C   UNL A   1      45.188  35.461  28.601  1.00  0.00     0.091 A 
ATOM     67  F   UNL A   1      44.168  33.903  27.110  1.00  0.00    -0.205 F 
ATOM     68  C   UNL A   1      45.734  35.734  29.866  1.00  0.00     0.022 A 
BRANCH  66  69
ATOM     69  S   UNL A   1      45.171  36.790  27.395  1.00  0.00     0.127 S 
ATOM     70  O   UNL A   1      45.839  37.865  28.127  1.00  0.00    -0.237 OA
ATOM     71  O   UNL A   1      45.950  36.226  26.292  1.00  0.00    -0.237 OA
ATOM     72  O   UNL A   1      43.767  37.019  27.080  1.00  0.00    -0.744 OA
ENDBRANCH  66  69
ENDBRANCH  39  62
ENDBRANCH  13  14
ENDBRANCH   6   8
ENDBRANCH   5   6
ENDBRANCH   4   5
ENDBRANCH   3   4
ENDBRANCH   2   3
ENDBRANCH   1   2
BRANCH   1  73
ATOM     73  C   UNL A   1      34.400  23.137  23.602  1.00  0.00     0.188 C 
BRANCH  73  74
ATOM     74  O   UNL A   1      33.398  22.627  22.719  1.00  0.00    -0.376 OA
BRANCH  74  75
ATOM     75  C   UNL A   1      32.116  22.370  23.290  1.00  0.00     0.202 C 
BRANCH  75  76
ATOM     76  C   UNL A   1      31.388  23.567  23.915  1.00  0.00     0.261 C 
BRANCH  76  77
ATOM     77  O   UNL A   1      31.583  23.733  25.329  1.00  0.00    -0.460 OA
BRANCH  77  78
ATOM     78  C   UNL A   1      30.886  24.767  25.872  1.00  0.00     0.342 C 
ATOM     79  O   UNL A   1      29.860  24.691  26.530  1.00  0.00    -0.246 OA
BRANCH  78  80
ATOM     80  C   UNL A   1      31.563  26.045  25.616  1.00  0.00     0.102 A 
ATOM     81  C   UNL A   1      30.843  27.097  25.021  1.00  0.00     0.027 A 
ATOM     82  C   UNL A   1      32.947  26.133  25.772  1.00  0.00     0.130 A 
ATOM     83  C   UNL A   1      31.510  28.252  24.586  1.00  0.00    -0.025 A 
ATOM     84  C   UNL A   1      33.618  27.266  25.329  1.00  0.00     0.048 A 
ATOM     85  C   UNL A   1      32.903  28.316  24.745  1.00  0.00     0.012 A 
BRANCH  82  86
ATOM     86  O   UNL A   1      33.657  25.107  26.330  1.00  0.00    -0.507 OA
ATOM     87  H   UNL A   1      34.401  24.755  25.883  1.00  0.00     0.293 HD
ENDBRANCH  82  86
BRANCH  83  88
ATOM     88  C   UNL A   1      30.859  29.363  23.867  1.00  0.00     0.009 C 
ATOM     89  C   UNL A   1      29.574  29.447  23.487  1.00  0.00     0.009 C 
BRANCH  89  90
ATOM     90  C   UNL A   1      29.049  30.609  22.746  1.00  0.00    -0.018 A 
ATOM     91  C   UNL A   1      28.461  30.471  21.477  1.00  0.00     0.054 A 
ATOM     92  C   UNL A   1      29.098  31.878  23.335  1.00  0.00     0.054 A 
ATOM     93  C   UNL A   1      27.966  31.591  20.809  1.00  0.00     0.119 A 
ATOM     94  C   UNL A   1      28.600  32.987  22.647  1.00  0.00     0.119 A 
ATOM     95  C   UNL A   1      28.033  32.851  21.386  1.00  0.00     0.092 A 
BRANCH  93  96
ATOM     96  O   UNL A   1      27.400  31.482  19.571  1.00  0.00    -0.508 OA
ATOM     97  H   UNL A   1      27.290  30.638  19.178  1.00  0.00     0.293 HD
ENDBRANCH  93  96
BRANCH  94  98
ATOM     98  O   UNL A   1      28.655  34.239  23.188  1.00  0.00    -0.508 OA
ATOM     99  H   UNL A   1      28.308  34.395  24.044  1.00  0.00     0.293 HD
ENDBRANCH  94  98
ENDBRANCH  89  90
ENDBRANCH  83  88
ENDBRANCH  78  80
ENDBRANCH  77  78
ENDBRANCH  76  77
ENDBRANCH  75  76
ENDBRANCH  74  75
ENDBRANCH  73  74
ENDBRANCH   1  73
TORSDOF 25
ENDMDL
MODEL 3
REMARK VINA RESULT:     -10.4      4.949     10.686
REMARK SMILES O=C(OCCOCCOCCOC(=O)c1cc(/C=C/c2cc(O)cc(O)c2)ccc1O)c1ccc(-c2c3nc(c(-c4cccc(S(=O)(=O)[O-])c4F)c4ccc([nH]4)c(-c4cccc(S(=O)(=O)[O-])c4F)c4nc(c(-c5cccc(S(=O)(=O)[O-])c5F)c5ccc2[nH]5)C=C4)C=C3)cc1
REMARK SMILES IDX 7 1 6 2 5 3 4 4 3 5 2 6 1 7 32 8 33 9 94 10 34 11 93 12
REMARK SMILES IDX 35 13 36 14 37 15 87 16 38 17 92 18 86 19 88 20 39 21 91 22
REMARK SMILES IDX 85 23 84 24 40 26 72 27 52 28 71 29 53 30 56 31 70 32 89 33
REMARK SMILES IDX 54 34 55 35 69 37 90 38 57 39 41 40 42 41 50 42 43 43 45 44
REMARK SMILES IDX 51 45 44 46 46 47 47 48 48 49 49 50 73 51 74 52 82 53 75 54
REMARK SMILES IDX 77 55 83 56 76 57 78 58 79 59 80 60 81 61 58 62 59 63 67 64
REMARK SMILES IDX 60 65 62 66 68 67 61 68 63 69 64 70 65 71 66 72 8 73 9 74
REMARK SMILES IDX 10 75 11 76 12 77 13 78 14 79 15 80 16 81 30 82 17 83 29 84
REMARK SMILES IDX 28 85 31 86 18 88 19 89 20 90 21 91 27 92 22 93 25 94 24 95
REMARK SMILES IDX 23 96 26 98
REMARK H PARENT 88 25 56 36 31 87 23 97 26 99
REMARK Flexibility Score: inf
ROOT
ATOM      1  C   UNL A   1      33.213  27.626  26.659  1.00  0.00     0.188 C 
ENDROOT
BRANCH   1   2
ATOM      2  O   UNL A   1      31.991  28.340  26.443  1.00  0.00    -0.376 OA
BRANCH   2   3
ATOM      3  C   UNL A   1      31.798  29.446  27.325  1.00  0.00     0.202 C 
BRANCH   3   4
ATOM      4  C   UNL A   1      31.642  30.794  26.612  1.00  0.00     0.261 C 
BRANCH   4   5
ATOM      5  O   UNL A   1      32.905  31.464  26.455  1.00  0.00    -0.460 OA
BRANCH   5   6
ATOM      6  C   UNL A   1      33.488  32.346  27.310  1.00  0.00     0.338 C 
ATOM      7  O   UNL A   1      32.934  33.426  27.516  1.00  0.00    -0.246 OA
BRANCH   6   8
ATOM      8  C   UNL A   1      34.735  32.045  28.074  1.00  0.00     0.060 A 
ATOM      9  C   UNL A   1      35.860  32.868  28.128  1.00  0.00     0.016 A 
ATOM     10  C   UNL A   1      34.748  30.861  28.832  1.00  0.00     0.016 A 
ATOM     11  C   UNL A   1      37.019  32.459  28.778  1.00  0.00     0.010 A 
ATOM     12  C   UNL A   1      35.882  30.483  29.557  1.00  0.00     0.010 A 
ATOM     13  C   UNL A   1      37.045  31.256  29.484  1.00  0.00    -0.014 A 
BRANCH  13  14
ATOM     14  C   UNL A   1      38.327  30.790  30.055  1.00  0.00     0.031 A 
ATOM     15  C   UNL A   1      38.717  31.235  31.434  1.00  0.00     0.074 A 
ATOM     16  C   UNL A   1      39.077  29.899  29.383  1.00  0.00     0.049 A 
ATOM     17  N   UNL A   1      39.779  30.929  32.127  1.00  0.00    -0.248 NA
ATOM     18  C   UNL A   1      37.777  32.129  32.132  1.00  0.00     0.031 C 
ATOM     19  C   UNL A   1      38.746  29.346  28.070  1.00  0.00     0.029 A 
ATOM     20  N   UNL A   1      40.258  29.286  29.715  1.00  0.00    -0.354 N 
ATOM     21  C   UNL A   1      39.654  31.615  33.328  1.00  0.00     0.074 A 
ATOM     22  C   UNL A   1      38.416  32.359  33.270  1.00  0.00     0.031 C 
ATOM     23  C   UNL A   1      39.694  28.465  27.716  1.00  0.00     0.029 A 
ATOM     24  C   UNL A   1      40.729  28.438  28.741  1.00  0.00     0.049 A 
ATOM     25  H   UNL A   1      40.725  29.440  30.569  1.00  0.00     0.167 HD
ATOM     26  C   UNL A   1      40.488  31.610  34.393  1.00  0.00     0.034 A 
ATOM     27  C   UNL A   1      41.876  27.735  28.671  1.00  0.00     0.034 A 
ATOM     28  C   UNL A   1      41.705  30.849  34.449  1.00  0.00     0.049 A 
ATOM     29  C   UNL A   1      42.816  27.793  29.842  1.00  0.00     0.074 A 
ATOM     30  C   UNL A   1      42.638  30.788  35.467  1.00  0.00     0.029 A 
ATOM     31  N   UNL A   1      42.155  30.014  33.436  1.00  0.00    -0.354 N 
ATOM     32  N   UNL A   1      42.660  28.412  30.989  1.00  0.00    -0.248 NA
ATOM     33  C   UNL A   1      44.071  27.042  29.727  1.00  0.00     0.031 C 
ATOM     34  C   UNL A   1      43.661  29.922  35.062  1.00  0.00     0.029 A 
ATOM     35  C   UNL A   1      43.357  29.436  33.799  1.00  0.00     0.049 A 
ATOM     36  H   UNL A   1      41.688  29.857  32.584  1.00  0.00     0.167 HD
ATOM     37  C   UNL A   1      43.783  28.103  31.743  1.00  0.00     0.074 A 
ATOM     38  C   UNL A   1      44.601  27.224  30.930  1.00  0.00     0.031 C 
ATOM     39  C   UNL A   1      44.119  28.522  32.987  1.00  0.00     0.034 A 
BRANCH  26  40
ATOM     40  C   UNL A   1      40.095  32.456  35.572  1.00  0.00     0.023 A 
ATOM     41  C   UNL A   1      39.375  31.877  36.635  1.00  0.00     0.012 A 
ATOM     42  C   UNL A   1      40.420  33.824  35.615  1.00  0.00     0.148 A 
ATOM     43  C   UNL A   1      38.956  32.656  37.714  1.00  0.00     0.002 A 
ATOM     44  C   UNL A   1      40.027  34.587  36.709  1.00  0.00     0.091 A 
ATOM     45  F   UNL A   1      41.077  34.360  34.577  1.00  0.00    -0.205 F 
ATOM     46  C   UNL A   1      39.288  34.009  37.753  1.00  0.00     0.022 A 
BRANCH  44  47
ATOM     47  S   UNL A   1      40.444  36.327  36.868  1.00  0.00     0.127 S 
ATOM     48  O   UNL A   1      41.900  36.271  36.988  1.00  0.00    -0.237 OA
ATOM     49  O   UNL A   1      39.957  36.878  35.602  1.00  0.00    -0.237 OA
ATOM     50  O   UNL A   1      39.734  36.801  38.047  1.00  0.00    -0.744 OA
ENDBRANCH  44  47
ENDBRANCH  26  40
BRANCH  27  51
ATOM     51  C   UNL A   1      42.175  26.913  27.465  1.00  0.00     0.023 A 
ATOM     52  C   UNL A   1      42.865  27.482  26.378  1.00  0.00     0.012 A 
ATOM     53  C   UNL A   1      41.827  25.549  27.413  1.00  0.00     0.148 A 
ATOM     54  C   UNL A   1      43.182  26.714  25.254  1.00  0.00     0.002 A 
ATOM     55  C   UNL A   1      42.209  24.774  26.325  1.00  0.00     0.091 A 
ATOM     56  F   UNL A   1      41.151  25.023  28.445  1.00  0.00    -0.205 F 
ATOM     57  C   UNL A   1      42.868  25.358  25.234  1.00  0.00     0.022 A 
BRANCH  55  58
ATOM     58  S   UNL A   1      42.032  22.987  26.328  1.00  0.00     0.127 S 
ATOM     59  O   UNL A   1      42.766  22.609  27.529  1.00  0.00    -0.237 OA
ATOM     60  O   UNL A   1      40.577  22.835  26.406  1.00  0.00    -0.237 OA
ATOM     61  O   UNL A   1      42.596  22.544  25.060  1.00  0.00    -0.744 OA
ENDBRANCH  55  58
ENDBRANCH  27  51
BRANCH  39  62
ATOM     62  C   UNL A   1      45.415  28.018  33.553  1.00  0.00     0.023 A 
ATOM     63  C   UNL A   1      46.587  28.781  33.393  1.00  0.00     0.012 A 
ATOM     64  C   UNL A   1      45.453  26.832  34.310  1.00  0.00     0.148 A 
ATOM     65  C   UNL A   1      47.786  28.361  33.964  1.00  0.00     0.002 A 
ATOM     66  C   UNL A   1      46.642  26.441  34.912  1.00  0.00     0.091 A 
ATOM     67  F   UNL A   1      44.331  26.107  34.425  1.00  0.00    -0.205 F 
ATOM     68  C   UNL A   1      47.811  27.199  34.734  1.00  0.00     0.022 A 
BRANCH  66  69
ATOM     69  S   UNL A   1      46.731  25.013  35.995  1.00  0.00     0.127 S 
ATOM     70  O   UNL A   1      46.662  23.909  35.040  1.00  0.00    -0.237 OA
ATOM     71  O   UNL A   1      48.035  25.184  36.637  1.00  0.00    -0.237 OA
ATOM     72  O   UNL A   1      45.597  25.135  36.902  1.00  0.00    -0.744 OA
ENDBRANCH  66  69
ENDBRANCH  39  62
ENDBRANCH  13  14
ENDBRANCH   6   8
ENDBRANCH   5   6
ENDBRANCH   4   5
ENDBRANCH   3   4
ENDBRANCH   2   3
ENDBRANCH   1   2
BRANCH   1  73
ATOM     73  C   UNL A   1      33.992  27.481  25.349  1.00  0.00     0.188 C 
BRANCH  73  74
ATOM     74  O   UNL A   1      34.024  28.665  24.548  1.00  0.00    -0.376 OA
BRANCH  74  75
ATOM     75  C   UNL A   1      34.408  28.499  23.183  1.00  0.00     0.202 C 
BRANCH  75  76
ATOM     76  C   UNL A   1      33.274  28.424  22.153  1.00  0.00     0.261 C 
BRANCH  76  77
ATOM     77  O   UNL A   1      32.691  27.122  21.978  1.00  0.00    -0.460 OA
BRANCH  77  78
ATOM     78  C   UNL A   1      31.366  27.057  22.274  1.00  0.00     0.342 C 
ATOM     79  O   UNL A   1      30.455  27.605  21.673  1.00  0.00    -0.246 OA
BRANCH  78  80
ATOM     80  C   UNL A   1      31.129  26.170  23.422  1.00  0.00     0.102 A 
ATOM     81  C   UNL A   1      31.469  24.809  23.320  1.00  0.00     0.027 A 
ATOM     82  C   UNL A   1      30.389  26.637  24.510  1.00  0.00     0.130 A 
ATOM     83  C   UNL A   1      31.074  23.906  24.317  1.00  0.00    -0.025 A 
ATOM     84  C   UNL A   1      29.980  25.746  25.494  1.00  0.00     0.048 A 
ATOM     85  C   UNL A   1      30.324  24.395  25.398  1.00  0.00     0.012 A 
BRANCH  82  86
ATOM     86  O   UNL A   1      30.037  27.953  24.605  1.00  0.00    -0.507 OA
ATOM     87  H   UNL A   1      30.682  28.621  24.481  1.00  0.00     0.293 HD
ENDBRANCH  82  86
BRANCH  83  88
ATOM     88  C   UNL A   1      31.299  22.450  24.253  1.00  0.00     0.009 C 
ATOM     89  C   UNL A   1      32.467  21.799  24.377  1.00  0.00     0.009 C 
BRANCH  89  90
ATOM     90  C   UNL A   1      32.563  20.332  24.266  1.00  0.00    -0.018 A 
ATOM     91  C   UNL A   1      32.966  19.532  25.349  1.00  0.00     0.054 A 
ATOM     92  C   UNL A   1      32.202  19.710  23.063  1.00  0.00     0.054 A 
ATOM     93  C   UNL A   1      33.036  18.147  25.210  1.00  0.00     0.119 A 
ATOM     94  C   UNL A   1      32.283  18.321  22.945  1.00  0.00     0.119 A 
ATOM     95  C   UNL A   1      32.698  17.533  24.012  1.00  0.00     0.092 A 
BRANCH  93  96
ATOM     96  O   UNL A   1      33.436  17.352  26.247  1.00  0.00    -0.508 OA
ATOM     97  H   UNL A   1      34.330  17.078  26.309  1.00  0.00     0.293 HD
ENDBRANCH  93  96
BRANCH  94  98
ATOM     98  O   UNL A   1      31.959  17.690  21.778  1.00  0.00    -0.508 OA
ATOM     99  H   UNL A   1      31.204  17.139  21.738  1.00  0.00     0.293 HD
ENDBRANCH  94  98
ENDBRANCH  89  90
ENDBRANCH  83  88
ENDBRANCH  78  80
ENDBRANCH  77  78
ENDBRANCH  76  77
ENDBRANCH  75  76
ENDBRANCH  74  75
ENDBRANCH  73  74
ENDBRANCH   1  73
TORSDOF 25
ENDMDL
