MODEL 1
REMARK VINA RESULT:     -10.3      0.000      0.000
REMARK SMILES CSc1ccc([C@H](C)[N@H+]2CC[C@@H](C(=O)OCCOCCOCCOC(=O)c3ccc(-c4c5nc(c(-c6cccc(S(=O)(=O)[O-])c6F)c6ccc([nH]6)c(-c6cccc(S(=O)(=O)[O-])c6F)c6nc(c(-c7cccc(S(=O)(=O)[O-])c7F)c7ccc4[nH]7)C=C6)C=C5)cc3)[C@H]2C)cc1
REMARK SMILES IDX 19 1 18 2 17 3 16 4 15 5 13 6 14 7 12 8 9 9 10 10 90 11
REMARK SMILES IDX 11 13 91 14 7 15 8 16 6 17 3 18 4 19 93 20 5 21 92 22 2 23
REMARK SMILES IDX 1 24 20 25 21 26 22 27 23 28 24 29 25 30 26 31 27 32 28 33
REMARK SMILES IDX 89 34 29 35 88 36 30 37 31 38 32 39 82 40 33 41 87 42 81 43
REMARK SMILES IDX 83 44 34 45 86 46 80 47 79 48 35 50 67 51 47 52 66 53 48 54
REMARK SMILES IDX 51 55 65 56 84 57 49 58 50 59 64 61 85 62 52 63 36 64 37 65
REMARK SMILES IDX 45 66 38 67 40 68 46 69 39 70 41 71 42 72 43 73 44 74 68 75
REMARK SMILES IDX 69 76 77 77 70 78 72 79 78 80 71 81 73 82 74 83 75 84 76 85
REMARK SMILES IDX 53 86 54 87 62 88 55 89 57 90 63 91 56 92 58 93 59 94 60 95
REMARK SMILES IDX 61 96
REMARK H PARENT 9 12 83 49 51 60
REMARK Flexibility Score: inf
ROOT
ATOM      1  C   UNL A   1      28.539  31.505  23.567  1.00  0.00     0.188 C 
ENDROOT
BRANCH   1   2
ATOM      2  O   UNL A   1      28.321  30.307  22.842  1.00  0.00    -0.376 OA
BRANCH   2   3
ATOM      3  C   UNL A   1      29.389  29.840  22.019  1.00  0.00     0.202 C 
BRANCH   3   4
ATOM      4  C   UNL A   1      29.986  28.480  22.377  1.00  0.00     0.261 C 
BRANCH   4   5
ATOM      5  O   UNL A   1      29.730  28.167  23.762  1.00  0.00    -0.463 OA
BRANCH   5   6
ATOM      6  C   UNL A   1      30.774  27.592  24.402  1.00  0.00     0.315 C 
ATOM      7  O   UNL A   1      31.756  28.223  24.785  1.00  0.00    -0.252 OA
BRANCH   6   8
ATOM      8  C   UNL A   1      30.575  26.126  24.747  1.00  0.00     0.162 C 
ATOM      9  N   UNL A   1      31.715  23.981  24.859  1.00  0.00    -0.326 N 
ATOM     10  C   UNL A   1      31.410  24.427  26.219  1.00  0.00     0.264 C 
ATOM     11  C   UNL A   1      31.103  24.944  23.899  1.00  0.00     0.196 C 
ATOM     12  H   UNL A   1      31.263  23.088  24.665  1.00  0.00     0.348 HD
ATOM     13  C   UNL A   1      31.206  25.911  26.119  1.00  0.00     0.083 C 
ATOM     14  C   UNL A   1      31.872  25.263  22.618  1.00  0.00     0.076 C 
BRANCH   9  15
ATOM     15  C   UNL A   1      33.094  23.512  24.639  1.00  0.00     0.212 C 
ATOM     16  C   UNL A   1      34.095  24.136  25.638  1.00  0.00     0.081 C 
BRANCH  15  17
ATOM     17  C   UNL A   1      33.209  21.972  24.580  1.00  0.00     0.009 A 
ATOM     18  C   UNL A   1      33.520  19.161  24.268  1.00  0.00     0.007 A 
ATOM     19  C   UNL A   1      34.477  19.913  24.955  1.00  0.00     0.015 A 
ATOM     20  C   UNL A   1      32.392  19.814  23.779  1.00  0.00     0.015 A 
ATOM     21  C   UNL A   1      34.318  21.298  25.123  1.00  0.00     0.011 A 
ATOM     22  C   UNL A   1      32.223  21.188  23.965  1.00  0.00     0.011 A 
BRANCH  18  23
ATOM     23  S   UNL A   1      33.812  17.415  24.020  1.00  0.00    -0.130 SA
ATOM     24  C   UNL A   1      33.227  16.715  25.588  1.00  0.00     0.091 C 
ENDBRANCH  18  23
ENDBRANCH  15  17
ENDBRANCH   9  15
ENDBRANCH   6   8
ENDBRANCH   5   6
ENDBRANCH   4   5
ENDBRANCH   3   4
ENDBRANCH   2   3
ENDBRANCH   1   2
BRANCH   1  25
ATOM     25  C   UNL A   1      29.911  31.678  24.222  1.00  0.00     0.188 C 
BRANCH  25  26
ATOM     26  O   UNL A   1      30.097  31.411  25.606  1.00  0.00    -0.376 OA
BRANCH  26  27
ATOM     27  C   UNL A   1      31.408  31.598  26.136  1.00  0.00     0.202 C 
BRANCH  27  28
ATOM     28  C   UNL A   1      31.695  32.866  26.960  1.00  0.00     0.261 C 
BRANCH  28  29
ATOM     29  O   UNL A   1      33.047  33.323  26.860  1.00  0.00    -0.460 OA
BRANCH  29  30
ATOM     30  C   UNL A   1      33.542  33.900  27.985  1.00  0.00     0.338 C 
ATOM     31  O   UNL A   1      33.037  34.805  28.631  1.00  0.00    -0.246 OA
BRANCH  30  32
ATOM     32  C   UNL A   1      34.685  33.084  28.457  1.00  0.00     0.060 A 
ATOM     33  C   UNL A   1      34.503  31.697  28.573  1.00  0.00     0.016 A 
ATOM     34  C   UNL A   1      35.943  33.652  28.679  1.00  0.00     0.016 A 
ATOM     35  C   UNL A   1      35.571  30.877  28.941  1.00  0.00     0.010 A 
ATOM     36  C   UNL A   1      37.005  32.835  29.062  1.00  0.00     0.010 A 
ATOM     37  C   UNL A   1      36.816  31.450  29.227  1.00  0.00    -0.014 A 
BRANCH  37  38
ATOM     38  C   UNL A   1      37.861  30.677  29.935  1.00  0.00     0.031 A 
ATOM     39  C   UNL A   1      38.119  31.030  31.373  1.00  0.00     0.074 A 
ATOM     40  C   UNL A   1      38.615  29.756  29.310  1.00  0.00     0.049 A 
ATOM     41  N   UNL A   1      39.073  30.629  32.168  1.00  0.00    -0.248 NA
ATOM     42  C   UNL A   1      37.178  31.982  31.991  1.00  0.00     0.031 C 
ATOM     43  C   UNL A   1      38.450  29.319  27.926  1.00  0.00     0.029 A 
ATOM     44  N   UNL A   1      39.704  29.051  29.761  1.00  0.00    -0.354 N 
ATOM     45  C   UNL A   1      38.879  31.315  33.361  1.00  0.00     0.074 A 
ATOM     46  C   UNL A   1      37.714  32.153  33.189  1.00  0.00     0.031 C 
ATOM     47  C   UNL A   1      39.432  28.447  27.626  1.00  0.00     0.029 A 
ATOM     48  C   UNL A   1      40.312  28.295  28.784  1.00  0.00     0.049 A 
ATOM     49  H   UNL A   1      40.020  29.083  30.693  1.00  0.00     0.167 HD
ATOM     50  C   UNL A   1      39.604  31.252  34.499  1.00  0.00     0.034 A 
ATOM     51  C   UNL A   1      41.464  27.594  28.819  1.00  0.00     0.034 A 
ATOM     52  C   UNL A   1      40.748  30.404  34.674  1.00  0.00     0.049 A 
ATOM     53  C   UNL A   1      42.271  27.565  30.096  1.00  0.00     0.074 A 
ATOM     54  C   UNL A   1      41.515  30.223  35.809  1.00  0.00     0.029 A 
ATOM     55  N   UNL A   1      41.299  29.610  33.682  1.00  0.00    -0.354 N 
ATOM     56  N   UNL A   1      42.010  28.121  31.254  1.00  0.00    -0.248 NA
ATOM     57  C   UNL A   1      43.525  26.794  30.075  1.00  0.00     0.031 C 
ATOM     58  C   UNL A   1      42.553  29.341  35.494  1.00  0.00     0.029 A 
ATOM     59  C   UNL A   1      42.409  28.948  34.173  1.00  0.00     0.049 A 
ATOM     60  H   UNL A   1      40.952  29.529  32.764  1.00  0.00     0.167 HD
ATOM     61  C   UNL A   1      43.038  27.729  32.109  1.00  0.00     0.074 A 
ATOM     62  C   UNL A   1      43.922  26.882  31.337  1.00  0.00     0.031 C 
ATOM     63  C   UNL A   1      43.238  28.051  33.411  1.00  0.00     0.034 A 
BRANCH  50  64
ATOM     64  C   UNL A   1      39.176  32.120  35.648  1.00  0.00     0.023 A 
ATOM     65  C   UNL A   1      38.296  31.611  36.623  1.00  0.00     0.012 A 
ATOM     66  C   UNL A   1      39.685  33.426  35.786  1.00  0.00     0.148 A 
ATOM     67  C   UNL A   1      37.909  32.396  37.707  1.00  0.00     0.002 A 
ATOM     68  C   UNL A   1      39.330  34.187  36.892  1.00  0.00     0.091 A 
ATOM     69  F   UNL A   1      40.495  33.900  34.829  1.00  0.00    -0.205 F 
ATOM     70  C   UNL A   1      38.434  33.679  37.847  1.00  0.00     0.022 A 
BRANCH  68  71
ATOM     71  S   UNL A   1      40.014  35.818  37.202  1.00  0.00     0.127 S 
ATOM     72  O   UNL A   1      39.309  36.206  38.423  1.00  0.00    -0.237 OA
ATOM     73  O   UNL A   1      41.436  35.525  37.385  1.00  0.00    -0.237 OA
ATOM     74  O   UNL A   1      39.704  36.615  36.024  1.00  0.00    -0.744 OA
ENDBRANCH  68  71
ENDBRANCH  50  64
BRANCH  51  75
ATOM     75  C   UNL A   1      41.925  26.839  27.619  1.00  0.00     0.023 A 
ATOM     76  C   UNL A   1      42.523  27.539  26.553  1.00  0.00     0.012 A 
ATOM     77  C   UNL A   1      41.766  25.443  27.517  1.00  0.00     0.148 A 
ATOM     78  C   UNL A   1      42.921  26.870  25.394  1.00  0.00     0.002 A 
ATOM     79  C   UNL A   1      42.211  24.775  26.382  1.00  0.00     0.091 A 
ATOM     80  F   UNL A   1      41.176  24.797  28.533  1.00  0.00    -0.205 F 
ATOM     81  C   UNL A   1      42.774  25.489  25.312  1.00  0.00     0.022 A 
BRANCH  79  82
ATOM     82  S   UNL A   1      42.167  22.985  26.235  1.00  0.00     0.127 S 
ATOM     83  O   UNL A   1      42.742  22.780  24.909  1.00  0.00    -0.237 OA
ATOM     84  O   UNL A   1      43.022  22.571  27.349  1.00  0.00    -0.237 OA
ATOM     85  O   UNL A   1      40.767  22.613  26.382  1.00  0.00    -0.744 OA
ENDBRANCH  79  82
ENDBRANCH  51  75
BRANCH  63  86
ATOM     86  C   UNL A   1      44.422  27.446  34.120  1.00  0.00     0.023 A 
ATOM     87  C   UNL A   1      45.671  28.093  34.083  1.00  0.00     0.012 A 
ATOM     88  C   UNL A   1      44.259  26.297  34.922  1.00  0.00     0.148 A 
ATOM     89  C   UNL A   1      46.748  27.595  34.816  1.00  0.00     0.002 A 
ATOM     90  C   UNL A   1      45.321  25.836  35.688  1.00  0.00     0.091 A 
ATOM     91  F   UNL A   1      43.064  25.690  34.933  1.00  0.00    -0.205 F 
ATOM     92  C   UNL A   1      46.570  26.476  35.628  1.00  0.00     0.022 A 
BRANCH  90  93
ATOM     93  S   UNL A   1      45.158  24.469  36.841  1.00  0.00     0.127 S 
ATOM     94  O   UNL A   1      44.047  24.916  37.679  1.00  0.00    -0.237 OA
ATOM     95  O   UNL A   1      44.841  23.350  35.953  1.00  0.00    -0.237 OA
ATOM     96  O   UNL A   1      46.442  24.356  37.520  1.00  0.00    -0.744 OA
ENDBRANCH  90  93
ENDBRANCH  63  86
ENDBRANCH  37  38
ENDBRANCH  30  32
ENDBRANCH  29  30
ENDBRANCH  28  29
ENDBRANCH  27  28
ENDBRANCH  26  27
ENDBRANCH  25  26
ENDBRANCH   1  25
TORSDOF 23
ENDMDL
MODEL 2
REMARK VINA RESULT:      -9.4      1.444      2.047
REMARK SMILES CSc1ccc([C@H](C)[N@H+]2CC[C@@H](C(=O)OCCOCCOCCOC(=O)c3ccc(-c4c5nc(c(-c6cccc(S(=O)(=O)[O-])c6F)c6ccc([nH]6)c(-c6cccc(S(=O)(=O)[O-])c6F)c6nc(c(-c7cccc(S(=O)(=O)[O-])c7F)c7ccc4[nH]7)C=C6)C=C5)cc3)[C@H]2C)cc1
REMARK SMILES IDX 19 1 18 2 17 3 16 4 15 5 13 6 14 7 12 8 9 9 10 10 90 11
REMARK SMILES IDX 11 13 91 14 7 15 8 16 6 17 3 18 4 19 93 20 5 21 92 22 2 23
REMARK SMILES IDX 1 24 20 25 21 26 22 27 23 28 24 29 25 30 26 31 27 32 28 33
REMARK SMILES IDX 89 34 29 35 88 36 30 37 31 38 32 39 82 40 33 41 87 42 81 43
REMARK SMILES IDX 83 44 34 45 86 46 80 47 79 48 35 50 67 51 47 52 66 53 48 54
REMARK SMILES IDX 51 55 65 56 84 57 49 58 50 59 64 61 85 62 52 63 36 64 37 65
REMARK SMILES IDX 45 66 38 67 40 68 46 69 39 70 41 71 42 72 43 73 44 74 68 75
REMARK SMILES IDX 69 76 77 77 70 78 72 79 78 80 71 81 73 82 74 83 75 84 76 85
REMARK SMILES IDX 53 86 54 87 62 88 55 89 57 90 63 91 56 92 58 93 59 94 60 95
REMARK SMILES IDX 61 96
REMARK H PARENT 9 12 83 49 51 60
REMARK Flexibility Score: inf
ROOT
ATOM      1  C   UNL A   1      29.684  29.146  23.060  1.00  0.00     0.188 C 
ENDROOT
BRANCH   1   2
ATOM      2  O   UNL A   1      29.919  28.001  22.257  1.00  0.00    -0.376 OA
BRANCH   2   3
ATOM      3  C   UNL A   1      31.278  27.633  22.030  1.00  0.00     0.202 C 
BRANCH   3   4
ATOM      4  C   UNL A   1      31.692  26.231  22.473  1.00  0.00     0.261 C 
BRANCH   4   5
ATOM      5  O   UNL A   1      33.126  26.148  22.609  1.00  0.00    -0.463 OA
BRANCH   5   6
ATOM      6  C   UNL A   1      33.598  24.889  22.753  1.00  0.00     0.315 C 
ATOM      7  O   UNL A   1      33.287  23.967  22.003  1.00  0.00    -0.252 OA
BRANCH   6   8
ATOM      8  C   UNL A   1      34.661  24.731  23.826  1.00  0.00     0.162 C 
ATOM      9  N   UNL A   1      35.197  23.532  25.872  1.00  0.00    -0.326 N 
ATOM     10  C   UNL A   1      36.087  23.070  24.807  1.00  0.00     0.264 C 
ATOM     11  C   UNL A   1      34.374  24.657  25.345  1.00  0.00     0.196 C 
ATOM     12  H   UNL A   1      35.735  23.932  26.640  1.00  0.00     0.348 HD
ATOM     13  C   UNL A   1      35.396  23.429  23.523  1.00  0.00     0.083 C 
ATOM     14  C   UNL A   1      32.922  24.759  25.809  1.00  0.00     0.076 C 
BRANCH   9  15
ATOM     15  C   UNL A   1      34.555  22.470  26.667  1.00  0.00     0.212 C 
ATOM     16  C   UNL A   1      33.479  23.022  27.629  1.00  0.00     0.081 C 
BRANCH  15  17
ATOM     17  C   UNL A   1      34.026  21.302  25.805  1.00  0.00     0.009 A 
ATOM     18  C   UNL A   1      33.112  19.272  24.032  1.00  0.00     0.007 A 
ATOM     19  C   UNL A   1      34.400  19.220  24.575  1.00  0.00     0.015 A 
ATOM     20  C   UNL A   1      32.276  20.318  24.414  1.00  0.00     0.015 A 
ATOM     21  C   UNL A   1      34.846  20.212  25.461  1.00  0.00     0.011 A 
ATOM     22  C   UNL A   1      32.713  21.294  25.312  1.00  0.00     0.011 A 
BRANCH  18  23
ATOM     23  S   UNL A   1      32.624  18.023  22.851  1.00  0.00    -0.130 SA
ATOM     24  C   UNL A   1      33.897  16.754  23.105  1.00  0.00     0.091 C 
ENDBRANCH  18  23
ENDBRANCH  15  17
ENDBRANCH   9  15
ENDBRANCH   6   8
ENDBRANCH   5   6
ENDBRANCH   4   5
ENDBRANCH   3   4
ENDBRANCH   2   3
ENDBRANCH   1   2
BRANCH   1  25
ATOM     25  C   UNL A   1      30.725  29.462  24.135  1.00  0.00     0.188 C 
BRANCH  25  26
ATOM     26  O   UNL A   1      30.802  28.688  25.326  1.00  0.00    -0.376 OA
BRANCH  26  27
ATOM     27  C   UNL A   1      31.825  29.029  26.260  1.00  0.00     0.202 C 
BRANCH  27  28
ATOM     28  C   UNL A   1      31.995  30.505  26.662  1.00  0.00     0.261 C 
BRANCH  28  29
ATOM     29  O   UNL A   1      33.313  31.013  26.439  1.00  0.00    -0.460 OA
BRANCH  29  30
ATOM     30  C   UNL A   1      33.769  31.863  27.396  1.00  0.00     0.338 C 
ATOM     31  O   UNL A   1      33.181  32.825  27.866  1.00  0.00    -0.246 OA
BRANCH  30  32
ATOM     32  C   UNL A   1      35.009  31.291  27.969  1.00  0.00     0.060 A 
ATOM     33  C   UNL A   1      35.118  29.893  28.045  1.00  0.00     0.016 A 
ATOM     34  C   UNL A   1      36.090  32.103  28.324  1.00  0.00     0.016 A 
ATOM     35  C   UNL A   1      36.296  29.304  28.507  1.00  0.00     0.010 A 
ATOM     36  C   UNL A   1      37.261  31.515  28.800  1.00  0.00     0.010 A 
ATOM     37  C   UNL A   1      37.357  30.117  28.925  1.00  0.00    -0.014 A 
BRANCH  37  38
ATOM     38  C   UNL A   1      38.470  29.557  29.724  1.00  0.00     0.031 A 
ATOM     39  C   UNL A   1      38.626  30.061  31.131  1.00  0.00     0.074 A 
ATOM     40  C   UNL A   1      39.364  28.700  29.200  1.00  0.00     0.049 A 
ATOM     41  N   UNL A   1      39.596  29.863  31.981  1.00  0.00    -0.248 NA
ATOM     42  C   UNL A   1      37.543  30.922  31.640  1.00  0.00     0.031 C 
ATOM     43  C   UNL A   1      39.310  28.130  27.856  1.00  0.00     0.029 A 
ATOM     44  N   UNL A   1      40.521  28.192  29.737  1.00  0.00    -0.354 N 
ATOM     45  C   UNL A   1      39.268  30.612  33.104  1.00  0.00     0.074 A 
ATOM     46  C   UNL A   1      38.007  31.265  32.831  1.00  0.00     0.031 C 
ATOM     47  C   UNL A   1      40.410  27.380  27.658  1.00  0.00     0.029 A 
ATOM     48  C   UNL A   1      41.261  27.448  28.846  1.00  0.00     0.049 A 
ATOM     49  H   UNL A   1      40.796  28.344  30.670  1.00  0.00     0.167 HD
ATOM     50  C   UNL A   1      39.954  30.745  34.260  1.00  0.00     0.034 A 
ATOM     51  C   UNL A   1      42.495  26.918  28.970  1.00  0.00     0.034 A 
ATOM     52  C   UNL A   1      41.194  30.080  34.537  1.00  0.00     0.049 A 
ATOM     53  C   UNL A   1      43.252  27.107  30.264  1.00  0.00     0.074 A 
ATOM     54  C   UNL A   1      41.938  30.102  35.702  1.00  0.00     0.029 A 
ATOM     55  N   UNL A   1      41.883  29.290  33.632  1.00  0.00    -0.354 N 
ATOM     56  N   UNL A   1      42.877  27.716  31.362  1.00  0.00    -0.248 NA
ATOM     57  C   UNL A   1      44.599  26.517  30.341  1.00  0.00     0.031 C 
ATOM     58  C   UNL A   1      43.096  29.349  35.491  1.00  0.00     0.029 A 
ATOM     59  C   UNL A   1      43.054  28.831  34.206  1.00  0.00     0.049 A 
ATOM     60  H   UNL A   1      41.583  29.086  32.717  1.00  0.00     0.167 HD
ATOM     61  C   UNL A   1      43.916  27.542  32.273  1.00  0.00     0.074 A 
ATOM     62  C   UNL A   1      44.934  26.763  31.600  1.00  0.00     0.031 C 
ATOM     63  C   UNL A   1      44.024  27.996  33.546  1.00  0.00     0.034 A 
BRANCH  50  64
ATOM     64  C   UNL A   1      39.371  31.639  35.319  1.00  0.00     0.023 A 
ATOM     65  C   UNL A   1      38.416  31.129  36.221  1.00  0.00     0.012 A 
ATOM     66  C   UNL A   1      39.807  32.972  35.448  1.00  0.00     0.148 A 
ATOM     67  C   UNL A   1      37.884  31.939  37.222  1.00  0.00     0.002 A 
ATOM     68  C   UNL A   1      39.306  33.760  36.476  1.00  0.00     0.091 A 
ATOM     69  F   UNL A   1      40.692  33.444  34.559  1.00  0.00    -0.205 F 
ATOM     70  C   UNL A   1      38.337  33.250  37.356  1.00  0.00     0.022 A 
BRANCH  68  71
ATOM     71  S   UNL A   1      39.883  35.433  36.780  1.00  0.00     0.127 S 
ATOM     72  O   UNL A   1      39.076  35.818  37.936  1.00  0.00    -0.237 OA
ATOM     73  O   UNL A   1      41.302  35.219  37.069  1.00  0.00    -0.237 OA
ATOM     74  O   UNL A   1      39.618  36.179  35.558  1.00  0.00    -0.744 OA
ENDBRANCH  68  71
ENDBRANCH  50  64
BRANCH  51  75
ATOM     75  C   UNL A   1      43.097  26.136  27.852  1.00  0.00     0.023 A 
ATOM     76  C   UNL A   1      43.942  26.788  26.933  1.00  0.00     0.012 A 
ATOM     77  C   UNL A   1      42.832  24.763  27.683  1.00  0.00     0.148 A 
ATOM     78  C   UNL A   1      44.483  26.098  25.846  1.00  0.00     0.002 A 
ATOM     79  C   UNL A   1      43.415  24.069  26.629  1.00  0.00     0.091 A 
ATOM     80  F   UNL A   1      42.009  24.164  28.555  1.00  0.00    -0.205 F 
ATOM     81  C   UNL A   1      44.227  24.738  25.699  1.00  0.00     0.022 A 
BRANCH  79  82
ATOM     82  S   UNL A   1      43.235  22.293  26.424  1.00  0.00     0.127 S 
ATOM     83  O   UNL A   1      42.268  22.214  25.334  1.00  0.00    -0.237 OA
ATOM     84  O   UNL A   1      44.597  21.891  26.072  1.00  0.00    -0.237 OA
ATOM     85  O   UNL A   1      42.777  21.794  27.714  1.00  0.00    -0.744 OA
ENDBRANCH  79  82
ENDBRANCH  51  75
BRANCH  63  86
ATOM     86  C   UNL A   1      45.252  27.621  34.334  1.00  0.00     0.023 A 
ATOM     87  C   UNL A   1      46.395  28.442  34.290  1.00  0.00     0.012 A 
ATOM     88  C   UNL A   1      45.224  26.517  35.211  1.00  0.00     0.148 A 
ATOM     89  C   UNL A   1      47.501  28.158  35.090  1.00  0.00     0.002 A 
ATOM     90  C   UNL A   1      46.309  26.270  36.043  1.00  0.00     0.091 A 
ATOM     91  F   UNL A   1      44.130  25.742  35.228  1.00  0.00    -0.205 F 
ATOM     92  C   UNL A   1      47.453  27.082  35.975  1.00  0.00     0.022 A 
BRANCH  90  93
ATOM     93  S   UNL A   1      46.297  24.974  37.286  1.00  0.00     0.127 S 
ATOM     94  O   UNL A   1      46.230  23.770  36.461  1.00  0.00    -0.237 OA
ATOM     95  O   UNL A   1      47.579  25.181  37.961  1.00  0.00    -0.237 OA
ATOM     96  O   UNL A   1      45.128  25.224  38.119  1.00  0.00    -0.744 OA
ENDBRANCH  90  93
ENDBRANCH  63  86
ENDBRANCH  37  38
ENDBRANCH  30  32
ENDBRANCH  29  30
ENDBRANCH  28  29
ENDBRANCH  27  28
ENDBRANCH  26  27
ENDBRANCH  25  26
ENDBRANCH   1  25
TORSDOF 23
ENDMDL
MODEL 3
REMARK VINA RESULT:      -9.3      1.804      7.751
REMARK SMILES CSc1ccc([C@H](C)[N@H+]2CC[C@@H](C(=O)OCCOCCOCCOC(=O)c3ccc(-c4c5nc(c(-c6cccc(S(=O)(=O)[O-])c6F)c6ccc([nH]6)c(-c6cccc(S(=O)(=O)[O-])c6F)c6nc(c(-c7cccc(S(=O)(=O)[O-])c7F)c7ccc4[nH]7)C=C6)C=C5)cc3)[C@H]2C)cc1
REMARK SMILES IDX 19 1 18 2 17 3 16 4 15 5 13 6 14 7 12 8 9 9 10 10 90 11
REMARK SMILES IDX 11 13 91 14 7 15 8 16 6 17 3 18 4 19 93 20 5 21 92 22 2 23
REMARK SMILES IDX 1 24 20 25 21 26 22 27 23 28 24 29 25 30 26 31 27 32 28 33
REMARK SMILES IDX 89 34 29 35 88 36 30 37 31 38 32 39 82 40 33 41 87 42 81 43
REMARK SMILES IDX 83 44 34 45 86 46 80 47 79 48 35 50 67 51 47 52 66 53 48 54
REMARK SMILES IDX 51 55 65 56 84 57 49 58 50 59 64 61 85 62 52 63 36 64 37 65
REMARK SMILES IDX 45 66 38 67 40 68 46 69 39 70 41 71 42 72 43 73 44 74 68 75
REMARK SMILES IDX 69 76 77 77 70 78 72 79 78 80 71 81 73 82 74 83 75 84 76 85
REMARK SMILES IDX 53 86 54 87 62 88 55 89 57 90 63 91 56 92 58 93 59 94 60 95
REMARK SMILES IDX 61 96
REMARK H PARENT 9 12 83 49 51 60
REMARK Flexibility Score: inf
ROOT
ATOM      1  C   UNL A   1      29.799  29.262  23.128  1.00  0.00     0.188 C 
ENDROOT
BRANCH   1   2
ATOM      2  O   UNL A   1      30.075  28.145  22.300  1.00  0.00    -0.376 OA
BRANCH   2   3
ATOM      3  C   UNL A   1      31.444  27.769  22.149  1.00  0.00     0.202 C 
BRANCH   3   4
ATOM      4  C   UNL A   1      31.845  26.405  22.707  1.00  0.00     0.261 C 
BRANCH   4   5
ATOM      5  O   UNL A   1      33.270  26.351  22.929  1.00  0.00    -0.463 OA
BRANCH   5   6
ATOM      6  C   UNL A   1      33.786  25.102  22.914  1.00  0.00     0.315 C 
ATOM      7  O   UNL A   1      33.581  24.302  22.004  1.00  0.00    -0.252 OA
BRANCH   6   8
ATOM      8  C   UNL A   1      34.766  24.808  24.037  1.00  0.00     0.162 C 
ATOM      9  N   UNL A   1      35.075  23.483  26.052  1.00  0.00    -0.326 N 
ATOM     10  C   UNL A   1      35.987  22.992  25.019  1.00  0.00     0.264 C 
ATOM     11  C   UNL A   1      34.382  24.695  25.532  1.00  0.00     0.196 C 
ATOM     12  H   UNL A   1      35.598  23.804  26.867  1.00  0.00     0.348 HD
ATOM     13  C   UNL A   1      35.407  23.461  23.716  1.00  0.00     0.083 C 
ATOM     14  C   UNL A   1      32.918  24.903  25.917  1.00  0.00     0.076 C 
BRANCH   9  15
ATOM     15  C   UNL A   1      34.300  22.448  26.759  1.00  0.00     0.212 C 
ATOM     16  C   UNL A   1      33.131  23.042  27.576  1.00  0.00     0.081 C 
BRANCH  15  17
ATOM     17  C   UNL A   1      33.844  21.296  25.836  1.00  0.00     0.009 A 
ATOM     18  C   UNL A   1      33.074  19.300  23.959  1.00  0.00     0.007 A 
ATOM     19  C   UNL A   1      34.325  19.250  24.583  1.00  0.00     0.015 A 
ATOM     20  C   UNL A   1      32.200  20.325  24.313  1.00  0.00     0.015 A 
ATOM     21  C   UNL A   1      34.700  20.226  25.519  1.00  0.00     0.011 A 
ATOM     22  C   UNL A   1      32.565  21.283  25.260  1.00  0.00     0.011 A 
BRANCH  18  23
ATOM     23  S   UNL A   1      32.680  18.075  22.720  1.00  0.00    -0.130 SA
ATOM     24  C   UNL A   1      33.944  16.811  23.032  1.00  0.00     0.091 C 
ENDBRANCH  18  23
ENDBRANCH  15  17
ENDBRANCH   9  15
ENDBRANCH   6   8
ENDBRANCH   5   6
ENDBRANCH   4   5
ENDBRANCH   3   4
ENDBRANCH   2   3
ENDBRANCH   1   2
BRANCH   1  25
ATOM     25  C   UNL A   1      30.799  29.557  24.248  1.00  0.00     0.188 C 
BRANCH  25  26
ATOM     26  O   UNL A   1      30.833  28.758  25.424  1.00  0.00    -0.376 OA
BRANCH  26  27
ATOM     27  C   UNL A   1      31.908  28.984  26.334  1.00  0.00     0.202 C 
BRANCH  27  28
ATOM     28  C   UNL A   1      32.171  30.419  26.824  1.00  0.00     0.261 C 
BRANCH  28  29
ATOM     29  O   UNL A   1      33.545  30.810  26.747  1.00  0.00    -0.460 OA
BRANCH  29  30
ATOM     30  C   UNL A   1      33.936  31.714  27.682  1.00  0.00     0.338 C 
ATOM     31  O   UNL A   1      33.256  32.598  28.181  1.00  0.00    -0.246 OA
BRANCH  30  32
ATOM     32  C   UNL A   1      35.264  31.302  28.195  1.00  0.00     0.060 A 
ATOM     33  C   UNL A   1      35.378  30.037  28.792  1.00  0.00     0.016 A 
ATOM     34  C   UNL A   1      36.398  32.095  27.999  1.00  0.00     0.016 A 
ATOM     35  C   UNL A   1      36.621  29.573  29.223  1.00  0.00     0.010 A 
ATOM     36  C   UNL A   1      37.638  31.638  28.444  1.00  0.00     0.010 A 
ATOM     37  C   UNL A   1      37.749  30.391  29.087  1.00  0.00    -0.014 A 
BRANCH  37  38
ATOM     38  C   UNL A   1      38.998  30.089  29.822  1.00  0.00     0.031 A 
ATOM     39  C   UNL A   1      39.922  29.070  29.216  1.00  0.00     0.074 A 
ATOM     40  C   UNL A   1      39.268  30.629  31.023  1.00  0.00     0.049 A 
ATOM     41  N   UNL A   1      40.985  28.508  29.722  1.00  0.00    -0.248 NA
ATOM     42  C   UNL A   1      39.585  28.610  27.856  1.00  0.00     0.031 C 
ATOM     43  C   UNL A   1      38.458  31.636  31.705  1.00  0.00     0.029 A 
ATOM     44  N   UNL A   1      40.290  30.366  31.901  1.00  0.00    -0.354 N 
ATOM     45  C   UNL A   1      41.415  27.594  28.768  1.00  0.00     0.074 A 
ATOM     46  C   UNL A   1      40.503  27.680  27.649  1.00  0.00     0.031 C 
ATOM     47  C   UNL A   1      38.994  31.878  32.916  1.00  0.00     0.029 A 
ATOM     48  C   UNL A   1      40.160  31.016  33.107  1.00  0.00     0.049 A 
ATOM     49  H   UNL A   1      41.044  29.769  31.689  1.00  0.00     0.167 HD
ATOM     50  C   UNL A   1      42.476  26.759  28.816  1.00  0.00     0.034 A 
ATOM     51  C   UNL A   1      40.882  30.897  34.241  1.00  0.00     0.034 A 
ATOM     52  C   UNL A   1      43.392  26.691  29.918  1.00  0.00     0.049 A 
ATOM     53  C   UNL A   1      42.045  29.934  34.278  1.00  0.00     0.074 A 
ATOM     54  C   UNL A   1      44.533  25.920  30.038  1.00  0.00     0.029 A 
ATOM     55  N   UNL A   1      43.261  27.405  31.097  1.00  0.00    -0.354 N 
ATOM     56  N   UNL A   1      42.514  29.165  33.325  1.00  0.00    -0.248 NA
ATOM     57  C   UNL A   1      42.790  29.836  35.543  1.00  0.00     0.031 C 
ATOM     58  C   UNL A   1      45.077  26.146  31.305  1.00  0.00     0.029 A 
ATOM     59  C   UNL A   1      44.292  27.083  31.959  1.00  0.00     0.049 A 
ATOM     60  H   UNL A   1      42.540  28.049  31.291  1.00  0.00     0.167 HD
ATOM     61  C   UNL A   1      43.633  28.531  33.859  1.00  0.00     0.074 A 
ATOM     62  C   UNL A   1      43.777  29.012  35.217  1.00  0.00     0.031 C 
ATOM     63  C   UNL A   1      44.461  27.625  33.283  1.00  0.00     0.034 A 
BRANCH  50  64
ATOM     64  C   UNL A   1      42.708  25.856  27.637  1.00  0.00     0.023 A 
ATOM     65  C   UNL A   1      43.567  26.265  26.598  1.00  0.00     0.012 A 
ATOM     66  C   UNL A   1      42.110  24.582  27.584  1.00  0.00     0.148 A 
ATOM     67  C   UNL A   1      43.810  25.429  25.510  1.00  0.00     0.002 A 
ATOM     68  C   UNL A   1      42.392  23.737  26.520  1.00  0.00     0.091 A 
ATOM     69  F   UNL A   1      41.271  24.228  28.568  1.00  0.00    -0.205 F 
ATOM     70  C   UNL A   1      43.232  24.161  25.477  1.00  0.00     0.022 A 
BRANCH  68  71
ATOM     71  S   UNL A   1      41.760  22.059  26.425  1.00  0.00     0.127 S 
ATOM     72  O   UNL A   1      40.341  22.292  26.162  1.00  0.00    -0.237 OA
ATOM     73  O   UNL A   1      42.509  21.512  25.293  1.00  0.00    -0.237 OA
ATOM     74  O   UNL A   1      42.063  21.441  27.709  1.00  0.00    -0.744 OA
ENDBRANCH  68  71
ENDBRANCH  50  64
BRANCH  51  75
ATOM     75  C   UNL A   1      40.550  31.722  35.438  1.00  0.00     0.023 A 
ATOM     76  C   UNL A   1      41.486  32.666  35.905  1.00  0.00     0.012 A 
ATOM     77  C   UNL A   1      39.329  31.572  36.124  1.00  0.00     0.148 A 
ATOM     78  C   UNL A   1      41.228  33.419  37.052  1.00  0.00     0.002 A 
ATOM     79  C   UNL A   1      39.056  32.362  37.235  1.00  0.00     0.091 A 
ATOM     80  F   UNL A   1      38.459  30.655  35.677  1.00  0.00    -0.205 F 
ATOM     81  C   UNL A   1      40.011  33.274  37.711  1.00  0.00     0.022 A 
BRANCH  79  82
ATOM     82  S   UNL A   1      37.470  32.326  38.080  1.00  0.00     0.127 S 
ATOM     83  O   UNL A   1      36.599  32.980  37.108  1.00  0.00    -0.237 OA
ATOM     84  O   UNL A   1      37.247  30.888  38.240  1.00  0.00    -0.237 OA
ATOM     85  O   UNL A   1      37.675  33.044  39.330  1.00  0.00    -0.744 OA
ENDBRANCH  79  82
ENDBRANCH  51  75
BRANCH  63  86
ATOM     86  C   UNL A   1      45.638  27.126  34.080  1.00  0.00     0.023 A 
ATOM     87  C   UNL A   1      46.863  27.818  34.034  1.00  0.00     0.012 A 
ATOM     88  C   UNL A   1      45.487  26.040  34.967  1.00  0.00     0.148 A 
ATOM     89  C   UNL A   1      47.929  27.423  34.842  1.00  0.00     0.002 A 
ATOM     90  C   UNL A   1      46.536  25.685  35.805  1.00  0.00     0.091 A 
ATOM     91  F   UNL A   1      44.316  25.389  34.985  1.00  0.00    -0.205 F 
ATOM     92  C   UNL A   1      47.762  26.367  35.736  1.00  0.00     0.022 A 
BRANCH  90  93
ATOM     93  S   UNL A   1      46.379  24.409  37.060  1.00  0.00     0.127 S 
ATOM     94  O   UNL A   1      47.752  23.920  37.161  1.00  0.00    -0.237 OA
ATOM     95  O   UNL A   1      45.916  25.171  38.220  1.00  0.00    -0.237 OA
ATOM     96  O   UNL A   1      45.413  23.449  36.542  1.00  0.00    -0.744 OA
ENDBRANCH  90  93
ENDBRANCH  63  86
ENDBRANCH  37  38
ENDBRANCH  30  32
ENDBRANCH  29  30
ENDBRANCH  28  29
ENDBRANCH  27  28
ENDBRANCH  26  27
ENDBRANCH  25  26
ENDBRANCH   1  25
TORSDOF 23
ENDMDL
