MODEL 1
REMARK VINA RESULT:      -9.6      0.000      0.000
REMARK SMILES COc1ccc(-c2ccc(C#N)c(S[C@@H](C)C(=O)OCCOCCOCCOC(=O)c3ccc(-c4c5nc(c(-c6cccc(S(=O)(=O)[O-])c6F)c6ccc([nH]6)c(-c6cccc(S(=O)(=O)[O-])c6F)c6nc(c(-c7cccc(S(=O)(=O)[O-])c7F)c7ccc4[nH]7)C=C6)C=C5)cc3)n2)cc1
REMARK SMILES IDX 23 1 22 2 21 3 20 4 19 5 17 6 18 7 15 8 16 9 14 10 13 11
REMARK SMILES IDX 7 12 8 13 94 14 9 15 10 16 6 17 3 18 4 19 96 20 5 21 95 22
REMARK SMILES IDX 2 23 1 24 11 25 12 26 24 27 25 28 26 29 27 30 28 31 29 32
REMARK SMILES IDX 30 33 31 34 32 35 93 36 33 37 92 38 34 39 35 40 36 41 86 42
REMARK SMILES IDX 37 43 91 44 85 45 87 46 38 47 90 48 84 49 83 50 39 52 71 53
REMARK SMILES IDX 51 54 70 55 52 56 55 57 69 58 88 59 53 60 54 61 68 63 89 64
REMARK SMILES IDX 56 65 40 66 41 67 49 68 42 69 44 70 50 71 43 72 45 73 46 74
REMARK SMILES IDX 47 75 48 76 72 77 73 78 81 79 74 80 76 81 82 82 75 83 77 84
REMARK SMILES IDX 78 85 79 86 80 87 57 88 58 89 66 90 59 91 61 92 67 93 60 94
REMARK SMILES IDX 62 95 63 96 64 97 65 98
REMARK H PARENT 87 51 55 62
REMARK Flexibility Score: inf
ROOT
ATOM      1  C   UNL A   1      41.412  20.640  26.759  1.00  0.00     0.188 C 
ENDROOT
BRANCH   1   2
ATOM      2  O   UNL A   1      40.022  20.634  26.479  1.00  0.00    -0.376 OA
BRANCH   2   3
ATOM      3  C   UNL A   1      39.489  19.614  25.643  1.00  0.00     0.202 C 
BRANCH   3   4
ATOM      4  C   UNL A   1      38.142  19.795  24.916  1.00  0.00     0.261 C 
BRANCH   4   5
ATOM      5  O   UNL A   1      37.721  21.160  24.686  1.00  0.00    -0.462 OA
BRANCH   5   6
ATOM      6  C   UNL A   1      36.383  21.382  24.697  1.00  0.00     0.319 C 
ATOM      7  O   UNL A   1      35.582  20.585  25.182  1.00  0.00    -0.251 OA
BRANCH   6   8
ATOM      8  C   UNL A   1      35.909  22.731  24.174  1.00  0.00     0.160 C 
ATOM      9  C   UNL A   1      36.156  23.850  25.182  1.00  0.00     0.032 C 
BRANCH   8  10
ATOM     10  S   UNL A   1      34.295  23.055  23.372  1.00  0.00    -0.090 SA
BRANCH  10  11
ATOM     11  C   UNL A   1      32.996  23.500  24.495  1.00  0.00     0.115 A 
ATOM     12  C   UNL A   1      32.209  25.389  25.674  1.00  0.00     0.072 A 
ATOM     13  C   UNL A   1      31.166  24.658  26.220  1.00  0.00     0.030 A 
ATOM     14  N   UNL A   1      33.076  24.839  24.792  1.00  0.00    -0.240 NA
ATOM     15  C   UNL A   1      31.102  23.298  25.955  1.00  0.00     0.024 A 
ATOM     16  C   UNL A   1      32.069  22.693  25.141  1.00  0.00     0.084 A 
BRANCH  12  17
ATOM     17  C   UNL A   1      32.536  26.716  26.216  1.00  0.00     0.000 A 
ATOM     18  C   UNL A   1      32.976  29.350  27.153  1.00  0.00     0.118 A 
ATOM     19  C   UNL A   1      33.978  28.661  26.468  1.00  0.00     0.047 A 
ATOM     20  C   UNL A   1      31.751  28.729  27.377  1.00  0.00     0.047 A 
ATOM     21  C   UNL A   1      33.769  27.346  26.016  1.00  0.00     0.014 A 
ATOM     22  C   UNL A   1      31.541  27.427  26.918  1.00  0.00     0.014 A 
BRANCH  18  23
ATOM     23  O   UNL A   1      33.258  30.642  27.508  1.00  0.00    -0.497 OA
ATOM     24  C   UNL A   1      34.634  30.901  27.780  1.00  0.00     0.278 C 
ENDBRANCH  18  23
ENDBRANCH  12  17
BRANCH  16  25
ATOM     25  C   UNL A   1      32.102  21.271  25.135  1.00  0.00     0.102 C 
ATOM     26  N   UNL A   1      32.188  20.111  25.141  1.00  0.00    -0.192 NA
ENDBRANCH  16  25
ENDBRANCH  10  11
ENDBRANCH   8  10
ENDBRANCH   6   8
ENDBRANCH   5   6
ENDBRANCH   4   5
ENDBRANCH   3   4
ENDBRANCH   2   3
ENDBRANCH   1   2
BRANCH   1  27
ATOM     27  C   UNL A   1      42.295  19.609  26.036  1.00  0.00     0.188 C 
BRANCH  27  28
ATOM     28  O   UNL A   1      43.405  20.147  25.357  1.00  0.00    -0.376 OA
BRANCH  28  29
ATOM     29  C   UNL A   1      43.567  21.556  25.347  1.00  0.00     0.202 C 
BRANCH  29  30
ATOM     30  C   UNL A   1      44.514  22.336  26.290  1.00  0.00     0.261 C 
BRANCH  30  31
ATOM     31  O   UNL A   1      45.917  22.380  25.990  1.00  0.00    -0.460 OA
BRANCH  31  32
ATOM     32  C   UNL A   1      46.341  23.308  25.096  1.00  0.00     0.338 C 
ATOM     33  O   UNL A   1      46.582  23.128  23.916  1.00  0.00    -0.246 OA
BRANCH  32  34
ATOM     34  C   UNL A   1      46.240  24.639  25.744  1.00  0.00     0.060 A 
ATOM     35  C   UNL A   1      46.665  24.795  27.074  1.00  0.00     0.016 A 
ATOM     36  C   UNL A   1      45.763  25.737  25.030  1.00  0.00     0.016 A 
ATOM     37  C   UNL A   1      46.633  26.052  27.684  1.00  0.00     0.010 A 
ATOM     38  C   UNL A   1      45.696  26.988  25.655  1.00  0.00     0.010 A 
ATOM     39  C   UNL A   1      46.122  27.153  26.987  1.00  0.00    -0.014 A 
BRANCH  39  40
ATOM     40  C   UNL A   1      45.923  28.459  27.665  1.00  0.00     0.031 A 
ATOM     41  C   UNL A   1      44.560  28.804  28.195  1.00  0.00     0.074 A 
ATOM     42  C   UNL A   1      46.926  29.351  27.762  1.00  0.00     0.049 A 
ATOM     43  N   UNL A   1      44.126  29.929  28.701  1.00  0.00    -0.248 NA
ATOM     44  C   UNL A   1      43.548  27.736  28.143  1.00  0.00     0.031 C 
ATOM     45  C   UNL A   1      48.298  29.133  27.308  1.00  0.00     0.029 A 
ATOM     46  N   UNL A   1      46.929  30.641  28.238  1.00  0.00    -0.354 N 
ATOM     47  C   UNL A   1      42.782  29.723  28.987  1.00  0.00     0.074 A 
ATOM     48  C   UNL A   1      42.473  28.362  28.601  1.00  0.00     0.031 C 
ATOM     49  C   UNL A   1      49.001  30.265  27.487  1.00  0.00     0.029 A 
ATOM     50  C   UNL A   1      48.119  31.299  28.027  1.00  0.00     0.049 A 
ATOM     51  H   UNL A   1      46.156  31.054  28.687  1.00  0.00     0.167 HD
ATOM     52  C   UNL A   1      41.887  30.586  29.523  1.00  0.00     0.034 A 
ATOM     53  C   UNL A   1      48.446  32.596  28.202  1.00  0.00     0.034 A 
ATOM     54  C   UNL A   1      42.198  31.936  29.907  1.00  0.00     0.049 A 
ATOM     55  C   UNL A   1      47.414  33.555  28.741  1.00  0.00     0.074 A 
ATOM     56  C   UNL A   1      41.371  32.870  30.507  1.00  0.00     0.029 A 
ATOM     57  N   UNL A   1      43.419  32.560  29.701  1.00  0.00    -0.354 N 
ATOM     58  N   UNL A   1      46.181  33.317  29.118  1.00  0.00    -0.248 NA
ATOM     59  C   UNL A   1      47.826  34.958  28.898  1.00  0.00     0.031 C 
ATOM     60  C   UNL A   1      42.074  34.074  30.612  1.00  0.00     0.029 A 
ATOM     61  C   UNL A   1      43.356  33.876  30.128  1.00  0.00     0.049 A 
ATOM     62  H   UNL A   1      44.213  32.131  29.309  1.00  0.00     0.167 HD
ATOM     63  C   UNL A   1      45.680  34.531  29.578  1.00  0.00     0.074 A 
ATOM     64  C   UNL A   1      46.752  35.498  29.461  1.00  0.00     0.031 C 
ATOM     65  C   UNL A   1      44.439  34.824  30.041  1.00  0.00     0.034 A 
BRANCH  52  66
ATOM     66  C   UNL A   1      40.474  30.099  29.721  1.00  0.00     0.023 A 
ATOM     67  C   UNL A   1      39.636  29.892  28.607  1.00  0.00     0.012 A 
ATOM     68  C   UNL A   1      39.998  29.792  31.011  1.00  0.00     0.148 A 
ATOM     69  C   UNL A   1      38.334  29.420  28.778  1.00  0.00     0.002 A 
ATOM     70  C   UNL A   1      38.719  29.276  31.169  1.00  0.00     0.091 A 
ATOM     71  F   UNL A   1      40.805  30.013  32.059  1.00  0.00    -0.205 F 
ATOM     72  C   UNL A   1      37.881  29.102  30.055  1.00  0.00     0.022 A 
BRANCH  70  73
ATOM     73  S   UNL A   1      38.069  28.760  32.761  1.00  0.00     0.127 S 
ATOM     74  O   UNL A   1      36.691  29.245  32.687  1.00  0.00    -0.237 OA
ATOM     75  O   UNL A   1      38.209  27.306  32.692  1.00  0.00    -0.237 OA
ATOM     76  O   UNL A   1      38.900  29.406  33.767  1.00  0.00    -0.744 OA
ENDBRANCH  70  73
ENDBRANCH  52  66
BRANCH  53  77
ATOM     77  C   UNL A   1      49.814  33.077  27.851  1.00  0.00     0.023 A 
ATOM     78  C   UNL A   1      50.837  33.036  28.820  1.00  0.00     0.012 A 
ATOM     79  C   UNL A   1      50.105  33.579  26.568  1.00  0.00     0.148 A 
ATOM     80  C   UNL A   1      52.114  33.514  28.525  1.00  0.00     0.002 A 
ATOM     81  C   UNL A   1      51.393  33.999  26.263  1.00  0.00     0.091 A 
ATOM     82  F   UNL A   1      49.114  33.626  25.666  1.00  0.00    -0.205 F 
ATOM     83  C   UNL A   1      52.395  33.986  27.244  1.00  0.00     0.022 A 
BRANCH  81  84
ATOM     84  S   UNL A   1      51.878  34.515  24.611  1.00  0.00     0.127 S 
ATOM     85  O   UNL A   1      53.280  34.875  24.811  1.00  0.00    -0.237 OA
ATOM     86  O   UNL A   1      51.660  33.291  23.841  1.00  0.00    -0.237 OA
ATOM     87  O   UNL A   1      50.992  35.616  24.263  1.00  0.00    -0.744 OA
ENDBRANCH  81  84
ENDBRANCH  53  77
BRANCH  65  88
ATOM     88  C   UNL A   1      44.164  36.241  30.482  1.00  0.00     0.023 A 
ATOM     89  C   UNL A   1      44.496  36.646  31.790  1.00  0.00     0.012 A 
ATOM     90  C   UNL A   1      43.656  37.192  29.574  1.00  0.00     0.148 A 
ATOM     91  C   UNL A   1      44.296  37.966  32.197  1.00  0.00     0.002 A 
ATOM     92  C   UNL A   1      43.509  38.516  29.970  1.00  0.00     0.091 A 
ATOM     93  F   UNL A   1      43.337  36.786  28.337  1.00  0.00    -0.205 F 
ATOM     94  C   UNL A   1      43.816  38.902  31.285  1.00  0.00     0.022 A 
BRANCH  92  95
ATOM     95  S   UNL A   1      42.982  39.814  28.845  1.00  0.00     0.127 S 
ATOM     96  O   UNL A   1      42.268  39.050  27.821  1.00  0.00    -0.237 OA
ATOM     97  O   UNL A   1      42.127  40.634  29.701  1.00  0.00    -0.237 OA
ATOM     98  O   UNL A   1      44.199  40.473  28.387  1.00  0.00    -0.744 OA
ENDBRANCH  92  95
ENDBRANCH  65  88
ENDBRANCH  39  40
ENDBRANCH  32  34
ENDBRANCH  31  32
ENDBRANCH  30  31
ENDBRANCH  29  30
ENDBRANCH  28  29
ENDBRANCH  27  28
ENDBRANCH   1  27
TORSDOF 25
ENDMDL
MODEL 2
REMARK VINA RESULT:      -9.5      4.432      8.645
REMARK SMILES COc1ccc(-c2ccc(C#N)c(S[C@@H](C)C(=O)OCCOCCOCCOC(=O)c3ccc(-c4c5nc(c(-c6cccc(S(=O)(=O)[O-])c6F)c6ccc([nH]6)c(-c6cccc(S(=O)(=O)[O-])c6F)c6nc(c(-c7cccc(S(=O)(=O)[O-])c7F)c7ccc4[nH]7)C=C6)C=C5)cc3)n2)cc1
REMARK SMILES IDX 23 1 22 2 21 3 20 4 19 5 17 6 18 7 15 8 16 9 14 10 13 11
REMARK SMILES IDX 7 12 8 13 94 14 9 15 10 16 6 17 3 18 4 19 96 20 5 21 95 22
REMARK SMILES IDX 2 23 1 24 11 25 12 26 24 27 25 28 26 29 27 30 28 31 29 32
REMARK SMILES IDX 30 33 31 34 32 35 93 36 33 37 92 38 34 39 35 40 36 41 86 42
REMARK SMILES IDX 37 43 91 44 85 45 87 46 38 47 90 48 84 49 83 50 39 52 71 53
REMARK SMILES IDX 51 54 70 55 52 56 55 57 69 58 88 59 53 60 54 61 68 63 89 64
REMARK SMILES IDX 56 65 40 66 41 67 49 68 42 69 44 70 50 71 43 72 45 73 46 74
REMARK SMILES IDX 47 75 48 76 72 77 73 78 81 79 74 80 76 81 82 82 75 83 77 84
REMARK SMILES IDX 78 85 79 86 80 87 57 88 58 89 66 90 59 91 61 92 67 93 60 94
REMARK SMILES IDX 62 95 63 96 64 97 65 98
REMARK H PARENT 87 51 55 62
REMARK Flexibility Score: inf
ROOT
ATOM      1  C   UNL A   1      43.216  20.464  25.828  1.00  0.00     0.188 C 
ENDROOT
BRANCH   1   2
ATOM      2  O   UNL A   1      41.808  20.358  25.697  1.00  0.00    -0.376 OA
BRANCH   2   3
ATOM      3  C   UNL A   1      40.975  21.007  26.649  1.00  0.00     0.202 C 
BRANCH   3   4
ATOM      4  C   UNL A   1      40.157  22.260  26.277  1.00  0.00     0.261 C 
BRANCH   4   5
ATOM      5  O   UNL A   1      38.729  22.178  26.497  1.00  0.00    -0.462 OA
BRANCH   5   6
ATOM      6  C   UNL A   1      37.979  23.153  25.927  1.00  0.00     0.319 C 
ATOM      7  O   UNL A   1      38.272  24.345  26.004  1.00  0.00    -0.251 OA
BRANCH   6   8
ATOM      8  C   UNL A   1      36.798  22.701  25.081  1.00  0.00     0.160 C 
ATOM      9  C   UNL A   1      37.123  22.729  23.589  1.00  0.00     0.032 C 
BRANCH   8  10
ATOM     10  S   UNL A   1      35.067  23.266  25.280  1.00  0.00    -0.090 SA
BRANCH  10  11
ATOM     11  C   UNL A   1      33.875  22.300  24.390  1.00  0.00     0.115 A 
ATOM     12  C   UNL A   1      33.024  20.097  24.340  1.00  0.00     0.072 A 
ATOM     13  C   UNL A   1      32.150  20.421  23.314  1.00  0.00     0.030 A 
ATOM     14  N   UNL A   1      33.833  21.026  24.901  1.00  0.00    -0.240 NA
ATOM     15  C   UNL A   1      32.214  21.694  22.767  1.00  0.00     0.024 A 
ATOM     16  C   UNL A   1      33.136  22.627  23.261  1.00  0.00     0.084 A 
BRANCH  12  17
ATOM     17  C   UNL A   1      33.258  18.688  24.685  1.00  0.00     0.000 A 
ATOM     18  C   UNL A   1      33.744  15.934  25.124  1.00  0.00     0.118 A 
ATOM     19  C   UNL A   1      32.576  16.536  25.597  1.00  0.00     0.047 A 
ATOM     20  C   UNL A   1      34.676  16.702  24.433  1.00  0.00     0.047 A 
ATOM     21  C   UNL A   1      32.340  17.908  25.396  1.00  0.00     0.014 A 
ATOM     22  C   UNL A   1      34.434  18.062  24.224  1.00  0.00     0.014 A 
BRANCH  18  23
ATOM     23  O   UNL A   1      33.858  14.585  25.326  1.00  0.00    -0.497 OA
ATOM     24  C   UNL A   1      32.643  13.928  25.680  1.00  0.00     0.278 C 
ENDBRANCH  18  23
ENDBRANCH  12  17
BRANCH  16  25
ATOM     25  C   UNL A   1      33.335  23.802  22.485  1.00  0.00     0.102 C 
ATOM     26  N   UNL A   1      33.455  24.790  21.883  1.00  0.00    -0.192 NA
ENDBRANCH  16  25
ENDBRANCH  10  11
ENDBRANCH   8  10
ENDBRANCH   6   8
ENDBRANCH   5   6
ENDBRANCH   4   5
ENDBRANCH   3   4
ENDBRANCH   2   3
ENDBRANCH   1   2
BRANCH   1  27
ATOM     27  C   UNL A   1      43.838  21.871  25.794  1.00  0.00     0.188 C 
BRANCH  27  28
ATOM     28  O   UNL A   1      44.976  21.999  24.975  1.00  0.00    -0.376 OA
BRANCH  28  29
ATOM     29  C   UNL A   1      45.984  22.917  25.366  1.00  0.00     0.202 C 
BRANCH  29  30
ATOM     30  C   UNL A   1      46.624  23.969  24.429  1.00  0.00     0.261 C 
BRANCH  30  31
ATOM     31  O   UNL A   1      47.529  24.936  24.981  1.00  0.00    -0.460 OA
BRANCH  31  32
ATOM     32  C   UNL A   1      47.319  26.242  24.676  1.00  0.00     0.338 C 
ATOM     33  O   UNL A   1      47.529  26.783  23.605  1.00  0.00    -0.246 OA
BRANCH  32  34
ATOM     34  C   UNL A   1      46.569  26.854  25.800  1.00  0.00     0.060 A 
ATOM     35  C   UNL A   1      47.275  27.431  26.870  1.00  0.00     0.016 A 
ATOM     36  C   UNL A   1      45.176  26.894  25.780  1.00  0.00     0.016 A 
ATOM     37  C   UNL A   1      46.589  28.064  27.910  1.00  0.00     0.010 A 
ATOM     38  C   UNL A   1      44.491  27.496  26.842  1.00  0.00     0.010 A 
ATOM     39  C   UNL A   1      45.190  28.077  27.917  1.00  0.00    -0.014 A 
BRANCH  39  40
ATOM     40  C   UNL A   1      44.438  28.596  29.087  1.00  0.00     0.031 A 
ATOM     41  C   UNL A   1      43.991  30.031  29.087  1.00  0.00     0.074 A 
ATOM     42  C   UNL A   1      44.200  27.819  30.160  1.00  0.00     0.049 A 
ATOM     43  N   UNL A   1      43.442  30.730  30.046  1.00  0.00    -0.248 NA
ATOM     44  C   UNL A   1      44.198  30.780  27.837  1.00  0.00     0.031 C 
ATOM     45  C   UNL A   1      44.561  26.409  30.279  1.00  0.00     0.029 A 
ATOM     46  N   UNL A   1      43.634  28.126  31.375  1.00  0.00    -0.354 N 
ATOM     47  C   UNL A   1      43.276  32.011  29.534  1.00  0.00     0.074 A 
ATOM     48  C   UNL A   1      43.781  31.991  28.177  1.00  0.00     0.031 C 
ATOM     49  C   UNL A   1      44.247  25.981  31.515  1.00  0.00     0.029 A 
ATOM     50  C   UNL A   1      43.705  27.098  32.287  1.00  0.00     0.049 A 
ATOM     51  H   UNL A   1      43.218  28.996  31.573  1.00  0.00     0.167 HD
ATOM     52  C   UNL A   1      42.751  33.103  30.138  1.00  0.00     0.034 A 
ATOM     53  C   UNL A   1      43.413  27.073  33.604  1.00  0.00     0.034 A 
ATOM     54  C   UNL A   1      42.248  33.118  31.485  1.00  0.00     0.049 A 
ATOM     55  C   UNL A   1      42.888  28.320  34.271  1.00  0.00     0.074 A 
ATOM     56  C   UNL A   1      41.649  34.163  32.166  1.00  0.00     0.029 A 
ATOM     57  N   UNL A   1      42.314  32.053  32.369  1.00  0.00    -0.354 N 
ATOM     58  N   UNL A   1      42.625  29.492  33.744  1.00  0.00    -0.248 NA
ATOM     59  C   UNL A   1      42.600  28.235  35.711  1.00  0.00     0.031 C 
ATOM     60  C   UNL A   1      41.403  33.747  33.479  1.00  0.00     0.029 A 
ATOM     61  C   UNL A   1      41.800  32.426  33.600  1.00  0.00     0.049 A 
ATOM     62  H   UNL A   1      42.673  31.162  32.155  1.00  0.00     0.167 HD
ATOM     63  C   UNL A   1      42.120  30.273  34.779  1.00  0.00     0.074 A 
ATOM     64  C   UNL A   1      42.084  29.432  35.958  1.00  0.00     0.031 C 
ATOM     65  C   UNL A   1      41.735  31.573  34.761  1.00  0.00     0.034 A 
BRANCH  52  66
ATOM     66  C   UNL A   1      42.698  34.385  29.347  1.00  0.00     0.023 A 
ATOM     67  C   UNL A   1      41.476  34.827  28.801  1.00  0.00     0.012 A 
ATOM     68  C   UNL A   1      43.851  35.180  29.196  1.00  0.00     0.148 A 
ATOM     69  C   UNL A   1      41.411  36.024  28.086  1.00  0.00     0.002 A 
ATOM     70  C   UNL A   1      43.768  36.393  28.525  1.00  0.00     0.091 A 
ATOM     71  F   UNL A   1      45.007  34.733  29.707  1.00  0.00    -0.205 F 
ATOM     72  C   UNL A   1      42.552  36.810  27.959  1.00  0.00     0.022 A 
BRANCH  70  73
ATOM     73  S   UNL A   1      45.160  37.518  28.376  1.00  0.00     0.127 S 
ATOM     74  O   UNL A   1      46.215  36.619  27.907  1.00  0.00    -0.237 OA
ATOM     75  O   UNL A   1      44.679  38.468  27.373  1.00  0.00    -0.237 OA
ATOM     76  O   UNL A   1      45.369  38.082  29.701  1.00  0.00    -0.744 OA
ENDBRANCH  70  73
ENDBRANCH  52  66
BRANCH  53  77
ATOM     77  C   UNL A   1      43.621  25.824  34.393  1.00  0.00     0.023 A 
ATOM     78  C   UNL A   1      42.534  24.960  34.629  1.00  0.00     0.012 A 
ATOM     79  C   UNL A   1      44.887  25.493  34.915  1.00  0.00     0.148 A 
ATOM     80  C   UNL A   1      42.698  23.805  35.395  1.00  0.00     0.002 A 
ATOM     81  C   UNL A   1      45.056  24.313  35.627  1.00  0.00     0.091 A 
ATOM     82  F   UNL A   1      45.904  26.338  34.694  1.00  0.00    -0.205 F 
ATOM     83  C   UNL A   1      43.960  23.476  35.885  1.00  0.00     0.022 A 
BRANCH  81  84
ATOM     84  S   UNL A   1      46.664  23.749  36.199  1.00  0.00     0.127 S 
ATOM     85  O   UNL A   1      46.321  22.491  36.858  1.00  0.00    -0.237 OA
ATOM     86  O   UNL A   1      47.394  23.606  34.939  1.00  0.00    -0.237 OA
ATOM     87  O   UNL A   1      47.165  24.799  37.073  1.00  0.00    -0.744 OA
ENDBRANCH  81  84
ENDBRANCH  53  77
BRANCH  65  88
ATOM     88  C   UNL A   1      41.216  32.176  36.043  1.00  0.00     0.023 A 
ATOM     89  C   UNL A   1      42.058  32.989  36.828  1.00  0.00     0.012 A 
ATOM     90  C   UNL A   1      39.870  32.006  36.426  1.00  0.00     0.148 A 
ATOM     91  C   UNL A   1      41.578  33.595  37.989  1.00  0.00     0.002 A 
ATOM     92  C   UNL A   1      39.385  32.656  37.554  1.00  0.00     0.091 A 
ATOM     93  F   UNL A   1      39.087  31.222  35.671  1.00  0.00    -0.205 F 
ATOM     94  C   UNL A   1      40.241  33.440  38.345  1.00  0.00     0.022 A 
BRANCH  92  95
ATOM     95  S   UNL A   1      37.658  32.591  38.045  1.00  0.00     0.127 S 
ATOM     96  O   UNL A   1      37.670  33.367  39.286  1.00  0.00    -0.237 OA
ATOM     97  O   UNL A   1      36.994  33.250  36.921  1.00  0.00    -0.237 OA
ATOM     98  O   UNL A   1      37.333  31.179  38.203  1.00  0.00    -0.744 OA
ENDBRANCH  92  95
ENDBRANCH  65  88
ENDBRANCH  39  40
ENDBRANCH  32  34
ENDBRANCH  31  32
ENDBRANCH  30  31
ENDBRANCH  29  30
ENDBRANCH  28  29
ENDBRANCH  27  28
ENDBRANCH   1  27
TORSDOF 25
ENDMDL
MODEL 3
REMARK VINA RESULT:      -9.4      4.613      5.640
REMARK SMILES COc1ccc(-c2ccc(C#N)c(S[C@@H](C)C(=O)OCCOCCOCCOC(=O)c3ccc(-c4c5nc(c(-c6cccc(S(=O)(=O)[O-])c6F)c6ccc([nH]6)c(-c6cccc(S(=O)(=O)[O-])c6F)c6nc(c(-c7cccc(S(=O)(=O)[O-])c7F)c7ccc4[nH]7)C=C6)C=C5)cc3)n2)cc1
REMARK SMILES IDX 23 1 22 2 21 3 20 4 19 5 17 6 18 7 15 8 16 9 14 10 13 11
REMARK SMILES IDX 7 12 8 13 94 14 9 15 10 16 6 17 3 18 4 19 96 20 5 21 95 22
REMARK SMILES IDX 2 23 1 24 11 25 12 26 24 27 25 28 26 29 27 30 28 31 29 32
REMARK SMILES IDX 30 33 31 34 32 35 93 36 33 37 92 38 34 39 35 40 36 41 86 42
REMARK SMILES IDX 37 43 91 44 85 45 87 46 38 47 90 48 84 49 83 50 39 52 71 53
REMARK SMILES IDX 51 54 70 55 52 56 55 57 69 58 88 59 53 60 54 61 68 63 89 64
REMARK SMILES IDX 56 65 40 66 41 67 49 68 42 69 44 70 50 71 43 72 45 73 46 74
REMARK SMILES IDX 47 75 48 76 72 77 73 78 81 79 74 80 76 81 82 82 75 83 77 84
REMARK SMILES IDX 78 85 79 86 80 87 57 88 58 89 66 90 59 91 61 92 67 93 60 94
REMARK SMILES IDX 62 95 63 96 64 97 65 98
REMARK H PARENT 87 51 55 62
REMARK Flexibility Score: inf
ROOT
ATOM      1  C   UNL A   1      41.850  19.512  26.142  1.00  0.00     0.188 C 
ENDROOT
BRANCH   1   2
ATOM      2  O   UNL A   1      41.055  19.944  27.234  1.00  0.00    -0.376 OA
BRANCH   2   3
ATOM      3  C   UNL A   1      41.043  21.324  27.576  1.00  0.00     0.202 C 
BRANCH   3   4
ATOM      4  C   UNL A   1      40.145  22.329  26.827  1.00  0.00     0.261 C 
BRANCH   4   5
ATOM      5  O   UNL A   1      39.090  21.759  26.017  1.00  0.00    -0.462 OA
BRANCH   5   6
ATOM      6  C   UNL A   1      38.057  22.584  25.713  1.00  0.00     0.319 C 
ATOM      7  O   UNL A   1      38.061  23.782  25.993  1.00  0.00    -0.251 OA
BRANCH   6   8
ATOM      8  C   UNL A   1      36.917  21.984  24.902  1.00  0.00     0.160 C 
ATOM      9  C   UNL A   1      36.724  22.708  23.572  1.00  0.00     0.032 C 
BRANCH   8  10
ATOM     10  S   UNL A   1      35.256  21.563  25.549  1.00  0.00    -0.090 SA
BRANCH  10  11
ATOM     11  C   UNL A   1      33.928  22.465  24.797  1.00  0.00     0.115 A 
ATOM     12  C   UNL A   1      33.007  24.640  24.797  1.00  0.00     0.072 A 
ATOM     13  C   UNL A   1      32.037  24.267  23.880  1.00  0.00     0.030 A 
ATOM     14  N   UNL A   1      33.963  23.774  25.210  1.00  0.00    -0.240 NA
ATOM     15  C   UNL A   1      31.972  22.938  23.489  1.00  0.00     0.024 A 
ATOM     16  C   UNL A   1      32.883  22.007  24.006  1.00  0.00     0.084 A 
BRANCH  12  17
ATOM     17  C   UNL A   1      32.882  25.915  25.518  1.00  0.00     0.000 A 
ATOM     18  C   UNL A   1      32.430  28.392  26.811  1.00  0.00     0.118 A 
ATOM     19  C   UNL A   1      33.572  28.192  26.032  1.00  0.00     0.047 A 
ATOM     20  C   UNL A   1      31.510  27.358  26.951  1.00  0.00     0.047 A 
ATOM     21  C   UNL A   1      33.808  26.958  25.402  1.00  0.00     0.014 A 
ATOM     22  C   UNL A   1      31.741  26.135  26.316  1.00  0.00     0.014 A 
BRANCH  18  23
ATOM     23  O   UNL A   1      32.265  29.644  27.341  1.00  0.00    -0.497 OA
ATOM     24  C   UNL A   1      33.427  30.468  27.299  1.00  0.00     0.278 C 
ENDBRANCH  18  23
ENDBRANCH  12  17
BRANCH  16  25
ATOM     25  C   UNL A   1      32.591  20.633  23.780  1.00  0.00     0.102 C 
ATOM     26  N   UNL A   1      32.318  19.511  23.642  1.00  0.00    -0.192 NA
ENDBRANCH  16  25
ENDBRANCH  10  11
ENDBRANCH   8  10
ENDBRANCH   6   8
ENDBRANCH   5   6
ENDBRANCH   4   5
ENDBRANCH   3   4
ENDBRANCH   2   3
ENDBRANCH   1   2
BRANCH   1  27
ATOM     27  C   UNL A   1      42.552  18.148  26.259  1.00  0.00     0.188 C 
BRANCH  27  28
ATOM     28  O   UNL A   1      43.844  18.093  25.702  1.00  0.00    -0.376 OA
BRANCH  28  29
ATOM     29  C   UNL A   1      44.249  19.145  24.841  1.00  0.00     0.202 C 
BRANCH  29  30
ATOM     30  C   UNL A   1      44.771  20.520  25.322  1.00  0.00     0.261 C 
BRANCH  30  31
ATOM     31  O   UNL A   1      45.496  21.351  24.403  1.00  0.00    -0.460 OA
BRANCH  31  32
ATOM     32  C   UNL A   1      44.871  22.458  23.928  1.00  0.00     0.338 C 
ATOM     33  O   UNL A   1      44.182  22.533  22.927  1.00  0.00    -0.246 OA
BRANCH  32  34
ATOM     34  C   UNL A   1      44.978  23.516  24.962  1.00  0.00     0.060 A 
ATOM     35  C   UNL A   1      46.248  23.938  25.393  1.00  0.00     0.016 A 
ATOM     36  C   UNL A   1      43.831  24.118  25.477  1.00  0.00     0.016 A 
ATOM     37  C   UNL A   1      46.371  24.973  26.323  1.00  0.00     0.010 A 
ATOM     38  C   UNL A   1      43.956  25.129  26.437  1.00  0.00     0.010 A 
ATOM     39  C   UNL A   1      45.224  25.558  26.873  1.00  0.00    -0.014 A 
BRANCH  39  40
ATOM     40  C   UNL A   1      45.326  26.542  27.980  1.00  0.00     0.031 A 
ATOM     41  C   UNL A   1      45.214  26.055  29.398  1.00  0.00     0.074 A 
ATOM     42  C   UNL A   1      45.462  27.857  27.731  1.00  0.00     0.049 A 
ATOM     43  N   UNL A   1      45.143  26.742  30.508  1.00  0.00    -0.248 NA
ATOM     44  C   UNL A   1      45.172  24.596  29.588  1.00  0.00     0.031 C 
ATOM     45  C   UNL A   1      45.602  28.456  26.406  1.00  0.00     0.029 A 
ATOM     46  N   UNL A   1      45.461  28.932  28.589  1.00  0.00    -0.354 N 
ATOM     47  C   UNL A   1      45.004  25.806  31.525  1.00  0.00     0.074 A 
ATOM     48  C   UNL A   1      45.004  24.500  30.899  1.00  0.00     0.031 C 
ATOM     49  C   UNL A   1      45.631  29.794  26.533  1.00  0.00     0.029 A 
ATOM     50  C   UNL A   1      45.466  30.147  27.943  1.00  0.00     0.049 A 
ATOM     51  H   UNL A   1      45.457  28.841  29.569  1.00  0.00     0.167 HD
ATOM     52  C   UNL A   1      44.888  26.013  32.858  1.00  0.00     0.034 A 
ATOM     53  C   UNL A   1      45.308  31.396  28.425  1.00  0.00     0.034 A 
ATOM     54  C   UNL A   1      44.890  27.311  33.477  1.00  0.00     0.049 A 
ATOM     55  C   UNL A   1      45.117  31.600  29.907  1.00  0.00     0.074 A 
ATOM     56  C   UNL A   1      44.831  27.619  34.825  1.00  0.00     0.029 A 
ATOM     57  N   UNL A   1      44.922  28.517  32.794  1.00  0.00    -0.354 N 
ATOM     58  N   UNL A   1      45.105  30.710  30.870  1.00  0.00    -0.248 NA
ATOM     59  C   UNL A   1      44.936  32.984  30.372  1.00  0.00     0.031 C 
ATOM     60  C   UNL A   1      44.770  29.011  34.954  1.00  0.00     0.029 A 
ATOM     61  C   UNL A   1      44.847  29.570  33.689  1.00  0.00     0.049 A 
ATOM     62  H   UNL A   1      44.989  28.610  31.816  1.00  0.00     0.167 HD
ATOM     63  C   UNL A   1      44.942  31.426  32.053  1.00  0.00     0.074 A 
ATOM     64  C   UNL A   1      44.889  32.827  31.689  1.00  0.00     0.031 C 
ATOM     65  C   UNL A   1      44.830  30.965  33.323  1.00  0.00     0.034 A 
BRANCH  52  66
ATOM     66  C   UNL A   1      44.739  24.804  33.746  1.00  0.00     0.023 A 
ATOM     67  C   UNL A   1      43.456  24.322  34.073  1.00  0.00     0.012 A 
ATOM     68  C   UNL A   1      45.876  24.112  34.208  1.00  0.00     0.148 A 
ATOM     69  C   UNL A   1      43.307  23.190  34.876  1.00  0.00     0.002 A 
ATOM     70  C   UNL A   1      45.720  22.959  34.965  1.00  0.00     0.091 A 
ATOM     71  F   UNL A   1      47.087  24.597  33.901  1.00  0.00    -0.205 F 
ATOM     72  C   UNL A   1      44.436  22.504  35.311  1.00  0.00     0.022 A 
BRANCH  70  73
ATOM     73  S   UNL A   1      47.108  21.957  35.508  1.00  0.00     0.127 S 
ATOM     74  O   UNL A   1      46.428  20.795  36.077  1.00  0.00    -0.237 OA
ATOM     75  O   UNL A   1      47.808  21.698  34.250  1.00  0.00    -0.237 OA
ATOM     76  O   UNL A   1      47.847  22.772  36.461  1.00  0.00    -0.744 OA
ENDBRANCH  70  73
ENDBRANCH  52  66
BRANCH  53  77
ATOM     77  C   UNL A   1      45.309  32.563  27.496  1.00  0.00     0.023 A 
ATOM     78  C   UNL A   1      44.103  32.982  26.900  1.00  0.00     0.012 A 
ATOM     79  C   UNL A   1      46.499  33.255  27.196  1.00  0.00     0.148 A 
ATOM     80  C   UNL A   1      44.088  34.048  26.000  1.00  0.00     0.002 A 
ATOM     81  C   UNL A   1      46.468  34.352  26.344  1.00  0.00     0.091 A 
ATOM     82  F   UNL A   1      47.639  32.830  27.759  1.00  0.00    -0.205 F 
ATOM     83  C   UNL A   1      45.268  34.739  25.730  1.00  0.00     0.022 A 
BRANCH  81  84
ATOM     84  S   UNL A   1      47.912  35.373  26.026  1.00  0.00     0.127 S 
ATOM     85  O   UNL A   1      48.601  34.602  24.994  1.00  0.00    -0.237 OA
ATOM     86  O   UNL A   1      47.299  36.617  25.560  1.00  0.00    -0.237 OA
ATOM     87  O   UNL A   1      48.610  35.481  27.299  1.00  0.00    -0.744 OA
ENDBRANCH  81  84
ENDBRANCH  53  77
BRANCH  65  88
ATOM     88  C   UNL A   1      44.661  31.976  34.430  1.00  0.00     0.023 A 
ATOM     89  C   UNL A   1      43.369  32.367  34.834  1.00  0.00     0.012 A 
ATOM     90  C   UNL A   1      45.781  32.475  35.127  1.00  0.00     0.148 A 
ATOM     91  C   UNL A   1      43.195  33.262  35.891  1.00  0.00     0.002 A 
ATOM     92  C   UNL A   1      45.599  33.324  36.212  1.00  0.00     0.091 A 
ATOM     93  F   UNL A   1      47.003  32.099  34.723  1.00  0.00    -0.205 F 
ATOM     94  C   UNL A   1      44.307  33.729  36.586  1.00  0.00     0.022 A 
BRANCH  92  95
ATOM     95  S   UNL A   1      46.960  33.909  37.227  1.00  0.00     0.127 S 
ATOM     96  O   UNL A   1      46.297  34.902  38.072  1.00  0.00    -0.237 OA
ATOM     97  O   UNL A   1      47.368  32.690  37.925  1.00  0.00    -0.237 OA
ATOM     98  O   UNL A   1      47.953  34.445  36.305  1.00  0.00    -0.744 OA
ENDBRANCH  92  95
ENDBRANCH  65  88
ENDBRANCH  39  40
ENDBRANCH  32  34
ENDBRANCH  31  32
ENDBRANCH  30  31
ENDBRANCH  29  30
ENDBRANCH  28  29
ENDBRANCH  27  28
ENDBRANCH   1  27
TORSDOF 25
ENDMDL
