MODEL 1
REMARK VINA RESULT:     -10.1      0.000      0.000
REMARK SMILES O=C(OCCOCCOCCOC(=O)c1ccc(C[NH2+][C@@H]2CCCc3sccc32)nc1)c1ccc(-c2c3nc(c(-c4cccc(S(=O)(=O)[O-])c4F)c4ccc([nH]4)c(-c4cccc(S(=O)(=O)[O-])c4F)c4nc(c(-c5cccc(S(=O)(=O)[O-])c5F)c5ccc2[nH]5)C=C4)C=C3)cc1
REMARK SMILES IDX 7 1 6 2 5 3 4 4 3 5 2 6 1 7 32 8 33 9 94 10 34 11 93 12
REMARK SMILES IDX 35 13 36 14 37 15 87 16 38 17 92 18 86 19 88 20 39 21 91 22
REMARK SMILES IDX 85 23 84 24 40 26 72 27 52 28 71 29 53 30 56 31 70 32 89 33
REMARK SMILES IDX 54 34 55 35 69 37 90 38 57 39 41 40 42 41 50 42 43 43 45 44
REMARK SMILES IDX 51 45 44 46 46 47 47 48 48 49 49 50 73 51 74 52 82 53 75 54
REMARK SMILES IDX 77 55 83 56 76 57 78 58 79 59 80 60 81 61 58 62 59 63 67 64
REMARK SMILES IDX 60 65 62 66 68 67 61 68 63 69 64 70 65 71 66 72 8 73 9 74
REMARK SMILES IDX 10 75 11 76 12 77 13 78 14 79 15 80 16 81 31 82 17 83 30 84
REMARK SMILES IDX 18 85 19 86 20 87 21 90 22 91 29 92 23 93 25 94 28 95 24 96
REMARK SMILES IDX 26 97 27 98
REMARK H PARENT 88 25 56 36 20 88 20 89
REMARK Flexibility Score: inf
ROOT
ATOM      1  C   UNL A   1      33.749  21.152  23.974  1.00  0.00     0.188 C 
ENDROOT
BRANCH   1   2
ATOM      2  O   UNL A   1      34.861  20.421  24.504  1.00  0.00    -0.376 OA
BRANCH   2   3
ATOM      3  C   UNL A   1      36.063  21.192  24.608  1.00  0.00     0.202 C 
BRANCH   3   4
ATOM      4  C   UNL A   1      37.009  20.767  25.742  1.00  0.00     0.261 C 
BRANCH   4   5
ATOM      5  O   UNL A   1      38.385  20.751  25.329  1.00  0.00    -0.460 OA
BRANCH   5   6
ATOM      6  C   UNL A   1      39.488  20.955  26.095  1.00  0.00     0.338 C 
ATOM      7  O   UNL A   1      40.198  19.985  26.354  1.00  0.00    -0.246 OA
BRANCH   6   8
ATOM      8  C   UNL A   1      39.904  22.297  26.617  1.00  0.00     0.060 A 
ATOM      9  C   UNL A   1      39.343  23.516  26.233  1.00  0.00     0.016 A 
ATOM     10  C   UNL A   1      40.905  22.322  27.603  1.00  0.00     0.016 A 
ATOM     11  C   UNL A   1      39.845  24.725  26.697  1.00  0.00     0.010 A 
ATOM     12  C   UNL A   1      41.370  23.534  28.130  1.00  0.00     0.010 A 
ATOM     13  C   UNL A   1      40.869  24.745  27.640  1.00  0.00    -0.014 A 
BRANCH  13  14
ATOM     14  C   UNL A   1      41.456  26.050  28.006  1.00  0.00     0.031 A 
ATOM     15  C   UNL A   1      42.830  26.384  27.507  1.00  0.00     0.074 A 
ATOM     16  C   UNL A   1      40.707  26.961  28.657  1.00  0.00     0.049 A 
ATOM     17  N   UNL A   1      43.517  27.484  27.659  1.00  0.00    -0.248 NA
ATOM     18  C   UNL A   1      43.513  25.354  26.703  1.00  0.00     0.031 C 
ATOM     19  C   UNL A   1      39.318  26.760  29.075  1.00  0.00     0.029 A 
ATOM     20  N   UNL A   1      40.988  28.243  29.051  1.00  0.00    -0.354 N 
ATOM     21  C   UNL A   1      44.722  27.267  27.001  1.00  0.00     0.074 A 
ATOM     22  C   UNL A   1      44.675  25.935  26.446  1.00  0.00     0.031 C 
ATOM     23  C   UNL A   1      38.861  27.889  29.641  1.00  0.00     0.029 A 
ATOM     24  C   UNL A   1      39.940  28.864  29.693  1.00  0.00     0.049 A 
ATOM     25  H   UNL A   1      41.856  28.679  28.890  1.00  0.00     0.167 HD
ATOM     26  C   UNL A   1      45.769  28.112  26.870  1.00  0.00     0.034 A 
ATOM     27  C   UNL A   1      39.868  30.078  30.270  1.00  0.00     0.034 A 
ATOM     28  C   UNL A   1      45.788  29.438  27.422  1.00  0.00     0.049 A 
ATOM     29  C   UNL A   1      41.089  30.956  30.191  1.00  0.00     0.074 A 
ATOM     30  C   UNL A   1      46.804  30.374  27.386  1.00  0.00     0.029 A 
ATOM     31  N   UNL A   1      44.735  30.009  28.123  1.00  0.00    -0.354 N 
ATOM     32  N   UNL A   1      42.211  30.751  29.540  1.00  0.00    -0.248 NA
ATOM     33  C   UNL A   1      41.034  32.237  30.907  1.00  0.00     0.031 C 
ATOM     34  C   UNL A   1      46.371  31.506  28.086  1.00  0.00     0.029 A 
ATOM     35  C   UNL A   1      45.078  31.283  28.537  1.00  0.00     0.049 A 
ATOM     36  H   UNL A   1      43.871  29.573  28.298  1.00  0.00     0.167 HD
ATOM     37  C   UNL A   1      42.980  31.890  29.736  1.00  0.00     0.074 A 
ATOM     38  C   UNL A   1      42.186  32.790  30.552  1.00  0.00     0.031 C 
ATOM     39  C   UNL A   1      44.234  32.166  29.301  1.00  0.00     0.034 A 
BRANCH  26  40
ATOM     40  C   UNL A   1      46.971  27.610  26.118  1.00  0.00     0.023 A 
ATOM     41  C   UNL A   1      47.070  27.822  24.728  1.00  0.00     0.012 A 
ATOM     42  C   UNL A   1      48.000  26.921  26.788  1.00  0.00     0.148 A 
ATOM     43  C   UNL A   1      48.159  27.327  24.011  1.00  0.00     0.002 A 
ATOM     44  C   UNL A   1      49.099  26.461  26.073  1.00  0.00     0.091 A 
ATOM     45  F   UNL A   1      47.871  26.708  28.105  1.00  0.00    -0.205 F 
ATOM     46  C   UNL A   1      49.176  26.654  24.684  1.00  0.00     0.022 A 
BRANCH  44  47
ATOM     47  S   UNL A   1      50.483  25.624  26.855  1.00  0.00     0.127 S 
ATOM     48  O   UNL A   1      51.339  25.334  25.705  1.00  0.00    -0.237 OA
ATOM     49  O   UNL A   1      50.998  26.659  27.752  1.00  0.00    -0.237 OA
ATOM     50  O   UNL A   1      49.923  24.459  27.525  1.00  0.00    -0.744 OA
ENDBRANCH  44  47
ENDBRANCH  26  40
BRANCH  27  51
ATOM     51  C   UNL A   1      38.610  30.551  30.925  1.00  0.00     0.023 A 
ATOM     52  C   UNL A   1      38.412  30.295  32.296  1.00  0.00     0.012 A 
ATOM     53  C   UNL A   1      37.608  31.248  30.219  1.00  0.00     0.148 A 
ATOM     54  C   UNL A   1      37.233  30.686  32.937  1.00  0.00     0.002 A 
ATOM     55  C   UNL A   1      36.454  31.674  30.874  1.00  0.00     0.091 A 
ATOM     56  F   UNL A   1      37.789  31.495  28.912  1.00  0.00    -0.205 F 
ATOM     57  C   UNL A   1      36.257  31.382  32.229  1.00  0.00     0.022 A 
BRANCH  55  58
ATOM     58  S   UNL A   1      35.231  32.673  30.016  1.00  0.00     0.127 S 
ATOM     59  O   UNL A   1      34.232  32.911  31.050  1.00  0.00    -0.237 OA
ATOM     60  O   UNL A   1      35.994  33.852  29.608  1.00  0.00    -0.237 OA
ATOM     61  O   UNL A   1      34.816  31.832  28.899  1.00  0.00    -0.744 OA
ENDBRANCH  55  58
ENDBRANCH  27  51
BRANCH  39  62
ATOM     62  C   UNL A   1      44.805  33.507  29.669  1.00  0.00     0.023 A 
ATOM     63  C   UNL A   1      45.569  33.640  30.845  1.00  0.00     0.012 A 
ATOM     64  C   UNL A   1      44.652  34.609  28.808  1.00  0.00     0.148 A 
ATOM     65  C   UNL A   1      46.151  34.863  31.172  1.00  0.00     0.002 A 
ATOM     66  C   UNL A   1      45.275  35.810  29.115  1.00  0.00     0.091 A 
ATOM     67  F   UNL A   1      43.901  34.462  27.706  1.00  0.00    -0.205 F 
ATOM     68  C   UNL A   1      46.015  35.943  30.302  1.00  0.00     0.022 A 
BRANCH  66  69
ATOM     69  S   UNL A   1      45.237  37.216  27.998  1.00  0.00     0.127 S 
ATOM     70  O   UNL A   1      45.759  36.631  26.764  1.00  0.00    -0.237 OA
ATOM     71  O   UNL A   1      43.812  37.546  27.962  1.00  0.00    -0.237 OA
ATOM     72  O   UNL A   1      46.075  38.236  28.614  1.00  0.00    -0.744 OA
ENDBRANCH  66  69
ENDBRANCH  39  62
ENDBRANCH  13  14
ENDBRANCH   6   8
ENDBRANCH   5   6
ENDBRANCH   4   5
ENDBRANCH   3   4
ENDBRANCH   2   3
ENDBRANCH   1   2
BRANCH   1  73
ATOM     73  C   UNL A   1      32.412  20.568  24.439  1.00  0.00     0.188 C 
BRANCH  73  74
ATOM     74  O   UNL A   1      31.982  20.963  25.743  1.00  0.00    -0.376 OA
BRANCH  74  75
ATOM     75  C   UNL A   1      32.989  21.425  26.638  1.00  0.00     0.202 C 
BRANCH  75  76
ATOM     76  C   UNL A   1      32.592  22.507  27.651  1.00  0.00     0.261 C 
BRANCH  76  77
ATOM     77  O   UNL A   1      32.164  23.755  27.082  1.00  0.00    -0.460 OA
BRANCH  77  78
ATOM     78  C   UNL A   1      30.822  23.848  26.890  1.00  0.00     0.339 C 
ATOM     79  O   UNL A   1      29.958  23.184  27.440  1.00  0.00    -0.246 OA
BRANCH  78  80
ATOM     80  C   UNL A   1      30.501  24.802  25.825  1.00  0.00     0.078 A 
ATOM     81  C   UNL A   1      30.530  26.159  26.120  1.00  0.00     0.019 A 
ATOM     82  C   UNL A   1      30.329  24.420  24.505  1.00  0.00     0.127 A 
ATOM     83  C   UNL A   1      30.413  27.078  25.084  1.00  0.00     0.031 A 
ATOM     84  N   UNL A   1      30.199  25.299  23.475  1.00  0.00    -0.254 NA
ATOM     85  C   UNL A   1      30.259  26.629  23.773  1.00  0.00     0.094 A 
BRANCH  85  86
ATOM     86  C   UNL A   1      30.239  27.649  22.633  1.00  0.00     0.318 C 
BRANCH  86  87
ATOM     87  N   UNL A   1      31.603  28.118  22.324  1.00  0.00    -0.335 N 
ATOM     88  H   UNL A   1      31.966  28.598  23.149  1.00  0.00     0.347 HD
ATOM     89  H   UNL A   1      31.515  28.721  21.506  1.00  0.00     0.347 HD
BRANCH  87  90
ATOM     90  C   UNL A   1      32.563  27.069  21.953  1.00  0.00     0.215 C 
ATOM     91  C   UNL A   1      31.979  25.978  21.026  1.00  0.00     0.071 C 
ATOM     92  C   UNL A   1      33.293  26.465  23.130  1.00  0.00     0.023 A 
ATOM     93  C   UNL A   1      33.028  24.898  20.723  1.00  0.00     0.012 C 
ATOM     94  C   UNL A   1      33.713  25.144  23.112  1.00  0.00     0.014 A 
ATOM     95  C   UNL A   1      33.709  27.113  24.337  1.00  0.00     0.022 A 
ATOM     96  C   UNL A   1      33.459  24.167  22.003  1.00  0.00     0.047 C 
ATOM     97  S   UNL A   1      34.534  24.689  24.532  1.00  0.00    -0.148 S 
ATOM     98  C   UNL A   1      34.362  26.256  25.195  1.00  0.00     0.065 A 
ENDBRANCH  87  90
ENDBRANCH  86  87
ENDBRANCH  85  86
ENDBRANCH  78  80
ENDBRANCH  77  78
ENDBRANCH  76  77
ENDBRANCH  75  76
ENDBRANCH  74  75
ENDBRANCH  73  74
ENDBRANCH   1  73
TORSDOF 23
ENDMDL
MODEL 2
REMARK VINA RESULT:      -9.7      5.285     10.392
REMARK SMILES O=C(OCCOCCOCCOC(=O)c1ccc(C[NH2+][C@@H]2CCCc3sccc32)nc1)c1ccc(-c2c3nc(c(-c4cccc(S(=O)(=O)[O-])c4F)c4ccc([nH]4)c(-c4cccc(S(=O)(=O)[O-])c4F)c4nc(c(-c5cccc(S(=O)(=O)[O-])c5F)c5ccc2[nH]5)C=C4)C=C3)cc1
REMARK SMILES IDX 7 1 6 2 5 3 4 4 3 5 2 6 1 7 32 8 33 9 94 10 34 11 93 12
REMARK SMILES IDX 35 13 36 14 37 15 87 16 38 17 92 18 86 19 88 20 39 21 91 22
REMARK SMILES IDX 85 23 84 24 40 26 72 27 52 28 71 29 53 30 56 31 70 32 89 33
REMARK SMILES IDX 54 34 55 35 69 37 90 38 57 39 41 40 42 41 50 42 43 43 45 44
REMARK SMILES IDX 51 45 44 46 46 47 47 48 48 49 49 50 73 51 74 52 82 53 75 54
REMARK SMILES IDX 77 55 83 56 76 57 78 58 79 59 80 60 81 61 58 62 59 63 67 64
REMARK SMILES IDX 60 65 62 66 68 67 61 68 63 69 64 70 65 71 66 72 8 73 9 74
REMARK SMILES IDX 10 75 11 76 12 77 13 78 14 79 15 80 16 81 31 82 17 83 30 84
REMARK SMILES IDX 18 85 19 86 20 87 21 90 22 91 29 92 23 93 25 94 28 95 24 96
REMARK SMILES IDX 26 97 27 98
REMARK H PARENT 88 25 56 36 20 88 20 89
REMARK Flexibility Score: inf
ROOT
ATOM      1  C   UNL A   1      36.263  33.805  30.477  1.00  0.00     0.188 C 
ENDROOT
BRANCH   1   2
ATOM      2  O   UNL A   1      35.683  33.289  31.681  1.00  0.00    -0.376 OA
BRANCH   2   3
ATOM      3  C   UNL A   1      35.648  34.233  32.757  1.00  0.00     0.202 C 
BRANCH   3   4
ATOM      4  C   UNL A   1      35.440  33.620  34.150  1.00  0.00     0.261 C 
BRANCH   4   5
ATOM      5  O   UNL A   1      36.631  33.670  34.952  1.00  0.00    -0.460 OA
BRANCH   5   6
ATOM      6  C   UNL A   1      37.463  32.645  35.275  1.00  0.00     0.338 C 
ATOM      7  O   UNL A   1      37.313  32.102  36.369  1.00  0.00    -0.246 OA
BRANCH   6   8
ATOM      8  C   UNL A   1      38.533  32.122  34.364  1.00  0.00     0.060 A 
ATOM      9  C   UNL A   1      38.307  31.368  33.212  1.00  0.00     0.016 A 
ATOM     10  C   UNL A   1      39.862  32.457  34.674  1.00  0.00     0.016 A 
ATOM     11  C   UNL A   1      39.357  30.844  32.469  1.00  0.00     0.010 A 
ATOM     12  C   UNL A   1      40.926  31.991  33.890  1.00  0.00     0.010 A 
ATOM     13  C   UNL A   1      40.674  31.141  32.808  1.00  0.00    -0.014 A 
BRANCH  13  14
ATOM     14  C   UNL A   1      41.757  30.459  32.070  1.00  0.00     0.031 A 
ATOM     15  C   UNL A   1      42.420  31.185  30.937  1.00  0.00     0.074 A 
ATOM     16  C   UNL A   1      42.217  29.271  32.504  1.00  0.00     0.049 A 
ATOM     17  N   UNL A   1      43.420  30.806  30.189  1.00  0.00    -0.248 NA
ATOM     18  C   UNL A   1      41.910  32.532  30.623  1.00  0.00     0.031 C 
ATOM     19  C   UNL A   1      41.706  28.549  33.672  1.00  0.00     0.029 A 
ATOM     20  N   UNL A   1      43.233  28.475  32.044  1.00  0.00    -0.354 N 
ATOM     21  C   UNL A   1      43.636  31.848  29.296  1.00  0.00     0.074 A 
ATOM     22  C   UNL A   1      42.669  32.879  29.594  1.00  0.00     0.031 C 
ATOM     23  C   UNL A   1      42.430  27.434  33.851  1.00  0.00     0.029 A 
ATOM     24  C   UNL A   1      43.403  27.321  32.776  1.00  0.00     0.049 A 
ATOM     25  H   UNL A   1      43.789  28.706  31.265  1.00  0.00     0.167 HD
ATOM     26  C   UNL A   1      44.567  31.936  28.319  1.00  0.00     0.034 A 
ATOM     27  C   UNL A   1      44.242  26.285  32.587  1.00  0.00     0.034 A 
ATOM     28  C   UNL A   1      45.527  30.902  28.048  1.00  0.00     0.049 A 
ATOM     29  C   UNL A   1      45.199  26.371  31.427  1.00  0.00     0.074 A 
ATOM     30  C   UNL A   1      46.496  30.859  27.063  1.00  0.00     0.029 A 
ATOM     31  N   UNL A   1      45.627  29.719  28.767  1.00  0.00    -0.354 N 
ATOM     32  N   UNL A   1      45.415  27.376  30.610  1.00  0.00    -0.248 NA
ATOM     33  C   UNL A   1      46.041  25.195  31.171  1.00  0.00     0.031 C 
ATOM     34  C   UNL A   1      47.168  29.638  27.174  1.00  0.00     0.029 A 
ATOM     35  C   UNL A   1      46.634  28.930  28.242  1.00  0.00     0.049 A 
ATOM     36  H   UNL A   1      45.065  29.477  29.538  1.00  0.00     0.167 HD
ATOM     37  C   UNL A   1      46.440  26.969  29.767  1.00  0.00     0.074 A 
ATOM     38  C   UNL A   1      46.815  25.632  30.187  1.00  0.00     0.031 C 
ATOM     39  C   UNL A   1      47.011  27.627  28.727  1.00  0.00     0.034 A 
BRANCH  26  40
ATOM     40  C   UNL A   1      44.567  33.181  27.475  1.00  0.00     0.023 A 
ATOM     41  C   UNL A   1      43.979  33.162  26.194  1.00  0.00     0.012 A 
ATOM     42  C   UNL A   1      45.155  34.368  27.950  1.00  0.00     0.148 A 
ATOM     43  C   UNL A   1      44.007  34.298  25.385  1.00  0.00     0.002 A 
ATOM     44  C   UNL A   1      45.148  35.507  27.152  1.00  0.00     0.091 A 
ATOM     45  F   UNL A   1      45.731  34.355  29.160  1.00  0.00    -0.205 F 
ATOM     46  C   UNL A   1      44.584  35.470  25.866  1.00  0.00     0.022 A 
BRANCH  44  47
ATOM     47  S   UNL A   1      45.824  37.078  27.699  1.00  0.00     0.127 S 
ATOM     48  O   UNL A   1      45.762  37.868  26.469  1.00  0.00    -0.237 OA
ATOM     49  O   UNL A   1      44.867  37.480  28.730  1.00  0.00    -0.237 OA
ATOM     50  O   UNL A   1      47.165  36.792  28.188  1.00  0.00    -0.744 OA
ENDBRANCH  44  47
ENDBRANCH  26  40
BRANCH  27  51
ATOM     51  C   UNL A   1      44.251  25.115  33.518  1.00  0.00     0.023 A 
ATOM     52  C   UNL A   1      43.663  23.904  33.103  1.00  0.00     0.012 A 
ATOM     53  C   UNL A   1      44.828  25.179  34.803  1.00  0.00     0.148 A 
ATOM     54  C   UNL A   1      43.616  22.799  33.958  1.00  0.00     0.002 A 
ATOM     55  C   UNL A   1      44.816  24.060  35.634  1.00  0.00     0.091 A 
ATOM     56  F   UNL A   1      45.389  26.329  35.205  1.00  0.00    -0.205 F 
ATOM     57  C   UNL A   1      44.199  22.874  35.220  1.00  0.00     0.022 A 
BRANCH  55  58
ATOM     58  S   UNL A   1      45.660  24.091  37.220  1.00  0.00     0.127 S 
ATOM     59  O   UNL A   1      44.839  25.009  38.000  1.00  0.00    -0.237 OA
ATOM     60  O   UNL A   1      45.608  22.694  37.651  1.00  0.00    -0.237 OA
ATOM     61  O   UNL A   1      47.005  24.549  36.891  1.00  0.00    -0.744 OA
ENDBRANCH  55  58
ENDBRANCH  27  51
BRANCH  39  62
ATOM     62  C   UNL A   1      48.122  26.923  28.001  1.00  0.00     0.023 A 
ATOM     63  C   UNL A   1      47.825  26.113  26.888  1.00  0.00     0.012 A 
ATOM     64  C   UNL A   1      49.463  27.132  28.374  1.00  0.00     0.148 A 
ATOM     65  C   UNL A   1      48.849  25.497  26.171  1.00  0.00     0.002 A 
ATOM     66  C   UNL A   1      50.480  26.557  27.625  1.00  0.00     0.091 A 
ATOM     67  F   UNL A   1      49.719  27.889  29.451  1.00  0.00    -0.205 F 
ATOM     68  C   UNL A   1      50.175  25.729  26.531  1.00  0.00     0.022 A 
BRANCH  66  69
ATOM     69  S   UNL A   1      52.214  26.888  27.958  1.00  0.00     0.127 S 
ATOM     70  O   UNL A   1      52.388  26.271  29.272  1.00  0.00    -0.237 OA
ATOM     71  O   UNL A   1      52.881  26.186  26.861  1.00  0.00    -0.237 OA
ATOM     72  O   UNL A   1      52.356  28.337  27.919  1.00  0.00    -0.744 OA
ENDBRANCH  66  69
ENDBRANCH  39  62
ENDBRANCH  13  14
ENDBRANCH   6   8
ENDBRANCH   5   6
ENDBRANCH   4   5
ENDBRANCH   3   4
ENDBRANCH   2   3
ENDBRANCH   1   2
BRANCH   1  73
ATOM     73  C   UNL A   1      35.378  33.528  29.257  1.00  0.00     0.188 C 
BRANCH  73  74
ATOM     74  O   UNL A   1      34.623  32.316  29.300  1.00  0.00    -0.376 OA
BRANCH  74  75
ATOM     75  C   UNL A   1      34.586  31.541  28.106  1.00  0.00     0.202 C 
BRANCH  75  76
ATOM     76  C   UNL A   1      35.406  30.244  28.080  1.00  0.00     0.261 C 
BRANCH  76  77
ATOM     77  O   UNL A   1      36.788  30.382  28.448  1.00  0.00    -0.460 OA
BRANCH  77  78
ATOM     78  C   UNL A   1      37.190  29.533  29.429  1.00  0.00     0.339 C 
ATOM     79  O   UNL A   1      36.623  29.320  30.488  1.00  0.00    -0.246 OA
BRANCH  78  80
ATOM     80  C   UNL A   1      38.497  28.945  29.122  1.00  0.00     0.078 A 
ATOM     81  C   UNL A   1      39.176  29.391  27.995  1.00  0.00     0.019 A 
ATOM     82  C   UNL A   1      39.154  28.086  29.989  1.00  0.00     0.127 A 
ATOM     83  C   UNL A   1      40.489  28.983  27.793  1.00  0.00     0.031 A 
ATOM     84  N   UNL A   1      40.433  27.662  29.806  1.00  0.00    -0.254 NA
ATOM     85  C   UNL A   1      41.100  28.130  28.712  1.00  0.00     0.094 A 
BRANCH  85  86
ATOM     86  C   UNL A   1      42.577  27.776  28.533  1.00  0.00     0.318 C 
BRANCH  86  87
ATOM     87  N   UNL A   1      42.828  26.368  28.897  1.00  0.00    -0.335 N 
ATOM     88  H   UNL A   1      41.927  25.925  29.081  1.00  0.00     0.347 HD
ATOM     89  H   UNL A   1      43.445  26.393  29.709  1.00  0.00     0.347 HD
BRANCH  87  90
ATOM     90  C   UNL A   1      43.527  25.569  27.881  1.00  0.00     0.215 C 
ATOM     91  C   UNL A   1      43.883  26.351  26.596  1.00  0.00     0.071 C 
ATOM     92  C   UNL A   1      42.848  24.257  27.564  1.00  0.00     0.023 A 
ATOM     93  C   UNL A   1      44.568  25.436  25.570  1.00  0.00     0.012 C 
ATOM     94  C   UNL A   1      42.936  23.692  26.300  1.00  0.00     0.014 A 
ATOM     95  C   UNL A   1      42.118  23.403  28.451  1.00  0.00     0.022 A 
ATOM     96  C   UNL A   1      43.631  24.305  25.121  1.00  0.00     0.047 C 
ATOM     97  S   UNL A   1      42.116  22.205  26.180  1.00  0.00    -0.148 S 
ATOM     98  C   UNL A   1      41.640  22.275  27.821  1.00  0.00     0.065 A 
ENDBRANCH  87  90
ENDBRANCH  86  87
ENDBRANCH  85  86
ENDBRANCH  78  80
ENDBRANCH  77  78
ENDBRANCH  76  77
ENDBRANCH  75  76
ENDBRANCH  74  75
ENDBRANCH  73  74
ENDBRANCH   1  73
TORSDOF 23
ENDMDL
MODEL 3
REMARK VINA RESULT:      -9.6      3.626      7.395
REMARK SMILES O=C(OCCOCCOCCOC(=O)c1ccc(C[NH2+][C@@H]2CCCc3sccc32)nc1)c1ccc(-c2c3nc(c(-c4cccc(S(=O)(=O)[O-])c4F)c4ccc([nH]4)c(-c4cccc(S(=O)(=O)[O-])c4F)c4nc(c(-c5cccc(S(=O)(=O)[O-])c5F)c5ccc2[nH]5)C=C4)C=C3)cc1
REMARK SMILES IDX 7 1 6 2 5 3 4 4 3 5 2 6 1 7 32 8 33 9 94 10 34 11 93 12
REMARK SMILES IDX 35 13 36 14 37 15 87 16 38 17 92 18 86 19 88 20 39 21 91 22
REMARK SMILES IDX 85 23 84 24 40 26 72 27 52 28 71 29 53 30 56 31 70 32 89 33
REMARK SMILES IDX 54 34 55 35 69 37 90 38 57 39 41 40 42 41 50 42 43 43 45 44
REMARK SMILES IDX 51 45 44 46 46 47 47 48 48 49 49 50 73 51 74 52 82 53 75 54
REMARK SMILES IDX 77 55 83 56 76 57 78 58 79 59 80 60 81 61 58 62 59 63 67 64
REMARK SMILES IDX 60 65 62 66 68 67 61 68 63 69 64 70 65 71 66 72 8 73 9 74
REMARK SMILES IDX 10 75 11 76 12 77 13 78 14 79 15 80 16 81 31 82 17 83 30 84
REMARK SMILES IDX 18 85 19 86 20 87 21 90 22 91 29 92 23 93 25 94 28 95 24 96
REMARK SMILES IDX 26 97 27 98
REMARK H PARENT 88 25 56 36 20 88 20 89
REMARK Flexibility Score: inf
ROOT
ATOM      1  C   UNL A   1      35.759  33.673  29.058  1.00  0.00     0.188 C 
ENDROOT
BRANCH   1   2
ATOM      2  O   UNL A   1      36.184  32.850  30.151  1.00  0.00    -0.376 OA
BRANCH   2   3
ATOM      3  C   UNL A   1      35.522  33.141  31.387  1.00  0.00     0.202 C 
BRANCH   3   4
ATOM      4  C   UNL A   1      35.513  31.990  32.403  1.00  0.00     0.261 C 
BRANCH   4   5
ATOM      5  O   UNL A   1      35.977  30.755  31.834  1.00  0.00    -0.460 OA
BRANCH   5   6
ATOM      6  C   UNL A   1      37.111  30.071  32.137  1.00  0.00     0.338 C 
ATOM      7  O   UNL A   1      37.015  29.087  32.868  1.00  0.00    -0.246 OA
BRANCH   6   8
ATOM      8  C   UNL A   1      38.467  30.431  31.608  1.00  0.00     0.060 A 
ATOM      9  C   UNL A   1      39.604  30.638  32.389  1.00  0.00     0.016 A 
ATOM     10  C   UNL A   1      38.610  30.522  30.212  1.00  0.00     0.016 A 
ATOM     11  C   UNL A   1      40.804  31.057  31.829  1.00  0.00     0.010 A 
ATOM     12  C   UNL A   1      39.835  30.876  29.633  1.00  0.00     0.010 A 
ATOM     13  C   UNL A   1      40.926  31.191  30.449  1.00  0.00    -0.014 A 
BRANCH  13  14
ATOM     14  C   UNL A   1      42.179  31.761  29.911  1.00  0.00     0.031 A 
ATOM     15  C   UNL A   1      43.259  30.823  29.462  1.00  0.00     0.074 A 
ATOM     16  C   UNL A   1      42.276  33.088  29.706  1.00  0.00     0.049 A 
ATOM     17  N   UNL A   1      44.411  31.096  28.912  1.00  0.00    -0.248 NA
ATOM     18  C   UNL A   1      42.997  29.381  29.625  1.00  0.00     0.031 C 
ATOM     19  C   UNL A   1      41.223  34.062  30.006  1.00  0.00     0.029 A 
ATOM     20  N   UNL A   1      43.283  33.847  29.172  1.00  0.00    -0.354 N 
ATOM     21  C   UNL A   1      45.024  29.867  28.696  1.00  0.00     0.074 A 
ATOM     22  C   UNL A   1      44.119  28.845  29.169  1.00  0.00     0.031 C 
ATOM     23  C   UNL A   1      41.631  35.282  29.624  1.00  0.00     0.029 A 
ATOM     24  C   UNL A   1      42.994  35.192  29.124  1.00  0.00     0.049 A 
ATOM     25  H   UNL A   1      44.134  33.467  28.853  1.00  0.00     0.167 HD
ATOM     26  C   UNL A   1      46.233  29.619  28.144  1.00  0.00     0.034 A 
ATOM     27  C   UNL A   1      43.753  36.233  28.734  1.00  0.00     0.034 A 
ATOM     28  C   UNL A   1      47.112  30.651  27.671  1.00  0.00     0.049 A 
ATOM     29  C   UNL A   1      45.135  35.928  28.217  1.00  0.00     0.074 A 
ATOM     30  C   UNL A   1      48.375  30.527  27.125  1.00  0.00     0.029 A 
ATOM     31  N   UNL A   1      46.814  32.007  27.698  1.00  0.00    -0.354 N 
ATOM     32  N   UNL A   1      45.690  34.761  27.989  1.00  0.00    -0.248 NA
ATOM     33  C   UNL A   1      45.989  37.076  27.887  1.00  0.00     0.031 C 
ATOM     34  C   UNL A   1      48.851  31.813  26.843  1.00  0.00     0.029 A 
ATOM     35  C   UNL A   1      47.874  32.735  27.191  1.00  0.00     0.049 A 
ATOM     36  H   UNL A   1      45.971  32.393  28.029  1.00  0.00     0.167 HD
ATOM     37  C   UNL A   1      46.942  35.031  27.455  1.00  0.00     0.074 A 
ATOM     38  C   UNL A   1      47.055  36.475  27.376  1.00  0.00     0.031 C 
ATOM     39  C   UNL A   1      47.921  34.171  27.080  1.00  0.00     0.034 A 
BRANCH  26  40
ATOM     40  C   UNL A   1      46.665  28.182  28.048  1.00  0.00     0.023 A 
ATOM     41  C   UNL A   1      47.380  27.590  29.110  1.00  0.00     0.012 A 
ATOM     42  C   UNL A   1      46.369  27.419  26.903  1.00  0.00     0.148 A 
ATOM     43  C   UNL A   1      47.822  26.270  29.017  1.00  0.00     0.002 A 
ATOM     44  C   UNL A   1      46.783  26.094  26.832  1.00  0.00     0.091 A 
ATOM     45  F   UNL A   1      45.712  28.011  25.895  1.00  0.00    -0.205 F 
ATOM     46  C   UNL A   1      47.517  25.521  27.883  1.00  0.00     0.022 A 
BRANCH  44  47
ATOM     47  S   UNL A   1      46.400  25.032  25.436  1.00  0.00     0.127 S 
ATOM     48  O   UNL A   1      44.958  25.236  25.297  1.00  0.00    -0.237 OA
ATOM     49  O   UNL A   1      47.205  25.627  24.369  1.00  0.00    -0.237 OA
ATOM     50  O   UNL A   1      46.803  23.689  25.827  1.00  0.00    -0.744 OA
ENDBRANCH  44  47
ENDBRANCH  26  40
BRANCH  27  51
ATOM     51  C   UNL A   1      43.228  37.633  28.772  1.00  0.00     0.023 A 
ATOM     52  C   UNL A   1      42.370  38.073  27.745  1.00  0.00     0.012 A 
ATOM     53  C   UNL A   1      43.562  38.534  29.804  1.00  0.00     0.148 A 
ATOM     54  C   UNL A   1      41.889  39.385  27.725  1.00  0.00     0.002 A 
ATOM     55  C   UNL A   1      43.043  39.828  29.801  1.00  0.00     0.091 A 
ATOM     56  F   UNL A   1      44.378  38.122  30.786  1.00  0.00    -0.205 F 
ATOM     57  C   UNL A   1      42.219  40.261  28.756  1.00  0.00     0.022 A 
BRANCH  55  58
ATOM     58  S   UNL A   1      43.357  40.942  31.176  1.00  0.00     0.127 S 
ATOM     59  O   UNL A   1      42.738  40.247  32.297  1.00  0.00    -0.237 OA
ATOM     60  O   UNL A   1      44.817  41.012  31.219  1.00  0.00    -0.237 OA
ATOM     61  O   UNL A   1      42.727  42.191  30.764  1.00  0.00    -0.744 OA
ENDBRANCH  55  58
ENDBRANCH  27  51
BRANCH  39  62
ATOM     62  C   UNL A   1      49.179  34.771  26.517  1.00  0.00     0.023 A 
ATOM     63  C   UNL A   1      49.244  35.098  25.150  1.00  0.00     0.012 A 
ATOM     64  C   UNL A   1      50.261  35.082  27.362  1.00  0.00     0.148 A 
ATOM     65  C   UNL A   1      50.383  35.705  24.624  1.00  0.00     0.002 A 
ATOM     66  C   UNL A   1      51.371  35.731  26.842  1.00  0.00     0.091 A 
ATOM     67  F   UNL A   1      50.184  34.738  28.656  1.00  0.00    -0.205 F 
ATOM     68  C   UNL A   1      51.440  36.033  25.471  1.00  0.00     0.022 A 
BRANCH  66  69
ATOM     69  S   UNL A   1      52.729  36.280  27.882  1.00  0.00     0.127 S 
ATOM     70  O   UNL A   1      52.226  37.561  28.375  1.00  0.00    -0.237 OA
ATOM     71  O   UNL A   1      52.797  35.222  28.890  1.00  0.00    -0.237 OA
ATOM     72  O   UNL A   1      53.892  36.355  27.010  1.00  0.00    -0.744 OA
ENDBRANCH  66  69
ENDBRANCH  39  62
ENDBRANCH  13  14
ENDBRANCH   6   8
ENDBRANCH   5   6
ENDBRANCH   4   5
ENDBRANCH   3   4
ENDBRANCH   2   3
ENDBRANCH   1   2
BRANCH   1  73
ATOM     73  C   UNL A   1      34.257  33.532  28.792  1.00  0.00     0.188 C 
BRANCH  73  74
ATOM     74  O   UNL A   1      33.900  32.752  27.650  1.00  0.00    -0.376 OA
BRANCH  74  75
ATOM     75  C   UNL A   1      34.194  31.359  27.708  1.00  0.00     0.202 C 
BRANCH  75  76
ATOM     76  C   UNL A   1      33.184  30.397  27.069  1.00  0.00     0.261 C 
BRANCH  76  77
ATOM     77  O   UNL A   1      33.214  29.051  27.572  1.00  0.00    -0.460 OA
BRANCH  77  78
ATOM     78  C   UNL A   1      32.098  28.328  27.291  1.00  0.00     0.339 C 
ATOM     79  O   UNL A   1      31.140  28.148  28.025  1.00  0.00    -0.246 OA
BRANCH  78  80
ATOM     80  C   UNL A   1      32.210  27.661  25.990  1.00  0.00     0.078 A 
ATOM     81  C   UNL A   1      33.325  26.871  25.745  1.00  0.00     0.019 A 
ATOM     82  C   UNL A   1      31.181  27.654  25.062  1.00  0.00     0.127 A 
ATOM     83  C   UNL A   1      33.357  26.087  24.597  1.00  0.00     0.031 A 
ATOM     84  N   UNL A   1      31.194  26.906  23.926  1.00  0.00    -0.254 NA
ATOM     85  C   UNL A   1      32.282  26.111  23.710  1.00  0.00     0.094 A 
BRANCH  85  86
ATOM     86  C   UNL A   1      32.285  25.164  22.509  1.00  0.00     0.318 C 
BRANCH  86  87
ATOM     87  N   UNL A   1      33.579  24.464  22.394  1.00  0.00    -0.335 N 
ATOM     88  H   UNL A   1      34.239  24.917  23.028  1.00  0.00     0.347 HD
ATOM     89  H   UNL A   1      33.847  24.527  21.412  1.00  0.00     0.347 HD
BRANCH  87  90
ATOM     90  C   UNL A   1      33.552  23.031  22.717  1.00  0.00     0.215 C 
ATOM     91  C   UNL A   1      32.196  22.533  23.266  1.00  0.00     0.071 C 
ATOM     92  C   UNL A   1      34.703  22.578  23.584  1.00  0.00     0.023 A 
ATOM     93  C   UNL A   1      32.264  21.039  23.621  1.00  0.00     0.012 C 
ATOM     94  C   UNL A   1      34.557  21.530  24.480  1.00  0.00     0.014 A 
ATOM     95  C   UNL A   1      36.051  23.062  23.585  1.00  0.00     0.022 A 
ATOM     96  C   UNL A   1      33.284  20.780  24.739  1.00  0.00     0.047 C 
ATOM     97  S   UNL A   1      35.989  21.179  25.331  1.00  0.00    -0.148 S 
ATOM     98  C   UNL A   1      36.842  22.412  24.507  1.00  0.00     0.065 A 
ENDBRANCH  87  90
ENDBRANCH  86  87
ENDBRANCH  85  86
ENDBRANCH  78  80
ENDBRANCH  77  78
ENDBRANCH  76  77
ENDBRANCH  75  76
ENDBRANCH  74  75
ENDBRANCH  73  74
ENDBRANCH   1  73
TORSDOF 23
ENDMDL
