MODEL 1
REMARK VINA RESULT:     -10.8      0.000      0.000
REMARK SMILES O=C(OCCOCCOCCOC(=O)[C@H]1[NH2+]CC[C@@H]1c1cc(Br)ccc1F)c1ccc(-c2c3nc(c(-c4cccc(S(=O)(=O)[O-])c4F)c4ccc([nH]4)c(-c4cccc(S(=O)(=O)[O-])c4F)c4nc(c(-c5cccc(S(=O)(=O)[O-])c5F)c5ccc2[nH]5)C=C4)C=C3)cc1
REMARK SMILES IDX 7 1 6 2 5 3 4 4 3 5 2 6 1 7 28 8 29 9 90 10 30 11 89 12
REMARK SMILES IDX 31 13 32 14 33 15 83 16 34 17 88 18 82 19 84 20 35 21 87 22
REMARK SMILES IDX 81 23 80 24 36 26 68 27 48 28 67 29 49 30 52 31 66 32 85 33
REMARK SMILES IDX 50 34 51 35 65 37 86 38 53 39 37 40 38 41 46 42 39 43 41 44
REMARK SMILES IDX 47 45 40 46 42 47 43 48 44 49 45 50 69 51 70 52 78 53 71 54
REMARK SMILES IDX 73 55 79 56 72 57 74 58 75 59 76 60 77 61 54 62 55 63 63 64
REMARK SMILES IDX 56 65 58 66 64 67 57 68 59 69 60 70 61 71 62 72 8 73 9 74
REMARK SMILES IDX 10 75 11 76 12 77 13 78 14 79 15 80 16 81 19 82 17 83 18 86
REMARK SMILES IDX 20 87 21 88 26 89 22 90 25 91 27 92 23 93 24 94
REMARK H PARENT 84 25 52 36 16 84 16 85
REMARK Flexibility Score: inf
ROOT
ATOM      1  C   UNL A   1      35.428  23.741  24.243  1.00  0.00     0.188 C 
ENDROOT
BRANCH   1   2
ATOM      2  O   UNL A   1      36.461  22.747  24.176  1.00  0.00    -0.376 OA
BRANCH   2   3
ATOM      3  C   UNL A   1      36.064  21.503  24.758  1.00  0.00     0.202 C 
BRANCH   3   4
ATOM      4  C   UNL A   1      37.252  20.726  25.350  1.00  0.00     0.261 C 
BRANCH   4   5
ATOM      5  O   UNL A   1      38.484  21.453  25.180  1.00  0.00    -0.460 OA
BRANCH   5   6
ATOM      6  C   UNL A   1      39.463  21.460  26.109  1.00  0.00     0.338 C 
ATOM      7  O   UNL A   1      39.864  20.424  26.619  1.00  0.00    -0.246 OA
BRANCH   6   8
ATOM      8  C   UNL A   1      39.747  22.788  26.736  1.00  0.00     0.060 A 
ATOM      9  C   UNL A   1      38.978  23.932  26.524  1.00  0.00     0.016 A 
ATOM     10  C   UNL A   1      40.832  22.869  27.622  1.00  0.00     0.016 A 
ATOM     11  C   UNL A   1      39.289  25.140  27.142  1.00  0.00     0.010 A 
ATOM     12  C   UNL A   1      41.112  24.061  28.298  1.00  0.00     0.010 A 
ATOM     13  C   UNL A   1      40.380  25.221  28.004  1.00  0.00    -0.014 A 
BRANCH  13  14
ATOM     14  C   UNL A   1      40.937  26.560  28.315  1.00  0.00     0.031 A 
ATOM     15  C   UNL A   1      42.262  26.903  27.689  1.00  0.00     0.074 A 
ATOM     16  C   UNL A   1      40.258  27.463  29.045  1.00  0.00     0.049 A 
ATOM     17  N   UNL A   1      43.009  27.961  27.847  1.00  0.00    -0.248 NA
ATOM     18  C   UNL A   1      42.841  25.896  26.780  1.00  0.00     0.031 C 
ATOM     19  C   UNL A   1      38.946  27.246  29.657  1.00  0.00     0.029 A 
ATOM     20  N   UNL A   1      40.577  28.751  29.392  1.00  0.00    -0.354 N 
ATOM     21  C   UNL A   1      44.171  27.701  27.129  1.00  0.00     0.074 A 
ATOM     22  C   UNL A   1      44.052  26.377  26.574  1.00  0.00     0.031 C 
ATOM     23  C   UNL A   1      38.568  28.367  30.299  1.00  0.00     0.029 A 
ATOM     24  C   UNL A   1      39.627  29.366  30.177  1.00  0.00     0.049 A 
ATOM     25  H   UNL A   1      41.408  29.194  29.107  1.00  0.00     0.167 HD
ATOM     26  C   UNL A   1      45.231  28.511  26.915  1.00  0.00     0.034 A 
ATOM     27  C   UNL A   1      39.633  30.592  30.735  1.00  0.00     0.034 A 
ATOM     28  C   UNL A   1      45.291  29.857  27.396  1.00  0.00     0.049 A 
ATOM     29  C   UNL A   1      40.821  31.488  30.469  1.00  0.00     0.074 A 
ATOM     30  C   UNL A   1      46.286  30.795  27.215  1.00  0.00     0.029 A 
ATOM     31  N   UNL A   1      44.292  30.458  28.149  1.00  0.00    -0.354 N 
ATOM     32  N   UNL A   1      41.886  31.253  29.736  1.00  0.00    -0.248 NA
ATOM     33  C   UNL A   1      40.802  32.824  31.082  1.00  0.00     0.031 C 
ATOM     34  C   UNL A   1      45.899  31.961  27.883  1.00  0.00     0.029 A 
ATOM     35  C   UNL A   1      44.648  31.757  28.447  1.00  0.00     0.049 A 
ATOM     36  H   UNL A   1      43.456  30.021  28.429  1.00  0.00     0.167 HD
ATOM     37  C   UNL A   1      42.643  32.419  29.771  1.00  0.00     0.074 A 
ATOM     38  C   UNL A   1      41.904  33.367  30.581  1.00  0.00     0.031 C 
ATOM     39  C   UNL A   1      43.847  32.685  29.205  1.00  0.00     0.034 A 
BRANCH  26  40
ATOM     40  C   UNL A   1      46.380  27.941  26.128  1.00  0.00     0.023 A 
ATOM     41  C   UNL A   1      46.416  28.071  24.723  1.00  0.00     0.012 A 
ATOM     42  C   UNL A   1      47.400  27.225  26.781  1.00  0.00     0.148 A 
ATOM     43  C   UNL A   1      47.411  27.443  23.976  1.00  0.00     0.002 A 
ATOM     44  C   UNL A   1      48.420  26.649  26.035  1.00  0.00     0.091 A 
ATOM     45  F   UNL A   1      47.336  27.093  28.113  1.00  0.00    -0.205 F 
ATOM     46  C   UNL A   1      48.415  26.735  24.632  1.00  0.00     0.022 A 
BRANCH  44  47
ATOM     47  S   UNL A   1      49.799  25.779  26.785  1.00  0.00     0.127 S 
ATOM     48  O   UNL A   1      49.149  24.573  27.291  1.00  0.00    -0.237 OA
ATOM     49  O   UNL A   1      50.680  25.564  25.639  1.00  0.00    -0.237 OA
ATOM     50  O   UNL A   1      50.332  26.673  27.808  1.00  0.00    -0.744 OA
ENDBRANCH  44  47
ENDBRANCH  26  40
BRANCH  27  51
ATOM     51  C   UNL A   1      38.485  31.062  31.570  1.00  0.00     0.023 A 
ATOM     52  C   UNL A   1      38.526  30.903  32.970  1.00  0.00     0.012 A 
ATOM     53  C   UNL A   1      37.348  31.656  30.987  1.00  0.00     0.148 A 
ATOM     54  C   UNL A   1      37.442  31.286  33.765  1.00  0.00     0.002 A 
ATOM     55  C   UNL A   1      36.294  32.083  31.789  1.00  0.00     0.091 A 
ATOM     56  F   UNL A   1      37.312  31.785  29.653  1.00  0.00    -0.205 F 
ATOM     57  C   UNL A   1      36.330  31.882  33.176  1.00  0.00     0.022 A 
BRANCH  55  58
ATOM     58  S   UNL A   1      34.872  32.959  31.124  1.00  0.00     0.127 S 
ATOM     59  O   UNL A   1      34.577  32.181  29.923  1.00  0.00    -0.237 OA
ATOM     60  O   UNL A   1      33.895  32.819  32.204  1.00  0.00    -0.237 OA
ATOM     61  O   UNL A   1      35.320  34.327  30.899  1.00  0.00    -0.744 OA
ENDBRANCH  55  58
ENDBRANCH  27  51
BRANCH  39  62
ATOM     62  C   UNL A   1      44.422  34.061  29.392  1.00  0.00     0.023 A 
ATOM     63  C   UNL A   1      45.456  34.269  30.324  1.00  0.00     0.012 A 
ATOM     64  C   UNL A   1      44.027  35.113  28.541  1.00  0.00     0.148 A 
ATOM     65  C   UNL A   1      46.077  35.512  30.419  1.00  0.00     0.002 A 
ATOM     66  C   UNL A   1      44.688  36.330  28.603  1.00  0.00     0.091 A 
ATOM     67  F   UNL A   1      43.029  34.890  27.672  1.00  0.00    -0.205 F 
ATOM     68  C   UNL A   1      45.705  36.536  29.549  1.00  0.00     0.022 A 
BRANCH  66  69
ATOM     69  S   UNL A   1      44.361  37.659  27.441  1.00  0.00     0.127 S 
ATOM     70  O   UNL A   1      44.130  38.789  28.340  1.00  0.00    -0.237 OA
ATOM     71  O   UNL A   1      45.612  37.724  26.686  1.00  0.00    -0.237 OA
ATOM     72  O   UNL A   1      43.205  37.238  26.661  1.00  0.00    -0.744 OA
ENDBRANCH  66  69
ENDBRANCH  39  62
ENDBRANCH  13  14
ENDBRANCH   6   8
ENDBRANCH   5   6
ENDBRANCH   4   5
ENDBRANCH   3   4
ENDBRANCH   2   3
ENDBRANCH   1   2
BRANCH   1  73
ATOM     73  C   UNL A   1      34.119  23.231  23.637  1.00  0.00     0.188 C 
BRANCH  73  74
ATOM     74  O   UNL A   1      33.125  24.173  23.239  1.00  0.00    -0.376 OA
BRANCH  74  75
ATOM     75  C   UNL A   1      33.524  25.265  22.430  1.00  0.00     0.202 C 
BRANCH  75  76
ATOM     76  C   UNL A   1      32.425  26.065  21.720  1.00  0.00     0.261 C 
BRANCH  76  77
ATOM     77  O   UNL A   1      31.111  25.977  22.285  1.00  0.00    -0.459 OA
BRANCH  77  78
ATOM     78  C   UNL A   1      30.665  27.100  22.923  1.00  0.00     0.365 C 
ATOM     79  O   UNL A   1      30.583  28.210  22.407  1.00  0.00    -0.245 OA
BRANCH  78  80
ATOM     80  C   UNL A   1      30.459  26.830  24.421  1.00  0.00     0.301 C 
ATOM     81  N   UNL A   1      29.805  25.491  24.523  1.00  0.00    -0.334 N 
ATOM     82  C   UNL A   1      31.749  26.726  25.252  1.00  0.00     0.098 C 
ATOM     83  C   UNL A   1      30.339  24.818  25.712  1.00  0.00     0.262 C 
ATOM     84  H   UNL A   1      30.011  24.941  23.689  1.00  0.00     0.347 HD
ATOM     85  H   UNL A   1      28.793  25.596  24.597  1.00  0.00     0.347 HD
ATOM     86  C   UNL A   1      31.297  25.785  26.373  1.00  0.00     0.076 C 
BRANCH  82  87
ATOM     87  C   UNL A   1      32.419  27.949  25.860  1.00  0.00    -0.001 A 
ATOM     88  C   UNL A   1      31.692  29.162  25.913  1.00  0.00     0.023 A 
ATOM     89  C   UNL A   1      33.715  27.970  26.365  1.00  0.00     0.127 A 
ATOM     90  C   UNL A   1      32.261  30.336  26.420  1.00  0.00     0.018 A 
ATOM     91  C   UNL A   1      34.258  29.129  26.924  1.00  0.00     0.041 A 
ATOM     92  F   UNL A   1      34.474  26.869  26.348  1.00  0.00    -0.207 F 
ATOM     93  Br  UNL A   1      31.270  31.945  26.432  1.00  0.00    -0.051 Br
ATOM     94  C   UNL A   1      33.550  30.325  26.928  1.00  0.00     0.019 A 
ENDBRANCH  82  87
ENDBRANCH  78  80
ENDBRANCH  77  78
ENDBRANCH  76  77
ENDBRANCH  75  76
ENDBRANCH  74  75
ENDBRANCH  73  74
ENDBRANCH   1  73
TORSDOF 21
ENDMDL
MODEL 2
REMARK VINA RESULT:     -10.6      4.877     10.331
REMARK SMILES O=C(OCCOCCOCCOC(=O)[C@H]1[NH2+]CC[C@@H]1c1cc(Br)ccc1F)c1ccc(-c2c3nc(c(-c4cccc(S(=O)(=O)[O-])c4F)c4ccc([nH]4)c(-c4cccc(S(=O)(=O)[O-])c4F)c4nc(c(-c5cccc(S(=O)(=O)[O-])c5F)c5ccc2[nH]5)C=C4)C=C3)cc1
REMARK SMILES IDX 7 1 6 2 5 3 4 4 3 5 2 6 1 7 28 8 29 9 90 10 30 11 89 12
REMARK SMILES IDX 31 13 32 14 33 15 83 16 34 17 88 18 82 19 84 20 35 21 87 22
REMARK SMILES IDX 81 23 80 24 36 26 68 27 48 28 67 29 49 30 52 31 66 32 85 33
REMARK SMILES IDX 50 34 51 35 65 37 86 38 53 39 37 40 38 41 46 42 39 43 41 44
REMARK SMILES IDX 47 45 40 46 42 47 43 48 44 49 45 50 69 51 70 52 78 53 71 54
REMARK SMILES IDX 73 55 79 56 72 57 74 58 75 59 76 60 77 61 54 62 55 63 63 64
REMARK SMILES IDX 56 65 58 66 64 67 57 68 59 69 60 70 61 71 62 72 8 73 9 74
REMARK SMILES IDX 10 75 11 76 12 77 13 78 14 79 15 80 16 81 19 82 17 83 18 86
REMARK SMILES IDX 20 87 21 88 26 89 22 90 25 91 27 92 23 93 24 94
REMARK H PARENT 84 25 52 36 16 84 16 85
REMARK Flexibility Score: inf
ROOT
ATOM      1  C   UNL A   1      31.331  29.919  24.952  1.00  0.00     0.188 C 
ENDROOT
BRANCH   1   2
ATOM      2  O   UNL A   1      31.475  30.113  26.366  1.00  0.00    -0.376 OA
BRANCH   2   3
ATOM      3  C   UNL A   1      31.489  31.495  26.732  1.00  0.00     0.202 C 
BRANCH   3   4
ATOM      4  C   UNL A   1      32.899  31.994  27.089  1.00  0.00     0.261 C 
BRANCH   4   5
ATOM      5  O   UNL A   1      32.863  33.352  27.566  1.00  0.00    -0.460 OA
BRANCH   5   6
ATOM      6  C   UNL A   1      33.699  33.814  28.520  1.00  0.00     0.338 C 
ATOM      7  O   UNL A   1      33.654  34.976  28.897  1.00  0.00    -0.246 OA
BRANCH   6   8
ATOM      8  C   UNL A   1      34.892  32.958  28.802  1.00  0.00     0.060 A 
ATOM      9  C   UNL A   1      34.820  31.646  29.271  1.00  0.00     0.016 A 
ATOM     10  C   UNL A   1      36.159  33.502  28.538  1.00  0.00     0.016 A 
ATOM     11  C   UNL A   1      35.968  30.896  29.509  1.00  0.00     0.010 A 
ATOM     12  C   UNL A   1      37.315  32.734  28.712  1.00  0.00     0.010 A 
ATOM     13  C   UNL A   1      37.224  31.448  29.267  1.00  0.00    -0.014 A 
BRANCH  13  14
ATOM     14  C   UNL A   1      38.407  30.817  29.900  1.00  0.00     0.031 A 
ATOM     15  C   UNL A   1      38.660  31.154  31.345  1.00  0.00     0.074 A 
ATOM     16  C   UNL A   1      39.170  29.919  29.251  1.00  0.00     0.049 A 
ATOM     17  N   UNL A   1      39.652  30.810  32.119  1.00  0.00    -0.248 NA
ATOM     18  C   UNL A   1      37.669  32.028  32.001  1.00  0.00     0.031 C 
ATOM     19  C   UNL A   1      38.981  29.489  27.865  1.00  0.00     0.029 A 
ATOM     20  N   UNL A   1      40.257  29.200  29.676  1.00  0.00    -0.354 N 
ATOM     21  C   UNL A   1      39.442  31.494  33.312  1.00  0.00     0.074 A 
ATOM     22  C   UNL A   1      38.261  32.303  33.147  1.00  0.00     0.031 C 
ATOM     23  C   UNL A   1      39.917  28.573  27.556  1.00  0.00     0.029 A 
ATOM     24  C   UNL A   1      40.795  28.381  28.708  1.00  0.00     0.049 A 
ATOM     25  H   UNL A   1      40.620  29.263  30.589  1.00  0.00     0.167 HD
ATOM     26  C   UNL A   1      40.149  31.425  34.461  1.00  0.00     0.034 A 
ATOM     27  C   UNL A   1      41.880  27.584  28.759  1.00  0.00     0.034 A 
ATOM     28  C   UNL A   1      41.264  30.546  34.637  1.00  0.00     0.049 A 
ATOM     29  C   UNL A   1      42.646  27.510  30.060  1.00  0.00     0.074 A 
ATOM     30  C   UNL A   1      42.039  30.349  35.760  1.00  0.00     0.029 A 
ATOM     31  N   UNL A   1      41.751  29.703  33.649  1.00  0.00    -0.354 N 
ATOM     32  N   UNL A   1      42.400  28.114  31.200  1.00  0.00    -0.248 NA
ATOM     33  C   UNL A   1      43.821  26.628  30.093  1.00  0.00     0.031 C 
ATOM     34  C   UNL A   1      43.016  29.401  35.443  1.00  0.00     0.029 A 
ATOM     35  C   UNL A   1      42.823  28.983  34.134  1.00  0.00     0.049 A 
ATOM     36  H   UNL A   1      41.387  29.630  32.737  1.00  0.00     0.167 HD
ATOM     37  C   UNL A   1      43.365  27.661  32.093  1.00  0.00     0.074 A 
ATOM     38  C   UNL A   1      44.187  26.713  31.366  1.00  0.00     0.031 C 
ATOM     39  C   UNL A   1      43.571  28.002  33.389  1.00  0.00     0.034 A 
BRANCH  26  40
ATOM     40  C   UNL A   1      39.713  32.323  35.587  1.00  0.00     0.023 A 
ATOM     41  C   UNL A   1      38.779  31.866  36.542  1.00  0.00     0.012 A 
ATOM     42  C   UNL A   1      40.191  33.644  35.666  1.00  0.00     0.148 A 
ATOM     43  C   UNL A   1      38.279  32.730  37.515  1.00  0.00     0.002 A 
ATOM     44  C   UNL A   1      39.730  34.482  36.672  1.00  0.00     0.091 A 
ATOM     45  F   UNL A   1      41.059  34.065  34.736  1.00  0.00    -0.205 F 
ATOM     46  C   UNL A   1      38.758  34.036  37.583  1.00  0.00     0.022 A 
BRANCH  44  47
ATOM     47  S   UNL A   1      40.335  36.157  36.894  1.00  0.00     0.127 S 
ATOM     48  O   UNL A   1      41.760  35.931  37.124  1.00  0.00    -0.237 OA
ATOM     49  O   UNL A   1      40.012  36.768  35.606  1.00  0.00    -0.237 OA
ATOM     50  O   UNL A   1      39.602  36.704  38.031  1.00  0.00    -0.744 OA
ENDBRANCH  44  47
ENDBRANCH  26  40
BRANCH  27  51
ATOM     51  C   UNL A   1      42.296  26.777  27.571  1.00  0.00     0.023 A 
ATOM     52  C   UNL A   1      42.964  27.402  26.498  1.00  0.00     0.012 A 
ATOM     53  C   UNL A   1      42.026  25.396  27.491  1.00  0.00     0.148 A 
ATOM     54  C   UNL A   1      43.315  26.679  25.355  1.00  0.00     0.002 A 
ATOM     55  C   UNL A   1      42.425  24.670  26.373  1.00  0.00     0.091 A 
ATOM     56  F   UNL A   1      41.375  24.816  28.509  1.00  0.00    -0.205 F 
ATOM     57  C   UNL A   1      43.053  25.313  25.295  1.00  0.00     0.022 A 
BRANCH  55  58
ATOM     58  S   UNL A   1      42.224  22.888  26.261  1.00  0.00     0.127 S 
ATOM     59  O   UNL A   1      40.776  22.741  26.390  1.00  0.00    -0.237 OA
ATOM     60  O   UNL A   1      42.755  22.603  24.927  1.00  0.00    -0.237 OA
ATOM     61  O   UNL A   1      43.018  22.331  27.349  1.00  0.00    -0.744 OA
ENDBRANCH  55  58
ENDBRANCH  27  51
BRANCH  39  62
ATOM     62  C   UNL A   1      44.691  27.321  34.125  1.00  0.00     0.023 A 
ATOM     63  C   UNL A   1      46.015  27.768  33.959  1.00  0.00     0.012 A 
ATOM     64  C   UNL A   1      44.404  26.329  35.084  1.00  0.00     0.148 A 
ATOM     65  C   UNL A   1      47.043  27.224  34.725  1.00  0.00     0.002 A 
ATOM     66  C   UNL A   1      45.423  25.833  35.883  1.00  0.00     0.091 A 
ATOM     67  F   UNL A   1      43.136  25.911  35.211  1.00  0.00    -0.205 F 
ATOM     68  C   UNL A   1      46.745  26.269  35.698  1.00  0.00     0.022 A 
BRANCH  66  69
ATOM     69  S   UNL A   1      45.114  24.697  37.239  1.00  0.00     0.127 S 
ATOM     70  O   UNL A   1      44.758  23.472  36.525  1.00  0.00    -0.237 OA
ATOM     71  O   UNL A   1      46.412  24.659  37.912  1.00  0.00    -0.237 OA
ATOM     72  O   UNL A   1      44.042  25.292  38.026  1.00  0.00    -0.744 OA
ENDBRANCH  66  69
ENDBRANCH  39  62
ENDBRANCH  13  14
ENDBRANCH   6   8
ENDBRANCH   5   6
ENDBRANCH   4   5
ENDBRANCH   3   4
ENDBRANCH   2   3
ENDBRANCH   1   2
BRANCH   1  73
ATOM     73  C   UNL A   1      32.371  28.937  24.410  1.00  0.00     0.188 C 
BRANCH  73  74
ATOM     74  O   UNL A   1      32.113  27.537  24.491  1.00  0.00    -0.376 OA
BRANCH  74  75
ATOM     75  C   UNL A   1      32.827  26.780  25.451  1.00  0.00     0.202 C 
BRANCH  75  76
ATOM     76  C   UNL A   1      32.092  26.388  26.740  1.00  0.00     0.261 C 
BRANCH  76  77
ATOM     77  O   UNL A   1      31.001  25.471  26.593  1.00  0.00    -0.459 OA
BRANCH  77  78
ATOM     78  C   UNL A   1      31.324  24.147  26.686  1.00  0.00     0.365 C 
ATOM     79  O   UNL A   1      31.821  23.618  27.674  1.00  0.00    -0.245 OA
BRANCH  78  80
ATOM     80  C   UNL A   1      31.160  23.450  25.327  1.00  0.00     0.301 C 
ATOM     81  N   UNL A   1      30.243  24.309  24.520  1.00  0.00    -0.334 N 
ATOM     82  C   UNL A   1      32.448  23.322  24.495  1.00  0.00     0.098 C 
ATOM     83  C   UNL A   1      30.695  24.263  23.125  1.00  0.00     0.262 C 
ATOM     84  H   UNL A   1      30.274  25.268  24.865  1.00  0.00     0.347 HD
ATOM     85  H   UNL A   1      29.283  23.971  24.594  1.00  0.00     0.347 HD
ATOM     86  C   UNL A   1      31.876  23.320  23.074  1.00  0.00     0.076 C 
BRANCH  82  87
ATOM     87  C   UNL A   1      33.400  22.147  24.657  1.00  0.00    -0.001 A 
ATOM     88  C   UNL A   1      34.790  22.404  24.712  1.00  0.00     0.023 A 
ATOM     89  C   UNL A   1      33.003  20.816  24.745  1.00  0.00     0.127 A 
ATOM     90  C   UNL A   1      35.724  21.366  24.818  1.00  0.00     0.018 A 
ATOM     91  C   UNL A   1      33.935  19.789  24.908  1.00  0.00     0.041 A 
ATOM     92  F   UNL A   1      31.708  20.484  24.694  1.00  0.00    -0.207 F 
ATOM     93  Br  UNL A   1      37.573  21.751  24.844  1.00  0.00    -0.051 Br
ATOM     94  C   UNL A   1      35.299  20.051  24.915  1.00  0.00     0.019 A 
ENDBRANCH  82  87
ENDBRANCH  78  80
ENDBRANCH  77  78
ENDBRANCH  76  77
ENDBRANCH  75  76
ENDBRANCH  74  75
ENDBRANCH  73  74
ENDBRANCH   1  73
TORSDOF 21
ENDMDL
MODEL 3
REMARK VINA RESULT:     -10.4      1.745      2.052
REMARK SMILES O=C(OCCOCCOCCOC(=O)[C@H]1[NH2+]CC[C@@H]1c1cc(Br)ccc1F)c1ccc(-c2c3nc(c(-c4cccc(S(=O)(=O)[O-])c4F)c4ccc([nH]4)c(-c4cccc(S(=O)(=O)[O-])c4F)c4nc(c(-c5cccc(S(=O)(=O)[O-])c5F)c5ccc2[nH]5)C=C4)C=C3)cc1
REMARK SMILES IDX 7 1 6 2 5 3 4 4 3 5 2 6 1 7 28 8 29 9 90 10 30 11 89 12
REMARK SMILES IDX 31 13 32 14 33 15 83 16 34 17 88 18 82 19 84 20 35 21 87 22
REMARK SMILES IDX 81 23 80 24 36 26 68 27 48 28 67 29 49 30 52 31 66 32 85 33
REMARK SMILES IDX 50 34 51 35 65 37 86 38 53 39 37 40 38 41 46 42 39 43 41 44
REMARK SMILES IDX 47 45 40 46 42 47 43 48 44 49 45 50 69 51 70 52 78 53 71 54
REMARK SMILES IDX 73 55 79 56 72 57 74 58 75 59 76 60 77 61 54 62 55 63 63 64
REMARK SMILES IDX 56 65 58 66 64 67 57 68 59 69 60 70 61 71 62 72 8 73 9 74
REMARK SMILES IDX 10 75 11 76 12 77 13 78 14 79 15 80 16 81 19 82 17 83 18 86
REMARK SMILES IDX 20 87 21 88 26 89 22 90 25 91 27 92 23 93 24 94
REMARK H PARENT 84 25 52 36 16 84 16 85
REMARK Flexibility Score: inf
ROOT
ATOM      1  C   UNL A   1      35.396  23.692  24.342  1.00  0.00     0.188 C 
ENDROOT
BRANCH   1   2
ATOM      2  O   UNL A   1      36.442  22.721  24.184  1.00  0.00    -0.376 OA
BRANCH   2   3
ATOM      3  C   UNL A   1      36.117  21.464  24.782  1.00  0.00     0.202 C 
BRANCH   3   4
ATOM      4  C   UNL A   1      37.348  20.763  25.380  1.00  0.00     0.261 C 
BRANCH   4   5
ATOM      5  O   UNL A   1      38.532  21.569  25.223  1.00  0.00    -0.460 OA
BRANCH   5   6
ATOM      6  C   UNL A   1      39.533  21.580  26.128  1.00  0.00     0.338 C 
ATOM      7  O   UNL A   1      39.972  20.543  26.604  1.00  0.00    -0.246 OA
BRANCH   6   8
ATOM      8  C   UNL A   1      39.799  22.900  26.779  1.00  0.00     0.060 A 
ATOM      9  C   UNL A   1      39.008  24.034  26.597  1.00  0.00     0.016 A 
ATOM     10  C   UNL A   1      40.892  22.983  27.655  1.00  0.00     0.016 A 
ATOM     11  C   UNL A   1      39.303  25.235  27.237  1.00  0.00     0.010 A 
ATOM     12  C   UNL A   1      41.158  24.166  28.352  1.00  0.00     0.010 A 
ATOM     13  C   UNL A   1      40.402  25.319  28.089  1.00  0.00    -0.014 A 
BRANCH  13  14
ATOM     14  C   UNL A   1      40.938  26.661  28.421  1.00  0.00     0.031 A 
ATOM     15  C   UNL A   1      42.340  26.961  27.963  1.00  0.00     0.074 A 
ATOM     16  C   UNL A   1      40.185  27.601  29.021  1.00  0.00     0.049 A 
ATOM     17  N   UNL A   1      43.079  28.014  28.179  1.00  0.00    -0.248 NA
ATOM     18  C   UNL A   1      43.015  25.912  27.177  1.00  0.00     0.031 C 
ATOM     19  C   UNL A   1      38.801  27.426  29.462  1.00  0.00     0.029 A 
ATOM     20  N   UNL A   1      40.480  28.897  29.360  1.00  0.00    -0.354 N 
ATOM     21  C   UNL A   1      44.320  27.711  27.631  1.00  0.00     0.074 A 
ATOM     22  C   UNL A   1      44.251  26.368  27.115  1.00  0.00     0.031 C 
ATOM     23  C   UNL A   1      38.363  28.575  30.007  1.00  0.00     0.029 A 
ATOM     24  C   UNL A   1      39.447  29.555  29.989  1.00  0.00     0.049 A 
ATOM     25  H   UNL A   1      41.349  29.317  29.171  1.00  0.00     0.167 HD
ATOM     26  C   UNL A   1      45.414  28.498  27.530  1.00  0.00     0.034 A 
ATOM     27  C   UNL A   1      39.402  30.802  30.498  1.00  0.00     0.034 A 
ATOM     28  C   UNL A   1      45.435  29.861  27.964  1.00  0.00     0.049 A 
ATOM     29  C   UNL A   1      40.632  31.670  30.358  1.00  0.00     0.074 A 
ATOM     30  C   UNL A   1      46.463  30.777  27.882  1.00  0.00     0.029 A 
ATOM     31  N   UNL A   1      44.358  30.503  28.556  1.00  0.00    -0.354 N 
ATOM     32  N   UNL A   1      41.779  31.392  29.781  1.00  0.00    -0.248 NA
ATOM     33  C   UNL A   1      40.557  33.029  30.913  1.00  0.00     0.031 C 
ATOM     34  C   UNL A   1      46.013  31.973  28.450  1.00  0.00     0.029 A 
ATOM     35  C   UNL A   1      44.695  31.808  28.850  1.00  0.00     0.049 A 
ATOM     36  H   UNL A   1      43.484  30.090  28.739  1.00  0.00     0.167 HD
ATOM     37  C   UNL A   1      42.546  32.548  29.873  1.00  0.00     0.074 A 
ATOM     38  C   UNL A   1      41.725  33.538  30.542  1.00  0.00     0.031 C 
ATOM     39  C   UNL A   1      43.818  32.776  29.461  1.00  0.00     0.034 A 
BRANCH  26  40
ATOM     40  C   UNL A   1      46.646  27.882  26.923  1.00  0.00     0.023 A 
ATOM     41  C   UNL A   1      47.625  27.285  27.747  1.00  0.00     0.012 A 
ATOM     42  C   UNL A   1      46.858  27.944  25.533  1.00  0.00     0.148 A 
ATOM     43  C   UNL A   1      48.822  26.822  27.205  1.00  0.00     0.002 A 
ATOM     44  C   UNL A   1      48.029  27.429  24.994  1.00  0.00     0.091 A 
ATOM     45  F   UNL A   1      45.928  28.534  24.771  1.00  0.00    -0.205 F 
ATOM     46  C   UNL A   1      49.023  26.889  25.829  1.00  0.00     0.022 A 
BRANCH  44  47
ATOM     47  S   UNL A   1      48.356  27.399  23.230  1.00  0.00     0.127 S 
ATOM     48  O   UNL A   1      49.701  27.966  23.167  1.00  0.00    -0.237 OA
ATOM     49  O   UNL A   1      48.278  25.971  22.931  1.00  0.00    -0.237 OA
ATOM     50  O   UNL A   1      47.311  28.211  22.613  1.00  0.00    -0.744 OA
ENDBRANCH  44  47
ENDBRANCH  26  40
BRANCH  27  51
ATOM     51  C   UNL A   1      38.163  31.319  31.155  1.00  0.00     0.023 A 
ATOM     52  C   UNL A   1      37.988  31.159  32.545  1.00  0.00     0.012 A 
ATOM     53  C   UNL A   1      37.151  31.961  30.413  1.00  0.00     0.148 A 
ATOM     54  C   UNL A   1      36.816  31.586  33.173  1.00  0.00     0.002 A 
ATOM     55  C   UNL A   1      36.008  32.431  31.052  1.00  0.00     0.091 A 
ATOM     56  F   UNL A   1      37.320  32.091  29.090  1.00  0.00    -0.205 F 
ATOM     57  C   UNL A   1      35.829  32.229  32.429  1.00  0.00     0.022 A 
BRANCH  55  58
ATOM     58  S   UNL A   1      34.738  33.366  30.189  1.00  0.00     0.127 S 
ATOM     59  O   UNL A   1      35.539  34.277  29.375  1.00  0.00    -0.237 OA
ATOM     60  O   UNL A   1      34.045  32.318  29.439  1.00  0.00    -0.237 OA
ATOM     61  O   UNL A   1      33.930  33.988  31.230  1.00  0.00    -0.744 OA
ENDBRANCH  55  58
ENDBRANCH  27  51
BRANCH  39  62
ATOM     62  C   UNL A   1      44.389  34.150  29.671  1.00  0.00     0.023 A 
ATOM     63  C   UNL A   1      44.219  35.140  28.685  1.00  0.00     0.012 A 
ATOM     64  C   UNL A   1      44.973  34.491  30.908  1.00  0.00     0.148 A 
ATOM     65  C   UNL A   1      44.638  36.447  28.919  1.00  0.00     0.002 A 
ATOM     66  C   UNL A   1      45.335  35.807  31.156  1.00  0.00     0.091 A 
ATOM     67  F   UNL A   1      45.136  33.525  31.825  1.00  0.00    -0.205 F 
ATOM     68  C   UNL A   1      45.180  36.784  30.160  1.00  0.00     0.022 A 
BRANCH  66  69
ATOM     69  S   UNL A   1      45.924  36.353  32.761  1.00  0.00     0.127 S 
ATOM     70  O   UNL A   1      44.770  36.070  33.614  1.00  0.00    -0.237 OA
ATOM     71  O   UNL A   1      47.077  35.480  32.981  1.00  0.00    -0.237 OA
ATOM     72  O   UNL A   1      46.255  37.764  32.610  1.00  0.00    -0.744 OA
ENDBRANCH  66  69
ENDBRANCH  39  62
ENDBRANCH  13  14
ENDBRANCH   6   8
ENDBRANCH   5   6
ENDBRANCH   4   5
ENDBRANCH   3   4
ENDBRANCH   2   3
ENDBRANCH   1   2
BRANCH   1  73
ATOM     73  C   UNL A   1      34.056  23.161  23.829  1.00  0.00     0.188 C 
BRANCH  73  74
ATOM     74  O   UNL A   1      33.130  24.070  23.236  1.00  0.00    -0.376 OA
BRANCH  74  75
ATOM     75  C   UNL A   1      33.641  25.235  22.615  1.00  0.00     0.202 C 
BRANCH  75  76
ATOM     76  C   UNL A   1      32.676  26.072  21.765  1.00  0.00     0.261 C 
BRANCH  76  77
ATOM     77  O   UNL A   1      31.294  26.022  22.142  1.00  0.00    -0.459 OA
BRANCH  77  78
ATOM     78  C   UNL A   1      30.786  27.172  22.676  1.00  0.00     0.365 C 
ATOM     79  O   UNL A   1      30.760  28.256  22.103  1.00  0.00    -0.245 OA
BRANCH  78  80
ATOM     80  C   UNL A   1      30.423  26.972  24.156  1.00  0.00     0.301 C 
ATOM     81  N   UNL A   1      29.626  25.712  24.228  1.00  0.00    -0.334 N 
ATOM     82  C   UNL A   1      31.619  26.762  25.100  1.00  0.00     0.098 C 
ATOM     83  C   UNL A   1      29.981  25.025  25.475  1.00  0.00     0.262 C 
ATOM     84  H   UNL A   1      29.844  25.118  23.429  1.00  0.00     0.347 HD
ATOM     85  H   UNL A   1      28.628  25.922  24.210  1.00  0.00     0.347 HD
ATOM     86  C   UNL A   1      30.975  25.908  26.197  1.00  0.00     0.076 C 
BRANCH  82  87
ATOM     87  C   UNL A   1      32.358  27.928  25.739  1.00  0.00    -0.001 A 
ATOM     88  C   UNL A   1      31.688  29.169  25.862  1.00  0.00     0.023 A 
ATOM     89  C   UNL A   1      33.667  27.872  26.207  1.00  0.00     0.127 A 
ATOM     90  C   UNL A   1      32.322  30.294  26.401  1.00  0.00     0.018 A 
ATOM     91  C   UNL A   1      34.276  28.981  26.796  1.00  0.00     0.041 A 
ATOM     92  F   UNL A   1      34.376  26.740  26.122  1.00  0.00    -0.207 F 
ATOM     93  Br  UNL A   1      31.405  31.942  26.507  1.00  0.00    -0.051 Br
ATOM     94  C   UNL A   1      33.623  30.206  26.871  1.00  0.00     0.019 A 
ENDBRANCH  82  87
ENDBRANCH  78  80
ENDBRANCH  77  78
ENDBRANCH  76  77
ENDBRANCH  75  76
ENDBRANCH  74  75
ENDBRANCH  73  74
ENDBRANCH   1  73
TORSDOF 21
ENDMDL
