MODEL 1
REMARK VINA RESULT:      -8.9      0.000      0.000
REMARK SMILES Cc1ncc(C(=O)OCCOCCOCCOC(=O)c2ccc(-c3c4nc(c(-c5cccc(S(=O)(=O)[O-])c5F)c5ccc([nH]5)c(-c5cccc(S(=O)(=O)[O-])c5F)c5nc(c(-c6cccc(S(=O)(=O)[O-])c6F)c6ccc3[nH]6)C=C5)C=C4)cc2)cc1C#N
REMARK SMILES IDX 13 1 12 2 11 3 10 4 9 5 8 6 6 7 7 8 5 9 1 10 2 11 3 12 84 13
REMARK SMILES IDX 4 14 83 15 85 16 86 17 14 18 15 19 16 20 17 21 18 22 19 23
REMARK SMILES IDX 20 24 21 25 82 26 22 27 81 28 23 29 24 30 25 31 75 32 26 33
REMARK SMILES IDX 80 34 74 35 76 36 27 37 79 38 73 39 72 40 28 42 60 43 40 44
REMARK SMILES IDX 59 45 41 46 44 47 58 48 77 49 42 50 43 51 57 53 78 54 45 55
REMARK SMILES IDX 29 56 30 57 38 58 31 59 33 60 39 61 32 62 34 63 35 64 36 65
REMARK SMILES IDX 37 66 61 67 62 68 70 69 63 70 65 71 71 72 64 73 66 74 67 75
REMARK SMILES IDX 68 76 69 77 46 78 47 79 55 80 48 81 50 82 56 83 49 84 51 85
REMARK SMILES IDX 52 86 53 87 54 88
REMARK H PARENT 76 41 44 52
REMARK Flexibility Score: inf
ROOT
ATOM      1  C   UNL A   1      41.144  21.213  26.935  1.00  0.00     0.188 C 
ENDROOT
BRANCH   1   2
ATOM      2  C   UNL A   1      39.845  21.993  26.637  1.00  0.00     0.188 C 
BRANCH   2   3
ATOM      3  O   UNL A   1      39.754  23.274  27.211  1.00  0.00    -0.376 OA
BRANCH   3   4
ATOM      4  C   UNL A   1      38.707  24.151  26.843  1.00  0.00     0.202 C 
BRANCH   4   5
ATOM      5  C   UNL A   1      37.650  23.891  25.748  1.00  0.00     0.261 C 
BRANCH   5   6
ATOM      6  O   UNL A   1      36.382  23.344  26.135  1.00  0.00    -0.460 OA
BRANCH   6   7
ATOM      7  C   UNL A   1      35.483  23.196  25.129  1.00  0.00     0.339 C 
ATOM      8  O   UNL A   1      35.561  22.429  24.187  1.00  0.00    -0.246 OA
BRANCH   7   9
ATOM      9  C   UNL A   1      34.267  23.977  25.409  1.00  0.00     0.079 A 
ATOM     10  C   UNL A   1      31.086  26.624  26.380  1.00  0.00     0.068 C 
ATOM     11  C   UNL A   1      32.139  25.635  25.965  1.00  0.00     0.055 A 
ATOM     12  N   UNL A   1      33.260  26.169  25.416  1.00  0.00    -0.259 NA
ATOM     13  C   UNL A   1      32.010  24.262  26.205  1.00  0.00     0.074 A 
ATOM     14  C   UNL A   1      34.300  25.341  25.162  1.00  0.00     0.127 A 
ATOM     15  C   UNL A   1      33.089  23.418  25.905  1.00  0.00     0.038 A 
BRANCH  13  16
ATOM     16  C   UNL A   1      30.825  23.716  26.791  1.00  0.00     0.101 C 
ATOM     17  N   UNL A   1      29.866  23.283  27.287  1.00  0.00    -0.192 NA
ENDBRANCH  13  16
ENDBRANCH   7   9
ENDBRANCH   6   7
ENDBRANCH   5   6
ENDBRANCH   4   5
ENDBRANCH   3   4
ENDBRANCH   2   3
ENDBRANCH   1   2
BRANCH   1  18
ATOM     18  O   UNL A   1      41.641  20.302  25.976  1.00  0.00    -0.376 OA
BRANCH  18  19
ATOM     19  C   UNL A   1      42.325  19.141  26.429  1.00  0.00     0.202 C 
BRANCH  19  20
ATOM     20  C   UNL A   1      43.385  18.375  25.602  1.00  0.00     0.261 C 
BRANCH  20  21
ATOM     21  O   UNL A   1      44.650  19.013  25.380  1.00  0.00    -0.460 OA
BRANCH  21  22
ATOM     22  C   UNL A   1      44.714  19.871  24.329  1.00  0.00     0.338 C 
ATOM     23  O   UNL A   1      44.584  19.602  23.149  1.00  0.00    -0.246 OA
BRANCH  22  24
ATOM     24  C   UNL A   1      44.780  21.251  24.853  1.00  0.00     0.060 A 
ATOM     25  C   UNL A   1      44.534  22.331  23.990  1.00  0.00     0.016 A 
ATOM     26  C   UNL A   1      45.099  21.475  26.191  1.00  0.00     0.016 A 
ATOM     27  C   UNL A   1      44.563  23.636  24.472  1.00  0.00     0.010 A 
ATOM     28  C   UNL A   1      45.188  22.789  26.660  1.00  0.00     0.010 A 
ATOM     29  C   UNL A   1      44.936  23.873  25.799  1.00  0.00    -0.014 A 
BRANCH  29  30
ATOM     30  C   UNL A   1      45.306  25.250  26.194  1.00  0.00     0.031 A 
ATOM     31  C   UNL A   1      44.209  26.155  26.678  1.00  0.00     0.074 A 
ATOM     32  C   UNL A   1      46.580  25.681  26.165  1.00  0.00     0.049 A 
ATOM     33  N   UNL A   1      44.284  27.388  27.098  1.00  0.00    -0.248 NA
ATOM     34  C   UNL A   1      42.848  25.590  26.698  1.00  0.00     0.031 C 
ATOM     35  C   UNL A   1      47.734  24.891  25.744  1.00  0.00     0.029 A 
ATOM     36  N   UNL A   1      47.109  26.906  26.493  1.00  0.00    -0.354 N 
ATOM     37  C   UNL A   1      42.983  27.753  27.414  1.00  0.00     0.074 A 
ATOM     38  C   UNL A   1      42.134  26.620  27.127  1.00  0.00     0.031 C 
ATOM     39  C   UNL A   1      48.836  25.659  25.819  1.00  0.00     0.029 A 
ATOM     40  C   UNL A   1      48.463  26.997  26.281  1.00  0.00     0.049 A 
ATOM     41  H   UNL A   1      46.568  27.648  26.846  1.00  0.00     0.167 HD
ATOM     42  C   UNL A   1      42.535  28.923  27.917  1.00  0.00     0.034 A 
ATOM     43  C   UNL A   1      49.302  28.043  26.431  1.00  0.00     0.034 A 
ATOM     44  C   UNL A   1      43.375  30.046  28.217  1.00  0.00     0.049 A 
ATOM     45  C   UNL A   1      48.774  29.358  26.943  1.00  0.00     0.074 A 
ATOM     46  C   UNL A   1      43.009  31.260  28.765  1.00  0.00     0.029 A 
ATOM     47  N   UNL A   1      44.737  30.098  27.980  1.00  0.00    -0.354 N 
ATOM     48  N   UNL A   1      47.556  29.659  27.325  1.00  0.00    -0.248 NA
ATOM     49  C   UNL A   1      49.730  30.469  27.068  1.00  0.00     0.031 C 
ATOM     50  C   UNL A   1      44.147  32.064  28.830  1.00  0.00     0.029 A 
ATOM     51  C   UNL A   1      45.226  31.336  28.353  1.00  0.00     0.049 A 
ATOM     52  H   UNL A   1      45.277  29.367  27.603  1.00  0.00     0.167 HD
ATOM     53  C   UNL A   1      47.604  30.982  27.754  1.00  0.00     0.074 A 
ATOM     54  C   UNL A   1      48.972  31.425  27.593  1.00  0.00     0.031 C 
ATOM     55  C   UNL A   1      46.598  31.755  28.230  1.00  0.00     0.034 A 
BRANCH  42  56
ATOM     56  C   UNL A   1      41.069  29.048  28.208  1.00  0.00     0.023 A 
ATOM     57  C   UNL A   1      40.168  29.246  27.144  1.00  0.00     0.012 A 
ATOM     58  C   UNL A   1      40.581  28.878  29.517  1.00  0.00     0.148 A 
ATOM     59  C   UNL A   1      38.795  29.276  27.381  1.00  0.00     0.002 A 
ATOM     60  C   UNL A   1      39.211  28.882  29.742  1.00  0.00     0.091 A 
ATOM     61  F   UNL A   1      41.465  28.706  30.510  1.00  0.00    -0.205 F 
ATOM     62  C   UNL A   1      38.318  29.081  28.675  1.00  0.00     0.022 A 
BRANCH  60  63
ATOM     63  S   UNL A   1      38.491  28.611  31.363  1.00  0.00     0.127 S 
ATOM     64  O   UNL A   1      39.167  29.634  32.159  1.00  0.00    -0.237 OA
ATOM     65  O   UNL A   1      37.073  28.867  31.114  1.00  0.00    -0.237 OA
ATOM     66  O   UNL A   1      38.814  27.237  31.725  1.00  0.00    -0.744 OA
ENDBRANCH  60  63
ENDBRANCH  42  56
BRANCH  43  67
ATOM     67  C   UNL A   1      50.748  27.864  26.126  1.00  0.00     0.023 A 
ATOM     68  C   UNL A   1      51.650  27.612  27.175  1.00  0.00     0.012 A 
ATOM     69  C   UNL A   1      51.218  27.877  24.797  1.00  0.00     0.148 A 
ATOM     70  C   UNL A   1      52.999  27.370  26.909  1.00  0.00     0.002 A 
ATOM     71  C   UNL A   1      52.557  27.608  24.536  1.00  0.00     0.091 A 
ATOM     72  F   UNL A   1      50.338  28.123  23.817  1.00  0.00    -0.205 F 
ATOM     73  C   UNL A   1      53.449  27.357  25.590  1.00  0.00     0.022 A 
BRANCH  71  74
ATOM     74  S   UNL A   1      53.223  27.510  22.871  1.00  0.00     0.127 S 
ATOM     75  O   UNL A   1      54.411  26.685  23.072  1.00  0.00    -0.237 OA
ATOM     76  O   UNL A   1      52.130  26.853  22.153  1.00  0.00    -0.237 OA
ATOM     77  O   UNL A   1      53.483  28.884  22.464  1.00  0.00    -0.744 OA
ENDBRANCH  71  74
ENDBRANCH  43  67
BRANCH  55  78
ATOM     78  C   UNL A   1      46.894  33.174  28.633  1.00  0.00     0.023 A 
ATOM     79  C   UNL A   1      47.356  33.435  29.936  1.00  0.00     0.012 A 
ATOM     80  C   UNL A   1      46.917  34.199  27.666  1.00  0.00     0.148 A 
ATOM     81  C   UNL A   1      47.851  34.696  30.269  1.00  0.00     0.002 A 
ATOM     82  C   UNL A   1      47.437  35.444  27.996  1.00  0.00     0.091 A 
ATOM     83  F   UNL A   1      46.482  33.916  26.429  1.00  0.00    -0.205 F 
ATOM     84  C   UNL A   1      47.906  35.694  29.297  1.00  0.00     0.022 A 
BRANCH  82  85
ATOM     85  S   UNL A   1      47.607  36.776  26.801  1.00  0.00     0.127 S 
ATOM     86  O   UNL A   1      48.518  36.182  25.823  1.00  0.00    -0.237 OA
ATOM     87  O   UNL A   1      46.233  36.946  26.331  1.00  0.00    -0.237 OA
ATOM     88  O   UNL A   1      48.151  37.913  27.534  1.00  0.00    -0.744 OA
ENDBRANCH  82  85
ENDBRANCH  55  78
ENDBRANCH  29  30
ENDBRANCH  22  24
ENDBRANCH  21  22
ENDBRANCH  20  21
ENDBRANCH  19  20
ENDBRANCH  18  19
ENDBRANCH   1  18
TORSDOF 21
ENDMDL
MODEL 2
REMARK VINA RESULT:      -8.8      2.894      8.567
REMARK SMILES Cc1ncc(C(=O)OCCOCCOCCOC(=O)c2ccc(-c3c4nc(c(-c5cccc(S(=O)(=O)[O-])c5F)c5ccc([nH]5)c(-c5cccc(S(=O)(=O)[O-])c5F)c5nc(c(-c6cccc(S(=O)(=O)[O-])c6F)c6ccc3[nH]6)C=C5)C=C4)cc2)cc1C#N
REMARK SMILES IDX 13 1 12 2 11 3 10 4 9 5 8 6 6 7 7 8 5 9 1 10 2 11 3 12 84 13
REMARK SMILES IDX 4 14 83 15 85 16 86 17 14 18 15 19 16 20 17 21 18 22 19 23
REMARK SMILES IDX 20 24 21 25 82 26 22 27 81 28 23 29 24 30 25 31 75 32 26 33
REMARK SMILES IDX 80 34 74 35 76 36 27 37 79 38 73 39 72 40 28 42 60 43 40 44
REMARK SMILES IDX 59 45 41 46 44 47 58 48 77 49 42 50 43 51 57 53 78 54 45 55
REMARK SMILES IDX 29 56 30 57 38 58 31 59 33 60 39 61 32 62 34 63 35 64 36 65
REMARK SMILES IDX 37 66 61 67 62 68 70 69 63 70 65 71 71 72 64 73 66 74 67 75
REMARK SMILES IDX 68 76 69 77 46 78 47 79 55 80 48 81 50 82 56 83 49 84 51 85
REMARK SMILES IDX 52 86 53 87 54 88
REMARK H PARENT 76 41 44 52
REMARK Flexibility Score: inf
ROOT
ATOM      1  C   UNL A   1      36.192  21.079  25.445  1.00  0.00     0.188 C 
ENDROOT
BRANCH   1   2
ATOM      2  C   UNL A   1      35.096  22.023  24.903  1.00  0.00     0.188 C 
BRANCH   2   3
ATOM      3  O   UNL A   1      33.826  21.447  24.724  1.00  0.00    -0.376 OA
BRANCH   3   4
ATOM      4  C   UNL A   1      32.912  21.378  25.802  1.00  0.00     0.202 C 
BRANCH   4   5
ATOM      5  C   UNL A   1      33.118  21.991  27.204  1.00  0.00     0.261 C 
BRANCH   5   6
ATOM      6  O   UNL A   1      33.034  23.416  27.348  1.00  0.00    -0.460 OA
BRANCH   6   7
ATOM      7  C   UNL A   1      31.881  23.976  26.904  1.00  0.00     0.339 C 
ATOM      8  O   UNL A   1      30.749  23.695  27.253  1.00  0.00    -0.246 OA
BRANCH   7   9
ATOM      9  C   UNL A   1      32.173  25.134  26.042  1.00  0.00     0.079 A 
ATOM     10  C   UNL A   1      32.573  28.701  23.765  1.00  0.00     0.068 C 
ATOM     11  C   UNL A   1      32.544  27.424  24.557  1.00  0.00     0.055 A 
ATOM     12  N   UNL A   1      32.098  27.537  25.834  1.00  0.00    -0.259 NA
ATOM     13  C   UNL A   1      32.874  26.187  23.990  1.00  0.00     0.074 A 
ATOM     14  C   UNL A   1      31.909  26.400  26.544  1.00  0.00     0.127 A 
ATOM     15  C   UNL A   1      32.700  25.025  24.756  1.00  0.00     0.038 A 
BRANCH  13  16
ATOM     16  C   UNL A   1      33.335  26.084  22.640  1.00  0.00     0.101 C 
ATOM     17  N   UNL A   1      33.729  25.992  21.550  1.00  0.00    -0.192 NA
ENDBRANCH  13  16
ENDBRANCH   7   9
ENDBRANCH   6   7
ENDBRANCH   5   6
ENDBRANCH   4   5
ENDBRANCH   3   4
ENDBRANCH   2   3
ENDBRANCH   1   2
BRANCH   1  18
ATOM     18  O   UNL A   1      37.139  20.529  24.551  1.00  0.00    -0.376 OA
BRANCH  18  19
ATOM     19  C   UNL A   1      37.924  19.426  24.983  1.00  0.00     0.202 C 
BRANCH  19  20
ATOM     20  C   UNL A   1      39.294  19.555  25.689  1.00  0.00     0.261 C 
BRANCH  20  21
ATOM     21  O   UNL A   1      39.634  20.823  26.267  1.00  0.00    -0.460 OA
BRANCH  21  22
ATOM     22  C   UNL A   1      40.569  20.803  27.252  1.00  0.00     0.338 C 
ATOM     23  O   UNL A   1      40.965  19.833  27.872  1.00  0.00    -0.246 OA
BRANCH  22  24
ATOM     24  C   UNL A   1      41.190  22.141  27.336  1.00  0.00     0.060 A 
ATOM     25  C   UNL A   1      42.021  22.449  28.425  1.00  0.00     0.016 A 
ATOM     26  C   UNL A   1      40.938  23.092  26.349  1.00  0.00     0.016 A 
ATOM     27  C   UNL A   1      42.638  23.694  28.507  1.00  0.00     0.010 A 
ATOM     28  C   UNL A   1      41.509  24.362  26.464  1.00  0.00     0.010 A 
ATOM     29  C   UNL A   1      42.348  24.673  27.551  1.00  0.00    -0.014 A 
BRANCH  29  30
ATOM     30  C   UNL A   1      42.717  26.076  27.840  1.00  0.00     0.031 A 
ATOM     31  C   UNL A   1      44.076  26.542  27.404  1.00  0.00     0.074 A 
ATOM     32  C   UNL A   1      41.864  26.928  28.435  1.00  0.00     0.049 A 
ATOM     33  N   UNL A   1      44.620  27.723  27.523  1.00  0.00    -0.248 NA
ATOM     34  C   UNL A   1      44.935  25.546  26.738  1.00  0.00     0.031 C 
ATOM     35  C   UNL A   1      40.510  26.604  28.878  1.00  0.00     0.029 A 
ATOM     36  N   UNL A   1      42.026  28.249  28.777  1.00  0.00    -0.354 N 
ATOM     37  C   UNL A   1      45.885  27.608  26.966  1.00  0.00     0.074 A 
ATOM     38  C   UNL A   1      46.040  26.243  26.519  1.00  0.00     0.031 C 
ATOM     39  C   UNL A   1      39.969  27.694  29.453  1.00  0.00     0.029 A 
ATOM     40  C   UNL A   1      40.943  28.787  29.430  1.00  0.00     0.049 A 
ATOM     41  H   UNL A   1      42.841  28.762  28.573  1.00  0.00     0.167 HD
ATOM     42  C   UNL A   1      46.830  28.561  26.820  1.00  0.00     0.034 A 
ATOM     43  C   UNL A   1      40.764  30.015  29.960  1.00  0.00     0.034 A 
ATOM     44  C   UNL A   1      46.678  29.920  27.248  1.00  0.00     0.049 A 
ATOM     45  C   UNL A   1      41.853  31.048  29.835  1.00  0.00     0.074 A 
ATOM     46  C   UNL A   1      47.573  30.963  27.107  1.00  0.00     0.029 A 
ATOM     47  N   UNL A   1      45.571  30.419  27.912  1.00  0.00    -0.354 N 
ATOM     48  N   UNL A   1      43.009  30.952  29.224  1.00  0.00    -0.248 NA
ATOM     49  C   UNL A   1      41.610  32.364  30.449  1.00  0.00     0.031 C 
ATOM     50  C   UNL A   1      47.022  32.090  27.716  1.00  0.00     0.029 A 
ATOM     51  C   UNL A   1      45.769  31.755  28.206  1.00  0.00     0.049 A 
ATOM     52  H   UNL A   1      44.765  29.903  28.140  1.00  0.00     0.167 HD
ATOM     53  C   UNL A   1      43.621  32.194  29.360  1.00  0.00     0.074 A 
ATOM     54  C   UNL A   1      42.706  33.033  30.105  1.00  0.00     0.031 C 
ATOM     55  C   UNL A   1      44.835  32.594  28.911  1.00  0.00     0.034 A 
BRANCH  42  56
ATOM     56  C   UNL A   1      48.114  28.180  26.143  1.00  0.00     0.023 A 
ATOM     57  C   UNL A   1      49.246  27.881  26.924  1.00  0.00     0.012 A 
ATOM     58  C   UNL A   1      48.169  28.031  24.744  1.00  0.00     0.148 A 
ATOM     59  C   UNL A   1      50.422  27.440  26.321  1.00  0.00     0.002 A 
ATOM     60  C   UNL A   1      49.334  27.565  24.152  1.00  0.00     0.091 A 
ATOM     61  F   UNL A   1      47.078  28.337  24.027  1.00  0.00    -0.205 F 
ATOM     62  C   UNL A   1      50.461  27.270  24.939  1.00  0.00     0.022 A 
BRANCH  60  63
ATOM     63  S   UNL A   1      49.481  27.281  22.387  1.00  0.00     0.127 S 
ATOM     64  O   UNL A   1      49.151  28.601  21.849  1.00  0.00    -0.237 OA
ATOM     65  O   UNL A   1      50.887  26.902  22.254  1.00  0.00    -0.237 OA
ATOM     66  O   UNL A   1      48.527  26.229  22.064  1.00  0.00    -0.744 OA
ENDBRANCH  60  63
ENDBRANCH  42  56
BRANCH  43  67
ATOM     67  C   UNL A   1      39.472  30.338  30.624  1.00  0.00     0.023 A 
ATOM     68  C   UNL A   1      39.357  30.197  32.019  1.00  0.00     0.012 A 
ATOM     69  C   UNL A   1      38.383  30.847  29.887  1.00  0.00     0.148 A 
ATOM     70  C   UNL A   1      38.179  30.563  32.674  1.00  0.00     0.002 A 
ATOM     71  C   UNL A   1      37.223  31.235  30.549  1.00  0.00     0.091 A 
ATOM     72  F   UNL A   1      38.519  30.968  28.560  1.00  0.00    -0.205 F 
ATOM     73  C   UNL A   1      37.118  31.091  31.941  1.00  0.00     0.022 A 
BRANCH  71  74
ATOM     74  S   UNL A   1      35.824  31.980  29.704  1.00  0.00     0.127 S 
ATOM     75  O   UNL A   1      34.906  32.232  30.812  1.00  0.00    -0.237 OA
ATOM     76  O   UNL A   1      36.432  33.176  29.122  1.00  0.00    -0.237 OA
ATOM     77  O   UNL A   1      35.370  30.992  28.736  1.00  0.00    -0.744 OA
ENDBRANCH  71  74
ENDBRANCH  43  67
BRANCH  55  78
ATOM     78  C   UNL A   1      45.289  34.003  29.184  1.00  0.00     0.023 A 
ATOM     79  C   UNL A   1      44.910  35.030  28.301  1.00  0.00     0.012 A 
ATOM     80  C   UNL A   1      45.898  34.328  30.413  1.00  0.00     0.148 A 
ATOM     81  C   UNL A   1      45.120  36.366  28.642  1.00  0.00     0.002 A 
ATOM     82  C   UNL A   1      46.077  35.662  30.760  1.00  0.00     0.091 A 
ATOM     83  F   UNL A   1      46.235  33.328  31.241  1.00  0.00    -0.205 F 
ATOM     84  C   UNL A   1      45.687  36.682  29.875  1.00  0.00     0.022 A 
BRANCH  82  85
ATOM     85  S   UNL A   1      46.744  36.174  32.348  1.00  0.00     0.127 S 
ATOM     86  O   UNL A   1      48.060  35.534  32.337  1.00  0.00    -0.237 OA
ATOM     87  O   UNL A   1      46.772  37.630  32.215  1.00  0.00    -0.237 OA
ATOM     88  O   UNL A   1      45.825  35.667  33.358  1.00  0.00    -0.744 OA
ENDBRANCH  82  85
ENDBRANCH  55  78
ENDBRANCH  29  30
ENDBRANCH  22  24
ENDBRANCH  21  22
ENDBRANCH  20  21
ENDBRANCH  19  20
ENDBRANCH  18  19
ENDBRANCH   1  18
TORSDOF 21
ENDMDL
MODEL 3
REMARK VINA RESULT:      -8.5      2.277      2.727
REMARK SMILES Cc1ncc(C(=O)OCCOCCOCCOC(=O)c2ccc(-c3c4nc(c(-c5cccc(S(=O)(=O)[O-])c5F)c5ccc([nH]5)c(-c5cccc(S(=O)(=O)[O-])c5F)c5nc(c(-c6cccc(S(=O)(=O)[O-])c6F)c6ccc3[nH]6)C=C5)C=C4)cc2)cc1C#N
REMARK SMILES IDX 13 1 12 2 11 3 10 4 9 5 8 6 6 7 7 8 5 9 1 10 2 11 3 12 84 13
REMARK SMILES IDX 4 14 83 15 85 16 86 17 14 18 15 19 16 20 17 21 18 22 19 23
REMARK SMILES IDX 20 24 21 25 82 26 22 27 81 28 23 29 24 30 25 31 75 32 26 33
REMARK SMILES IDX 80 34 74 35 76 36 27 37 79 38 73 39 72 40 28 42 60 43 40 44
REMARK SMILES IDX 59 45 41 46 44 47 58 48 77 49 42 50 43 51 57 53 78 54 45 55
REMARK SMILES IDX 29 56 30 57 38 58 31 59 33 60 39 61 32 62 34 63 35 64 36 65
REMARK SMILES IDX 37 66 61 67 62 68 70 69 63 70 65 71 71 72 64 73 66 74 67 75
REMARK SMILES IDX 68 76 69 77 46 78 47 79 55 80 48 81 50 82 56 83 49 84 51 85
REMARK SMILES IDX 52 86 53 87 54 88
REMARK H PARENT 76 41 44 52
REMARK Flexibility Score: inf
ROOT
ATOM      1  C   UNL A   1      41.200  20.662  26.172  1.00  0.00     0.188 C 
ENDROOT
BRANCH   1   2
ATOM      2  C   UNL A   1      39.708  21.014  26.358  1.00  0.00     0.188 C 
BRANCH   2   3
ATOM      3  O   UNL A   1      39.396  22.385  26.342  1.00  0.00    -0.376 OA
BRANCH   3   4
ATOM      4  C   UNL A   1      38.092  22.819  26.005  1.00  0.00     0.202 C 
BRANCH   4   5
ATOM      5  C   UNL A   1      36.886  21.906  25.694  1.00  0.00     0.261 C 
BRANCH   5   6
ATOM      6  O   UNL A   1      35.732  22.485  25.068  1.00  0.00    -0.460 OA
BRANCH   6   7
ATOM      7  C   UNL A   1      34.538  22.084  25.572  1.00  0.00     0.339 C 
ATOM      8  O   UNL A   1      33.871  22.657  26.415  1.00  0.00    -0.246 OA
BRANCH   7   9
ATOM      9  C   UNL A   1      34.032  20.919  24.828  1.00  0.00     0.079 A 
ATOM     10  C   UNL A   1      32.081  17.775  22.735  1.00  0.00     0.068 C 
ATOM     11  C   UNL A   1      32.867  18.859  23.419  1.00  0.00     0.055 A 
ATOM     12  N   UNL A   1      32.408  20.122  23.231  1.00  0.00    -0.259 NA
ATOM     13  C   UNL A   1      33.948  18.578  24.263  1.00  0.00     0.074 A 
ATOM     14  C   UNL A   1      32.984  21.120  23.942  1.00  0.00     0.127 A 
ATOM     15  C   UNL A   1      34.550  19.632  24.965  1.00  0.00     0.038 A 
BRANCH  13  16
ATOM     16  C   UNL A   1      34.415  17.239  24.456  1.00  0.00     0.101 C 
ATOM     17  N   UNL A   1      34.813  16.160  24.621  1.00  0.00    -0.192 NA
ENDBRANCH  13  16
ENDBRANCH   7   9
ENDBRANCH   6   7
ENDBRANCH   5   6
ENDBRANCH   4   5
ENDBRANCH   3   4
ENDBRANCH   2   3
ENDBRANCH   1   2
BRANCH   1  18
ATOM     18  O   UNL A   1      41.562  19.343  25.813  1.00  0.00    -0.376 OA
BRANCH  18  19
ATOM     19  C   UNL A   1      42.737  18.780  26.382  1.00  0.00     0.202 C 
BRANCH  19  20
ATOM     20  C   UNL A   1      43.954  18.291  25.562  1.00  0.00     0.261 C 
BRANCH  20  21
ATOM     21  O   UNL A   1      45.028  19.216  25.340  1.00  0.00    -0.460 OA
BRANCH  21  22
ATOM     22  C   UNL A   1      44.868  20.085  24.308  1.00  0.00     0.338 C 
ATOM     23  O   UNL A   1      44.593  19.816  23.154  1.00  0.00    -0.246 OA
BRANCH  22  24
ATOM     24  C   UNL A   1      44.893  21.461  24.847  1.00  0.00     0.060 A 
ATOM     25  C   UNL A   1      44.659  22.544  23.985  1.00  0.00     0.016 A 
ATOM     26  C   UNL A   1      45.162  21.678  26.196  1.00  0.00     0.016 A 
ATOM     27  C   UNL A   1      44.650  23.846  24.478  1.00  0.00     0.010 A 
ATOM     28  C   UNL A   1      45.213  22.989  26.679  1.00  0.00     0.010 A 
ATOM     29  C   UNL A   1      44.973  24.077  25.819  1.00  0.00    -0.014 A 
BRANCH  29  30
ATOM     30  C   UNL A   1      45.307  25.456  26.238  1.00  0.00     0.031 A 
ATOM     31  C   UNL A   1      44.187  26.321  26.743  1.00  0.00     0.074 A 
ATOM     32  C   UNL A   1      46.568  25.922  26.213  1.00  0.00     0.049 A 
ATOM     33  N   UNL A   1      44.229  27.548  27.185  1.00  0.00    -0.248 NA
ATOM     34  C   UNL A   1      42.842  25.719  26.756  1.00  0.00     0.031 C 
ATOM     35  C   UNL A   1      47.742  25.172  25.774  1.00  0.00     0.029 A 
ATOM     36  N   UNL A   1      47.064  27.155  26.562  1.00  0.00    -0.354 N 
ATOM     37  C   UNL A   1      42.920  27.871  27.513  1.00  0.00     0.074 A 
ATOM     38  C   UNL A   1      42.101  26.720  27.207  1.00  0.00     0.031 C 
ATOM     39  C   UNL A   1      48.823  25.968  25.860  1.00  0.00     0.029 A 
ATOM     40  C   UNL A   1      48.415  27.287  26.348  1.00  0.00     0.049 A 
ATOM     41  H   UNL A   1      46.504  27.876  26.930  1.00  0.00     0.167 HD
ATOM     42  C   UNL A   1      42.442  29.018  28.039  1.00  0.00     0.034 A 
ATOM     43  C   UNL A   1      49.225  28.353  26.514  1.00  0.00     0.034 A 
ATOM     44  C   UNL A   1      43.252  30.158  28.357  1.00  0.00     0.049 A 
ATOM     45  C   UNL A   1      48.663  29.643  27.052  1.00  0.00     0.074 A 
ATOM     46  C   UNL A   1      42.854  31.352  28.928  1.00  0.00     0.029 A 
ATOM     47  N   UNL A   1      44.612  30.253  28.116  1.00  0.00    -0.354 N 
ATOM     48  N   UNL A   1      47.438  29.904  27.444  1.00  0.00    -0.248 NA
ATOM     49  C   UNL A   1      49.589  30.777  27.194  1.00  0.00     0.031 C 
ATOM     50  C   UNL A   1      43.970  32.185  29.004  1.00  0.00     0.029 A 
ATOM     51  C   UNL A   1      45.067  31.496  28.511  1.00  0.00     0.049 A 
ATOM     52  H   UNL A   1      45.170  29.543  27.724  1.00  0.00     0.167 HD
ATOM     53  C   UNL A   1      47.451  31.219  27.897  1.00  0.00     0.074 A 
ATOM     54  C   UNL A   1      48.806  31.703  27.740  1.00  0.00     0.031 C 
ATOM     55  C   UNL A   1      46.427  31.955  28.390  1.00  0.00     0.034 A 
BRANCH  42  56
ATOM     56  C   UNL A   1      40.974  29.097  28.336  1.00  0.00     0.023 A 
ATOM     57  C   UNL A   1      40.060  29.244  27.275  1.00  0.00     0.012 A 
ATOM     58  C   UNL A   1      40.500  28.935  29.652  1.00  0.00     0.148 A 
ATOM     59  C   UNL A   1      38.689  29.232  27.520  1.00  0.00     0.002 A 
ATOM     60  C   UNL A   1      39.132  28.895  29.885  1.00  0.00     0.091 A 
ATOM     61  F   UNL A   1      41.395  28.811  30.642  1.00  0.00    -0.205 F 
ATOM     62  C   UNL A   1      38.226  29.044  28.820  1.00  0.00     0.022 A 
BRANCH  60  63
ATOM     63  S   UNL A   1      38.432  28.628  31.515  1.00  0.00     0.127 S 
ATOM     64  O   UNL A   1      39.076  29.689  32.288  1.00  0.00    -0.237 OA
ATOM     65  O   UNL A   1      37.004  28.829  31.270  1.00  0.00    -0.237 OA
ATOM     66  O   UNL A   1      38.805  27.273  31.900  1.00  0.00    -0.744 OA
ENDBRANCH  60  63
ENDBRANCH  42  56
BRANCH  43  67
ATOM     67  C   UNL A   1      50.674  28.220  26.201  1.00  0.00     0.023 A 
ATOM     68  C   UNL A   1      51.133  28.531  24.907  1.00  0.00     0.012 A 
ATOM     69  C   UNL A   1      51.603  27.854  27.195  1.00  0.00     0.148 A 
ATOM     70  C   UNL A   1      52.496  28.484  24.608  1.00  0.00     0.002 A 
ATOM     71  C   UNL A   1      52.961  27.835  26.898  1.00  0.00     0.091 A 
ATOM     72  F   UNL A   1      51.138  27.560  28.417  1.00  0.00    -0.205 F 
ATOM     73  C   UNL A   1      53.409  28.147  25.605  1.00  0.00     0.022 A 
BRANCH  71  74
ATOM     74  S   UNL A   1      54.221  27.471  28.126  1.00  0.00     0.127 S 
ATOM     75  O   UNL A   1      54.123  26.017  28.232  1.00  0.00    -0.237 OA
ATOM     76  O   UNL A   1      55.430  27.961  27.464  1.00  0.00    -0.237 OA
ATOM     77  O   UNL A   1      53.837  28.207  29.322  1.00  0.00    -0.744 OA
ENDBRANCH  71  74
ENDBRANCH  43  67
BRANCH  55  78
ATOM     78  C   UNL A   1      46.685  33.374  28.819  1.00  0.00     0.023 A 
ATOM     79  C   UNL A   1      47.157  33.623  30.121  1.00  0.00     0.012 A 
ATOM     80  C   UNL A   1      46.663  34.419  27.873  1.00  0.00     0.148 A 
ATOM     81  C   UNL A   1      47.617  34.892  30.473  1.00  0.00     0.002 A 
ATOM     82  C   UNL A   1      47.151  35.673  28.222  1.00  0.00     0.091 A 
ATOM     83  F   UNL A   1      46.221  34.148  26.636  1.00  0.00    -0.205 F 
ATOM     84  C   UNL A   1      47.629  35.910  29.521  1.00  0.00     0.022 A 
BRANCH  82  85
ATOM     85  S   UNL A   1      47.264  37.033  27.053  1.00  0.00     0.127 S 
ATOM     86  O   UNL A   1      48.040  36.429  25.970  1.00  0.00    -0.237 OA
ATOM     87  O   UNL A   1      45.859  37.281  26.732  1.00  0.00    -0.237 OA
ATOM     88  O   UNL A   1      47.935  38.119  27.756  1.00  0.00    -0.744 OA
ENDBRANCH  82  85
ENDBRANCH  55  78
ENDBRANCH  29  30
ENDBRANCH  22  24
ENDBRANCH  21  22
ENDBRANCH  20  21
ENDBRANCH  19  20
ENDBRANCH  18  19
ENDBRANCH   1  18
TORSDOF 21
ENDMDL
