MODEL 1
REMARK VINA RESULT:     -10.9      0.000      0.000
REMARK SMILES O=C(OCCOCCOCCOC(=O)[C@@H]1Cc2ccccc2CN1C(=O)COc1ccccc1)c1ccc(-c2c3nc(c(-c4cccc(S(=O)(=O)[O-])c4F)c4ccc([nH]4)c(-c4cccc(S(=O)(=O)[O-])c4F)c4nc(c(-c5cccc(S(=O)(=O)[O-])c5F)c5ccc2[nH]5)C=C4)C=C3)cc1
REMARK SMILES IDX 8 1 7 2 6 3 5 4 4 5 3 6 2 7 1 8 35 9 36 10 97 11 37 12 96 13
REMARK SMILES IDX 38 14 39 15 40 16 90 17 41 18 95 19 89 20 91 21 42 22 94 23
REMARK SMILES IDX 88 24 87 25 43 27 75 28 55 29 74 30 56 31 59 32 73 33 92 34
REMARK SMILES IDX 57 35 58 36 72 38 93 39 60 40 44 41 45 42 53 43 46 44 48 45
REMARK SMILES IDX 54 46 47 47 49 48 50 49 51 50 52 51 76 52 77 53 85 54 78 55
REMARK SMILES IDX 80 56 86 57 79 58 81 59 82 60 83 61 84 62 61 63 62 64 70 65
REMARK SMILES IDX 63 66 65 67 71 68 64 69 66 70 67 71 68 72 69 73 9 74 10 75
REMARK SMILES IDX 11 76 12 77 13 78 14 79 15 80 16 81 24 82 17 83 23 84 18 85
REMARK SMILES IDX 22 86 19 87 21 88 20 89 25 90 26 91 27 92 28 93 29 94 30 95
REMARK SMILES IDX 34 96 31 97 33 98 32 99
REMARK H PARENT 91 26 59 37
REMARK Flexibility Score: inf
ROOT
ATOM      1  C   UNL A   1      32.141  19.592  23.735  1.00  0.00     0.188 C 
ENDROOT
BRANCH   1   2
ATOM      2  C   UNL A   1      33.238  19.119  24.681  1.00  0.00     0.188 C 
BRANCH   2   3
ATOM      3  O   UNL A   1      33.568  19.965  25.775  1.00  0.00    -0.376 OA
BRANCH   3   4
ATOM      4  C   UNL A   1      34.723  20.787  25.643  1.00  0.00     0.202 C 
BRANCH   4   5
ATOM      5  C   UNL A   1      36.011  20.216  25.023  1.00  0.00     0.261 C 
BRANCH   5   6
ATOM      6  O   UNL A   1      37.160  21.070  24.959  1.00  0.00    -0.460 OA
BRANCH   6   7
ATOM      7  C   UNL A   1      38.384  20.930  25.512  1.00  0.00     0.338 C 
ATOM      8  O   UNL A   1      38.930  19.829  25.447  1.00  0.00    -0.246 OA
BRANCH   7   9
ATOM      9  C   UNL A   1      39.104  22.013  26.230  1.00  0.00     0.060 A 
ATOM     10  C   UNL A   1      38.924  23.734  25.840  1.00  0.00     0.016 A 
ATOM     11  C   UNL A   1      40.348  21.410  27.331  1.00  0.00     0.016 A 
ATOM     12  C   UNL A   1      39.946  24.996  26.480  1.00  0.00     0.010 A 
ATOM     13  C   UNL A   1      41.502  22.588  28.051  1.00  0.00     0.010 A 
ATOM     14  C   UNL A   1      41.283  24.560  27.614  1.00  0.00    -0.014 A 
BRANCH  14  15
ATOM     15  C   UNL A   1      41.817  26.005  27.920  1.00  0.00     0.031 A 
ATOM     16  C   UNL A   1      43.105  26.423  27.291  1.00  0.00     0.074 A 
ATOM     17  C   UNL A   1      41.038  27.017  28.378  1.00  0.00     0.049 A 
ATOM     18  N   UNL A   1      43.868  27.425  27.610  1.00  0.00    -0.248 NA
ATOM     19  C   UNL A   1      43.625  25.616  26.176  1.00  0.00     0.031 C 
ATOM     20  C   UNL A   1      39.625  26.902  28.644  1.00  0.00     0.029 A 
ATOM     21  N   UNL A   1      41.261  28.339  28.689  1.00  0.00    -0.354 N 
ATOM     22  C   UNL A   1      45.010  27.266  26.849  1.00  0.00     0.074 A 
ATOM     23  C   UNL A   1      44.862  26.064  26.072  1.00  0.00     0.031 C 
ATOM     24  C   UNL A   1      39.097  28.023  29.120  1.00  0.00     0.029 A 
ATOM     25  C   UNL A   1      40.175  28.933  29.312  1.00  0.00     0.049 A 
ATOM     26  H   UNL A   1      42.102  28.810  28.489  1.00  0.00     0.167 HD
ATOM     27  C   UNL A   1      46.075  28.087  26.802  1.00  0.00     0.034 A 
ATOM     28  C   UNL A   1      40.040  30.041  30.055  1.00  0.00     0.034 A 
ATOM     29  C   UNL A   1      46.094  29.346  27.486  1.00  0.00     0.049 A 
ATOM     30  C   UNL A   1      41.257  30.877  30.115  1.00  0.00     0.074 A 
ATOM     31  C   UNL A   1      47.112  30.271  27.558  1.00  0.00     0.029 A 
ATOM     32  N   UNL A   1      45.016  29.868  28.193  1.00  0.00    -0.354 N 
ATOM     33  N   UNL A   1      42.416  30.635  29.556  1.00  0.00    -0.248 NA
ATOM     34  C   UNL A   1      41.159  32.144  30.833  1.00  0.00     0.031 C 
ATOM     35  C   UNL A   1      46.662  31.337  28.342  1.00  0.00     0.029 A 
ATOM     36  C   UNL A   1      45.344  31.105  28.708  1.00  0.00     0.049 A 
ATOM     37  H   UNL A   1      44.146  29.419  28.309  1.00  0.00     0.167 HD
ATOM     38  C   UNL A   1      43.185  31.743  29.807  1.00  0.00     0.074 A 
ATOM     39  C   UNL A   1      42.344  32.667  30.554  1.00  0.00     0.031 C 
ATOM     40  C   UNL A   1      44.468  31.976  29.449  1.00  0.00     0.034 A 
BRANCH  27  41
ATOM     41  C   UNL A   1      47.278  27.595  26.059  1.00  0.00     0.023 A 
ATOM     42  C   UNL A   1      48.339  26.941  26.720  1.00  0.00     0.012 A 
ATOM     43  C   UNL A   1      47.372  27.848  24.679  1.00  0.00     0.148 A 
ATOM     44  C   UNL A   1      49.494  26.590  26.023  1.00  0.00     0.002 A 
ATOM     45  C   UNL A   1      48.491  27.432  23.979  1.00  0.00     0.091 A 
ATOM     46  F   UNL A   1      46.373  28.516  24.085  1.00  0.00    -0.205 F 
ATOM     47  C   UNL A   1      49.564  26.821  24.651  1.00  0.00     0.022 A 
BRANCH  45  48
ATOM     48  S   UNL A   1      48.632  27.612  22.201  1.00  0.00     0.127 S 
ATOM     49  O   UNL A   1      49.902  28.326  22.074  1.00  0.00    -0.237 OA
ATOM     50  O   UNL A   1      48.668  26.216  21.765  1.00  0.00    -0.237 OA
ATOM     51  O   UNL A   1      47.460  28.363  21.773  1.00  0.00    -0.744 OA
ENDBRANCH  45  48
ENDBRANCH  27  41
BRANCH  28  52
ATOM     52  C   UNL A   1      38.782  30.361  30.802  1.00  0.00     0.023 A 
ATOM     53  C   UNL A   1      38.514  29.740  32.036  1.00  0.00     0.012 A 
ATOM     54  C   UNL A   1      37.834  31.276  30.287  1.00  0.00     0.148 A 
ATOM     55  C   UNL A   1      37.309  29.968  32.706  1.00  0.00     0.002 A 
ATOM     56  C   UNL A   1      36.645  31.519  30.972  1.00  0.00     0.091 A 
ATOM     57  F   UNL A   1      38.122  31.918  29.145  1.00  0.00    -0.205 F 
ATOM     58  C   UNL A   1      36.373  30.849  32.173  1.00  0.00     0.022 A 
BRANCH  56  59
ATOM     59  S   UNL A   1      35.391  32.667  30.387  1.00  0.00     0.127 S 
ATOM     60  O   UNL A   1      34.400  32.609  31.461  1.00  0.00    -0.237 OA
ATOM     61  O   UNL A   1      36.149  33.914  30.311  1.00  0.00    -0.237 OA
ATOM     62  O   UNL A   1      34.934  32.136  29.111  1.00  0.00    -0.744 OA
ENDBRANCH  56  59
ENDBRANCH  28  52
BRANCH  40  63
ATOM     63  C   UNL A   1      44.992  33.315  29.836  1.00  0.00     0.023 A 
ATOM     64  C   UNL A   1      45.661  33.485  31.062  1.00  0.00     0.012 A 
ATOM     65  C   UNL A   1      44.803  34.401  28.968  1.00  0.00     0.148 A 
ATOM     66  C   UNL A   1      46.084  34.750  31.448  1.00  0.00     0.002 A 
ATOM     67  C   UNL A   1      45.300  35.639  29.323  1.00  0.00     0.091 A 
ATOM     68  F   UNL A   1      44.134  34.200  27.823  1.00  0.00    -0.205 F 
ATOM     69  C   UNL A   1      45.917  35.822  30.573  1.00  0.00     0.022 A 
BRANCH  67  70
ATOM     70  S   UNL A   1      45.237  37.038  28.209  1.00  0.00     0.127 S 
ATOM     71  O   UNL A   1      46.041  36.557  27.085  1.00  0.00    -0.237 OA
ATOM     72  O   UNL A   1      43.803  37.141  27.938  1.00  0.00    -0.237 OA
ATOM     73  O   UNL A   1      45.800  38.167  28.937  1.00  0.00    -0.744 OA
ENDBRANCH  67  70
ENDBRANCH  40  63
ENDBRANCH  14  15
ENDBRANCH   7   9
ENDBRANCH   6   7
ENDBRANCH   5   6
ENDBRANCH   4   5
ENDBRANCH   3   4
ENDBRANCH   2   3
ENDBRANCH   1   2
BRANCH   1  74
ATOM     74  O   UNL A   1      32.502  20.441  22.658  1.00  0.00    -0.376 OA
BRANCH  74  75
ATOM     75  C   UNL A   1      32.141  21.811  22.757  1.00  0.00     0.202 C 
BRANCH  75  76
ATOM     76  C   UNL A   1      31.709  22.379  24.120  1.00  0.00     0.261 C 
BRANCH  76  77
ATOM     77  O   UNL A   1      32.613  23.311  24.724  1.00  0.00    -0.462 OA
BRANCH  77  78
ATOM     78  C   UNL A   1      32.187  23.950  25.857  1.00  0.00     0.329 C 
ATOM     79  O   UNL A   1      32.100  23.396  26.948  1.00  0.00    -0.250 OA
BRANCH  78  80
ATOM     80  C   UNL A   1      32.102  25.489  25.625  1.00  0.00     0.200 C 
ATOM     81  C   UNL A   1      33.423  26.100  26.132  1.00  0.00     0.073 C 
ATOM     82  N   UNL A   1      30.901  26.082  26.213  1.00  0.00    -0.321 N 
ATOM     83  C   UNL A   1      33.332  27.577  26.377  1.00  0.00    -0.040 A 
ATOM     84  C   UNL A   1      31.043  27.098  27.263  1.00  0.00     0.156 C 
ATOM     85  C   UNL A   1      34.426  28.428  26.188  1.00  0.00     0.004 A 
ATOM     86  C   UNL A   1      32.142  28.073  26.925  1.00  0.00    -0.025 A 
ATOM     87  C   UNL A   1      34.325  29.778  26.520  1.00  0.00     0.000 A 
ATOM     88  C   UNL A   1      32.040  29.434  27.226  1.00  0.00     0.006 A 
ATOM     89  C   UNL A   1      33.131  30.282  27.030  1.00  0.00     0.000 A 
BRANCH  82  90
ATOM     90  C   UNL A   1      29.658  25.584  25.921  1.00  0.00     0.261 C 
ATOM     91  O   UNL A   1      29.070  24.862  26.734  1.00  0.00    -0.271 OA
BRANCH  90  92
ATOM     92  C   UNL A   1      28.990  25.936  24.557  1.00  0.00     0.329 C 
BRANCH  92  93
ATOM     93  O   UNL A   1      29.282  27.063  23.710  1.00  0.00    -0.484 OA
BRANCH  93  94
ATOM     94  C   UNL A   1      30.590  27.151  23.176  1.00  0.00     0.120 A 
ATOM     95  C   UNL A   1      31.833  25.875  22.201  1.00  0.00     0.046 A 
ATOM     96  C   UNL A   1      31.265  28.787  23.572  1.00  0.00     0.046 A 
ATOM     97  C   UNL A   1      33.478  26.430  21.743  1.00  0.00     0.004 A 
ATOM     98  C   UNL A   1      32.884  29.203  22.990  1.00  0.00     0.004 A 
ATOM     99  C   UNL A   1      33.931  28.072  22.117  1.00  0.00     0.000 A 
ENDBRANCH  93  94
ENDBRANCH  92  93
ENDBRANCH  90  92
ENDBRANCH  82  90
ENDBRANCH  78  80
ENDBRANCH  77  78
ENDBRANCH  76  77
ENDBRANCH  75  76
ENDBRANCH  74  75
ENDBRANCH   1  74
TORSDOF 24
ENDMDL
MODEL 2
REMARK VINA RESULT:     -10.6      1.459      7.459
REMARK SMILES O=C(OCCOCCOCCOC(=O)[C@@H]1Cc2ccccc2CN1C(=O)COc1ccccc1)c1ccc(-c2c3nc(c(-c4cccc(S(=O)(=O)[O-])c4F)c4ccc([nH]4)c(-c4cccc(S(=O)(=O)[O-])c4F)c4nc(c(-c5cccc(S(=O)(=O)[O-])c5F)c5ccc2[nH]5)C=C4)C=C3)cc1
REMARK SMILES IDX 8 1 7 2 6 3 5 4 4 5 3 6 2 7 1 8 35 9 36 10 97 11 37 12 96 13
REMARK SMILES IDX 38 14 39 15 40 16 90 17 41 18 95 19 89 20 91 21 42 22 94 23
REMARK SMILES IDX 88 24 87 25 43 27 75 28 55 29 74 30 56 31 59 32 73 33 92 34
REMARK SMILES IDX 57 35 58 36 72 38 93 39 60 40 44 41 45 42 53 43 46 44 48 45
REMARK SMILES IDX 54 46 47 47 49 48 50 49 51 50 52 51 76 52 77 53 85 54 78 55
REMARK SMILES IDX 80 56 86 57 79 58 81 59 82 60 83 61 84 62 61 63 62 64 70 65
REMARK SMILES IDX 63 66 65 67 71 68 64 69 66 70 67 71 68 72 69 73 9 74 10 75
REMARK SMILES IDX 11 76 12 77 13 78 14 79 15 80 16 81 24 82 17 83 23 84 18 85
REMARK SMILES IDX 22 86 19 87 21 88 20 89 25 90 26 91 27 92 28 93 29 94 30 95
REMARK SMILES IDX 34 96 31 97 33 98 32 99
REMARK H PARENT 91 26 59 37
REMARK Flexibility Score: inf
ROOT
ATOM      1  C   UNL A   1      32.652  20.465  24.466  1.00  0.00     0.188 C 
ENDROOT
BRANCH   1   2
ATOM      2  C   UNL A   1      33.924  21.069  23.884  1.00  0.00     0.188 C 
BRANCH   2   3
ATOM      3  O   UNL A   1      33.870  22.426  23.463  1.00  0.00    -0.376 OA
BRANCH   3   4
ATOM      4  C   UNL A   1      35.055  23.203  23.605  1.00  0.00     0.202 C 
BRANCH   4   5
ATOM      5  C   UNL A   1      36.411  22.638  23.143  1.00  0.00     0.261 C 
BRANCH   5   6
ATOM      6  O   UNL A   1      37.072  21.698  23.999  1.00  0.00    -0.460 OA
BRANCH   6   7
ATOM      7  C   UNL A   1      37.289  21.733  25.331  1.00  0.00     0.338 C 
ATOM      8  O   UNL A   1      36.607  21.005  26.051  1.00  0.00    -0.246 OA
BRANCH   7   9
ATOM      9  C   UNL A   1      38.278  22.622  25.992  1.00  0.00     0.060 A 
ATOM     10  C   UNL A   1      38.190  24.392  25.944  1.00  0.00     0.016 A 
ATOM     11  C   UNL A   1      39.689  21.754  26.610  1.00  0.00     0.016 A 
ATOM     12  C   UNL A   1      39.469  25.453  26.479  1.00  0.00     0.010 A 
ATOM     13  C   UNL A   1      41.106  22.710  27.173  1.00  0.00     0.010 A 
ATOM     14  C   UNL A   1      40.995  24.738  27.129  1.00  0.00    -0.014 A 
BRANCH  14  15
ATOM     15  C   UNL A   1      41.739  26.069  27.507  1.00  0.00     0.031 A 
ATOM     16  C   UNL A   1      41.088  26.977  28.499  1.00  0.00     0.074 A 
ATOM     17  C   UNL A   1      43.067  26.272  27.315  1.00  0.00     0.049 A 
ATOM     18  N   UNL A   1      41.359  28.223  28.746  1.00  0.00    -0.248 NA
ATOM     19  C   UNL A   1      39.983  26.440  29.309  1.00  0.00     0.031 C 
ATOM     20  C   UNL A   1      43.965  25.302  26.740  1.00  0.00     0.029 A 
ATOM     21  N   UNL A   1      43.929  27.312  27.579  1.00  0.00    -0.354 N 
ATOM     22  C   UNL A   1      40.366  28.644  29.609  1.00  0.00     0.074 A 
ATOM     23  C   UNL A   1      39.469  27.539  29.827  1.00  0.00     0.031 C 
ATOM     24  C   UNL A   1      45.208  25.755  26.624  1.00  0.00     0.029 A 
ATOM     25  C   UNL A   1      45.182  27.124  27.017  1.00  0.00     0.049 A 
ATOM     26  H   UNL A   1      43.682  28.103  28.111  1.00  0.00     0.167 HD
ATOM     27  C   UNL A   1      40.247  29.856  30.181  1.00  0.00     0.034 A 
ATOM     28  C   UNL A   1      46.193  27.958  26.736  1.00  0.00     0.034 A 
ATOM     29  C   UNL A   1      41.257  30.863  30.042  1.00  0.00     0.049 A 
ATOM     30  C   UNL A   1      46.000  29.331  27.248  1.00  0.00     0.074 A 
ATOM     31  C   UNL A   1      41.263  32.149  30.537  1.00  0.00     0.029 A 
ATOM     32  N   UNL A   1      42.464  30.673  29.378  1.00  0.00    -0.354 N 
ATOM     33  N   UNL A   1      44.965  29.797  27.901  1.00  0.00    -0.248 NA
ATOM     34  C   UNL A   1      47.098  30.273  27.057  1.00  0.00     0.031 C 
ATOM     35  C   UNL A   1      42.460  32.751  30.138  1.00  0.00     0.029 A 
ATOM     36  C   UNL A   1      43.226  31.821  29.447  1.00  0.00     0.049 A 
ATOM     37  H   UNL A   1      42.735  29.841  28.925  1.00  0.00     0.167 HD
ATOM     38  C   UNL A   1      45.299  31.081  28.251  1.00  0.00     0.074 A 
ATOM     39  C   UNL A   1      46.647  31.307  27.751  1.00  0.00     0.031 C 
ATOM     40  C   UNL A   1      44.559  31.989  28.926  1.00  0.00     0.034 A 
BRANCH  27  41
ATOM     41  C   UNL A   1      38.973  30.138  30.914  1.00  0.00     0.023 A 
ATOM     42  C   UNL A   1      38.678  29.522  32.148  1.00  0.00     0.012 A 
ATOM     43  C   UNL A   1      38.026  30.993  30.323  1.00  0.00     0.148 A 
ATOM     44  C   UNL A   1      37.438  29.719  32.756  1.00  0.00     0.002 A 
ATOM     45  C   UNL A   1      36.827  31.242  30.968  1.00  0.00     0.091 A 
ATOM     46  F   UNL A   1      38.310  31.526  29.126  1.00  0.00    -0.205 F 
ATOM     47  C   UNL A   1      36.520  30.590  32.174  1.00  0.00     0.022 A 
BRANCH  45  48
ATOM     48  S   UNL A   1      35.622  32.410  30.337  1.00  0.00     0.127 S 
ATOM     49  O   UNL A   1      35.274  31.811  29.049  1.00  0.00    -0.237 OA
ATOM     50  O   UNL A   1      34.574  32.331  31.353  1.00  0.00    -0.237 OA
ATOM     51  O   UNL A   1      36.305  33.694  30.252  1.00  0.00    -0.744 OA
ENDBRANCH  45  48
ENDBRANCH  27  41
BRANCH  28  52
ATOM     52  C   UNL A   1      47.379  27.540  25.922  1.00  0.00     0.023 A 
ATOM     53  C   UNL A   1      47.347  27.645  24.520  1.00  0.00     0.012 A 
ATOM     54  C   UNL A   1      48.545  27.023  26.535  1.00  0.00     0.148 A 
ATOM     55  C   UNL A   1      48.415  27.186  23.742  1.00  0.00     0.002 A 
ATOM     56  C   UNL A   1      49.616  26.590  25.756  1.00  0.00     0.091 A 
ATOM     57  F   UNL A   1      48.598  26.987  27.875  1.00  0.00    -0.205 F 
ATOM     58  C   UNL A   1      49.544  26.653  24.358  1.00  0.00     0.022 A 
BRANCH  56  59
ATOM     59  S   UNL A   1      51.132  25.922  26.456  1.00  0.00     0.127 S 
ATOM     60  O   UNL A   1      51.935  25.672  25.260  1.00  0.00    -0.237 OA
ATOM     61  O   UNL A   1      51.587  27.036  27.285  1.00  0.00    -0.237 OA
ATOM     62  O   UNL A   1      50.736  24.724  27.183  1.00  0.00    -0.744 OA
ENDBRANCH  56  59
ENDBRANCH  28  52
BRANCH  40  63
ATOM     63  C   UNL A   1      45.245  33.284  29.190  1.00  0.00     0.023 A 
ATOM     64  C   UNL A   1      46.022  33.449  30.350  1.00  0.00     0.012 A 
ATOM     65  C   UNL A   1      45.098  34.336  28.271  1.00  0.00     0.148 A 
ATOM     66  C   UNL A   1      46.600  34.681  30.625  1.00  0.00     0.002 A 
ATOM     67  C   UNL A   1      45.745  35.531  28.512  1.00  0.00     0.091 A 
ATOM     68  F   UNL A   1      44.324  34.144  27.193  1.00  0.00    -0.205 F 
ATOM     69  C   UNL A   1      46.474  35.716  29.699  1.00  0.00     0.022 A 
BRANCH  67  70
ATOM     70  S   UNL A   1      45.736  36.866  27.320  1.00  0.00     0.127 S 
ATOM     71  O   UNL A   1      46.519  36.292  26.226  1.00  0.00    -0.237 OA
ATOM     72  O   UNL A   1      44.307  37.011  27.043  1.00  0.00    -0.237 OA
ATOM     73  O   UNL A   1      46.344  38.011  27.984  1.00  0.00    -0.744 OA
ENDBRANCH  67  70
ENDBRANCH  40  63
ENDBRANCH  14  15
ENDBRANCH   7   9
ENDBRANCH   6   7
ENDBRANCH   5   6
ENDBRANCH   4   5
ENDBRANCH   3   4
ENDBRANCH   2   3
ENDBRANCH   1   2
BRANCH   1  74
ATOM     74  O   UNL A   1      32.604  20.213  25.861  1.00  0.00    -0.376 OA
BRANCH  74  75
ATOM     75  C   UNL A   1      33.422  21.018  26.698  1.00  0.00     0.202 C 
BRANCH  75  76
ATOM     76  C   UNL A   1      32.841  22.306  27.305  1.00  0.00     0.261 C 
BRANCH  76  77
ATOM     77  O   UNL A   1      33.001  23.494  26.520  1.00  0.00    -0.462 OA
BRANCH  77  78
ATOM     78  C   UNL A   1      31.919  23.912  25.792  1.00  0.00     0.329 C 
ATOM     79  O   UNL A   1      30.960  23.189  25.540  1.00  0.00    -0.250 OA
BRANCH  78  80
ATOM     80  C   UNL A   1      31.957  25.455  25.581  1.00  0.00     0.200 C 
ATOM     81  C   UNL A   1      33.322  25.953  26.095  1.00  0.00     0.073 C 
ATOM     82  N   UNL A   1      30.807  26.135  26.177  1.00  0.00    -0.321 N 
ATOM     83  C   UNL A   1      33.349  27.430  26.359  1.00  0.00    -0.040 A 
ATOM     84  C   UNL A   1      31.028  27.121  27.240  1.00  0.00     0.156 C 
ATOM     85  C   UNL A   1      34.506  28.193  26.180  1.00  0.00     0.004 A 
ATOM     86  C   UNL A   1      32.202  28.011  26.914  1.00  0.00    -0.025 A 
ATOM     87  C   UNL A   1      34.513  29.542  26.531  1.00  0.00     0.000 A 
ATOM     88  C   UNL A   1      32.208  29.372  27.233  1.00  0.00     0.006 A 
ATOM     89  C   UNL A   1      33.362  30.133  27.047  1.00  0.00     0.000 A 
BRANCH  82  90
ATOM     90  C   UNL A   1      29.528  25.740  25.879  1.00  0.00     0.261 C 
ATOM     91  O   UNL A   1      28.810  25.244  26.754  1.00  0.00    -0.271 OA
BRANCH  90  92
ATOM     92  C   UNL A   1      28.985  25.924  24.429  1.00  0.00     0.329 C 
BRANCH  92  93
ATOM     93  O   UNL A   1      29.260  27.014  23.529  1.00  0.00    -0.484 OA
BRANCH  93  94
ATOM     94  C   UNL A   1      30.589  27.150  23.062  1.00  0.00     0.120 A 
ATOM     95  C   UNL A   1      31.886  25.960  22.049  1.00  0.00     0.046 A 
ATOM     96  C   UNL A   1      31.231  28.754  23.613  1.00  0.00     0.046 A 
ATOM     97  C   UNL A   1      33.544  26.558  21.710  1.00  0.00     0.004 A 
ATOM     98  C   UNL A   1      32.871  29.223  23.138  1.00  0.00     0.004 A 
ATOM     99  C   UNL A   1      33.966  28.168  22.229  1.00  0.00     0.000 A 
ENDBRANCH  93  94
ENDBRANCH  92  93
ENDBRANCH  90  92
ENDBRANCH  82  90
ENDBRANCH  78  80
ENDBRANCH  77  78
ENDBRANCH  76  77
ENDBRANCH  75  76
ENDBRANCH  74  75
ENDBRANCH   1  74
TORSDOF 24
ENDMDL
MODEL 3
REMARK VINA RESULT:     -10.6      5.401     10.484
REMARK SMILES O=C(OCCOCCOCCOC(=O)[C@@H]1Cc2ccccc2CN1C(=O)COc1ccccc1)c1ccc(-c2c3nc(c(-c4cccc(S(=O)(=O)[O-])c4F)c4ccc([nH]4)c(-c4cccc(S(=O)(=O)[O-])c4F)c4nc(c(-c5cccc(S(=O)(=O)[O-])c5F)c5ccc2[nH]5)C=C4)C=C3)cc1
REMARK SMILES IDX 8 1 7 2 6 3 5 4 4 5 3 6 2 7 1 8 35 9 36 10 97 11 37 12 96 13
REMARK SMILES IDX 38 14 39 15 40 16 90 17 41 18 95 19 89 20 91 21 42 22 94 23
REMARK SMILES IDX 88 24 87 25 43 27 75 28 55 29 74 30 56 31 59 32 73 33 92 34
REMARK SMILES IDX 57 35 58 36 72 38 93 39 60 40 44 41 45 42 53 43 46 44 48 45
REMARK SMILES IDX 54 46 47 47 49 48 50 49 51 50 52 51 76 52 77 53 85 54 78 55
REMARK SMILES IDX 80 56 86 57 79 58 81 59 82 60 83 61 84 62 61 63 62 64 70 65
REMARK SMILES IDX 63 66 65 67 71 68 64 69 66 70 67 71 68 72 69 73 9 74 10 75
REMARK SMILES IDX 11 76 12 77 13 78 14 79 15 80 16 81 24 82 17 83 23 84 18 85
REMARK SMILES IDX 22 86 19 87 21 88 20 89 25 90 26 91 27 92 28 93 29 94 30 95
REMARK SMILES IDX 34 96 31 97 33 98 32 99
REMARK H PARENT 91 26 59 37
REMARK Flexibility Score: inf
ROOT
ATOM      1  C   UNL A   1      33.550  26.448  23.978  1.00  0.00     0.188 C 
ENDROOT
BRANCH   1   2
ATOM      2  C   UNL A   1      33.769  27.328  25.202  1.00  0.00     0.188 C 
BRANCH   2   3
ATOM      3  O   UNL A   1      32.676  27.488  26.098  1.00  0.00    -0.376 OA
BRANCH   3   4
ATOM      4  C   UNL A   1      31.718  28.496  25.790  1.00  0.00     0.202 C 
BRANCH   4   5
ATOM      5  C   UNL A   1      32.053  29.980  26.030  1.00  0.00     0.261 C 
BRANCH   5   6
ATOM      6  O   UNL A   1      33.398  30.313  26.399  1.00  0.00    -0.460 OA
BRANCH   6   7
ATOM      7  C   UNL A   1      33.859  31.148  27.353  1.00  0.00     0.338 C 
ATOM      8  O   UNL A   1      33.138  32.078  27.711  1.00  0.00    -0.246 OA
BRANCH   7   9
ATOM      9  C   UNL A   1      35.202  31.040  27.979  1.00  0.00     0.060 A 
ATOM     10  C   UNL A   1      35.718  29.655  28.959  1.00  0.00     0.016 A 
ATOM     11  C   UNL A   1      36.142  32.533  27.869  1.00  0.00     0.016 A 
ATOM     12  C   UNL A   1      37.177  29.621  29.917  1.00  0.00     0.010 A 
ATOM     13  C   UNL A   1      37.661  32.664  28.826  1.00  0.00     0.010 A 
ATOM     14  C   UNL A   1      38.255  31.069  29.936  1.00  0.00    -0.014 A 
BRANCH  14  15
ATOM     15  C   UNL A   1      39.398  30.504  30.854  1.00  0.00     0.031 A 
ATOM     16  C   UNL A   1      39.377  30.871  32.301  1.00  0.00     0.074 A 
ATOM     17  C   UNL A   1      40.157  29.425  30.537  1.00  0.00     0.049 A 
ATOM     18  N   UNL A   1      40.338  30.767  33.170  1.00  0.00    -0.248 NA
ATOM     19  C   UNL A   1      38.139  31.442  32.854  1.00  0.00     0.031 C 
ATOM     20  C   UNL A   1      40.019  28.660  29.323  1.00  0.00     0.029 A 
ATOM     21  N   UNL A   1      41.172  28.744  31.169  1.00  0.00    -0.354 N 
ATOM     22  C   UNL A   1      39.867  31.401  34.305  1.00  0.00     0.074 A 
ATOM     23  C   UNL A   1      38.553  31.910  34.017  1.00  0.00     0.031 C 
ATOM     24  C   UNL A   1      40.905  27.675  29.231  1.00  0.00     0.029 A 
ATOM     25  C   UNL A   1      41.777  27.804  30.349  1.00  0.00     0.049 A 
ATOM     26  H   UNL A   1      41.439  28.908  32.102  1.00  0.00     0.167 HD
ATOM     27  C   UNL A   1      40.494  31.512  35.490  1.00  0.00     0.034 A 
ATOM     28  C   UNL A   1      42.954  27.165  30.405  1.00  0.00     0.034 A 
ATOM     29  C   UNL A   1      41.737  30.852  35.758  1.00  0.00     0.049 A 
ATOM     30  C   UNL A   1      43.708  27.398  31.655  1.00  0.00     0.074 A 
ATOM     31  C   UNL A   1      42.506  30.896  36.900  1.00  0.00     0.029 A 
ATOM     32  N   UNL A   1      42.372  29.992  34.868  1.00  0.00    -0.354 N 
ATOM     33  N   UNL A   1      43.360  28.160  32.661  1.00  0.00    -0.248 NA
ATOM     34  C   UNL A   1      44.958  26.666  31.824  1.00  0.00     0.031 C 
ATOM     35  C   UNL A   1      43.630  30.092  36.685  1.00  0.00     0.029 A 
ATOM     36  C   UNL A   1      43.529  29.499  35.434  1.00  0.00     0.049 A 
ATOM     37  H   UNL A   1      42.044  29.769  33.966  1.00  0.00     0.167 HD
ATOM     38  C   UNL A   1      44.324  27.967  33.619  1.00  0.00     0.074 A 
ATOM     39  C   UNL A   1      45.259  26.995  33.071  1.00  0.00     0.031 C 
ATOM     40  C   UNL A   1      44.424  28.538  34.840  1.00  0.00     0.034 A 
BRANCH  27  41
ATOM     41  C   UNL A   1      39.871  32.422  36.503  1.00  0.00     0.023 A 
ATOM     42  C   UNL A   1      38.901  31.959  37.416  1.00  0.00     0.012 A 
ATOM     43  C   UNL A   1      40.224  33.784  36.497  1.00  0.00     0.148 A 
ATOM     44  C   UNL A   1      38.259  32.850  38.275  1.00  0.00     0.002 A 
ATOM     45  C   UNL A   1      39.635  34.650  37.403  1.00  0.00     0.091 A 
ATOM     46  F   UNL A   1      41.110  34.208  35.586  1.00  0.00    -0.205 F 
ATOM     47  C   UNL A   1      38.637  34.191  38.279  1.00  0.00     0.022 A 
BRANCH  45  48
ATOM     48  S   UNL A   1      40.117  36.371  37.537  1.00  0.00     0.127 S 
ATOM     49  O   UNL A   1      41.522  36.257  37.927  1.00  0.00    -0.237 OA
ATOM     50  O   UNL A   1      39.898  36.846  36.172  1.00  0.00    -0.237 OA
ATOM     51  O   UNL A   1      39.247  36.961  38.544  1.00  0.00    -0.744 OA
ENDBRANCH  45  48
ENDBRANCH  27  41
BRANCH  28  52
ATOM     52  C   UNL A   1      43.476  26.340  29.268  1.00  0.00     0.023 A 
ATOM     53  C   UNL A   1      43.392  24.937  29.315  1.00  0.00     0.012 A 
ATOM     54  C   UNL A   1      44.073  26.944  28.136  1.00  0.00     0.148 A 
ATOM     55  C   UNL A   1      43.946  24.151  28.300  1.00  0.00     0.002 A 
ATOM     56  C   UNL A   1      44.601  26.156  27.115  1.00  0.00     0.091 A 
ATOM     57  F   UNL A   1      44.092  28.283  28.063  1.00  0.00    -0.205 F 
ATOM     58  C   UNL A   1      44.556  24.759  27.205  1.00  0.00     0.022 A 
BRANCH  56  59
ATOM     59  S   UNL A   1      45.374  26.845  25.645  1.00  0.00     0.127 S 
ATOM     60  O   UNL A   1      44.403  27.860  25.238  1.00  0.00    -0.237 OA
ATOM     61  O   UNL A   1      46.624  27.369  26.189  1.00  0.00    -0.237 OA
ATOM     62  O   UNL A   1      45.515  25.733  24.716  1.00  0.00    -0.744 OA
ENDBRANCH  56  59
ENDBRANCH  28  52
BRANCH  40  63
ATOM     63  C   UNL A   1      45.573  28.065  35.660  1.00  0.00     0.023 A 
ATOM     64  C   UNL A   1      46.817  28.715  35.578  1.00  0.00     0.012 A 
ATOM     65  C   UNL A   1      45.398  26.959  36.508  1.00  0.00     0.148 A 
ATOM     66  C   UNL A   1      47.901  28.225  36.291  1.00  0.00     0.002 A 
ATOM     67  C   UNL A   1      46.461  26.529  37.277  1.00  0.00     0.091 A 
ATOM     68  F   UNL A   1      44.203  26.351  36.533  1.00  0.00    -0.205 F 
ATOM     69  C   UNL A   1      47.720  27.142  37.151  1.00  0.00     0.022 A 
BRANCH  67  70
ATOM     70  S   UNL A   1      46.282  25.228  38.492  1.00  0.00     0.127 S 
ATOM     71  O   UNL A   1      47.563  25.303  39.196  1.00  0.00    -0.237 OA
ATOM     72  O   UNL A   1      45.129  25.693  39.263  1.00  0.00    -0.237 OA
ATOM     73  O   UNL A   1      46.056  23.999  37.745  1.00  0.00    -0.744 OA
ENDBRANCH  67  70
ENDBRANCH  40  63
ENDBRANCH  14  15
ENDBRANCH   7   9
ENDBRANCH   6   7
ENDBRANCH   5   6
ENDBRANCH   4   5
ENDBRANCH   3   4
ENDBRANCH   2   3
ENDBRANCH   1   2
BRANCH   1  74
ATOM     74  O   UNL A   1      32.551  26.828  23.046  1.00  0.00    -0.376 OA
BRANCH  74  75
ATOM     75  C   UNL A   1      32.347  25.981  21.925  1.00  0.00     0.202 C 
BRANCH  75  76
ATOM     76  C   UNL A   1      32.627  24.474  22.059  1.00  0.00     0.261 C 
BRANCH  76  77
ATOM     77  O   UNL A   1      31.681  23.730  22.836  1.00  0.00    -0.462 OA
BRANCH  77  78
ATOM     78  C   UNL A   1      32.157  23.078  23.941  1.00  0.00     0.329 C 
ATOM     79  O   UNL A   1      31.765  23.314  25.080  1.00  0.00    -0.250 OA
BRANCH  78  80
ATOM     80  C   UNL A   1      33.025  21.851  23.530  1.00  0.00     0.200 C 
ATOM     81  C   UNL A   1      32.176  20.588  23.777  1.00  0.00     0.073 C 
ATOM     82  N   UNL A   1      34.330  21.836  24.190  1.00  0.00    -0.321 N 
ATOM     83  C   UNL A   1      32.995  19.332  23.841  1.00  0.00    -0.040 A 
ATOM     84  C   UNL A   1      34.674  20.717  25.075  1.00  0.00     0.156 C 
ATOM     85  C   UNL A   1      32.498  18.101  23.404  1.00  0.00     0.004 A 
ATOM     86  C   UNL A   1      34.243  19.403  24.474  1.00  0.00    -0.025 A 
ATOM     87  C   UNL A   1      33.256  16.943  23.572  1.00  0.00     0.000 A 
ATOM     88  C   UNL A   1      35.009  18.242  24.611  1.00  0.00     0.006 A 
ATOM     89  C   UNL A   1      34.514  17.015  24.166  1.00  0.00     0.000 A 
BRANCH  82  90
ATOM     90  C   UNL A   1      35.158  22.927  24.129  1.00  0.00     0.261 C 
ATOM     91  O   UNL A   1      35.631  23.290  23.047  1.00  0.00    -0.271 OA
BRANCH  90  92
ATOM     92  C   UNL A   1      35.497  23.708  25.436  1.00  0.00     0.329 C 
BRANCH  92  93
ATOM     93  O   UNL A   1      36.727  24.390  25.748  1.00  0.00    -0.484 OA
BRANCH  93  94
ATOM     94  C   UNL A   1      37.848  23.590  26.074  1.00  0.00     0.120 A 
ATOM     95  C   UNL A   1      38.448  21.703  25.623  1.00  0.00     0.046 A 
ATOM     96  C   UNL A   1      38.896  24.512  27.231  1.00  0.00     0.046 A 
ATOM     97  C   UNL A   1      39.972  21.073  26.331  1.00  0.00     0.004 A 
ATOM     98  C   UNL A   1      40.405  23.773  27.787  1.00  0.00     0.004 A 
ATOM     99  C   UNL A   1      40.910  22.132  27.350  1.00  0.00     0.000 A 
ENDBRANCH  93  94
ENDBRANCH  92  93
ENDBRANCH  90  92
ENDBRANCH  82  90
ENDBRANCH  78  80
ENDBRANCH  77  78
ENDBRANCH  76  77
ENDBRANCH  75  76
ENDBRANCH  74  75
ENDBRANCH   1  74
TORSDOF 24
ENDMDL
