MODEL 1
REMARK VINA RESULT:     -10.5      0.000      0.000
REMARK SMILES C[C@H]1CC[C@@H]([C@@H](Cc2ccccc2)C(=O)OCCOCCOCCOC(=O)c2ccc(-c3c4nc(c(-c5cccc(S(=O)(=O)[O-])c5F)c5ccc([nH]5)c(-c5cccc(S(=O)(=O)[O-])c5F)c5nc(c(-c6cccc(S(=O)(=O)[O-])c6F)c6ccc3[nH]6)C=C5)C=C4)cc2)C[C@@H]1C
REMARK SMILES IDX 21 1 20 2 19 3 18 4 17 5 16 6 14 7 15 8 6 9 5 10 1 11 2 12
REMARK SMILES IDX 3 13 92 14 4 15 91 16 93 17 7 18 8 19 9 20 13 21 10 22 12 23
REMARK SMILES IDX 11 24 22 25 23 26 24 27 25 28 26 29 27 30 28 31 29 32 90 33
REMARK SMILES IDX 30 34 89 35 31 36 32 37 33 38 83 39 34 40 88 41 82 42 84 43
REMARK SMILES IDX 35 44 87 45 81 46 80 47 36 49 68 50 48 51 67 52 49 53 52 54
REMARK SMILES IDX 66 55 85 56 50 57 51 58 65 60 86 61 53 62 37 63 38 64 46 65
REMARK SMILES IDX 39 66 41 67 47 68 40 69 42 70 43 71 44 72 45 73 69 74 70 75
REMARK SMILES IDX 78 76 71 77 73 78 79 79 72 80 74 81 75 82 76 83 77 84 54 85
REMARK SMILES IDX 55 86 63 87 56 88 58 89 64 90 57 91 59 92 60 93 61 94 62 95
REMARK H PARENT 84 48 52 59
REMARK Flexibility Score: inf
ROOT
ATOM      1  C   UNL A   1      31.883  29.731  25.636  1.00  0.00     0.188 C 
ENDROOT
BRANCH   1   2
ATOM      2  C   UNL A   1      30.841  30.104  24.565  1.00  0.00     0.188 C 
BRANCH   2   3
ATOM      3  O   UNL A   1      30.387  29.094  23.674  1.00  0.00    -0.376 OA
BRANCH   3   4
ATOM      4  C   UNL A   1      31.306  28.557  22.743  1.00  0.00     0.202 C 
BRANCH   4   5
ATOM      5  C   UNL A   1      31.545  27.047  22.755  1.00  0.00     0.261 C 
BRANCH   5   6
ATOM      6  O   UNL A   1      32.906  26.573  22.900  1.00  0.00    -0.463 OA
BRANCH   6   7
ATOM      7  C   UNL A   1      33.213  25.427  22.231  1.00  0.00     0.309 C 
ATOM      8  O   UNL A   1      33.293  25.350  21.009  1.00  0.00    -0.252 OA
BRANCH   7   9
ATOM      9  C   UNL A   1      33.285  24.174  23.114  1.00  0.00     0.107 C 
BRANCH   9  10
ATOM     10  C   UNL A   1      31.927  23.391  23.292  1.00  0.00     0.004 C 
ATOM     11  C   UNL A   1      33.424  20.372  25.948  1.00  0.00     0.008 C 
ATOM     12  C   UNL A   1      32.270  21.027  25.164  1.00  0.00    -0.011 C 
ATOM     13  C   UNL A   1      32.120  22.470  25.675  1.00  0.00     0.004 C 
ATOM     14  C   UNL A   1      32.533  20.928  23.648  1.00  0.00    -0.011 C 
ATOM     15  C   UNL A   1      31.362  23.383  24.730  1.00  0.00     0.005 C 
ATOM     16  C   UNL A   1      31.823  21.957  22.763  1.00  0.00     0.008 C 
ATOM     17  C   UNL A   1      32.357  19.509  23.096  1.00  0.00     0.008 C 
ENDBRANCH   9  10
BRANCH   9  18
ATOM     18  C   UNL A   1      34.665  23.477  22.863  1.00  0.00     0.051 C 
BRANCH  18  19
ATOM     19  C   UNL A   1      35.556  23.139  24.048  1.00  0.00    -0.047 A 
ATOM     20  C   UNL A   1      35.801  24.063  25.065  1.00  0.00     0.004 A 
ATOM     21  C   UNL A   1      36.180  21.891  24.166  1.00  0.00     0.004 A 
ATOM     22  C   UNL A   1      36.847  23.877  25.971  1.00  0.00     0.000 A 
ATOM     23  C   UNL A   1      37.240  21.699  25.054  1.00  0.00     0.000 A 
ATOM     24  C   UNL A   1      37.608  22.716  25.924  1.00  0.00     0.000 A 
ENDBRANCH  18  19
ENDBRANCH   9  18
ENDBRANCH   7   9
ENDBRANCH   6   7
ENDBRANCH   5   6
ENDBRANCH   4   5
ENDBRANCH   3   4
ENDBRANCH   2   3
ENDBRANCH   1   2
BRANCH   1  25
ATOM     25  O   UNL A   1      32.152  30.774  26.553  1.00  0.00    -0.376 OA
BRANCH  25  26
ATOM     26  C   UNL A   1      31.272  31.879  26.501  1.00  0.00     0.202 C 
BRANCH  26  27
ATOM     27  C   UNL A   1      31.970  33.197  26.860  1.00  0.00     0.261 C 
BRANCH  27  28
ATOM     28  O   UNL A   1      32.971  33.109  27.895  1.00  0.00    -0.460 OA
BRANCH  28  29
ATOM     29  C   UNL A   1      34.154  33.744  27.688  1.00  0.00     0.338 C 
ATOM     30  O   UNL A   1      34.302  34.884  27.307  1.00  0.00    -0.246 OA
BRANCH  29  31
ATOM     31  C   UNL A   1      35.230  32.889  28.270  1.00  0.00     0.060 A 
ATOM     32  C   UNL A   1      34.922  31.573  28.656  1.00  0.00     0.016 A 
ATOM     33  C   UNL A   1      36.542  33.351  28.371  1.00  0.00     0.016 A 
ATOM     34  C   UNL A   1      35.925  30.720  29.138  1.00  0.00     0.010 A 
ATOM     35  C   UNL A   1      37.536  32.506  28.879  1.00  0.00     0.010 A 
ATOM     36  C   UNL A   1      37.237  31.190  29.279  1.00  0.00    -0.014 A 
BRANCH  36  37
ATOM     37  C   UNL A   1      38.281  30.385  29.972  1.00  0.00     0.031 A 
ATOM     38  C   UNL A   1      38.513  30.616  31.441  1.00  0.00     0.074 A 
ATOM     39  C   UNL A   1      39.063  29.510  29.312  1.00  0.00     0.049 A 
ATOM     40  N   UNL A   1      39.443  30.136  32.225  1.00  0.00    -0.248 NA
ATOM     41  C   UNL A   1      37.565  31.519  32.111  1.00  0.00     0.031 C 
ATOM     42  C   UNL A   1      38.938  29.160  27.900  1.00  0.00     0.029 A 
ATOM     43  N   UNL A   1      40.147  28.784  29.747  1.00  0.00    -0.354 N 
ATOM     44  C   UNL A   1      39.221  30.708  33.472  1.00  0.00     0.074 A 
ATOM     45  C   UNL A   1      38.068  31.574  33.336  1.00  0.00     0.031 C 
ATOM     46  C   UNL A   1      39.928  28.310  27.574  1.00  0.00     0.029 A 
ATOM     47  C   UNL A   1      40.781  28.087  28.743  1.00  0.00     0.049 A 
ATOM     48  H   UNL A   1      40.442  28.764  30.686  1.00  0.00     0.167 HD
ATOM     49  C   UNL A   1      39.907  30.532  34.627  1.00  0.00     0.034 A 
ATOM     50  C   UNL A   1      41.932  27.382  28.755  1.00  0.00     0.034 A 
ATOM     51  C   UNL A   1      41.055  29.676  34.769  1.00  0.00     0.049 A 
ATOM     52  C   UNL A   1      42.728  27.264  30.032  1.00  0.00     0.074 A 
ATOM     53  C   UNL A   1      41.782  29.396  35.912  1.00  0.00     0.029 A 
ATOM     54  N   UNL A   1      41.665  28.988  33.730  1.00  0.00    -0.354 N 
ATOM     55  N   UNL A   1      42.446  27.716  31.230  1.00  0.00    -0.248 NA
ATOM     56  C   UNL A   1      43.998  26.521  29.960  1.00  0.00     0.031 C 
ATOM     57  C   UNL A   1      42.861  28.577  35.556  1.00  0.00     0.029 A 
ATOM     58  C   UNL A   1      42.780  28.312  34.199  1.00  0.00     0.049 A 
ATOM     59  H   UNL A   1      41.351  28.981  32.798  1.00  0.00     0.167 HD
ATOM     60  C   UNL A   1      43.483  27.291  32.057  1.00  0.00     0.074 A 
ATOM     61  C   UNL A   1      44.391  26.527  31.227  1.00  0.00     0.031 C 
ATOM     62  C   UNL A   1      43.668  27.522  33.382  1.00  0.00     0.034 A 
BRANCH  49  63
ATOM     63  C   UNL A   1      39.427  31.296  35.835  1.00  0.00     0.023 A 
ATOM     64  C   UNL A   1      38.331  30.816  36.582  1.00  0.00     0.012 A 
ATOM     65  C   UNL A   1      40.067  32.485  36.237  1.00  0.00     0.148 A 
ATOM     66  C   UNL A   1      37.845  31.535  37.675  1.00  0.00     0.002 A 
ATOM     67  C   UNL A   1      39.609  33.169  37.357  1.00  0.00     0.091 A 
ATOM     68  F   UNL A   1      41.094  32.939  35.506  1.00  0.00    -0.205 F 
ATOM     69  C   UNL A   1      38.488  32.706  38.066  1.00  0.00     0.022 A 
BRANCH  67  70
ATOM     70  S   UNL A   1      40.420  34.642  37.987  1.00  0.00     0.127 S 
ATOM     71  O   UNL A   1      41.737  34.121  38.350  1.00  0.00    -0.237 OA
ATOM     72  O   UNL A   1      40.416  35.521  36.815  1.00  0.00    -0.237 OA
ATOM     73  O   UNL A   1      39.600  35.108  39.095  1.00  0.00    -0.744 OA
ENDBRANCH  67  70
ENDBRANCH  49  63
BRANCH  50  74
ATOM     74  C   UNL A   1      42.398  26.700  27.512  1.00  0.00     0.023 A 
ATOM     75  C   UNL A   1      43.067  27.452  26.526  1.00  0.00     0.012 A 
ATOM     76  C   UNL A   1      42.203  25.320  27.309  1.00  0.00     0.148 A 
ATOM     77  C   UNL A   1      43.522  26.845  25.355  1.00  0.00     0.002 A 
ATOM     78  C   UNL A   1      42.703  24.711  26.163  1.00  0.00     0.091 A 
ATOM     79  F   UNL A   1      41.546  24.627  28.250  1.00  0.00    -0.205 F 
ATOM     80  C   UNL A   1      43.350  25.474  25.179  1.00  0.00     0.022 A 
BRANCH  78  81
ATOM     81  S   UNL A   1      42.625  22.937  25.889  1.00  0.00     0.127 S 
ATOM     82  O   UNL A   1      43.132  22.823  24.524  1.00  0.00    -0.237 OA
ATOM     83  O   UNL A   1      43.528  22.438  26.926  1.00  0.00    -0.237 OA
ATOM     84  O   UNL A   1      41.228  22.568  26.069  1.00  0.00    -0.744 OA
ENDBRANCH  78  81
ENDBRANCH  50  74
BRANCH  62  85
ATOM     85  C   UNL A   1      44.890  26.930  34.044  1.00  0.00     0.023 A 
ATOM     86  C   UNL A   1      46.017  27.739  34.289  1.00  0.00     0.012 A 
ATOM     87  C   UNL A   1      44.888  25.597  34.504  1.00  0.00     0.148 A 
ATOM     88  C   UNL A   1      47.131  27.226  34.956  1.00  0.00     0.002 A 
ATOM     89  C   UNL A   1      45.981  25.106  35.210  1.00  0.00     0.091 A 
ATOM     90  F   UNL A   1      43.812  24.837  34.252  1.00  0.00    -0.205 F 
ATOM     91  C   UNL A   1      47.108  25.916  35.426  1.00  0.00     0.022 A 
BRANCH  89  92
ATOM     92  S   UNL A   1      46.011  23.462  35.938  1.00  0.00     0.127 S 
ATOM     93  O   UNL A   1      46.306  22.627  34.775  1.00  0.00    -0.237 OA
ATOM     94  O   UNL A   1      47.105  23.573  36.902  1.00  0.00    -0.237 OA
ATOM     95  O   UNL A   1      44.696  23.258  36.529  1.00  0.00    -0.744 OA
ENDBRANCH  89  92
ENDBRANCH  62  85
ENDBRANCH  36  37
ENDBRANCH  29  31
ENDBRANCH  28  29
ENDBRANCH  27  28
ENDBRANCH  26  27
ENDBRANCH  25  26
ENDBRANCH   1  25
TORSDOF 23
ENDMDL
MODEL 2
REMARK VINA RESULT:     -10.3      2.194      3.459
REMARK SMILES C[C@H]1CC[C@@H]([C@@H](Cc2ccccc2)C(=O)OCCOCCOCCOC(=O)c2ccc(-c3c4nc(c(-c5cccc(S(=O)(=O)[O-])c5F)c5ccc([nH]5)c(-c5cccc(S(=O)(=O)[O-])c5F)c5nc(c(-c6cccc(S(=O)(=O)[O-])c6F)c6ccc3[nH]6)C=C5)C=C4)cc2)C[C@@H]1C
REMARK SMILES IDX 21 1 20 2 19 3 18 4 17 5 16 6 14 7 15 8 6 9 5 10 1 11 2 12
REMARK SMILES IDX 3 13 92 14 4 15 91 16 93 17 7 18 8 19 9 20 13 21 10 22 12 23
REMARK SMILES IDX 11 24 22 25 23 26 24 27 25 28 26 29 27 30 28 31 29 32 90 33
REMARK SMILES IDX 30 34 89 35 31 36 32 37 33 38 83 39 34 40 88 41 82 42 84 43
REMARK SMILES IDX 35 44 87 45 81 46 80 47 36 49 68 50 48 51 67 52 49 53 52 54
REMARK SMILES IDX 66 55 85 56 50 57 51 58 65 60 86 61 53 62 37 63 38 64 46 65
REMARK SMILES IDX 39 66 41 67 47 68 40 69 42 70 43 71 44 72 45 73 69 74 70 75
REMARK SMILES IDX 78 76 71 77 73 78 79 79 72 80 74 81 75 82 76 83 77 84 54 85
REMARK SMILES IDX 55 86 63 87 56 88 58 89 64 90 57 91 59 92 60 93 61 94 62 95
REMARK H PARENT 84 48 52 59
REMARK Flexibility Score: inf
ROOT
ATOM      1  C   UNL A   1      30.952  29.300  23.950  1.00  0.00     0.188 C 
ENDROOT
BRANCH   1   2
ATOM      2  C   UNL A   1      29.771  28.413  23.512  1.00  0.00     0.188 C 
BRANCH   2   3
ATOM      3  O   UNL A   1      30.040  27.255  22.734  1.00  0.00    -0.376 OA
BRANCH   3   4
ATOM      4  C   UNL A   1      30.997  26.331  23.212  1.00  0.00     0.202 C 
BRANCH   4   5
ATOM      5  C   UNL A   1      30.605  25.427  24.382  1.00  0.00     0.261 C 
BRANCH   5   6
ATOM      6  O   UNL A   1      31.318  25.583  25.633  1.00  0.00    -0.463 OA
BRANCH   6   7
ATOM      7  C   UNL A   1      31.766  24.434  26.212  1.00  0.00     0.309 C 
ATOM      8  O   UNL A   1      31.470  24.081  27.349  1.00  0.00    -0.252 OA
BRANCH   7   9
ATOM      9  C   UNL A   1      32.824  23.681  25.395  1.00  0.00     0.107 C 
BRANCH   9  10
ATOM     10  C   UNL A   1      33.961  24.576  24.767  1.00  0.00     0.004 C 
ATOM     11  C   UNL A   1      36.861  21.452  24.280  1.00  0.00     0.008 C 
ATOM     12  C   UNL A   1      36.420  22.920  24.119  1.00  0.00    -0.011 C 
ATOM     13  C   UNL A   1      35.174  22.936  23.217  1.00  0.00     0.004 C 
ATOM     14  C   UNL A   1      36.195  23.562  25.503  1.00  0.00    -0.011 C 
ATOM     15  C   UNL A   1      34.356  24.209  23.319  1.00  0.00     0.005 C 
ATOM     16  C   UNL A   1      35.263  24.777  25.548  1.00  0.00     0.008 C 
ATOM     17  C   UNL A   1      37.498  23.836  26.260  1.00  0.00     0.008 C 
ENDBRANCH   9  10
BRANCH   9  18
ATOM     18  C   UNL A   1      33.086  22.301  26.088  1.00  0.00     0.051 C 
BRANCH  18  19
ATOM     19  C   UNL A   1      32.879  21.017  25.298  1.00  0.00    -0.047 A 
ATOM     20  C   UNL A   1      33.375  19.793  25.749  1.00  0.00     0.004 A 
ATOM     21  C   UNL A   1      32.191  21.008  24.079  1.00  0.00     0.004 A 
ATOM     22  C   UNL A   1      33.463  18.693  24.895  1.00  0.00     0.000 A 
ATOM     23  C   UNL A   1      32.287  19.921  23.208  1.00  0.00     0.000 A 
ATOM     24  C   UNL A   1      32.971  18.779  23.599  1.00  0.00     0.000 A 
ENDBRANCH  18  19
ENDBRANCH   9  18
ENDBRANCH   7   9
ENDBRANCH   6   7
ENDBRANCH   5   6
ENDBRANCH   4   5
ENDBRANCH   3   4
ENDBRANCH   2   3
ENDBRANCH   1   2
BRANCH   1  25
ATOM     25  O   UNL A   1      31.127  29.360  25.352  1.00  0.00    -0.376 OA
BRANCH  25  26
ATOM     26  C   UNL A   1      31.765  30.522  25.842  1.00  0.00     0.202 C 
BRANCH  26  27
ATOM     27  C   UNL A   1      32.579  30.248  27.112  1.00  0.00     0.261 C 
BRANCH  27  28
ATOM     28  O   UNL A   1      34.008  30.390  26.979  1.00  0.00    -0.460 OA
BRANCH  28  29
ATOM     29  C   UNL A   1      34.649  31.204  27.858  1.00  0.00     0.338 C 
ATOM     30  O   UNL A   1      34.207  32.215  28.356  1.00  0.00    -0.246 OA
BRANCH  29  31
ATOM     31  C   UNL A   1      35.880  30.493  28.311  1.00  0.00     0.060 A 
ATOM     32  C   UNL A   1      35.852  29.788  29.527  1.00  0.00     0.016 A 
ATOM     33  C   UNL A   1      37.027  30.460  27.518  1.00  0.00     0.016 A 
ATOM     34  C   UNL A   1      36.967  29.048  29.945  1.00  0.00     0.010 A 
ATOM     35  C   UNL A   1      38.149  29.744  27.953  1.00  0.00     0.010 A 
ATOM     36  C   UNL A   1      38.136  29.044  29.173  1.00  0.00    -0.014 A 
BRANCH  36  37
ATOM     37  C   UNL A   1      39.400  28.441  29.680  1.00  0.00     0.031 A 
ATOM     38  C   UNL A   1      40.077  29.074  30.866  1.00  0.00     0.074 A 
ATOM     39  C   UNL A   1      39.986  27.394  29.070  1.00  0.00     0.049 A 
ATOM     40  N   UNL A   1      41.240  28.812  31.402  1.00  0.00    -0.248 NA
ATOM     41  C   UNL A   1      39.334  30.156  31.532  1.00  0.00     0.031 C 
ATOM     42  C   UNL A   1      39.439  26.660  27.932  1.00  0.00     0.029 A 
ATOM     43  N   UNL A   1      41.200  26.792  29.308  1.00  0.00    -0.354 N 
ATOM     44  C   UNL A   1      41.392  29.721  32.442  1.00  0.00     0.074 A 
ATOM     45  C   UNL A   1      40.200  30.543  32.458  1.00  0.00     0.031 C 
ATOM     46  C   UNL A   1      40.328  25.726  27.549  1.00  0.00     0.029 A 
ATOM     47  C   UNL A   1      41.524  25.822  28.387  1.00  0.00     0.049 A 
ATOM     48  H   UNL A   1      41.783  27.033  30.065  1.00  0.00     0.167 HD
ATOM     49  C   UNL A   1      42.424  29.862  33.309  1.00  0.00     0.034 A 
ATOM     50  C   UNL A   1      42.664  25.119  28.216  1.00  0.00     0.034 A 
ATOM     51  C   UNL A   1      43.613  29.052  33.298  1.00  0.00     0.049 A 
ATOM     52  C   UNL A   1      43.834  25.347  29.141  1.00  0.00     0.074 A 
ATOM     53  C   UNL A   1      44.686  29.089  34.170  1.00  0.00     0.029 A 
ATOM     54  N   UNL A   1      43.901  28.081  32.351  1.00  0.00    -0.354 N 
ATOM     55  N   UNL A   1      43.923  26.129  30.189  1.00  0.00    -0.248 NA
ATOM     56  C   UNL A   1      45.061  24.581  28.865  1.00  0.00     0.031 C 
ATOM     57  C   UNL A   1      45.647  28.174  33.722  1.00  0.00     0.029 A 
ATOM     58  C   UNL A   1      45.153  27.535  32.596  1.00  0.00     0.049 A 
ATOM     59  H   UNL A   1      43.306  27.817  31.614  1.00  0.00     0.167 HD
ATOM     60  C   UNL A   1      45.197  25.929  30.714  1.00  0.00     0.074 A 
ATOM     61  C   UNL A   1      45.840  24.937  29.879  1.00  0.00     0.031 C 
ATOM     62  C   UNL A   1      45.782  26.523  31.786  1.00  0.00     0.034 A 
BRANCH  49  63
ATOM     63  C   UNL A   1      42.306  30.951  34.346  1.00  0.00     0.023 A 
ATOM     64  C   UNL A   1      41.808  30.650  35.630  1.00  0.00     0.012 A 
ATOM     65  C   UNL A   1      42.700  32.272  34.052  1.00  0.00     0.148 A 
ATOM     66  C   UNL A   1      41.650  31.654  36.586  1.00  0.00     0.002 A 
ATOM     67  C   UNL A   1      42.587  33.258  35.025  1.00  0.00     0.091 A 
ATOM     68  F   UNL A   1      43.153  32.546  32.821  1.00  0.00    -0.205 F 
ATOM     69  C   UNL A   1      42.045  32.955  36.285  1.00  0.00     0.022 A 
BRANCH  67  70
ATOM     70  S   UNL A   1      43.145  34.944  34.761  1.00  0.00     0.127 S 
ATOM     71  O   UNL A   1      42.766  35.580  36.021  1.00  0.00    -0.237 OA
ATOM     72  O   UNL A   1      44.586  34.766  34.578  1.00  0.00    -0.237 OA
ATOM     73  O   UNL A   1      42.439  35.418  33.580  1.00  0.00    -0.744 OA
ENDBRANCH  67  70
ENDBRANCH  49  63
BRANCH  50  74
ATOM     74  C   UNL A   1      42.751  24.099  27.129  1.00  0.00     0.023 A 
ATOM     75  C   UNL A   1      43.476  24.402  25.960  1.00  0.00     0.012 A 
ATOM     76  C   UNL A   1      42.142  22.835  27.253  1.00  0.00     0.148 A 
ATOM     77  C   UNL A   1      43.583  23.469  24.928  1.00  0.00     0.002 A 
ATOM     78  C   UNL A   1      42.295  21.892  26.243  1.00  0.00     0.091 A 
ATOM     79  F   UNL A   1      41.440  22.575  28.364  1.00  0.00    -0.205 F 
ATOM     80  C   UNL A   1      43.004  22.211  25.074  1.00  0.00     0.022 A 
BRANCH  78  81
ATOM     81  S   UNL A   1      41.676  20.211  26.377  1.00  0.00     0.127 S 
ATOM     82  O   UNL A   1      42.336  19.557  25.250  1.00  0.00    -0.237 OA
ATOM     83  O   UNL A   1      42.174  19.816  27.695  1.00  0.00    -0.237 OA
ATOM     84  O   UNL A   1      40.226  20.312  26.279  1.00  0.00    -0.744 OA
ENDBRANCH  78  81
ENDBRANCH  50  74
BRANCH  62  85
ATOM     85  C   UNL A   1      47.190  26.111  32.147  1.00  0.00     0.023 A 
ATOM     86  C   UNL A   1      48.287  26.746  31.532  1.00  0.00     0.012 A 
ATOM     87  C   UNL A   1      47.426  25.159  33.160  1.00  0.00     0.148 A 
ATOM     88  C   UNL A   1      49.594  26.422  31.899  1.00  0.00     0.002 A 
ATOM     89  C   UNL A   1      48.730  24.876  33.555  1.00  0.00     0.091 A 
ATOM     90  F   UNL A   1      46.372  24.555  33.728  1.00  0.00    -0.205 F 
ATOM     91  C   UNL A   1      49.815  25.498  32.917  1.00  0.00     0.022 A 
BRANCH  89  92
ATOM     92  S   UNL A   1      49.116  23.770  34.919  1.00  0.00     0.127 S 
ATOM     93  O   UNL A   1      48.506  22.519  34.470  1.00  0.00    -0.237 OA
ATOM     94  O   UNL A   1      50.579  23.772  34.912  1.00  0.00    -0.237 OA
ATOM     95  O   UNL A   1      48.512  24.364  36.104  1.00  0.00    -0.744 OA
ENDBRANCH  89  92
ENDBRANCH  62  85
ENDBRANCH  36  37
ENDBRANCH  29  31
ENDBRANCH  28  29
ENDBRANCH  27  28
ENDBRANCH  26  27
ENDBRANCH  25  26
ENDBRANCH   1  25
TORSDOF 23
ENDMDL
MODEL 3
REMARK VINA RESULT:     -10.3      2.979      4.223
REMARK SMILES C[C@H]1CC[C@@H]([C@@H](Cc2ccccc2)C(=O)OCCOCCOCCOC(=O)c2ccc(-c3c4nc(c(-c5cccc(S(=O)(=O)[O-])c5F)c5ccc([nH]5)c(-c5cccc(S(=O)(=O)[O-])c5F)c5nc(c(-c6cccc(S(=O)(=O)[O-])c6F)c6ccc3[nH]6)C=C5)C=C4)cc2)C[C@@H]1C
REMARK SMILES IDX 21 1 20 2 19 3 18 4 17 5 16 6 14 7 15 8 6 9 5 10 1 11 2 12
REMARK SMILES IDX 3 13 92 14 4 15 91 16 93 17 7 18 8 19 9 20 13 21 10 22 12 23
REMARK SMILES IDX 11 24 22 25 23 26 24 27 25 28 26 29 27 30 28 31 29 32 90 33
REMARK SMILES IDX 30 34 89 35 31 36 32 37 33 38 83 39 34 40 88 41 82 42 84 43
REMARK SMILES IDX 35 44 87 45 81 46 80 47 36 49 68 50 48 51 67 52 49 53 52 54
REMARK SMILES IDX 66 55 85 56 50 57 51 58 65 60 86 61 53 62 37 63 38 64 46 65
REMARK SMILES IDX 39 66 41 67 47 68 40 69 42 70 43 71 44 72 45 73 69 74 70 75
REMARK SMILES IDX 78 76 71 77 73 78 79 79 72 80 74 81 75 82 76 83 77 84 54 85
REMARK SMILES IDX 55 86 63 87 56 88 58 89 64 90 57 91 59 92 60 93 61 94 62 95
REMARK H PARENT 84 48 52 59
REMARK Flexibility Score: inf
ROOT
ATOM      1  C   UNL A   1      30.938  29.382  23.884  1.00  0.00     0.188 C 
ENDROOT
BRANCH   1   2
ATOM      2  C   UNL A   1      29.771  28.480  23.439  1.00  0.00     0.188 C 
BRANCH   2   3
ATOM      3  O   UNL A   1      30.053  27.353  22.622  1.00  0.00    -0.376 OA
BRANCH   3   4
ATOM      4  C   UNL A   1      31.069  26.460  23.036  1.00  0.00     0.202 C 
BRANCH   4   5
ATOM      5  C   UNL A   1      30.678  25.295  23.946  1.00  0.00     0.261 C 
BRANCH   5   6
ATOM      6  O   UNL A   1      30.741  25.498  25.378  1.00  0.00    -0.463 OA
BRANCH   6   7
ATOM      7  C   UNL A   1      31.479  24.591  26.077  1.00  0.00     0.309 C 
ATOM      8  O   UNL A   1      31.415  24.450  27.294  1.00  0.00    -0.252 OA
BRANCH   7   9
ATOM      9  C   UNL A   1      32.542  23.861  25.247  1.00  0.00     0.107 C 
BRANCH   9  10
ATOM     10  C   UNL A   1      33.713  24.764  24.699  1.00  0.00     0.004 C 
ATOM     11  C   UNL A   1      36.596  21.625  24.210  1.00  0.00     0.008 C 
ATOM     12  C   UNL A   1      36.179  23.103  24.087  1.00  0.00    -0.011 C 
ATOM     13  C   UNL A   1      34.970  23.168  23.138  1.00  0.00     0.004 C 
ATOM     14  C   UNL A   1      35.905  23.696  25.484  1.00  0.00    -0.011 C 
ATOM     15  C   UNL A   1      34.162  24.446  23.255  1.00  0.00     0.005 C 
ATOM     16  C   UNL A   1      34.985  24.920  25.538  1.00  0.00     0.008 C 
ATOM     17  C   UNL A   1      37.180  23.926  26.302  1.00  0.00     0.008 C 
ENDBRANCH   9  10
BRANCH   9  18
ATOM     18  C   UNL A   1      32.759  22.440  25.869  1.00  0.00     0.051 C 
BRANCH  18  19
ATOM     19  C   UNL A   1      32.540  21.206  25.005  1.00  0.00    -0.047 A 
ATOM     20  C   UNL A   1      32.765  19.920  25.499  1.00  0.00     0.004 A 
ATOM     21  C   UNL A   1      32.116  21.306  23.675  1.00  0.00     0.004 A 
ATOM     22  C   UNL A   1      32.871  18.826  24.638  1.00  0.00     0.000 A 
ATOM     23  C   UNL A   1      32.235  20.225  22.800  1.00  0.00     0.000 A 
ATOM     24  C   UNL A   1      32.665  18.994  23.274  1.00  0.00     0.000 A 
ENDBRANCH  18  19
ENDBRANCH   9  18
ENDBRANCH   7   9
ENDBRANCH   6   7
ENDBRANCH   5   6
ENDBRANCH   4   5
ENDBRANCH   3   4
ENDBRANCH   2   3
ENDBRANCH   1   2
BRANCH   1  25
ATOM     25  O   UNL A   1      31.328  29.183  25.229  1.00  0.00    -0.376 OA
BRANCH  25  26
ATOM     26  C   UNL A   1      31.861  30.315  25.886  1.00  0.00     0.202 C 
BRANCH  26  27
ATOM     27  C   UNL A   1      32.756  29.931  27.072  1.00  0.00     0.261 C 
BRANCH  27  28
ATOM     28  O   UNL A   1      34.144  30.305  26.950  1.00  0.00    -0.460 OA
BRANCH  28  29
ATOM     29  C   UNL A   1      34.691  31.045  27.950  1.00  0.00     0.338 C 
ATOM     30  O   UNL A   1      34.146  31.931  28.570  1.00  0.00    -0.246 OA
BRANCH  29  31
ATOM     31  C   UNL A   1      35.978  30.396  28.335  1.00  0.00     0.060 A 
ATOM     32  C   UNL A   1      36.069  29.741  29.575  1.00  0.00     0.016 A 
ATOM     33  C   UNL A   1      37.063  30.371  27.458  1.00  0.00     0.016 A 
ATOM     34  C   UNL A   1      37.240  29.059  29.934  1.00  0.00     0.010 A 
ATOM     35  C   UNL A   1      38.241  29.713  27.832  1.00  0.00     0.010 A 
ATOM     36  C   UNL A   1      38.346  29.063  29.075  1.00  0.00    -0.014 A 
BRANCH  36  37
ATOM     37  C   UNL A   1      39.667  28.526  29.506  1.00  0.00     0.031 A 
ATOM     38  C   UNL A   1      40.431  29.261  30.575  1.00  0.00     0.074 A 
ATOM     39  C   UNL A   1      40.224  27.448  28.923  1.00  0.00     0.049 A 
ATOM     40  N   UNL A   1      41.644  29.064  31.019  1.00  0.00    -0.248 NA
ATOM     41  C   UNL A   1      39.723  30.375  31.226  1.00  0.00     0.031 C 
ATOM     42  C   UNL A   1      39.595  26.620  27.899  1.00  0.00     0.029 A 
ATOM     43  N   UNL A   1      41.470  26.891  29.092  1.00  0.00    -0.354 N 
ATOM     44  C   UNL A   1      41.865  30.052  31.971  1.00  0.00     0.074 A 
ATOM     45  C   UNL A   1      40.658  30.849  32.036  1.00  0.00     0.031 C 
ATOM     46  C   UNL A   1      40.471  25.677  27.505  1.00  0.00     0.029 A 
ATOM     47  C   UNL A   1      41.735  25.861  28.219  1.00  0.00     0.049 A 
ATOM     48  H   UNL A   1      42.112  27.200  29.773  1.00  0.00     0.167 HD
ATOM     49  C   UNL A   1      42.967  30.279  32.727  1.00  0.00     0.034 A 
ATOM     50  C   UNL A   1      42.873  25.170  27.996  1.00  0.00     0.034 A 
ATOM     51  C   UNL A   1      44.172  29.495  32.665  1.00  0.00     0.049 A 
ATOM     52  C   UNL A   1      44.116  25.491  28.790  1.00  0.00     0.074 A 
ATOM     53  C   UNL A   1      45.318  29.619  33.430  1.00  0.00     0.029 A 
ATOM     54  N   UNL A   1      44.400  28.460  31.770  1.00  0.00    -0.354 N 
ATOM     55  N   UNL A   1      44.278  26.352  29.765  1.00  0.00    -0.248 NA
ATOM     56  C   UNL A   1      45.333  24.731  28.459  1.00  0.00     0.031 C 
ATOM     57  C   UNL A   1      46.259  28.692  32.963  1.00  0.00     0.029 A 
ATOM     58  C   UNL A   1      45.682  27.961  31.938  1.00  0.00     0.049 A 
ATOM     59  H   UNL A   1      43.747  28.130  31.113  1.00  0.00     0.167 HD
ATOM     60  C   UNL A   1      45.600  26.217  30.183  1.00  0.00     0.074 A 
ATOM     61  C   UNL A   1      46.191  25.178  29.368  1.00  0.00     0.031 C 
ATOM     62  C   UNL A   1      46.263  26.902  31.150  1.00  0.00     0.034 A 
BRANCH  49  63
ATOM     63  C   UNL A   1      42.914  31.441  33.687  1.00  0.00     0.023 A 
ATOM     64  C   UNL A   1      43.348  32.717  33.272  1.00  0.00     0.012 A 
ATOM     65  C   UNL A   1      42.425  31.272  34.997  1.00  0.00     0.148 A 
ATOM     66  C   UNL A   1      43.349  33.792  34.161  1.00  0.00     0.002 A 
ATOM     67  C   UNL A   1      42.382  32.359  35.862  1.00  0.00     0.091 A 
ATOM     68  F   UNL A   1      42.035  30.049  35.383  1.00  0.00    -0.205 F 
ATOM     69  C   UNL A   1      42.859  33.614  35.452  1.00  0.00     0.022 A 
BRANCH  67  70
ATOM     70  S   UNL A   1      41.694  32.248  37.517  1.00  0.00     0.127 S 
ATOM     71  O   UNL A   1      40.299  31.913  37.235  1.00  0.00    -0.237 OA
ATOM     72  O   UNL A   1      42.475  31.158  38.104  1.00  0.00    -0.237 OA
ATOM     73  O   UNL A   1      41.916  33.549  38.131  1.00  0.00    -0.744 OA
ENDBRANCH  67  70
ENDBRANCH  49  63
BRANCH  50  74
ATOM     74  C   UNL A   1      42.889  24.072  26.984  1.00  0.00     0.023 A 
ATOM     75  C   UNL A   1      43.561  24.275  25.762  1.00  0.00     0.012 A 
ATOM     76  C   UNL A   1      42.266  22.833  27.229  1.00  0.00     0.148 A 
ATOM     77  C   UNL A   1      43.601  23.268  24.797  1.00  0.00     0.002 A 
ATOM     78  C   UNL A   1      42.353  21.816  26.284  1.00  0.00     0.091 A 
ATOM     79  F   UNL A   1      41.615  22.668  28.388  1.00  0.00    -0.205 F 
ATOM     80  C   UNL A   1      43.008  22.036  25.062  1.00  0.00     0.022 A 
BRANCH  78  81
ATOM     81  S   UNL A   1      41.712  20.163  26.571  1.00  0.00     0.127 S 
ATOM     82  O   UNL A   1      40.271  20.400  26.597  1.00  0.00    -0.237 OA
ATOM     83  O   UNL A   1      42.197  19.448  25.390  1.00  0.00    -0.237 OA
ATOM     84  O   UNL A   1      42.295  19.723  27.831  1.00  0.00    -0.744 OA
ENDBRANCH  78  81
ENDBRANCH  50  74
BRANCH  62  85
ATOM     85  C   UNL A   1      47.708  26.547  31.409  1.00  0.00     0.023 A 
ATOM     86  C   UNL A   1      48.030  25.594  32.396  1.00  0.00     0.012 A 
ATOM     87  C   UNL A   1      48.739  27.091  30.617  1.00  0.00     0.148 A 
ATOM     88  C   UNL A   1      49.355  25.208  32.607  1.00  0.00     0.002 A 
ATOM     89  C   UNL A   1      50.051  26.666  30.800  1.00  0.00     0.091 A 
ATOM     90  F   UNL A   1      48.418  28.006  29.690  1.00  0.00    -0.205 F 
ATOM     91  C   UNL A   1      50.362  25.734  31.802  1.00  0.00     0.022 A 
BRANCH  89  92
ATOM     92  S   UNL A   1      51.407  27.214  29.753  1.00  0.00     0.127 S 
ATOM     93  O   UNL A   1      51.619  28.580  30.231  1.00  0.00    -0.237 OA
ATOM     94  O   UNL A   1      52.469  26.273  30.107  1.00  0.00    -0.237 OA
ATOM     95  O   UNL A   1      50.928  27.105  28.382  1.00  0.00    -0.744 OA
ENDBRANCH  89  92
ENDBRANCH  62  85
ENDBRANCH  36  37
ENDBRANCH  29  31
ENDBRANCH  28  29
ENDBRANCH  27  28
ENDBRANCH  26  27
ENDBRANCH  25  26
ENDBRANCH   1  25
TORSDOF 23
ENDMDL
