MODEL 1
REMARK VINA RESULT:     -12.3      0.000      0.000
REMARK SMILES Cc1ccc(C(=O)[C@@H](C)[C@H](C)C(=O)OCCOCCOCCOC(=O)c2ccc(-c3c4nc(c(-c5cccc(S(=O)(=O)[O-])c5F)c5ccc([nH]5)c(-c5cccc(S(=O)(=O)[O-])c5F)c5nc(c(-c6cccc(S(=O)(=O)[O-])c6F)c6ccc3[nH]6)C=C5)C=C4)cc2)cc1
REMARK SMILES IDX 18 1 17 2 16 3 15 4 14 5 12 6 13 7 10 8 11 9 8 10 9 11 6 12
REMARK SMILES IDX 7 13 5 14 1 15 2 16 3 17 90 18 4 19 89 20 19 21 20 22 21 23
REMARK SMILES IDX 22 24 23 25 24 26 25 27 26 28 27 29 88 30 28 31 87 32 29 33
REMARK SMILES IDX 30 34 31 35 81 36 32 37 86 38 80 39 82 40 33 41 85 42 79 43
REMARK SMILES IDX 78 44 34 46 66 47 46 48 65 49 47 50 50 51 64 52 83 53 48 54
REMARK SMILES IDX 49 55 63 57 84 58 51 59 35 60 36 61 44 62 37 63 39 64 45 65
REMARK SMILES IDX 38 66 40 67 41 68 42 69 43 70 67 71 68 72 76 73 69 74 71 75
REMARK SMILES IDX 77 76 70 77 72 78 73 79 74 80 75 81 52 82 53 83 61 84 54 85
REMARK SMILES IDX 56 86 62 87 55 88 57 89 58 90 59 91 60 92
REMARK H PARENT 82 45 50 56
REMARK Flexibility Score: inf
ROOT
ATOM      1  C   UNL A   1      33.945  33.680  28.012  1.00  0.00     0.188 C 
ENDROOT
BRANCH   1   2
ATOM      2  O   UNL A   1      33.491  32.311  27.963  1.00  0.00    -0.376 OA
BRANCH   2   3
ATOM      3  C   UNL A   1      34.115  31.138  27.372  1.00  0.00     0.202 C 
BRANCH   3   4
ATOM      4  C   UNL A   1      33.605  29.468  26.978  1.00  0.00     0.261 C 
BRANCH   4   5
ATOM      5  O   UNL A   1      32.099  28.773  26.338  1.00  0.00    -0.463 OA
BRANCH   5   6
ATOM      6  C   UNL A   1      31.398  27.507  25.977  1.00  0.00     0.309 C 
ATOM      7  O   UNL A   1      30.945  26.678  26.778  1.00  0.00    -0.252 OA
BRANCH   6   8
ATOM      8  C   UNL A   1      31.357  26.970  24.542  1.00  0.00     0.106 C 
ATOM      9  C   UNL A   1      30.021  26.816  23.829  1.00  0.00     0.021 C 
BRANCH   8  10
ATOM     10  C   UNL A   1      32.591  27.304  23.651  1.00  0.00     0.072 C 
ATOM     11  C   UNL A   1      32.394  28.532  22.714  1.00  0.00     0.017 C 
BRANCH  10  12
ATOM     12  C   UNL A   1      33.479  26.204  23.012  1.00  0.00     0.166 C 
ATOM     13  O   UNL A   1      33.787  26.324  21.819  1.00  0.00    -0.294 OA
BRANCH  12  14
ATOM     14  C   UNL A   1      34.039  25.004  23.730  1.00  0.00     0.018 A 
ATOM     15  C   UNL A   1      36.051  21.646  25.603  1.00  0.00     0.044 C 
ATOM     16  C   UNL A   1      35.313  22.799  25.010  1.00  0.00    -0.051 A 
ATOM     17  C   UNL A   1      35.022  23.977  25.710  1.00  0.00     0.004 A 
ATOM     18  C   UNL A   1      34.857  22.693  23.718  1.00  0.00     0.004 A 
ATOM     19  C   UNL A   1      34.416  25.078  25.068  1.00  0.00     0.012 A 
ATOM     20  C   UNL A   1      34.194  23.768  23.144  1.00  0.00     0.012 A 
ENDBRANCH  12  14
ENDBRANCH  10  12
ENDBRANCH   8  10
ENDBRANCH   6   8
ENDBRANCH   5   6
ENDBRANCH   4   5
ENDBRANCH   3   4
ENDBRANCH   2   3
ENDBRANCH   1   2
BRANCH   1  21
ATOM     21  C   UNL A   1      33.258  34.770  28.818  1.00  0.00     0.188 C 
BRANCH  21  22
ATOM     22  O   UNL A   1      34.116  35.207  29.841  1.00  0.00    -0.376 OA
BRANCH  22  23
ATOM     23  C   UNL A   1      34.254  34.348  30.948  1.00  0.00     0.202 C 
BRANCH  23  24
ATOM     24  C   UNL A   1      35.708  34.083  31.380  1.00  0.00     0.261 C 
BRANCH  24  25
ATOM     25  O   UNL A   1      36.426  33.275  30.414  1.00  0.00    -0.460 OA
BRANCH  25  26
ATOM     26  C   UNL A   1      36.144  31.915  30.379  1.00  0.00     0.338 C 
ATOM     27  O   UNL A   1      35.362  31.377  31.125  1.00  0.00    -0.246 OA
BRANCH  26  28
ATOM     28  C   UNL A   1      37.123  31.220  29.459  1.00  0.00     0.060 A 
ATOM     29  C   UNL A   1      37.037  29.924  28.920  1.00  0.00     0.016 A 
ATOM     30  C   UNL A   1      38.359  31.748  29.478  1.00  0.00     0.016 A 
ATOM     31  C   UNL A   1      38.231  29.088  28.669  1.00  0.00     0.010 A 
ATOM     32  C   UNL A   1      39.392  30.821  29.527  1.00  0.00     0.010 A 
ATOM     33  C   UNL A   1      39.514  29.446  29.089  1.00  0.00    -0.014 A 
BRANCH  33  34
ATOM     34  C   UNL A   1      41.003  28.454  29.040  1.00  0.00     0.031 A 
ATOM     35  C   UNL A   1      41.303  26.739  28.627  1.00  0.00     0.074 A 
ATOM     36  C   UNL A   1      42.180  29.078  29.284  1.00  0.00     0.049 A 
ATOM     37  N   UNL A   1      42.430  26.259  28.119  1.00  0.00    -0.248 NA
ATOM     38  C   UNL A   1      40.328  25.573  28.486  1.00  0.00     0.031 C 
ATOM     39  C   UNL A   1      43.558  28.617  29.068  1.00  0.00     0.029 A 
ATOM     40  N   UNL A   1      42.380  30.322  29.887  1.00  0.00    -0.354 N 
ATOM     41  C   UNL A   1      42.210  24.935  27.692  1.00  0.00     0.074 A 
ATOM     42  C   UNL A   1      40.823  24.779  27.550  1.00  0.00     0.031 C 
ATOM     43  C   UNL A   1      44.382  29.335  29.850  1.00  0.00     0.029 A 
ATOM     44  C   UNL A   1      43.525  30.155  30.683  1.00  0.00     0.049 A 
ATOM     45  H   UNL A   1      41.837  31.137  29.777  1.00  0.00     0.167 HD
ATOM     46  C   UNL A   1      43.012  23.848  27.864  1.00  0.00     0.034 A 
ATOM     47  C   UNL A   1      43.353  30.036  32.030  1.00  0.00     0.034 A 
ATOM     48  C   UNL A   1      44.109  24.207  28.722  1.00  0.00     0.049 A 
ATOM     49  C   UNL A   1      43.807  28.683  32.551  1.00  0.00     0.074 A 
ATOM     50  C   UNL A   1      45.278  24.913  28.516  1.00  0.00     0.029 A 
ATOM     51  N   UNL A   1      43.845  24.267  30.083  1.00  0.00    -0.354 N 
ATOM     52  N   UNL A   1      44.083  27.634  31.817  1.00  0.00    -0.248 NA
ATOM     53  C   UNL A   1      43.954  28.423  33.976  1.00  0.00     0.031 C 
ATOM     54  C   UNL A   1      45.643  25.502  29.763  1.00  0.00     0.029 A 
ATOM     55  C   UNL A   1      44.751  25.083  30.738  1.00  0.00     0.049 A 
ATOM     56  H   UNL A   1      43.105  23.789  30.525  1.00  0.00     0.167 HD
ATOM     57  C   UNL A   1      44.342  26.562  32.630  1.00  0.00     0.074 A 
ATOM     58  C   UNL A   1      44.227  27.110  33.976  1.00  0.00     0.031 C 
ATOM     59  C   UNL A   1      44.626  25.301  32.177  1.00  0.00     0.034 A 
BRANCH  46  60
ATOM     60  C   UNL A   1      42.749  22.493  27.179  1.00  0.00     0.023 A 
ATOM     61  C   UNL A   1      41.693  21.739  27.726  1.00  0.00     0.012 A 
ATOM     62  C   UNL A   1      43.530  21.828  26.180  1.00  0.00     0.148 A 
ATOM     63  C   UNL A   1      41.488  20.389  27.399  1.00  0.00     0.002 A 
ATOM     64  C   UNL A   1      43.388  20.450  25.933  1.00  0.00     0.091 A 
ATOM     65  F   UNL A   1      44.380  22.534  25.419  1.00  0.00    -0.205 F 
ATOM     66  C   UNL A   1      42.361  19.732  26.544  1.00  0.00     0.022 A 
BRANCH  64  67
ATOM     67  S   UNL A   1      44.585  19.467  24.986  1.00  0.00     0.127 S 
ATOM     68  O   UNL A   1      44.271  18.100  25.419  1.00  0.00    -0.237 OA
ATOM     69  O   UNL A   1      44.219  19.752  23.601  1.00  0.00    -0.237 OA
ATOM     70  O   UNL A   1      45.904  19.924  25.406  1.00  0.00    -0.744 OA
ENDBRANCH  64  67
ENDBRANCH  46  60
BRANCH  47  71
ATOM     71  C   UNL A   1      42.201  30.862  32.563  1.00  0.00     0.023 A 
ATOM     72  C   UNL A   1      42.263  32.275  32.373  1.00  0.00     0.012 A 
ATOM     73  C   UNL A   1      40.972  30.319  32.975  1.00  0.00     0.148 A 
ATOM     74  C   UNL A   1      41.126  33.083  32.436  1.00  0.00     0.002 A 
ATOM     75  C   UNL A   1      39.848  31.148  33.100  1.00  0.00     0.091 A 
ATOM     76  F   UNL A   1      40.863  28.995  33.144  1.00  0.00    -0.205 F 
ATOM     77  C   UNL A   1      39.914  32.517  32.799  1.00  0.00     0.022 A 
BRANCH  75  78
ATOM     78  S   UNL A   1      38.242  30.455  33.530  1.00  0.00     0.127 S 
ATOM     79  O   UNL A   1      38.517  29.769  34.795  1.00  0.00    -0.237 OA
ATOM     80  O   UNL A   1      37.398  31.636  33.668  1.00  0.00    -0.237 OA
ATOM     81  O   UNL A   1      37.958  29.558  32.417  1.00  0.00    -0.744 OA
ENDBRANCH  75  78
ENDBRANCH  47  71
BRANCH  59  82
ATOM     82  C   UNL A   1      44.928  24.156  33.118  1.00  0.00     0.023 A 
ATOM     83  C   UNL A   1      43.892  23.304  33.551  1.00  0.00     0.012 A 
ATOM     84  C   UNL A   1      46.202  23.978  33.709  1.00  0.00     0.148 A 
ATOM     85  C   UNL A   1      44.123  22.268  34.455  1.00  0.00     0.002 A 
ATOM     86  C   UNL A   1      46.394  23.030  34.708  1.00  0.00     0.091 A 
ATOM     87  F   UNL A   1      47.242  24.701  33.276  1.00  0.00    -0.205 F 
ATOM     88  C   UNL A   1      45.369  22.143  35.050  1.00  0.00     0.022 A 
BRANCH  86  89
ATOM     89  S   UNL A   1      47.882  22.974  35.717  1.00  0.00     0.127 S 
ATOM     90  O   UNL A   1      47.880  24.311  36.316  1.00  0.00    -0.237 OA
ATOM     91  O   UNL A   1      47.574  21.891  36.648  1.00  0.00    -0.237 OA
ATOM     92  O   UNL A   1      48.982  22.730  34.796  1.00  0.00    -0.744 OA
ENDBRANCH  86  89
ENDBRANCH  59  82
ENDBRANCH  33  34
ENDBRANCH  26  28
ENDBRANCH  25  26
ENDBRANCH  24  25
ENDBRANCH  23  24
ENDBRANCH  22  23
ENDBRANCH  21  22
ENDBRANCH   1  21
TORSDOF 23
ENDMDL
MODEL 2
REMARK VINA RESULT:     -12.1      1.725      2.905
REMARK SMILES Cc1ccc(C(=O)[C@@H](C)[C@H](C)C(=O)OCCOCCOCCOC(=O)c2ccc(-c3c4nc(c(-c5cccc(S(=O)(=O)[O-])c5F)c5ccc([nH]5)c(-c5cccc(S(=O)(=O)[O-])c5F)c5nc(c(-c6cccc(S(=O)(=O)[O-])c6F)c6ccc3[nH]6)C=C5)C=C4)cc2)cc1
REMARK SMILES IDX 18 1 17 2 16 3 15 4 14 5 12 6 13 7 10 8 11 9 8 10 9 11 6 12
REMARK SMILES IDX 7 13 5 14 1 15 2 16 3 17 90 18 4 19 89 20 19 21 20 22 21 23
REMARK SMILES IDX 22 24 23 25 24 26 25 27 26 28 27 29 88 30 28 31 87 32 29 33
REMARK SMILES IDX 30 34 31 35 81 36 32 37 86 38 80 39 82 40 33 41 85 42 79 43
REMARK SMILES IDX 78 44 34 46 66 47 46 48 65 49 47 50 50 51 64 52 83 53 48 54
REMARK SMILES IDX 49 55 63 57 84 58 51 59 35 60 36 61 44 62 37 63 39 64 45 65
REMARK SMILES IDX 38 66 40 67 41 68 42 69 43 70 67 71 68 72 76 73 69 74 71 75
REMARK SMILES IDX 77 76 70 77 72 78 73 79 74 80 75 81 52 82 53 83 61 84 54 85
REMARK SMILES IDX 56 86 62 87 55 88 57 89 58 90 59 91 60 92
REMARK H PARENT 82 45 50 56
REMARK Flexibility Score: inf
ROOT
ATOM      1  C   UNL A   1      30.578  30.344  24.550  1.00  0.00     0.188 C 
ENDROOT
BRANCH   1   2
ATOM      2  O   UNL A   1      29.661  29.971  23.500  1.00  0.00    -0.376 OA
BRANCH   2   3
ATOM      3  C   UNL A   1      29.150  28.663  23.123  1.00  0.00     0.202 C 
BRANCH   3   4
ATOM      4  C   UNL A   1      29.171  27.018  23.829  1.00  0.00     0.261 C 
BRANCH   4   5
ATOM      5  O   UNL A   1      29.915  26.329  25.289  1.00  0.00    -0.463 OA
BRANCH   5   6
ATOM      6  C   UNL A   1      30.969  25.407  25.800  1.00  0.00     0.309 C 
ATOM      7  O   UNL A   1      31.002  24.901  26.930  1.00  0.00    -0.252 OA
BRANCH   6   8
ATOM      8  C   UNL A   1      32.277  25.151  25.041  1.00  0.00     0.106 C 
ATOM      9  C   UNL A   1      33.554  25.855  25.475  1.00  0.00     0.021 C 
BRANCH   8  10
ATOM     10  C   UNL A   1      32.437  23.734  24.413  1.00  0.00     0.072 C 
ATOM     11  C   UNL A   1      31.191  23.238  23.620  1.00  0.00     0.017 C 
BRANCH  10  12
ATOM     12  C   UNL A   1      33.180  22.581  25.138  1.00  0.00     0.166 C 
ATOM     13  O   UNL A   1      32.500  21.706  25.689  1.00  0.00    -0.294 OA
BRANCH  12  14
ATOM     14  C   UNL A   1      34.674  22.407  25.203  1.00  0.00     0.018 A 
ATOM     15  C   UNL A   1      38.919  21.731  25.805  1.00  0.00     0.044 C 
ATOM     16  C   UNL A   1      37.470  21.961  25.530  1.00  0.00    -0.051 A 
ATOM     17  C   UNL A   1      36.690  21.120  24.728  1.00  0.00     0.004 A 
ATOM     18  C   UNL A   1      36.871  23.080  26.059  1.00  0.00     0.004 A 
ATOM     19  C   UNL A   1      35.301  21.325  24.589  1.00  0.00     0.012 A 
ATOM     20  C   UNL A   1      35.519  23.292  25.835  1.00  0.00     0.012 A 
ENDBRANCH  12  14
ENDBRANCH  10  12
ENDBRANCH   8  10
ENDBRANCH   6   8
ENDBRANCH   5   6
ENDBRANCH   4   5
ENDBRANCH   3   4
ENDBRANCH   2   3
ENDBRANCH   1   2
BRANCH   1  21
ATOM     21  C   UNL A   1      31.703  29.452  25.047  1.00  0.00     0.188 C 
BRANCH  21  22
ATOM     22  O   UNL A   1      31.854  29.618  26.433  1.00  0.00    -0.376 OA
BRANCH  22  23
ATOM     23  C   UNL A   1      33.157  29.892  26.889  1.00  0.00     0.202 C 
BRANCH  23  24
ATOM     24  C   UNL A   1      33.348  31.298  27.487  1.00  0.00     0.261 C 
BRANCH  24  25
ATOM     25  O   UNL A   1      34.744  31.681  27.550  1.00  0.00    -0.460 OA
BRANCH  25  26
ATOM     26  C   UNL A   1      35.375  31.605  28.785  1.00  0.00     0.338 C 
ATOM     27  O   UNL A   1      35.470  32.540  29.544  1.00  0.00    -0.246 OA
BRANCH  26  28
ATOM     28  C   UNL A   1      36.104  30.285  28.900  1.00  0.00     0.060 A 
ATOM     29  C   UNL A   1      36.578  29.653  30.064  1.00  0.00     0.016 A 
ATOM     30  C   UNL A   1      36.684  29.881  27.757  1.00  0.00     0.016 A 
ATOM     31  C   UNL A   1      37.809  28.835  30.078  1.00  0.00     0.010 A 
ATOM     32  C   UNL A   1      37.974  29.386  27.896  1.00  0.00     0.010 A 
ATOM     33  C   UNL A   1      38.681  28.751  28.990  1.00  0.00    -0.014 A 
BRANCH  33  34
ATOM     34  C   UNL A   1      40.294  27.976  28.930  1.00  0.00     0.031 A 
ATOM     35  C   UNL A   1      40.828  26.323  28.501  1.00  0.00     0.074 A 
ATOM     36  C   UNL A   1      41.373  28.754  29.182  1.00  0.00     0.049 A 
ATOM     37  N   UNL A   1      42.010  26.009  27.988  1.00  0.00    -0.248 NA
ATOM     38  C   UNL A   1      40.024  25.035  28.347  1.00  0.00     0.031 C 
ATOM     39  C   UNL A   1      42.801  28.491  28.961  1.00  0.00     0.029 A 
ATOM     40  N   UNL A   1      41.399  30.008  29.798  1.00  0.00    -0.354 N 
ATOM     41  C   UNL A   1      41.975  24.672  27.546  1.00  0.00     0.074 A 
ATOM     42  C   UNL A   1      40.623  24.327  27.402  1.00  0.00     0.031 C 
ATOM     43  C   UNL A   1      43.519  29.308  29.751  1.00  0.00     0.029 A 
ATOM     44  C   UNL A   1      42.557  29.993  30.592  1.00  0.00     0.049 A 
ATOM     45  H   UNL A   1      40.749  30.741  29.696  1.00  0.00     0.167 HD
ATOM     46  C   UNL A   1      42.920  23.705  27.707  1.00  0.00     0.034 A 
ATOM     47  C   UNL A   1      42.405  29.838  31.937  1.00  0.00     0.034 A 
ATOM     48  C   UNL A   1      43.958  24.204  28.570  1.00  0.00     0.049 A 
ATOM     49  C   UNL A   1      43.043  28.555  32.445  1.00  0.00     0.074 A 
ATOM     50  C   UNL A   1      45.017  25.067  28.371  1.00  0.00     0.029 A 
ATOM     51  N   UNL A   1      43.689  24.212  29.931  1.00  0.00    -0.354 N 
ATOM     52  N   UNL A   1      43.460  27.562  31.700  1.00  0.00    -0.248 NA
ATOM     53  C   UNL A   1      43.226  28.303  33.867  1.00  0.00     0.031 C 
ATOM     54  C   UNL A   1      45.299  25.688  29.624  1.00  0.00     0.029 A 
ATOM     55  C   UNL A   1      44.475  25.140  30.595  1.00  0.00     0.049 A 
ATOM     56  H   UNL A   1      43.024  23.632  30.368  1.00  0.00     0.167 HD
ATOM     57  C   UNL A   1      43.867  26.528  32.502  1.00  0.00     0.074 A 
ATOM     58  C   UNL A   1      43.679  27.040  33.853  1.00  0.00     0.031 C 
ATOM     59  C   UNL A   1      44.322  25.323  32.035  1.00  0.00     0.034 A 
BRANCH  46  60
ATOM     60  C   UNL A   1      42.847  22.334  27.008  1.00  0.00     0.023 A 
ATOM     61  C   UNL A   1      41.931  21.424  27.568  1.00  0.00     0.012 A 
ATOM     62  C   UNL A   1      43.694  21.806  25.981  1.00  0.00     0.148 A 
ATOM     63  C   UNL A   1      41.922  20.062  27.226  1.00  0.00     0.002 A 
ATOM     64  C   UNL A   1      43.754  20.426  25.716  1.00  0.00     0.091 A 
ATOM     65  F   UNL A   1      44.408  22.641  25.211  1.00  0.00    -0.205 F 
ATOM     66  C   UNL A   1      42.863  19.553  26.340  1.00  0.00     0.022 A 
BRANCH  64  67
ATOM     67  S   UNL A   1      45.061  19.645  24.727  1.00  0.00     0.127 S 
ATOM     68  O   UNL A   1      44.573  19.847  23.358  1.00  0.00    -0.237 OA
ATOM     69  O   UNL A   1      46.242  20.438  25.061  1.00  0.00    -0.237 OA
ATOM     70  O   UNL A   1      45.094  18.247  25.134  1.00  0.00    -0.744 OA
ENDBRANCH  64  67
ENDBRANCH  46  60
BRANCH  47  71
ATOM     71  C   UNL A   1      41.151  30.490  32.479  1.00  0.00     0.023 A 
ATOM     72  C   UNL A   1      40.138  29.630  33.003  1.00  0.00     0.012 A 
ATOM     73  C   UNL A   1      41.035  31.864  32.751  1.00  0.00     0.148 A 
ATOM     74  C   UNL A   1      39.153  30.092  33.880  1.00  0.00     0.002 A 
ATOM     75  C   UNL A   1      40.005  32.329  33.580  1.00  0.00     0.091 A 
ATOM     76  F   UNL A   1      41.974  32.704  32.298  1.00  0.00    -0.205 F 
ATOM     77  C   UNL A   1      39.088  31.445  34.171  1.00  0.00     0.022 A 
BRANCH  75  78
ATOM     78  S   UNL A   1      39.898  34.072  34.020  1.00  0.00     0.127 S 
ATOM     79  O   UNL A   1      41.305  34.448  34.184  1.00  0.00    -0.237 OA
ATOM     80  O   UNL A   1      39.258  34.670  32.855  1.00  0.00    -0.237 OA
ATOM     81  O   UNL A   1      39.139  34.055  35.264  1.00  0.00    -0.744 OA
ENDBRANCH  75  78
ENDBRANCH  47  71
BRANCH  59  82
ATOM     82  C   UNL A   1      44.781  24.222  32.965  1.00  0.00     0.023 A 
ATOM     83  C   UNL A   1      43.859  23.268  33.441  1.00  0.00     0.012 A 
ATOM     84  C   UNL A   1      46.090  24.181  33.503  1.00  0.00     0.148 A 
ATOM     85  C   UNL A   1      44.235  22.266  34.336  1.00  0.00     0.002 A 
ATOM     86  C   UNL A   1      46.422  23.264  34.494  1.00  0.00     0.091 A 
ATOM     87  F   UNL A   1      47.030  25.007  33.026  1.00  0.00    -0.205 F 
ATOM     88  C   UNL A   1      45.511  22.276  34.879  1.00  0.00     0.022 A 
BRANCH  86  89
ATOM     89  S   UNL A   1      47.947  23.370  35.440  1.00  0.00     0.127 S 
ATOM     90  O   UNL A   1      47.736  22.332  36.453  1.00  0.00    -0.237 OA
ATOM     91  O   UNL A   1      48.950  23.037  34.432  1.00  0.00    -0.237 OA
ATOM     92  O   UNL A   1      47.999  24.724  35.969  1.00  0.00    -0.744 OA
ENDBRANCH  86  89
ENDBRANCH  59  82
ENDBRANCH  33  34
ENDBRANCH  26  28
ENDBRANCH  25  26
ENDBRANCH  24  25
ENDBRANCH  23  24
ENDBRANCH  22  23
ENDBRANCH  21  22
ENDBRANCH   1  21
TORSDOF 23
ENDMDL
MODEL 3
REMARK VINA RESULT:     -12.1      2.268      3.676
REMARK SMILES Cc1ccc(C(=O)[C@@H](C)[C@H](C)C(=O)OCCOCCOCCOC(=O)c2ccc(-c3c4nc(c(-c5cccc(S(=O)(=O)[O-])c5F)c5ccc([nH]5)c(-c5cccc(S(=O)(=O)[O-])c5F)c5nc(c(-c6cccc(S(=O)(=O)[O-])c6F)c6ccc3[nH]6)C=C5)C=C4)cc2)cc1
REMARK SMILES IDX 18 1 17 2 16 3 15 4 14 5 12 6 13 7 10 8 11 9 8 10 9 11 6 12
REMARK SMILES IDX 7 13 5 14 1 15 2 16 3 17 90 18 4 19 89 20 19 21 20 22 21 23
REMARK SMILES IDX 22 24 23 25 24 26 25 27 26 28 27 29 88 30 28 31 87 32 29 33
REMARK SMILES IDX 30 34 31 35 81 36 32 37 86 38 80 39 82 40 33 41 85 42 79 43
REMARK SMILES IDX 78 44 34 46 66 47 46 48 65 49 47 50 50 51 64 52 83 53 48 54
REMARK SMILES IDX 49 55 63 57 84 58 51 59 35 60 36 61 44 62 37 63 39 64 45 65
REMARK SMILES IDX 38 66 40 67 41 68 42 69 43 70 67 71 68 72 76 73 69 74 71 75
REMARK SMILES IDX 77 76 70 77 72 78 73 79 74 80 75 81 52 82 53 83 61 84 54 85
REMARK SMILES IDX 56 86 62 87 55 88 57 89 58 90 59 91 60 92
REMARK H PARENT 82 45 50 56
REMARK Flexibility Score: inf
ROOT
ATOM      1  C   UNL A   1      31.112  29.268  24.453  1.00  0.00     0.188 C 
ENDROOT
BRANCH   1   2
ATOM      2  O   UNL A   1      30.560  28.155  23.719  1.00  0.00    -0.376 OA
BRANCH   2   3
ATOM      3  C   UNL A   1      31.000  27.541  22.477  1.00  0.00     0.202 C 
BRANCH   3   4
ATOM      4  C   UNL A   1      32.236  26.336  22.002  1.00  0.00     0.261 C 
BRANCH   4   5
ATOM      5  O   UNL A   1      33.158  25.115  22.907  1.00  0.00    -0.463 OA
BRANCH   5   6
ATOM      6  C   UNL A   1      33.063  23.841  23.676  1.00  0.00     0.309 C 
ATOM      7  O   UNL A   1      32.280  23.616  24.609  1.00  0.00    -0.252 OA
BRANCH   6   8
ATOM      8  C   UNL A   1      34.100  22.719  23.541  1.00  0.00     0.106 C 
ATOM      9  C   UNL A   1      35.557  23.063  23.268  1.00  0.00     0.021 C 
BRANCH   8  10
ATOM     10  C   UNL A   1      33.829  21.434  24.379  1.00  0.00     0.072 C 
ATOM     11  C   UNL A   1      35.051  20.935  25.206  1.00  0.00     0.017 C 
BRANCH  10  12
ATOM     12  C   UNL A   1      32.950  20.267  23.854  1.00  0.00     0.166 C 
ATOM     13  O   UNL A   1      32.110  20.518  22.981  1.00  0.00    -0.294 OA
BRANCH  12  14
ATOM     14  C   UNL A   1      33.052  18.830  24.291  1.00  0.00     0.018 A 
ATOM     15  C   UNL A   1      32.908  14.644  25.431  1.00  0.00     0.044 C 
ATOM     16  C   UNL A   1      33.026  16.077  25.031  1.00  0.00    -0.051 A 
ATOM     17  C   UNL A   1      33.626  16.504  23.840  1.00  0.00     0.004 A 
ATOM     18  C   UNL A   1      32.554  17.040  25.892  1.00  0.00     0.004 A 
ATOM     19  C   UNL A   1      33.615  17.863  23.462  1.00  0.00     0.012 A 
ATOM     20  C   UNL A   1      32.631  18.374  25.521  1.00  0.00     0.012 A 
ENDBRANCH  12  14
ENDBRANCH  10  12
ENDBRANCH   8  10
ENDBRANCH   6   8
ENDBRANCH   5   6
ENDBRANCH   4   5
ENDBRANCH   3   4
ENDBRANCH   2   3
ENDBRANCH   1   2
BRANCH   1  21
ATOM     21  C   UNL A   1      32.541  29.316  24.967  1.00  0.00     0.188 C 
BRANCH  21  22
ATOM     22  O   UNL A   1      32.537  29.643  26.333  1.00  0.00    -0.376 OA
BRANCH  22  23
ATOM     23  C   UNL A   1      32.049  30.919  26.667  1.00  0.00     0.202 C 
BRANCH  23  24
ATOM     24  C   UNL A   1      33.001  31.767  27.532  1.00  0.00     0.261 C 
BRANCH  24  25
ATOM     25  O   UNL A   1      34.389  31.403  27.333  1.00  0.00    -0.460 OA
BRANCH  25  26
ATOM     26  C   UNL A   1      35.257  31.576  28.403  1.00  0.00     0.338 C 
ATOM     27  O   UNL A   1      35.496  32.650  28.902  1.00  0.00    -0.246 OA
BRANCH  26  28
ATOM     28  C   UNL A   1      36.006  30.287  28.659  1.00  0.00     0.060 A 
ATOM     29  C   UNL A   1      36.554  29.828  29.870  1.00  0.00     0.016 A 
ATOM     30  C   UNL A   1      36.522  29.726  27.552  1.00  0.00     0.016 A 
ATOM     31  C   UNL A   1      37.793  29.023  29.926  1.00  0.00     0.010 A 
ATOM     32  C   UNL A   1      37.823  29.259  27.683  1.00  0.00     0.010 A 
ATOM     33  C   UNL A   1      38.600  28.788  28.811  1.00  0.00    -0.014 A 
BRANCH  33  34
ATOM     34  C   UNL A   1      40.214  28.015  28.765  1.00  0.00     0.031 A 
ATOM     35  C   UNL A   1      40.753  26.356  28.363  1.00  0.00     0.074 A 
ATOM     36  C   UNL A   1      41.292  28.800  29.004  1.00  0.00     0.049 A 
ATOM     37  N   UNL A   1      41.936  26.037  27.856  1.00  0.00    -0.248 NA
ATOM     38  C   UNL A   1      39.952  25.064  28.231  1.00  0.00     0.031 C 
ATOM     39  C   UNL A   1      42.720  28.536  28.788  1.00  0.00     0.029 A 
ATOM     40  N   UNL A   1      41.314  30.064  29.598  1.00  0.00    -0.354 N 
ATOM     41  C   UNL A   1      41.904  24.692  27.438  1.00  0.00     0.074 A 
ATOM     42  C   UNL A   1      40.553  24.342  27.299  1.00  0.00     0.031 C 
ATOM     43  C   UNL A   1      43.436  29.369  29.564  1.00  0.00     0.029 A 
ATOM     44  C   UNL A   1      42.472  30.065  30.393  1.00  0.00     0.049 A 
ATOM     45  H   UNL A   1      40.663  30.793  29.484  1.00  0.00     0.167 HD
ATOM     46  C   UNL A   1      42.851  23.731  27.615  1.00  0.00     0.034 A 
ATOM     47  C   UNL A   1      42.320  29.932  31.741  1.00  0.00     0.034 A 
ATOM     48  C   UNL A   1      43.888  24.246  28.469  1.00  0.00     0.049 A 
ATOM     49  C   UNL A   1      42.961  28.660  32.270  1.00  0.00     0.074 A 
ATOM     50  C   UNL A   1      44.945  25.108  28.257  1.00  0.00     0.029 A 
ATOM     51  N   UNL A   1      43.618  24.277  29.830  1.00  0.00    -0.354 N 
ATOM     52  N   UNL A   1      43.381  27.655  31.543  1.00  0.00    -0.248 NA
ATOM     53  C   UNL A   1      43.144  28.432  33.696  1.00  0.00     0.031 C 
ATOM     54  C   UNL A   1      45.224  25.751  29.499  1.00  0.00     0.029 A 
ATOM     55  C   UNL A   1      44.401  25.217  30.479  1.00  0.00     0.049 A 
ATOM     56  H   UNL A   1      42.954  23.703  30.276  1.00  0.00     0.167 HD
ATOM     57  C   UNL A   1      43.789  26.636  32.362  1.00  0.00     0.074 A 
ATOM     58  C   UNL A   1      43.600  27.170  33.704  1.00  0.00     0.031 C 
ATOM     59  C   UNL A   1      44.248  25.424  31.916  1.00  0.00     0.034 A 
BRANCH  46  60
ATOM     60  C   UNL A   1      42.782  22.348  26.939  1.00  0.00     0.023 A 
ATOM     61  C   UNL A   1      41.826  21.465  27.477  1.00  0.00     0.012 A 
ATOM     62  C   UNL A   1      43.660  21.785  25.958  1.00  0.00     0.148 A 
ATOM     63  C   UNL A   1      41.807  20.097  27.160  1.00  0.00     0.002 A 
ATOM     64  C   UNL A   1      43.706  20.399  25.722  1.00  0.00     0.091 A 
ATOM     65  F   UNL A   1      44.421  22.591  25.203  1.00  0.00    -0.205 F 
ATOM     66  C   UNL A   1      42.773  19.555  26.324  1.00  0.00     0.022 A 
BRANCH  64  67
ATOM     67  S   UNL A   1      45.038  19.576  24.802  1.00  0.00     0.127 S 
ATOM     68  O   UNL A   1      44.596  19.735  23.412  1.00  0.00    -0.237 OA
ATOM     69  O   UNL A   1      46.213  20.371  25.148  1.00  0.00    -0.237 OA
ATOM     70  O   UNL A   1      45.046  18.192  25.257  1.00  0.00    -0.744 OA
ENDBRANCH  64  67
ENDBRANCH  46  60
BRANCH  47  71
ATOM     71  C   UNL A   1      41.064  30.590  32.271  1.00  0.00     0.023 A 
ATOM     72  C   UNL A   1      40.027  29.734  32.750  1.00  0.00     0.012 A 
ATOM     73  C   UNL A   1      40.963  31.959  32.575  1.00  0.00     0.148 A 
ATOM     74  C   UNL A   1      39.029  30.189  33.616  1.00  0.00     0.002 A 
ATOM     75  C   UNL A   1      39.922  32.419  33.393  1.00  0.00     0.091 A 
ATOM     76  F   UNL A   1      41.926  32.795  32.165  1.00  0.00    -0.205 F 
ATOM     77  C   UNL A   1      38.979  31.535  33.940  1.00  0.00     0.022 A 
BRANCH  75  78
ATOM     78  S   UNL A   1      39.832  34.152  33.875  1.00  0.00     0.127 S 
ATOM     79  O   UNL A   1      41.066  34.706  33.312  1.00  0.00    -0.237 OA
ATOM     80  O   UNL A   1      38.619  34.618  33.215  1.00  0.00    -0.237 OA
ATOM     81  O   UNL A   1      39.819  34.092  35.332  1.00  0.00    -0.744 OA
ENDBRANCH  75  78
ENDBRANCH  47  71
BRANCH  59  82
ATOM     82  C   UNL A   1      44.709  24.340  32.864  1.00  0.00     0.023 A 
ATOM     83  C   UNL A   1      43.791  23.386  33.347  1.00  0.00     0.012 A 
ATOM     84  C   UNL A   1      46.014  24.317  33.411  1.00  0.00     0.148 A 
ATOM     85  C   UNL A   1      44.168  22.400  34.259  1.00  0.00     0.002 A 
ATOM     86  C   UNL A   1      46.346  23.417  34.417  1.00  0.00     0.091 A 
ATOM     87  F   UNL A   1      46.951  25.143  32.928  1.00  0.00    -0.205 F 
ATOM     88  C   UNL A   1      45.440  22.427  34.811  1.00  0.00     0.022 A 
BRANCH  86  89
ATOM     89  S   UNL A   1      47.865  23.547  35.371  1.00  0.00     0.127 S 
ATOM     90  O   UNL A   1      47.713  24.870  35.984  1.00  0.00    -0.237 OA
ATOM     91  O   UNL A   1      47.733  22.429  36.302  1.00  0.00    -0.237 OA
ATOM     92  O   UNL A   1      48.952  23.452  34.410  1.00  0.00    -0.744 OA
ENDBRANCH  86  89
ENDBRANCH  59  82
ENDBRANCH  33  34
ENDBRANCH  26  28
ENDBRANCH  25  26
ENDBRANCH  24  25
ENDBRANCH  23  24
ENDBRANCH  22  23
ENDBRANCH  21  22
ENDBRANCH   1  21
TORSDOF 23
ENDMDL
