MODEL 1
REMARK VINA RESULT:      -9.9      0.000      0.000
REMARK SMILES C[C@@H]1[C@@H](C(=O)OCCOCCOCCOC(=O)c2ccc(-c3c4nc(c(-c5cccc(S(=O)(=O)[O-])c5F)c5ccc([nH]5)c(-c5cccc(S(=O)(=O)[O-])c5F)c5nc(c(-c6cccc(S(=O)(=O)[O-])c6F)c6ccc3[nH]6)C=C5)C=C4)cc2)CC[N@@H+]1[C@H]1CC[C@@H](C(F)(F)F)CC1
REMARK SMILES IDX 11 1 10 2 9 3 8 4 7 5 6 6 4 7 5 8 3 9 1 10 2 11 83 12 81 13
REMARK SMILES IDX 82 14 84 16 85 17 93 18 86 19 92 20 87 21 88 22 89 23 90 24
REMARK SMILES IDX 91 25 12 26 13 27 14 28 15 29 16 30 17 31 18 32 19 33 80 34
REMARK SMILES IDX 20 35 79 36 21 37 22 38 23 39 73 40 24 41 78 42 72 43 74 44
REMARK SMILES IDX 25 45 77 46 71 47 70 48 26 50 58 51 38 52 57 53 39 54 42 55
REMARK SMILES IDX 56 56 75 57 40 58 41 59 55 61 76 62 43 63 27 64 28 65 36 66
REMARK SMILES IDX 29 67 31 68 37 69 30 70 32 71 33 72 34 73 35 74 59 75 60 76
REMARK SMILES IDX 68 77 61 78 63 79 69 80 62 81 64 82 65 83 66 84 67 85 44 86
REMARK SMILES IDX 45 87 53 88 46 89 48 90 54 91 47 92 49 93 50 94 51 95 52 96
REMARK H PARENT 83 15 74 49 42 60
REMARK Flexibility Score: inf
ROOT
ATOM      1  C   UNL A   1      37.130  21.979  25.776  1.00  0.00     0.188 C 
ENDROOT
BRANCH   1   2
ATOM      2  C   UNL A   1      36.029  23.060  25.773  1.00  0.00     0.188 C 
BRANCH   2   3
ATOM      3  O   UNL A   1      35.879  23.692  24.520  1.00  0.00    -0.376 OA
BRANCH   3   4
ATOM      4  C   UNL A   1      34.969  23.171  23.564  1.00  0.00     0.202 C 
BRANCH   4   5
ATOM      5  C   UNL A   1      34.025  21.978  23.817  1.00  0.00     0.261 C 
BRANCH   5   6
ATOM      6  O   UNL A   1      32.634  22.215  23.607  1.00  0.00    -0.463 OA
BRANCH   6   7
ATOM      7  C   UNL A   1      31.802  21.922  24.647  1.00  0.00     0.315 C 
ATOM      8  O   UNL A   1      31.797  20.867  25.261  1.00  0.00    -0.252 OA
BRANCH   7   9
ATOM      9  C   UNL A   1      30.915  23.117  24.940  1.00  0.00     0.162 C 
ATOM     10  C   UNL A   1      29.966  24.941  23.506  1.00  0.00     0.076 C 
ATOM     11  C   UNL A   1      31.262  24.315  24.038  1.00  0.00     0.195 C 
ATOM     12  N   UNL A   1      32.095  25.149  24.901  1.00  0.00    -0.330 N 
ATOM     13  C   UNL A   1      31.097  23.619  26.355  1.00  0.00     0.083 C 
ATOM     14  C   UNL A   1      32.252  24.584  26.231  1.00  0.00     0.263 C 
ATOM     15  H   UNL A   1      32.915  25.099  24.296  1.00  0.00     0.348 HD
BRANCH  12  16
ATOM     16  C   UNL A   1      32.359  26.562  24.730  1.00  0.00     0.184 C 
ATOM     17  C   UNL A   1      31.178  27.476  25.101  1.00  0.00     0.066 C 
ATOM     18  C   UNL A   1      33.672  26.974  25.415  1.00  0.00     0.066 C 
ATOM     19  C   UNL A   1      31.525  28.960  24.945  1.00  0.00     0.019 C 
ATOM     20  C   UNL A   1      33.980  28.451  25.212  1.00  0.00     0.019 C 
ATOM     21  C   UNL A   1      32.833  29.376  25.635  1.00  0.00     0.095 C 
BRANCH  21  22
ATOM     22  C   UNL A   1      32.696  29.480  27.153  1.00  0.00     0.391 C 
ATOM     23  F   UNL A   1      31.459  29.090  27.541  1.00  0.00    -0.171 F 
ATOM     24  F   UNL A   1      33.582  28.671  27.771  1.00  0.00    -0.171 F 
ATOM     25  F   UNL A   1      32.886  30.729  27.614  1.00  0.00    -0.171 F 
ENDBRANCH  21  22
ENDBRANCH  12  16
ENDBRANCH   7   9
ENDBRANCH   6   7
ENDBRANCH   5   6
ENDBRANCH   4   5
ENDBRANCH   3   4
ENDBRANCH   2   3
ENDBRANCH   1   2
BRANCH   1  26
ATOM     26  O   UNL A   1      37.458  21.297  24.578  1.00  0.00    -0.376 OA
BRANCH  26  27
ATOM     27  C   UNL A   1      37.654  19.888  24.644  1.00  0.00     0.202 C 
BRANCH  27  28
ATOM     28  C   UNL A   1      38.835  19.254  25.418  1.00  0.00     0.261 C 
BRANCH  28  29
ATOM     29  O   UNL A   1      39.698  20.143  26.148  1.00  0.00    -0.460 OA
BRANCH  29  30
ATOM     30  C   UNL A   1      41.014  19.817  26.153  1.00  0.00     0.338 C 
ATOM     31  O   UNL A   1      41.509  18.747  25.808  1.00  0.00    -0.246 OA
BRANCH  30  32
ATOM     32  C   UNL A   1      41.830  21.016  26.433  1.00  0.00     0.060 A 
ATOM     33  C   UNL A   1      42.217  21.279  27.758  1.00  0.00     0.016 A 
ATOM     34  C   UNL A   1      42.160  21.907  25.414  1.00  0.00     0.016 A 
ATOM     35  C   UNL A   1      42.927  22.439  28.069  1.00  0.00     0.010 A 
ATOM     36  C   UNL A   1      42.843  23.086  25.733  1.00  0.00     0.010 A 
ATOM     37  C   UNL A   1      43.206  23.371  27.063  1.00  0.00    -0.014 A 
BRANCH  37  38
ATOM     38  C   UNL A   1      43.707  24.721  27.419  1.00  0.00     0.031 A 
ATOM     39  C   UNL A   1      42.743  25.708  28.023  1.00  0.00     0.074 A 
ATOM     40  C   UNL A   1      44.984  25.077  27.194  1.00  0.00     0.049 A 
ATOM     41  N   UNL A   1      42.921  26.968  28.319  1.00  0.00    -0.248 NA
ATOM     42  C   UNL A   1      41.393  25.201  28.328  1.00  0.00     0.031 C 
ATOM     43  C   UNL A   1      46.022  24.209  26.643  1.00  0.00     0.029 A 
ATOM     44  N   UNL A   1      45.615  26.284  27.374  1.00  0.00    -0.354 N 
ATOM     45  C   UNL A   1      41.702  27.415  28.814  1.00  0.00     0.074 A 
ATOM     46  C   UNL A   1      40.789  26.294  28.770  1.00  0.00     0.031 C 
ATOM     47  C   UNL A   1      47.152  24.922  26.492  1.00  0.00     0.029 A 
ATOM     48  C   UNL A   1      46.908  26.303  26.907  1.00  0.00     0.049 A 
ATOM     49  H   UNL A   1      45.182  27.062  27.797  1.00  0.00     0.167 HD
ATOM     50  C   UNL A   1      41.373  28.645  29.276  1.00  0.00     0.034 A 
ATOM     51  C   UNL A   1      47.782  27.326  26.799  1.00  0.00     0.034 A 
ATOM     52  C   UNL A   1      42.283  29.757  29.329  1.00  0.00     0.049 A 
ATOM     53  C   UNL A   1      47.372  28.700  27.269  1.00  0.00     0.074 A 
ATOM     54  C   UNL A   1      42.052  31.035  29.805  1.00  0.00     0.029 A 
ATOM     55  N   UNL A   1      43.595  29.727  28.881  1.00  0.00    -0.354 N 
ATOM     56  N   UNL A   1      46.248  29.086  27.823  1.00  0.00    -0.248 NA
ATOM     57  C   UNL A   1      48.367  29.775  27.128  1.00  0.00     0.031 C 
ATOM     58  C   UNL A   1      43.215  31.788  29.615  1.00  0.00     0.029 A 
ATOM     59  C   UNL A   1      44.183  30.968  29.059  1.00  0.00     0.049 A 
ATOM     60  H   UNL A   1      44.042  28.941  28.493  1.00  0.00     0.167 HD
ATOM     61  C   UNL A   1      46.417  30.432  28.135  1.00  0.00     0.074 A 
ATOM     62  C   UNL A   1      47.758  30.791  27.724  1.00  0.00     0.031 C 
ATOM     63  C   UNL A   1      45.539  31.297  28.701  1.00  0.00     0.034 A 
BRANCH  50  64
ATOM     64  C   UNL A   1      39.968  28.850  29.779  1.00  0.00     0.023 A 
ATOM     65  C   UNL A   1      39.619  28.411  31.072  1.00  0.00     0.012 A 
ATOM     66  C   UNL A   1      39.013  29.528  28.997  1.00  0.00     0.148 A 
ATOM     67  C   UNL A   1      38.331  28.613  31.567  1.00  0.00     0.002 A 
ATOM     68  C   UNL A   1      37.745  29.765  29.515  1.00  0.00     0.091 A 
ATOM     69  F   UNL A   1      39.358  29.919  27.763  1.00  0.00    -0.205 F 
ATOM     70  C   UNL A   1      37.399  29.299  30.794  1.00  0.00     0.022 A 
BRANCH  68  71
ATOM     71  S   UNL A   1      36.497  30.709  28.632  1.00  0.00     0.127 S 
ATOM     72  O   UNL A   1      37.163  32.000  28.470  1.00  0.00    -0.237 OA
ATOM     73  O   UNL A   1      36.349  29.940  27.396  1.00  0.00    -0.237 OA
ATOM     74  O   UNL A   1      35.318  30.720  29.488  1.00  0.00    -0.744 OA
ENDBRANCH  68  71
ENDBRANCH  50  64
BRANCH  51  75
ATOM     75  C   UNL A   1      49.144  27.098  26.237  1.00  0.00     0.023 A 
ATOM     76  C   UNL A   1      50.154  26.563  27.061  1.00  0.00     0.012 A 
ATOM     77  C   UNL A   1      49.451  27.424  24.901  1.00  0.00     0.148 A 
ATOM     78  C   UNL A   1      51.452  26.395  26.581  1.00  0.00     0.002 A 
ATOM     79  C   UNL A   1      50.734  27.202  24.412  1.00  0.00     0.091 A 
ATOM     80  F   UNL A   1      48.484  27.948  24.136  1.00  0.00    -0.205 F 
ATOM     81  C   UNL A   1      51.740  26.706  25.255  1.00  0.00     0.022 A 
BRANCH  79  82
ATOM     82  S   UNL A   1      51.168  27.464  22.689  1.00  0.00     0.127 S 
ATOM     83  O   UNL A   1      51.093  28.918  22.579  1.00  0.00    -0.237 OA
ATOM     84  O   UNL A   1      52.523  26.912  22.634  1.00  0.00    -0.237 OA
ATOM     85  O   UNL A   1      50.183  26.719  21.916  1.00  0.00    -0.744 OA
ENDBRANCH  79  82
ENDBRANCH  51  75
BRANCH  63  86
ATOM     86  C   UNL A   1      46.008  32.706  28.970  1.00  0.00     0.023 A 
ATOM     87  C   UNL A   1      46.581  33.036  30.214  1.00  0.00     0.012 A 
ATOM     88  C   UNL A   1      45.951  33.684  27.956  1.00  0.00     0.148 A 
ATOM     89  C   UNL A   1      47.057  34.324  30.457  1.00  0.00     0.002 A 
ATOM     90  C   UNL A   1      46.475  34.950  28.187  1.00  0.00     0.091 A 
ATOM     91  F   UNL A   1      45.389  33.356  26.783  1.00  0.00    -0.205 F 
ATOM     92  C   UNL A   1      47.015  35.277  29.441  1.00  0.00     0.022 A 
BRANCH  90  93
ATOM     93  S   UNL A   1      46.555  36.212  26.909  1.00  0.00     0.127 S 
ATOM     94  O   UNL A   1      45.360  37.003  27.197  1.00  0.00    -0.237 OA
ATOM     95  O   UNL A   1      47.819  36.882  27.215  1.00  0.00    -0.237 OA
ATOM     96  O   UNL A   1      46.540  35.500  25.638  1.00  0.00    -0.744 OA
ENDBRANCH  90  93
ENDBRANCH  63  86
ENDBRANCH  37  38
ENDBRANCH  30  32
ENDBRANCH  29  30
ENDBRANCH  28  29
ENDBRANCH  27  28
ENDBRANCH  26  27
ENDBRANCH   1  26
TORSDOF 22
ENDMDL
MODEL 2
REMARK VINA RESULT:      -9.2      1.755      2.097
REMARK SMILES C[C@@H]1[C@@H](C(=O)OCCOCCOCCOC(=O)c2ccc(-c3c4nc(c(-c5cccc(S(=O)(=O)[O-])c5F)c5ccc([nH]5)c(-c5cccc(S(=O)(=O)[O-])c5F)c5nc(c(-c6cccc(S(=O)(=O)[O-])c6F)c6ccc3[nH]6)C=C5)C=C4)cc2)CC[N@@H+]1[C@H]1CC[C@@H](C(F)(F)F)CC1
REMARK SMILES IDX 11 1 10 2 9 3 8 4 7 5 6 6 4 7 5 8 3 9 1 10 2 11 83 12 81 13
REMARK SMILES IDX 82 14 84 16 85 17 93 18 86 19 92 20 87 21 88 22 89 23 90 24
REMARK SMILES IDX 91 25 12 26 13 27 14 28 15 29 16 30 17 31 18 32 19 33 80 34
REMARK SMILES IDX 20 35 79 36 21 37 22 38 23 39 73 40 24 41 78 42 72 43 74 44
REMARK SMILES IDX 25 45 77 46 71 47 70 48 26 50 58 51 38 52 57 53 39 54 42 55
REMARK SMILES IDX 56 56 75 57 40 58 41 59 55 61 76 62 43 63 27 64 28 65 36 66
REMARK SMILES IDX 29 67 31 68 37 69 30 70 32 71 33 72 34 73 35 74 59 75 60 76
REMARK SMILES IDX 68 77 61 78 63 79 69 80 62 81 64 82 65 83 66 84 67 85 44 86
REMARK SMILES IDX 45 87 53 88 46 89 48 90 54 91 47 92 49 93 50 94 51 95 52 96
REMARK H PARENT 83 15 74 49 42 60
REMARK Flexibility Score: inf
ROOT
ATOM      1  C   UNL A   1      37.596  22.144  25.658  1.00  0.00     0.188 C 
ENDROOT
BRANCH   1   2
ATOM      2  C   UNL A   1      36.923  23.512  25.414  1.00  0.00     0.188 C 
BRANCH   2   3
ATOM      3  O   UNL A   1      36.547  23.711  24.069  1.00  0.00    -0.376 OA
BRANCH   3   4
ATOM      4  C   UNL A   1      35.271  23.287  23.617  1.00  0.00     0.202 C 
BRANCH   4   5
ATOM      5  C   UNL A   1      34.334  22.345  24.401  1.00  0.00     0.261 C 
BRANCH   5   6
ATOM      6  O   UNL A   1      33.026  22.160  23.863  1.00  0.00    -0.463 OA
BRANCH   6   7
ATOM      7  C   UNL A   1      32.047  21.814  24.747  1.00  0.00     0.315 C 
ATOM      8  O   UNL A   1      31.996  20.756  25.354  1.00  0.00    -0.252 OA
BRANCH   7   9
ATOM      9  C   UNL A   1      31.058  22.956  24.881  1.00  0.00     0.162 C 
ATOM     10  C   UNL A   1      30.137  24.628  23.256  1.00  0.00     0.076 C 
ATOM     11  C   UNL A   1      31.412  24.127  23.946  1.00  0.00     0.195 C 
ATOM     12  N   UNL A   1      32.098  25.063  24.832  1.00  0.00    -0.330 N 
ATOM     13  C   UNL A   1      31.064  23.545  26.275  1.00  0.00     0.083 C 
ATOM     14  C   UNL A   1      32.159  24.583  26.203  1.00  0.00     0.263 C 
ATOM     15  H   UNL A   1      32.976  25.039  24.313  1.00  0.00     0.348 HD
BRANCH  12  16
ATOM     16  C   UNL A   1      32.284  26.480  24.603  1.00  0.00     0.184 C 
ATOM     17  C   UNL A   1      32.612  26.847  23.145  1.00  0.00     0.066 C 
ATOM     18  C   UNL A   1      31.116  27.299  25.177  1.00  0.00     0.066 C 
ATOM     19  C   UNL A   1      32.755  28.360  22.948  1.00  0.00     0.019 C 
ATOM     20  C   UNL A   1      31.317  28.794  24.975  1.00  0.00     0.019 C 
ATOM     21  C   UNL A   1      31.586  29.180  23.515  1.00  0.00     0.095 C 
BRANCH  21  22
ATOM     22  C   UNL A   1      30.330  29.100  22.649  1.00  0.00     0.391 C 
ATOM     23  F   UNL A   1      30.127  27.828  22.232  1.00  0.00    -0.171 F 
ATOM     24  F   UNL A   1      29.238  29.469  23.353  1.00  0.00    -0.171 F 
ATOM     25  F   UNL A   1      30.396  29.876  21.553  1.00  0.00    -0.171 F 
ENDBRANCH  21  22
ENDBRANCH  12  16
ENDBRANCH   7   9
ENDBRANCH   6   7
ENDBRANCH   5   6
ENDBRANCH   4   5
ENDBRANCH   3   4
ENDBRANCH   2   3
ENDBRANCH   1   2
BRANCH   1  26
ATOM     26  O   UNL A   1      37.690  21.202  24.602  1.00  0.00    -0.376 OA
BRANCH  26  27
ATOM     27  C   UNL A   1      38.224  19.917  24.900  1.00  0.00     0.202 C 
BRANCH  27  28
ATOM     28  C   UNL A   1      39.365  19.714  25.926  1.00  0.00     0.261 C 
BRANCH  28  29
ATOM     29  O   UNL A   1      40.691  20.091  25.521  1.00  0.00    -0.460 OA
BRANCH  29  30
ATOM     30  C   UNL A   1      41.678  19.835  26.414  1.00  0.00     0.338 C 
ATOM     31  O   UNL A   1      41.987  18.739  26.875  1.00  0.00    -0.246 OA
BRANCH  30  32
ATOM     32  C   UNL A   1      42.504  21.043  26.613  1.00  0.00     0.060 A 
ATOM     33  C   UNL A   1      42.959  21.348  27.907  1.00  0.00     0.016 A 
ATOM     34  C   UNL A   1      42.780  21.902  25.552  1.00  0.00     0.016 A 
ATOM     35  C   UNL A   1      43.682  22.518  28.144  1.00  0.00     0.010 A 
ATOM     36  C   UNL A   1      43.475  23.091  25.797  1.00  0.00     0.010 A 
ATOM     37  C   UNL A   1      43.906  23.418  27.097  1.00  0.00    -0.014 A 
BRANCH  37  38
ATOM     38  C   UNL A   1      44.422  24.779  27.384  1.00  0.00     0.031 A 
ATOM     39  C   UNL A   1      43.456  25.821  27.882  1.00  0.00     0.074 A 
ATOM     40  C   UNL A   1      45.714  25.094  27.189  1.00  0.00     0.049 A 
ATOM     41  N   UNL A   1      43.649  27.095  28.101  1.00  0.00    -0.248 NA
ATOM     42  C   UNL A   1      42.085  25.362  28.163  1.00  0.00     0.031 C 
ATOM     43  C   UNL A   1      46.754  24.172  26.739  1.00  0.00     0.029 A 
ATOM     44  N   UNL A   1      46.363  26.299  27.315  1.00  0.00    -0.354 N 
ATOM     45  C   UNL A   1      42.422  27.598  28.515  1.00  0.00     0.074 A 
ATOM     46  C   UNL A   1      41.487  26.494  28.507  1.00  0.00     0.031 C 
ATOM     47  C   UNL A   1      47.905  24.852  26.589  1.00  0.00     0.029 A 
ATOM     48  C   UNL A   1      47.674  26.262  26.902  1.00  0.00     0.049 A 
ATOM     49  H   UNL A   1      45.931  27.110  27.668  1.00  0.00     0.167 HD
ATOM     50  C   UNL A   1      42.102  28.861  28.882  1.00  0.00     0.034 A 
ATOM     51  C   UNL A   1      48.574  27.258  26.763  1.00  0.00     0.034 A 
ATOM     52  C   UNL A   1      43.033  29.956  28.899  1.00  0.00     0.049 A 
ATOM     53  C   UNL A   1      48.176  28.668  27.125  1.00  0.00     0.074 A 
ATOM     54  C   UNL A   1      42.811  31.268  29.280  1.00  0.00     0.029 A 
ATOM     55  N   UNL A   1      44.361  29.872  28.509  1.00  0.00    -0.354 N 
ATOM     56  N   UNL A   1      47.039  29.112  27.605  1.00  0.00    -0.248 NA
ATOM     57  C   UNL A   1      49.199  29.712  26.954  1.00  0.00     0.031 C 
ATOM     58  C   UNL A   1      43.997  31.984  29.090  1.00  0.00     0.029 A 
ATOM     59  C   UNL A   1      44.968  31.111  28.628  1.00  0.00     0.049 A 
ATOM     60  H   UNL A   1      44.806  29.054  28.192  1.00  0.00     0.167 HD
ATOM     61  C   UNL A   1      47.225  30.472  27.835  1.00  0.00     0.074 A 
ATOM     62  C   UNL A   1      48.589  30.776  27.457  1.00  0.00     0.031 C 
ATOM     63  C   UNL A   1      46.344  31.389  28.306  1.00  0.00     0.034 A 
BRANCH  50  64
ATOM     64  C   UNL A   1      40.683  29.126  29.311  1.00  0.00     0.023 A 
ATOM     65  C   UNL A   1      39.677  29.290  28.337  1.00  0.00     0.012 A 
ATOM     66  C   UNL A   1      40.334  29.155  30.676  1.00  0.00     0.148 A 
ATOM     67  C   UNL A   1      38.353  29.512  28.713  1.00  0.00     0.002 A 
ATOM     68  C   UNL A   1      39.005  29.331  31.042  1.00  0.00     0.091 A 
ATOM     69  F   UNL A   1      41.307  29.018  31.587  1.00  0.00    -0.205 F 
ATOM     70  C   UNL A   1      38.016  29.521  30.064  1.00  0.00     0.022 A 
BRANCH  68  71
ATOM     71  S   UNL A   1      38.455  29.279  32.752  1.00  0.00     0.127 S 
ATOM     72  O   UNL A   1      39.558  28.568  33.395  1.00  0.00    -0.237 OA
ATOM     73  O   UNL A   1      38.365  30.699  33.088  1.00  0.00    -0.237 OA
ATOM     74  O   UNL A   1      37.181  28.572  32.744  1.00  0.00    -0.744 OA
ENDBRANCH  68  71
ENDBRANCH  50  64
BRANCH  51  75
ATOM     75  C   UNL A   1      49.952  26.967  26.274  1.00  0.00     0.023 A 
ATOM     76  C   UNL A   1      50.912  26.454  27.169  1.00  0.00     0.012 A 
ATOM     77  C   UNL A   1      50.324  27.213  24.937  1.00  0.00     0.148 A 
ATOM     78  C   UNL A   1      52.224  26.230  26.755  1.00  0.00     0.002 A 
ATOM     79  C   UNL A   1      51.620  26.933  24.517  1.00  0.00     0.091 A 
ATOM     80  F   UNL A   1      49.404  27.717  24.104  1.00  0.00    -0.205 F 
ATOM     81  C   UNL A   1      52.576  26.460  25.428  1.00  0.00     0.022 A 
BRANCH  79  82
ATOM     82  S   UNL A   1      52.133  27.090  22.803  1.00  0.00     0.127 S 
ATOM     83  O   UNL A   1      50.888  26.817  22.091  1.00  0.00    -0.237 OA
ATOM     84  O   UNL A   1      52.580  28.483  22.751  1.00  0.00    -0.237 OA
ATOM     85  O   UNL A   1      53.195  26.110  22.618  1.00  0.00    -0.744 OA
ENDBRANCH  79  82
ENDBRANCH  51  75
BRANCH  63  86
ATOM     86  C   UNL A   1      46.832  32.803  28.501  1.00  0.00     0.023 A 
ATOM     87  C   UNL A   1      47.250  33.239  29.774  1.00  0.00     0.012 A 
ATOM     88  C   UNL A   1      46.950  33.677  27.401  1.00  0.00     0.148 A 
ATOM     89  C   UNL A   1      47.744  34.530  29.956  1.00  0.00     0.002 A 
ATOM     90  C   UNL A   1      47.493  34.944  27.579  1.00  0.00     0.091 A 
ATOM     91  F   UNL A   1      46.535  33.250  26.199  1.00  0.00    -0.205 F 
ATOM     92  C   UNL A   1      47.876  35.378  28.858  1.00  0.00     0.022 A 
BRANCH  90  93
ATOM     93  S   UNL A   1      47.793  36.069  26.210  1.00  0.00     0.127 S 
ATOM     94  O   UNL A   1      46.432  36.369  25.768  1.00  0.00    -0.237 OA
ATOM     95  O   UNL A   1      48.479  37.181  26.870  1.00  0.00    -0.237 OA
ATOM     96  O   UNL A   1      48.612  35.333  25.256  1.00  0.00    -0.744 OA
ENDBRANCH  90  93
ENDBRANCH  63  86
ENDBRANCH  37  38
ENDBRANCH  30  32
ENDBRANCH  29  30
ENDBRANCH  28  29
ENDBRANCH  27  28
ENDBRANCH  26  27
ENDBRANCH   1  26
TORSDOF 22
ENDMDL
MODEL 3
REMARK VINA RESULT:      -9.1      3.974      5.549
REMARK SMILES C[C@@H]1[C@@H](C(=O)OCCOCCOCCOC(=O)c2ccc(-c3c4nc(c(-c5cccc(S(=O)(=O)[O-])c5F)c5ccc([nH]5)c(-c5cccc(S(=O)(=O)[O-])c5F)c5nc(c(-c6cccc(S(=O)(=O)[O-])c6F)c6ccc3[nH]6)C=C5)C=C4)cc2)CC[N@@H+]1[C@H]1CC[C@@H](C(F)(F)F)CC1
REMARK SMILES IDX 11 1 10 2 9 3 8 4 7 5 6 6 4 7 5 8 3 9 1 10 2 11 83 12 81 13
REMARK SMILES IDX 82 14 84 16 85 17 93 18 86 19 92 20 87 21 88 22 89 23 90 24
REMARK SMILES IDX 91 25 12 26 13 27 14 28 15 29 16 30 17 31 18 32 19 33 80 34
REMARK SMILES IDX 20 35 79 36 21 37 22 38 23 39 73 40 24 41 78 42 72 43 74 44
REMARK SMILES IDX 25 45 77 46 71 47 70 48 26 50 58 51 38 52 57 53 39 54 42 55
REMARK SMILES IDX 56 56 75 57 40 58 41 59 55 61 76 62 43 63 27 64 28 65 36 66
REMARK SMILES IDX 29 67 31 68 37 69 30 70 32 71 33 72 34 73 35 74 59 75 60 76
REMARK SMILES IDX 68 77 61 78 63 79 69 80 62 81 64 82 65 83 66 84 67 85 44 86
REMARK SMILES IDX 45 87 53 88 46 89 48 90 54 91 47 92 49 93 50 94 51 95 52 96
REMARK H PARENT 83 15 74 49 42 60
REMARK Flexibility Score: inf
ROOT
ATOM      1  C   UNL A   1      35.237  24.477  25.324  1.00  0.00     0.188 C 
ENDROOT
BRANCH   1   2
ATOM      2  C   UNL A   1      34.062  25.473  25.430  1.00  0.00     0.188 C 
BRANCH   2   3
ATOM      3  O   UNL A   1      34.417  26.679  26.072  1.00  0.00    -0.376 OA
BRANCH   3   4
ATOM      4  C   UNL A   1      33.581  27.819  25.956  1.00  0.00     0.202 C 
BRANCH   4   5
ATOM      5  C   UNL A   1      32.173  27.810  25.323  1.00  0.00     0.261 C 
BRANCH   5   6
ATOM      6  O   UNL A   1      32.068  28.346  24.005  1.00  0.00    -0.463 OA
BRANCH   6   7
ATOM      7  C   UNL A   1      32.601  27.595  22.999  1.00  0.00     0.315 C 
ATOM      8  O   UNL A   1      33.757  27.667  22.611  1.00  0.00    -0.252 OA
BRANCH   7   9
ATOM      9  C   UNL A   1      31.549  26.643  22.464  1.00  0.00     0.162 C 
ATOM     10  C   UNL A   1      29.651  25.405  23.536  1.00  0.00     0.076 C 
ATOM     11  C   UNL A   1      31.176  25.568  23.501  1.00  0.00     0.195 C 
ATOM     12  N   UNL A   1      31.957  24.411  23.074  1.00  0.00    -0.330 N 
ATOM     13  C   UNL A   1      32.046  25.876  21.258  1.00  0.00     0.083 C 
ATOM     14  C   UNL A   1      32.730  24.678  21.872  1.00  0.00     0.263 C 
ATOM     15  H   UNL A   1      32.490  24.347  23.942  1.00  0.00     0.348 HD
BRANCH  12  16
ATOM     16  C   UNL A   1      31.698  23.029  23.419  1.00  0.00     0.184 C 
ATOM     17  C   UNL A   1      32.442  22.007  22.540  1.00  0.00     0.066 C 
ATOM     18  C   UNL A   1      31.895  22.779  24.922  1.00  0.00     0.066 C 
ATOM     19  C   UNL A   1      32.168  20.564  22.974  1.00  0.00     0.019 C 
ATOM     20  C   UNL A   1      31.591  21.337  25.304  1.00  0.00     0.019 C 
ATOM     21  C   UNL A   1      32.372  20.310  24.476  1.00  0.00     0.095 C 
BRANCH  21  22
ATOM     22  C   UNL A   1      33.846  20.240  24.872  1.00  0.00     0.391 C 
ATOM     23  F   UNL A   1      34.011  20.667  26.146  1.00  0.00    -0.171 F 
ATOM     24  F   UNL A   1      34.297  18.969  24.814  1.00  0.00    -0.171 F 
ATOM     25  F   UNL A   1      34.637  20.996  24.090  1.00  0.00    -0.171 F 
ENDBRANCH  21  22
ENDBRANCH  12  16
ENDBRANCH   7   9
ENDBRANCH   6   7
ENDBRANCH   5   6
ENDBRANCH   4   5
ENDBRANCH   3   4
ENDBRANCH   2   3
ENDBRANCH   1   2
BRANCH   1  26
ATOM     26  O   UNL A   1      35.490  23.808  24.100  1.00  0.00    -0.376 OA
BRANCH  26  27
ATOM     27  C   UNL A   1      36.666  23.011  24.007  1.00  0.00     0.202 C 
BRANCH  27  28
ATOM     28  C   UNL A   1      37.431  22.517  25.258  1.00  0.00     0.261 C 
BRANCH  28  29
ATOM     29  O   UNL A   1      38.828  22.842  25.348  1.00  0.00    -0.460 OA
BRANCH  29  30
ATOM     30  C   UNL A   1      39.364  22.811  26.593  1.00  0.00     0.338 C 
ATOM     31  O   UNL A   1      39.780  21.822  27.191  1.00  0.00    -0.246 OA
BRANCH  30  32
ATOM     32  C   UNL A   1      39.590  24.187  27.080  1.00  0.00     0.060 A 
ATOM     33  C   UNL A   1      40.178  25.125  26.214  1.00  0.00     0.016 A 
ATOM     34  C   UNL A   1      39.284  24.539  28.393  1.00  0.00     0.016 A 
ATOM     35  C   UNL A   1      40.471  26.413  26.663  1.00  0.00     0.010 A 
ATOM     36  C   UNL A   1      39.610  25.820  28.851  1.00  0.00     0.010 A 
ATOM     37  C   UNL A   1      40.228  26.754  27.997  1.00  0.00    -0.014 A 
BRANCH  37  38
ATOM     38  C   UNL A   1      40.783  28.011  28.556  1.00  0.00     0.031 A 
ATOM     39  C   UNL A   1      39.823  29.054  29.066  1.00  0.00     0.074 A 
ATOM     40  C   UNL A   1      42.107  28.237  28.594  1.00  0.00     0.049 A 
ATOM     41  N   UNL A   1      40.064  30.262  29.501  1.00  0.00    -0.248 NA
ATOM     42  C   UNL A   1      38.398  28.682  29.080  1.00  0.00     0.031 C 
ATOM     43  C   UNL A   1      43.140  27.300  28.160  1.00  0.00     0.029 A 
ATOM     44  N   UNL A   1      42.808  29.351  28.991  1.00  0.00    -0.354 N 
ATOM     45  C   UNL A   1      38.824  30.807  29.811  1.00  0.00     0.074 A 
ATOM     46  C   UNL A   1      37.831  29.801  29.505  1.00  0.00     0.031 C 
ATOM     47  C   UNL A   1      44.343  27.891  28.277  1.00  0.00     0.029 A 
ATOM     48  C   UNL A   1      44.161  29.258  28.764  1.00  0.00     0.049 A 
ATOM     49  H   UNL A   1      42.382  30.140  29.399  1.00  0.00     0.167 HD
ATOM     50  C   UNL A   1      38.536  32.030  30.316  1.00  0.00     0.034 A 
ATOM     51  C   UNL A   1      45.134  30.181  28.905  1.00  0.00     0.034 A 
ATOM     52  C   UNL A   1      39.524  33.026  30.629  1.00  0.00     0.049 A 
ATOM     53  C   UNL A   1      44.780  31.556  29.417  1.00  0.00     0.074 A 
ATOM     54  C   UNL A   1      39.334  34.286  31.170  1.00  0.00     0.029 A 
ATOM     55  N   UNL A   1      40.887  32.882  30.421  1.00  0.00    -0.354 N 
ATOM     56  N   UNL A   1      43.615  32.026  29.796  1.00  0.00    -0.248 NA
ATOM     57  C   UNL A   1      45.883  32.521  29.552  1.00  0.00     0.031 C 
ATOM     58  C   UNL A   1      40.579  34.916  31.258  1.00  0.00     0.029 A 
ATOM     59  C   UNL A   1      41.549  34.034  30.810  1.00  0.00     0.049 A 
ATOM     60  H   UNL A   1      41.320  32.081  30.049  1.00  0.00     0.167 HD
ATOM     61  C   UNL A   1      43.853  33.319  30.253  1.00  0.00     0.074 A 
ATOM     62  C   UNL A   1      45.276  33.553  30.120  1.00  0.00     0.031 C 
ATOM     63  C   UNL A   1      42.974  34.234  30.730  1.00  0.00     0.034 A 
BRANCH  50  64
ATOM     64  C   UNL A   1      37.089  32.355  30.579  1.00  0.00     0.023 A 
ATOM     65  C   UNL A   1      36.533  32.089  31.847  1.00  0.00     0.012 A 
ATOM     66  C   UNL A   1      36.297  32.975  29.593  1.00  0.00     0.148 A 
ATOM     67  C   UNL A   1      35.202  32.404  32.118  1.00  0.00     0.002 A 
ATOM     68  C   UNL A   1      34.985  33.328  29.886  1.00  0.00     0.091 A 
ATOM     69  F   UNL A   1      36.838  33.201  28.388  1.00  0.00    -0.205 F 
ATOM     70  C   UNL A   1      34.433  33.032  31.143  1.00  0.00     0.022 A 
BRANCH  68  71
ATOM     71  S   UNL A   1      33.936  34.213  28.728  1.00  0.00     0.127 S 
ATOM     72  O   UNL A   1      34.804  35.319  28.328  1.00  0.00    -0.237 OA
ATOM     73  O   UNL A   1      33.710  33.208  27.689  1.00  0.00    -0.237 OA
ATOM     74  O   UNL A   1      32.745  34.596  29.474  1.00  0.00    -0.744 OA
ENDBRANCH  68  71
ENDBRANCH  50  64
BRANCH  51  75
ATOM     75  C   UNL A   1      46.549  29.843  28.575  1.00  0.00     0.023 A 
ATOM     76  C   UNL A   1      47.047  30.126  27.288  1.00  0.00     0.012 A 
ATOM     77  C   UNL A   1      47.397  29.230  29.518  1.00  0.00     0.148 A 
ATOM     78  C   UNL A   1      48.346  29.767  26.931  1.00  0.00     0.002 A 
ATOM     79  C   UNL A   1      48.709  28.926  29.174  1.00  0.00     0.091 A 
ATOM     80  F   UNL A   1      46.902  28.953  30.732  1.00  0.00    -0.205 F 
ATOM     81  C   UNL A   1      49.180  29.175  27.876  1.00  0.00     0.022 A 
BRANCH  79  82
ATOM     82  S   UNL A   1      49.889  28.268  30.358  1.00  0.00     0.127 S 
ATOM     83  O   UNL A   1      49.888  29.302  31.389  1.00  0.00    -0.237 OA
ATOM     84  O   UNL A   1      49.252  27.008  30.748  1.00  0.00    -0.237 OA
ATOM     85  O   UNL A   1      51.137  28.108  29.623  1.00  0.00    -0.744 OA
ENDBRANCH  79  82
ENDBRANCH  51  75
BRANCH  63  86
ATOM     86  C   UNL A   1      43.519  35.559  31.203  1.00  0.00     0.023 A 
ATOM     87  C   UNL A   1      43.780  36.588  30.278  1.00  0.00     0.012 A 
ATOM     88  C   UNL A   1      43.696  35.808  32.580  1.00  0.00     0.148 A 
ATOM     89  C   UNL A   1      44.242  37.831  30.709  1.00  0.00     0.002 A 
ATOM     90  C   UNL A   1      44.106  37.066  33.007  1.00  0.00     0.091 A 
ATOM     91  F   UNL A   1      43.456  34.812  33.446  1.00  0.00    -0.205 F 
ATOM     92  C   UNL A   1      44.394  38.073  32.073  1.00  0.00     0.022 A 
BRANCH  90  93
ATOM     93  S   UNL A   1      44.235  37.501  34.746  1.00  0.00     0.127 S 
ATOM     94  O   UNL A   1      42.892  37.186  35.232  1.00  0.00    -0.237 OA
ATOM     95  O   UNL A   1      45.282  36.593  35.215  1.00  0.00    -0.237 OA
ATOM     96  O   UNL A   1      44.596  38.912  34.782  1.00  0.00    -0.744 OA
ENDBRANCH  90  93
ENDBRANCH  63  86
ENDBRANCH  37  38
ENDBRANCH  30  32
ENDBRANCH  29  30
ENDBRANCH  28  29
ENDBRANCH  27  28
ENDBRANCH  26  27
ENDBRANCH   1  26
TORSDOF 22
ENDMDL
