MODEL 1
REMARK VINA RESULT:      -9.2      0.000      0.000
REMARK SMILES COC[C@H](C)n1c(SCC(=O)OCCOCCOCCOC(=O)c2ccc(-c3c4nc(c(-c5cccc(S(=O)(=O)[O-])c5F)c5ccc([nH]5)c(-c5cccc(S(=O)(=O)[O-])c5F)c5nc(c(-c6cccc(S(=O)(=O)[O-])c6F)c6ccc3[nH]6)C=C5)C=C4)cc2)nc2cc(C)cnc21
REMARK SMILES IDX 16 1 15 2 14 3 13 4 12 5 10 6 11 7 9 8 8 9 7 10 6 11 94 12
REMARK SMILES IDX 87 13 88 14 93 15 89 16 92 17 90 18 91 19 4 20 5 21 3 22
REMARK SMILES IDX 2 23 1 24 17 25 18 26 19 27 20 28 21 29 22 30 23 31 24 32
REMARK SMILES IDX 25 33 86 34 26 35 85 36 27 37 28 38 29 39 79 40 30 41 84 42
REMARK SMILES IDX 78 43 80 44 31 45 83 46 77 47 76 48 32 50 64 51 44 52 63 53
REMARK SMILES IDX 45 54 48 55 62 56 81 57 46 58 47 59 61 61 82 62 49 63 33 64
REMARK SMILES IDX 34 65 42 66 35 67 37 68 43 69 36 70 38 71 39 72 40 73 41 74
REMARK SMILES IDX 65 75 66 76 74 77 67 78 69 79 75 80 68 81 70 82 71 83 72 84
REMARK SMILES IDX 73 85 50 86 51 87 59 88 52 89 54 90 60 91 53 92 55 93 56 94
REMARK SMILES IDX 57 95 58 96
REMARK H PARENT 80 49 48 60
REMARK Flexibility Score: inf
ROOT
ATOM      1  C   UNL A   1      36.879  22.434  24.460  1.00  0.00     0.188 C 
ENDROOT
BRANCH   1   2
ATOM      2  O   UNL A   1      35.563  22.932  24.597  1.00  0.00    -0.376 OA
BRANCH   2   3
ATOM      3  C   UNL A   1      34.789  23.159  23.430  1.00  0.00     0.202 C 
BRANCH   3   4
ATOM      4  C   UNL A   1      34.184  24.547  23.241  1.00  0.00     0.261 C 
BRANCH   4   5
ATOM      5  O   UNL A   1      33.313  24.663  22.092  1.00  0.00    -0.463 OA
BRANCH   5   6
ATOM      6  C   UNL A   1      32.941  25.926  21.765  1.00  0.00     0.316 C 
ATOM      7  O   UNL A   1      33.735  26.791  21.404  1.00  0.00    -0.251 OA
BRANCH   6   8
ATOM      8  C   UNL A   1      31.495  26.273  22.016  1.00  0.00     0.200 C 
BRANCH   8   9
ATOM      9  S   UNL A   1      30.966  26.647  23.659  1.00  0.00    -0.076 SA
BRANCH   9  10
ATOM     10  C   UNL A   1      31.834  27.904  24.484  1.00  0.00     0.171 A 
ATOM     11  N   UNL A   1      31.544  29.225  24.828  1.00  0.00    -0.298 N 
ATOM     12  C   UNL A   1      32.605  29.646  25.635  1.00  0.00     0.161 A 
ATOM     13  N   UNL A   1      32.985  27.516  24.995  1.00  0.00    -0.221 NA
ATOM     14  C   UNL A   1      33.407  28.525  25.794  1.00  0.00     0.109 A 
ATOM     15  N   UNL A   1      32.798  30.839  26.237  1.00  0.00    -0.236 NA
ATOM     16  C   UNL A   1      34.440  28.549  26.739  1.00  0.00     0.037 A 
ATOM     17  C   UNL A   1      33.802  30.801  27.172  1.00  0.00     0.117 A 
ATOM     18  C   UNL A   1      34.584  29.698  27.514  1.00  0.00    -0.030 A 
ATOM     19  C   UNL A   1      35.526  29.719  28.681  1.00  0.00     0.046 C 
BRANCH  11  20
ATOM     20  C   UNL A   1      30.305  29.977  24.602  1.00  0.00     0.114 C 
ATOM     21  C   UNL A   1      30.333  31.466  24.985  1.00  0.00     0.034 C 
BRANCH  20  22
ATOM     22  C   UNL A   1      29.746  29.817  23.177  1.00  0.00     0.185 C 
BRANCH  22  23
ATOM     23  O   UNL A   1      28.314  29.881  23.086  1.00  0.00    -0.383 OA
ATOM     24  C   UNL A   1      27.792  31.018  22.411  1.00  0.00     0.194 C 
ENDBRANCH  22  23
ENDBRANCH  20  22
ENDBRANCH  11  20
ENDBRANCH   9  10
ENDBRANCH   8   9
ENDBRANCH   6   8
ENDBRANCH   5   6
ENDBRANCH   4   5
ENDBRANCH   3   4
ENDBRANCH   2   3
ENDBRANCH   1   2
BRANCH   1  25
ATOM     25  C   UNL A   1      37.511  21.631  25.607  1.00  0.00     0.188 C 
BRANCH  25  26
ATOM     26  O   UNL A   1      38.887  21.305  25.632  1.00  0.00    -0.376 OA
BRANCH  26  27
ATOM     27  C   UNL A   1      39.788  22.007  26.472  1.00  0.00     0.202 C 
BRANCH  27  28
ATOM     28  C   UNL A   1      39.480  23.449  26.824  1.00  0.00     0.261 C 
BRANCH  28  29
ATOM     29  O   UNL A   1      40.382  23.942  27.808  1.00  0.00    -0.460 OA
BRANCH  29  30
ATOM     30  C   UNL A   1      40.141  25.231  28.113  1.00  0.00     0.338 C 
ATOM     31  O   UNL A   1      39.222  25.671  28.783  1.00  0.00    -0.246 OA
BRANCH  30  32
ATOM     32  C   UNL A   1      41.104  26.100  27.430  1.00  0.00     0.060 A 
ATOM     33  C   UNL A   1      42.279  26.278  28.155  1.00  0.00     0.016 A 
ATOM     34  C   UNL A   1      40.545  27.122  26.661  1.00  0.00     0.016 A 
ATOM     35  C   UNL A   1      42.648  27.555  28.469  1.00  0.00     0.010 A 
ATOM     36  C   UNL A   1      40.927  28.409  26.962  1.00  0.00     0.010 A 
ATOM     37  C   UNL A   1      41.850  28.592  27.994  1.00  0.00    -0.014 A 
BRANCH  37  38
ATOM     38  C   UNL A   1      41.948  29.841  28.728  1.00  0.00     0.031 A 
ATOM     39  C   UNL A   1      43.162  30.634  28.424  1.00  0.00     0.074 A 
ATOM     40  C   UNL A   1      40.977  30.195  29.594  1.00  0.00     0.049 A 
ATOM     41  N   UNL A   1      43.986  31.194  29.251  1.00  0.00    -0.248 NA
ATOM     42  C   UNL A   1      43.593  30.665  27.015  1.00  0.00     0.031 C 
ATOM     43  C   UNL A   1      39.704  29.506  29.843  1.00  0.00     0.029 A 
ATOM     44  N   UNL A   1      40.830  31.364  30.279  1.00  0.00    -0.354 N 
ATOM     45  C   UNL A   1      44.926  31.822  28.441  1.00  0.00     0.074 A 
ATOM     46  C   UNL A   1      44.749  31.313  27.107  1.00  0.00     0.031 C 
ATOM     47  C   UNL A   1      38.811  30.404  30.303  1.00  0.00     0.029 A 
ATOM     48  C   UNL A   1      39.486  31.677  30.470  1.00  0.00     0.049 A 
ATOM     49  H   UNL A   1      41.580  31.919  30.598  1.00  0.00     0.167 HD
ATOM     50  C   UNL A   1      45.625  32.913  28.846  1.00  0.00     0.034 A 
ATOM     51  C   UNL A   1      38.958  32.920  30.575  1.00  0.00     0.034 A 
ATOM     52  C   UNL A   1      45.698  33.036  30.271  1.00  0.00     0.049 A 
ATOM     53  C   UNL A   1      40.058  33.850  30.917  1.00  0.00     0.074 A 
ATOM     54  C   UNL A   1      46.221  32.254  31.282  1.00  0.00     0.029 A 
ATOM     55  N   UNL A   1      44.879  33.952  30.881  1.00  0.00    -0.354 N 
ATOM     56  N   UNL A   1      40.675  33.851  32.066  1.00  0.00    -0.248 NA
ATOM     57  C   UNL A   1      40.766  34.510  29.830  1.00  0.00     0.031 C 
ATOM     58  C   UNL A   1      45.353  32.450  32.391  1.00  0.00     0.029 A 
ATOM     59  C   UNL A   1      44.360  33.350  31.999  1.00  0.00     0.049 A 
ATOM     60  H   UNL A   1      44.696  34.869  30.574  1.00  0.00     0.167 HD
ATOM     61  C   UNL A   1      42.004  34.102  31.749  1.00  0.00     0.074 A 
ATOM     62  C   UNL A   1      41.977  34.624  30.385  1.00  0.00     0.031 C 
ATOM     63  C   UNL A   1      43.022  33.581  32.499  1.00  0.00     0.034 A 
BRANCH  50  64
ATOM     64  C   UNL A   1      45.977  34.025  27.900  1.00  0.00     0.023 A 
ATOM     65  C   UNL A   1      44.961  34.588  27.107  1.00  0.00     0.012 A 
ATOM     66  C   UNL A   1      47.310  34.395  27.605  1.00  0.00     0.148 A 
ATOM     67  C   UNL A   1      45.263  35.489  26.079  1.00  0.00     0.002 A 
ATOM     68  C   UNL A   1      47.595  35.368  26.659  1.00  0.00     0.091 A 
ATOM     69  F   UNL A   1      48.331  33.717  28.143  1.00  0.00    -0.205 F 
ATOM     70  C   UNL A   1      46.577  35.901  25.872  1.00  0.00     0.022 A 
BRANCH  68  71
ATOM     71  S   UNL A   1      49.272  35.980  26.470  1.00  0.00     0.127 S 
ATOM     72  O   UNL A   1      49.966  34.801  25.963  1.00  0.00    -0.237 OA
ATOM     73  O   UNL A   1      49.100  37.063  25.500  1.00  0.00    -0.237 OA
ATOM     74  O   UNL A   1      49.651  36.437  27.803  1.00  0.00    -0.744 OA
ENDBRANCH  68  71
ENDBRANCH  50  64
BRANCH  51  75
ATOM     75  C   UNL A   1      37.628  33.385  30.112  1.00  0.00     0.023 A 
ATOM     76  C   UNL A   1      37.268  33.216  28.763  1.00  0.00     0.012 A 
ATOM     77  C   UNL A   1      36.625  33.795  31.021  1.00  0.00     0.148 A 
ATOM     78  C   UNL A   1      35.953  33.442  28.335  1.00  0.00     0.002 A 
ATOM     79  C   UNL A   1      35.327  34.047  30.587  1.00  0.00     0.091 A 
ATOM     80  F   UNL A   1      36.910  33.849  32.329  1.00  0.00    -0.205 F 
ATOM     81  C   UNL A   1      34.984  33.861  29.244  1.00  0.00     0.022 A 
BRANCH  79  82
ATOM     82  S   UNL A   1      34.038  34.598  31.714  1.00  0.00     0.127 S 
ATOM     83  O   UNL A   1      33.819  33.405  32.535  1.00  0.00    -0.237 OA
ATOM     84  O   UNL A   1      34.692  35.705  32.404  1.00  0.00    -0.237 OA
ATOM     85  O   UNL A   1      32.903  34.956  30.871  1.00  0.00    -0.744 OA
ENDBRANCH  79  82
ENDBRANCH  51  75
BRANCH  63  86
ATOM     86  C   UNL A   1      42.667  32.888  33.797  1.00  0.00     0.023 A 
ATOM     87  C   UNL A   1      42.508  33.617  34.996  1.00  0.00     0.012 A 
ATOM     88  C   UNL A   1      42.291  31.533  33.779  1.00  0.00     0.148 A 
ATOM     89  C   UNL A   1      42.018  33.009  36.154  1.00  0.00     0.002 A 
ATOM     90  C   UNL A   1      41.755  30.944  34.921  1.00  0.00     0.091 A 
ATOM     91  F   UNL A   1      42.432  30.847  32.635  1.00  0.00    -0.205 F 
ATOM     92  C   UNL A   1      41.629  31.674  36.113  1.00  0.00     0.022 A 
BRANCH  90  93
ATOM     93  S   UNL A   1      41.095  29.275  34.892  1.00  0.00     0.127 S 
ATOM     94  O   UNL A   1      40.681  29.083  36.279  1.00  0.00    -0.237 OA
ATOM     95  O   UNL A   1      39.993  29.383  33.934  1.00  0.00    -0.237 OA
ATOM     96  O   UNL A   1      42.190  28.427  34.436  1.00  0.00    -0.744 OA
ENDBRANCH  90  93
ENDBRANCH  63  86
ENDBRANCH  37  38
ENDBRANCH  30  32
ENDBRANCH  29  30
ENDBRANCH  28  29
ENDBRANCH  27  28
ENDBRANCH  26  27
ENDBRANCH  25  26
ENDBRANCH   1  25
TORSDOF 25
ENDMDL
MODEL 2
REMARK VINA RESULT:      -9.2      1.953      3.562
REMARK SMILES COC[C@H](C)n1c(SCC(=O)OCCOCCOCCOC(=O)c2ccc(-c3c4nc(c(-c5cccc(S(=O)(=O)[O-])c5F)c5ccc([nH]5)c(-c5cccc(S(=O)(=O)[O-])c5F)c5nc(c(-c6cccc(S(=O)(=O)[O-])c6F)c6ccc3[nH]6)C=C5)C=C4)cc2)nc2cc(C)cnc21
REMARK SMILES IDX 16 1 15 2 14 3 13 4 12 5 10 6 11 7 9 8 8 9 7 10 6 11 94 12
REMARK SMILES IDX 87 13 88 14 93 15 89 16 92 17 90 18 91 19 4 20 5 21 3 22
REMARK SMILES IDX 2 23 1 24 17 25 18 26 19 27 20 28 21 29 22 30 23 31 24 32
REMARK SMILES IDX 25 33 86 34 26 35 85 36 27 37 28 38 29 39 79 40 30 41 84 42
REMARK SMILES IDX 78 43 80 44 31 45 83 46 77 47 76 48 32 50 64 51 44 52 63 53
REMARK SMILES IDX 45 54 48 55 62 56 81 57 46 58 47 59 61 61 82 62 49 63 33 64
REMARK SMILES IDX 34 65 42 66 35 67 37 68 43 69 36 70 38 71 39 72 40 73 41 74
REMARK SMILES IDX 65 75 66 76 74 77 67 78 69 79 75 80 68 81 70 82 71 83 72 84
REMARK SMILES IDX 73 85 50 86 51 87 59 88 52 89 54 90 60 91 53 92 55 93 56 94
REMARK SMILES IDX 57 95 58 96
REMARK H PARENT 80 49 48 60
REMARK Flexibility Score: inf
ROOT
ATOM      1  C   UNL A   1      36.992  22.549  24.592  1.00  0.00     0.188 C 
ENDROOT
BRANCH   1   2
ATOM      2  O   UNL A   1      35.692  22.311  24.091  1.00  0.00    -0.376 OA
BRANCH   2   3
ATOM      3  C   UNL A   1      35.181  23.158  23.074  1.00  0.00     0.202 C 
BRANCH   3   4
ATOM      4  C   UNL A   1      34.717  24.552  23.482  1.00  0.00     0.261 C 
BRANCH   4   5
ATOM      5  O   UNL A   1      34.096  25.306  22.415  1.00  0.00    -0.463 OA
BRANCH   5   6
ATOM      6  C   UNL A   1      33.128  26.176  22.800  1.00  0.00     0.316 C 
ATOM      7  O   UNL A   1      33.270  26.981  23.716  1.00  0.00    -0.251 OA
BRANCH   6   8
ATOM      8  C   UNL A   1      31.785  26.002  22.136  1.00  0.00     0.200 C 
BRANCH   8   9
ATOM      9  S   UNL A   1      30.652  24.807  22.774  1.00  0.00    -0.076 SA
BRANCH   9  10
ATOM     10  C   UNL A   1      31.347  23.413  23.540  1.00  0.00     0.171 A 
ATOM     11  N   UNL A   1      31.396  22.947  24.854  1.00  0.00    -0.298 N 
ATOM     12  C   UNL A   1      31.966  21.672  24.781  1.00  0.00     0.161 A 
ATOM     13  N   UNL A   1      31.860  22.538  22.700  1.00  0.00    -0.221 NA
ATOM     14  C   UNL A   1      32.132  21.426  23.425  1.00  0.00     0.109 A 
ATOM     15  N   UNL A   1      32.221  20.792  25.773  1.00  0.00    -0.236 NA
ATOM     16  C   UNL A   1      32.472  20.137  22.999  1.00  0.00     0.037 A 
ATOM     17  C   UNL A   1      32.522  19.539  25.302  1.00  0.00     0.117 A 
ATOM     18  C   UNL A   1      32.585  19.142  23.967  1.00  0.00    -0.030 A 
ATOM     19  C   UNL A   1      32.740  17.703  23.570  1.00  0.00     0.046 C 
BRANCH  11  20
ATOM     20  C   UNL A   1      30.794  23.534  26.056  1.00  0.00     0.114 C 
ATOM     21  C   UNL A   1      30.130  22.551  27.035  1.00  0.00     0.034 C 
BRANCH  20  22
ATOM     22  C   UNL A   1      31.748  24.467  26.822  1.00  0.00     0.185 C 
BRANCH  22  23
ATOM     23  O   UNL A   1      31.342  25.844  26.851  1.00  0.00    -0.383 OA
ATOM     24  C   UNL A   1      32.394  26.796  26.751  1.00  0.00     0.194 C 
ENDBRANCH  22  23
ENDBRANCH  20  22
ENDBRANCH  11  20
ENDBRANCH   9  10
ENDBRANCH   8   9
ENDBRANCH   6   8
ENDBRANCH   5   6
ENDBRANCH   4   5
ENDBRANCH   3   4
ENDBRANCH   2   3
ENDBRANCH   1   2
BRANCH   1  25
ATOM     25  C   UNL A   1      37.600  21.582  25.618  1.00  0.00     0.188 C 
BRANCH  25  26
ATOM     26  O   UNL A   1      38.993  21.357  25.711  1.00  0.00    -0.376 OA
BRANCH  26  27
ATOM     27  C   UNL A   1      39.777  22.024  26.685  1.00  0.00     0.202 C 
BRANCH  27  28
ATOM     28  C   UNL A   1      39.550  23.506  26.911  1.00  0.00     0.261 C 
BRANCH  28  29
ATOM     29  O   UNL A   1      40.557  24.060  27.749  1.00  0.00    -0.460 OA
BRANCH  29  30
ATOM     30  C   UNL A   1      40.310  25.348  28.051  1.00  0.00     0.338 C 
ATOM     31  O   UNL A   1      39.360  25.791  28.675  1.00  0.00    -0.246 OA
BRANCH  30  32
ATOM     32  C   UNL A   1      41.314  26.215  27.428  1.00  0.00     0.060 A 
ATOM     33  C   UNL A   1      42.445  26.387  28.221  1.00  0.00     0.016 A 
ATOM     34  C   UNL A   1      40.805  27.239  26.629  1.00  0.00     0.016 A 
ATOM     35  C   UNL A   1      42.799  27.663  28.558  1.00  0.00     0.010 A 
ATOM     36  C   UNL A   1      41.173  28.525  26.953  1.00  0.00     0.010 A 
ATOM     37  C   UNL A   1      42.034  28.703  28.039  1.00  0.00    -0.014 A 
BRANCH  37  38
ATOM     38  C   UNL A   1      42.093  29.951  28.779  1.00  0.00     0.031 A 
ATOM     39  C   UNL A   1      43.288  30.777  28.489  1.00  0.00     0.074 A 
ATOM     40  C   UNL A   1      41.106  30.276  29.638  1.00  0.00     0.049 A 
ATOM     41  N   UNL A   1      44.090  31.355  29.325  1.00  0.00    -0.248 NA
ATOM     42  C   UNL A   1      43.730  30.826  27.084  1.00  0.00     0.031 C 
ATOM     43  C   UNL A   1      39.850  29.552  29.873  1.00  0.00     0.029 A 
ATOM     44  N   UNL A   1      40.923  31.437  30.327  1.00  0.00    -0.354 N 
ATOM     45  C   UNL A   1      45.020  32.012  28.526  1.00  0.00     0.074 A 
ATOM     46  C   UNL A   1      44.868  31.504  27.188  1.00  0.00     0.031 C 
ATOM     47  C   UNL A   1      38.929  30.423  30.330  1.00  0.00     0.029 A 
ATOM     48  C   UNL A   1      39.569  31.713  30.508  1.00  0.00     0.049 A 
ATOM     49  H   UNL A   1      41.655  32.009  30.655  1.00  0.00     0.167 HD
ATOM     50  C   UNL A   1      45.687  33.119  28.942  1.00  0.00     0.034 A 
ATOM     51  C   UNL A   1      39.008  32.941  30.614  1.00  0.00     0.034 A 
ATOM     52  C   UNL A   1      45.745  33.236  30.368  1.00  0.00     0.049 A 
ATOM     53  C   UNL A   1      40.080  33.899  30.970  1.00  0.00     0.074 A 
ATOM     54  C   UNL A   1      46.280  32.464  31.379  1.00  0.00     0.029 A 
ATOM     55  N   UNL A   1      44.896  34.127  30.976  1.00  0.00    -0.354 N 
ATOM     56  N   UNL A   1      40.687  33.910  32.124  1.00  0.00    -0.248 NA
ATOM     57  C   UNL A   1      40.779  34.582  29.892  1.00  0.00     0.031 C 
ATOM     58  C   UNL A   1      45.397  32.631  32.482  1.00  0.00     0.029 A 
ATOM     59  C   UNL A   1      44.384  33.507  32.086  1.00  0.00     0.049 A 
ATOM     60  H   UNL A   1      44.692  35.041  30.671  1.00  0.00     0.167 HD
ATOM     61  C   UNL A   1      42.011  34.198  31.820  1.00  0.00     0.074 A 
ATOM     62  C   UNL A   1      41.982  34.725  30.457  1.00  0.00     0.031 C 
ATOM     63  C   UNL A   1      43.037  33.700  32.575  1.00  0.00     0.034 A 
BRANCH  50  64
ATOM     64  C   UNL A   1      46.017  34.244  28.004  1.00  0.00     0.023 A 
ATOM     65  C   UNL A   1      44.981  35.089  27.567  1.00  0.00     0.012 A 
ATOM     66  C   UNL A   1      47.273  34.374  27.366  1.00  0.00     0.148 A 
ATOM     67  C   UNL A   1      45.196  36.029  26.552  1.00  0.00     0.002 A 
ATOM     68  C   UNL A   1      47.508  35.377  26.438  1.00  0.00     0.091 A 
ATOM     69  F   UNL A   1      48.220  33.445  27.550  1.00  0.00    -0.205 F 
ATOM     70  C   UNL A   1      46.466  36.194  26.007  1.00  0.00     0.022 A 
BRANCH  68  71
ATOM     71  S   UNL A   1      49.169  35.661  25.818  1.00  0.00     0.127 S 
ATOM     72  O   UNL A   1      49.016  36.932  25.119  1.00  0.00    -0.237 OA
ATOM     73  O   UNL A   1      49.955  35.723  27.052  1.00  0.00    -0.237 OA
ATOM     74  O   UNL A   1      49.460  34.494  24.993  1.00  0.00    -0.744 OA
ENDBRANCH  68  71
ENDBRANCH  50  64
BRANCH  51  75
ATOM     75  C   UNL A   1      37.670  33.374  30.143  1.00  0.00     0.023 A 
ATOM     76  C   UNL A   1      37.323  33.195  28.791  1.00  0.00     0.012 A 
ATOM     77  C   UNL A   1      36.650  33.759  31.045  1.00  0.00     0.148 A 
ATOM     78  C   UNL A   1      36.006  33.388  28.354  1.00  0.00     0.002 A 
ATOM     79  C   UNL A   1      35.350  33.978  30.602  1.00  0.00     0.091 A 
ATOM     80  F   UNL A   1      36.925  33.819  32.355  1.00  0.00    -0.205 F 
ATOM     81  C   UNL A   1      35.021  33.783  29.257  1.00  0.00     0.022 A 
BRANCH  79  82
ATOM     82  S   UNL A   1      34.040  34.497  31.720  1.00  0.00     0.127 S 
ATOM     83  O   UNL A   1      34.618  35.695  32.333  1.00  0.00    -0.237 OA
ATOM     84  O   UNL A   1      32.938  34.752  30.799  1.00  0.00    -0.237 OA
ATOM     85  O   UNL A   1      33.852  33.388  32.648  1.00  0.00    -0.744 OA
ENDBRANCH  79  82
ENDBRANCH  51  75
BRANCH  63  86
ATOM     86  C   UNL A   1      42.690  32.992  33.867  1.00  0.00     0.023 A 
ATOM     87  C   UNL A   1      42.552  33.704  35.079  1.00  0.00     0.012 A 
ATOM     88  C   UNL A   1      42.299  31.642  33.835  1.00  0.00     0.148 A 
ATOM     89  C   UNL A   1      42.069  33.085  36.233  1.00  0.00     0.002 A 
ATOM     90  C   UNL A   1      41.770  31.041  34.974  1.00  0.00     0.091 A 
ATOM     91  F   UNL A   1      42.419  30.971  32.678  1.00  0.00    -0.205 F 
ATOM     92  C   UNL A   1      41.665  31.755  36.178  1.00  0.00     0.022 A 
BRANCH  90  93
ATOM     93  S   UNL A   1      41.091  29.379  34.928  1.00  0.00     0.127 S 
ATOM     94  O   UNL A   1      40.184  29.450  33.785  1.00  0.00    -0.237 OA
ATOM     95  O   UNL A   1      42.280  28.553  34.714  1.00  0.00    -0.237 OA
ATOM     96  O   UNL A   1      40.459  29.178  36.226  1.00  0.00    -0.744 OA
ENDBRANCH  90  93
ENDBRANCH  63  86
ENDBRANCH  37  38
ENDBRANCH  30  32
ENDBRANCH  29  30
ENDBRANCH  28  29
ENDBRANCH  27  28
ENDBRANCH  26  27
ENDBRANCH  25  26
ENDBRANCH   1  25
TORSDOF 25
ENDMDL
MODEL 3
REMARK VINA RESULT:      -9.1      1.208      2.435
REMARK SMILES COC[C@H](C)n1c(SCC(=O)OCCOCCOCCOC(=O)c2ccc(-c3c4nc(c(-c5cccc(S(=O)(=O)[O-])c5F)c5ccc([nH]5)c(-c5cccc(S(=O)(=O)[O-])c5F)c5nc(c(-c6cccc(S(=O)(=O)[O-])c6F)c6ccc3[nH]6)C=C5)C=C4)cc2)nc2cc(C)cnc21
REMARK SMILES IDX 16 1 15 2 14 3 13 4 12 5 10 6 11 7 9 8 8 9 7 10 6 11 94 12
REMARK SMILES IDX 87 13 88 14 93 15 89 16 92 17 90 18 91 19 4 20 5 21 3 22
REMARK SMILES IDX 2 23 1 24 17 25 18 26 19 27 20 28 21 29 22 30 23 31 24 32
REMARK SMILES IDX 25 33 86 34 26 35 85 36 27 37 28 38 29 39 79 40 30 41 84 42
REMARK SMILES IDX 78 43 80 44 31 45 83 46 77 47 76 48 32 50 64 51 44 52 63 53
REMARK SMILES IDX 45 54 48 55 62 56 81 57 46 58 47 59 61 61 82 62 49 63 33 64
REMARK SMILES IDX 34 65 42 66 35 67 37 68 43 69 36 70 38 71 39 72 40 73 41 74
REMARK SMILES IDX 65 75 66 76 74 77 67 78 69 79 75 80 68 81 70 82 71 83 72 84
REMARK SMILES IDX 73 85 50 86 51 87 59 88 52 89 54 90 60 91 53 92 55 93 56 94
REMARK SMILES IDX 57 95 58 96
REMARK H PARENT 80 49 48 60
REMARK Flexibility Score: inf
ROOT
ATOM      1  C   UNL A   1      37.847  23.540  25.978  1.00  0.00     0.188 C 
ENDROOT
BRANCH   1   2
ATOM      2  O   UNL A   1      36.511  23.632  25.525  1.00  0.00    -0.376 OA
BRANCH   2   3
ATOM      3  C   UNL A   1      36.091  22.807  24.449  1.00  0.00     0.202 C 
BRANCH   3   4
ATOM      4  C   UNL A   1      35.471  23.490  23.234  1.00  0.00     0.261 C 
BRANCH   4   5
ATOM      5  O   UNL A   1      34.038  23.328  23.129  1.00  0.00    -0.463 OA
BRANCH   5   6
ATOM      6  C   UNL A   1      33.355  24.417  22.696  1.00  0.00     0.316 C 
ATOM      7  O   UNL A   1      33.425  24.844  21.546  1.00  0.00    -0.251 OA
BRANCH   6   8
ATOM      8  C   UNL A   1      32.608  25.190  23.753  1.00  0.00     0.200 C 
BRANCH   8   9
ATOM      9  S   UNL A   1      33.036  26.876  24.060  1.00  0.00    -0.076 SA
BRANCH   9  10
ATOM     10  C   UNL A   1      31.749  28.035  23.937  1.00  0.00     0.171 A 
ATOM     11  N   UNL A   1      31.259  29.038  24.775  1.00  0.00    -0.298 N 
ATOM     12  C   UNL A   1      30.309  29.730  24.017  1.00  0.00     0.161 A 
ATOM     13  N   UNL A   1      31.155  28.057  22.762  1.00  0.00    -0.221 NA
ATOM     14  C   UNL A   1      30.363  29.156  22.755  1.00  0.00     0.109 A 
ATOM     15  N   UNL A   1      29.556  30.797  24.361  1.00  0.00    -0.236 NA
ATOM     16  C   UNL A   1      29.693  29.772  21.692  1.00  0.00     0.037 A 
ATOM     17  C   UNL A   1      28.943  31.380  23.280  1.00  0.00     0.117 A 
ATOM     18  C   UNL A   1      29.033  30.973  21.949  1.00  0.00    -0.030 A 
ATOM     19  C   UNL A   1      28.474  31.793  20.825  1.00  0.00     0.046 C 
BRANCH  11  20
ATOM     20  C   UNL A   1      31.756  29.456  26.090  1.00  0.00     0.114 C 
ATOM     21  C   UNL A   1      31.801  28.370  27.178  1.00  0.00     0.034 C 
BRANCH  20  22
ATOM     22  C   UNL A   1      33.110  30.185  26.027  1.00  0.00     0.185 C 
BRANCH  22  23
ATOM     23  O   UNL A   1      33.807  30.262  27.280  1.00  0.00    -0.383 OA
ATOM     24  C   UNL A   1      34.980  29.464  27.381  1.00  0.00     0.194 C 
ENDBRANCH  22  23
ENDBRANCH  20  22
ENDBRANCH  11  20
ENDBRANCH   9  10
ENDBRANCH   8   9
ENDBRANCH   6   8
ENDBRANCH   5   6
ENDBRANCH   4   5
ENDBRANCH   3   4
ENDBRANCH   2   3
ENDBRANCH   1   2
BRANCH   1  25
ATOM     25  C   UNL A   1      38.544  22.173  26.015  1.00  0.00     0.188 C 
BRANCH  25  26
ATOM     26  O   UNL A   1      39.938  22.042  26.217  1.00  0.00    -0.376 OA
BRANCH  26  27
ATOM     27  C   UNL A   1      40.482  21.966  27.523  1.00  0.00     0.202 C 
BRANCH  27  28
ATOM     28  C   UNL A   1      41.359  23.101  28.013  1.00  0.00     0.261 C 
BRANCH  28  29
ATOM     29  O   UNL A   1      41.570  24.067  26.990  1.00  0.00    -0.460 OA
BRANCH  29  30
ATOM     30  C   UNL A   1      41.070  25.271  27.321  1.00  0.00     0.338 C 
ATOM     31  O   UNL A   1      40.064  25.498  27.975  1.00  0.00    -0.246 OA
BRANCH  30  32
ATOM     32  C   UNL A   1      41.855  26.337  26.692  1.00  0.00     0.060 A 
ATOM     33  C   UNL A   1      43.065  26.569  27.340  1.00  0.00     0.016 A 
ATOM     34  C   UNL A   1      41.111  27.368  26.118  1.00  0.00     0.016 A 
ATOM     35  C   UNL A   1      43.311  27.833  27.797  1.00  0.00     0.010 A 
ATOM     36  C   UNL A   1      41.367  28.645  26.562  1.00  0.00     0.010 A 
ATOM     37  C   UNL A   1      42.356  28.811  27.534  1.00  0.00    -0.014 A 
BRANCH  37  38
ATOM     38  C   UNL A   1      42.377  29.959  28.424  1.00  0.00     0.031 A 
ATOM     39  C   UNL A   1      43.559  30.837  28.258  1.00  0.00     0.074 A 
ATOM     40  C   UNL A   1      41.370  30.156  29.299  1.00  0.00     0.049 A 
ATOM     41  N   UNL A   1      44.336  31.322  29.174  1.00  0.00    -0.248 NA
ATOM     42  C   UNL A   1      44.020  31.068  26.878  1.00  0.00     0.031 C 
ATOM     43  C   UNL A   1      40.127  29.384  29.421  1.00  0.00     0.029 A 
ATOM     44  N   UNL A   1      41.152  31.219  30.122  1.00  0.00    -0.354 N 
ATOM     45  C   UNL A   1      45.263  32.091  28.478  1.00  0.00     0.074 A 
ATOM     46  C   UNL A   1      45.142  31.749  27.086  1.00  0.00     0.031 C 
ATOM     47  C   UNL A   1      39.181  30.175  29.964  1.00  0.00     0.029 A 
ATOM     48  C   UNL A   1      39.790  31.445  30.312  1.00  0.00     0.049 A 
ATOM     49  H   UNL A   1      41.867  31.761  30.531  1.00  0.00     0.167 HD
ATOM     50  C   UNL A   1      45.900  33.151  29.039  1.00  0.00     0.034 A 
ATOM     51  C   UNL A   1      39.202  32.639  30.559  1.00  0.00     0.034 A 
ATOM     52  C   UNL A   1      45.934  33.092  30.469  1.00  0.00     0.049 A 
ATOM     53  C   UNL A   1      40.247  33.566  31.048  1.00  0.00     0.074 A 
ATOM     54  C   UNL A   1      46.470  32.212  31.387  1.00  0.00     0.029 A 
ATOM     55  N   UNL A   1      45.058  33.885  31.167  1.00  0.00    -0.354 N 
ATOM     56  N   UNL A   1      40.836  33.447  32.205  1.00  0.00    -0.248 NA
ATOM     57  C   UNL A   1      40.948  34.391  30.075  1.00  0.00     0.031 C 
ATOM     58  C   UNL A   1      45.567  32.224  32.487  1.00  0.00     0.029 A 
ATOM     59  C   UNL A   1      44.542  33.122  32.183  1.00  0.00     0.049 A 
ATOM     60  H   UNL A   1      44.838  34.825  30.973  1.00  0.00     0.167 HD
ATOM     61  C   UNL A   1      42.159  33.795  31.963  1.00  0.00     0.074 A 
ATOM     62  C   UNL A   1      42.139  34.486  30.675  1.00  0.00     0.031 C 
ATOM     63  C   UNL A   1      43.183  33.228  32.669  1.00  0.00     0.034 A 
BRANCH  50  64
ATOM     64  C   UNL A   1      46.220  34.390  28.253  1.00  0.00     0.023 A 
ATOM     65  C   UNL A   1      45.170  35.093  27.638  1.00  0.00     0.012 A 
ATOM     66  C   UNL A   1      47.540  34.771  27.916  1.00  0.00     0.148 A 
ATOM     67  C   UNL A   1      45.427  36.138  26.742  1.00  0.00     0.002 A 
ATOM     68  C   UNL A   1      47.789  35.873  27.114  1.00  0.00     0.091 A 
ATOM     69  F   UNL A   1      48.574  33.992  28.262  1.00  0.00    -0.205 F 
ATOM     70  C   UNL A   1      46.735  36.547  26.501  1.00  0.00     0.022 A 
BRANCH  68  71
ATOM     71  S   UNL A   1      49.468  36.469  26.893  1.00  0.00     0.127 S 
ATOM     72  O   UNL A   1      50.056  35.411  26.078  1.00  0.00    -0.237 OA
ATOM     73  O   UNL A   1      49.258  37.741  26.199  1.00  0.00    -0.237 OA
ATOM     74  O   UNL A   1      49.990  36.615  28.247  1.00  0.00    -0.744 OA
ENDBRANCH  68  71
ENDBRANCH  50  64
BRANCH  51  75
ATOM     75  C   UNL A   1      37.862  33.101  30.120  1.00  0.00     0.023 A 
ATOM     76  C   UNL A   1      37.503  32.991  28.765  1.00  0.00     0.012 A 
ATOM     77  C   UNL A   1      36.852  33.446  31.049  1.00  0.00     0.148 A 
ATOM     78  C   UNL A   1      36.184  33.212  28.349  1.00  0.00     0.002 A 
ATOM     79  C   UNL A   1      35.549  33.693  30.628  1.00  0.00     0.091 A 
ATOM     80  F   UNL A   1      37.138  33.440  32.358  1.00  0.00    -0.205 F 
ATOM     81  C   UNL A   1      35.208  33.566  29.278  1.00  0.00     0.022 A 
BRANCH  79  82
ATOM     82  S   UNL A   1      34.251  34.162  31.782  1.00  0.00     0.127 S 
ATOM     83  O   UNL A   1      33.939  32.885  32.428  1.00  0.00    -0.237 OA
ATOM     84  O   UNL A   1      34.938  35.127  32.634  1.00  0.00    -0.237 OA
ATOM     85  O   UNL A   1      33.168  34.693  30.963  1.00  0.00    -0.744 OA
ENDBRANCH  79  82
ENDBRANCH  51  75
BRANCH  63  86
ATOM     86  C   UNL A   1      42.832  32.359  33.857  1.00  0.00     0.023 A 
ATOM     87  C   UNL A   1      42.631  32.917  35.139  1.00  0.00     0.012 A 
ATOM     88  C   UNL A   1      42.500  31.007  33.655  1.00  0.00     0.148 A 
ATOM     89  C   UNL A   1      42.144  32.147  36.197  1.00  0.00     0.002 A 
ATOM     90  C   UNL A   1      41.967  30.256  34.699  1.00  0.00     0.091 A 
ATOM     91  F   UNL A   1      42.680  30.483  32.432  1.00  0.00    -0.205 F 
ATOM     92  C   UNL A   1      41.799  30.818  35.974  1.00  0.00     0.022 A 
BRANCH  90  93
ATOM     93  S   UNL A   1      41.361  28.586  34.436  1.00  0.00     0.127 S 
ATOM     94  O   UNL A   1      41.067  28.149  35.799  1.00  0.00    -0.237 OA
ATOM     95  O   UNL A   1      40.182  28.802  33.596  1.00  0.00    -0.237 OA
ATOM     96  O   UNL A   1      42.443  27.878  33.764  1.00  0.00    -0.744 OA
ENDBRANCH  90  93
ENDBRANCH  63  86
ENDBRANCH  37  38
ENDBRANCH  30  32
ENDBRANCH  29  30
ENDBRANCH  28  29
ENDBRANCH  27  28
ENDBRANCH  26  27
ENDBRANCH  25  26
ENDBRANCH   1  25
TORSDOF 25
ENDMDL
