MODEL 1
REMARK VINA RESULT:     -10.1      0.000      0.000
REMARK SMILES O=C(N[C@@H](Cc1ccc(O)cc1)C(=O)N[C@@H](CO)C(=O)OCCOCCOCCOC(=O)c1ccc(-c2c3nc(c(-c4cccc(S(=O)(=O)[O-])c4F)c4ccc([nH]4)c(-c4cccc(S(=O)(=O)[O-])c4F)c4nc(c(-c5cccc(S(=O)(=O)[O-])c5F)c5ccc2[nH]5)C=C4)C=C3)cc1)c1ccc(F)cc1
REMARK SMILES IDX 25 1 24 2 23 3 22 4 21 5 19 6 20 7 16 8 15 9 13 10 14 11
REMARK SMILES IDX 4 13 3 14 1 15 2 16 96 18 97 19 102 20 98 21 101 22 99 23
REMARK SMILES IDX 100 24 5 25 6 26 7 27 12 28 8 29 11 30 9 31 10 32 17 34
REMARK SMILES IDX 18 35 26 37 27 38 28 39 29 40 30 41 31 42 32 43 33 44 34 45
REMARK SMILES IDX 95 46 35 47 94 48 36 49 37 50 38 51 88 52 39 53 93 54 87 55
REMARK SMILES IDX 89 56 40 57 92 58 86 59 85 60 41 62 73 63 53 64 72 65 54 66
REMARK SMILES IDX 57 67 71 68 90 69 55 70 56 71 70 73 91 74 58 75 42 76 43 77
REMARK SMILES IDX 51 78 44 79 46 80 52 81 45 82 47 83 48 84 49 85 50 86 74 87
REMARK SMILES IDX 75 88 83 89 76 90 78 91 84 92 77 93 79 94 80 95 81 96 82 97
REMARK SMILES IDX 59 98 60 99 68 100 61 101 63 102 69 103 62 104 64 105 65 106
REMARK SMILES IDX 66 107 67 108
REMARK H PARENT 15 12 3 17 10 33 18 36 89 61 57 72
REMARK Flexibility Score: inf
ROOT
ATOM      1  C   UNL A   1      42.256  19.442  27.382  1.00  0.00     0.188 C 
ENDROOT
BRANCH   1   2
ATOM      2  O   UNL A   1      40.996  20.091  27.503  1.00  0.00    -0.376 OA
BRANCH   2   3
ATOM      3  C   UNL A   1      40.456  20.590  26.282  1.00  0.00     0.202 C 
BRANCH   3   4
ATOM      4  C   UNL A   1      39.424  21.698  26.495  1.00  0.00     0.261 C 
BRANCH   4   5
ATOM      5  O   UNL A   1      38.689  21.994  25.288  1.00  0.00    -0.462 OA
BRANCH   5   6
ATOM      6  C   UNL A   1      37.609  21.218  25.004  1.00  0.00     0.331 C 
ATOM      7  O   UNL A   1      37.671  20.023  24.743  1.00  0.00    -0.250 OA
BRANCH   6   8
ATOM      8  C   UNL A   1      36.288  22.022  25.059  1.00  0.00     0.218 C 
BRANCH   8   9
ATOM      9  N   UNL A   1      35.773  22.326  26.399  1.00  0.00    -0.339 N 
ATOM     10  C   UNL A   1      34.548  22.236  26.971  1.00  0.00     0.243 C 
ATOM     11  O   UNL A   1      34.473  22.694  28.122  1.00  0.00    -0.273 OA
ATOM     12  H   UNL A   1      36.464  22.668  27.011  1.00  0.00     0.164 HD
BRANCH  10  13
ATOM     13  C   UNL A   1      33.260  21.676  26.309  1.00  0.00     0.176 C 
BRANCH  13  14
ATOM     14  N   UNL A   1      32.029  22.291  26.794  1.00  0.00    -0.340 N 
ATOM     15  O   UNL A   1      30.599  23.987  27.186  1.00  0.00    -0.269 OA
ATOM     16  C   UNL A   1      31.566  23.567  26.556  1.00  0.00     0.251 C 
ATOM     17  H   UNL A   1      31.459  21.725  27.361  1.00  0.00     0.164 HD
BRANCH  16  18
ATOM     18  C   UNL A   1      32.216  24.449  25.552  1.00  0.00     0.040 A 
ATOM     19  C   UNL A   1      31.762  24.486  24.225  1.00  0.00     0.017 A 
ATOM     20  C   UNL A   1      33.242  25.310  25.964  1.00  0.00     0.017 A 
ATOM     21  C   UNL A   1      32.365  25.350  23.307  1.00  0.00     0.040 A 
ATOM     22  C   UNL A   1      33.838  26.177  25.040  1.00  0.00     0.040 A 
ATOM     23  C   UNL A   1      33.395  26.187  23.721  1.00  0.00     0.123 A 
ATOM     24  F   UNL A   1      33.957  27.024  22.840  1.00  0.00    -0.207 F 
ENDBRANCH  16  18
ENDBRANCH  13  14
BRANCH  13  25
ATOM     25  C   UNL A   1      33.266  21.302  24.808  1.00  0.00     0.070 C 
BRANCH  25  26
ATOM     26  C   UNL A   1      33.463  19.892  24.312  1.00  0.00    -0.045 A 
ATOM     27  C   UNL A   1      32.600  19.411  23.312  1.00  0.00     0.007 A 
ATOM     28  C   UNL A   1      34.498  19.056  24.739  1.00  0.00     0.007 A 
ATOM     29  C   UNL A   1      32.643  18.080  22.894  1.00  0.00     0.046 A 
ATOM     30  C   UNL A   1      34.518  17.710  24.358  1.00  0.00     0.046 A 
ATOM     31  C   UNL A   1      33.573  17.226  23.464  1.00  0.00     0.115 A 
BRANCH  31  32
ATOM     32  O   UNL A   1      33.589  15.897  23.169  1.00  0.00    -0.508 OA
ATOM     33  H   UNL A   1      34.405  15.438  23.112  1.00  0.00     0.293 HD
ENDBRANCH  31  32
ENDBRANCH  25  26
ENDBRANCH  13  25
ENDBRANCH  10  13
ENDBRANCH   8   9
BRANCH   8  34
ATOM     34  C   UNL A   1      36.447  23.305  24.240  1.00  0.00     0.193 C 
BRANCH  34  35
ATOM     35  O   UNL A   1      37.020  23.040  22.959  1.00  0.00    -0.394 OA
ATOM     36  H   UNL A   1      36.766  23.743  22.341  1.00  0.00     0.210 HD
ENDBRANCH  34  35
ENDBRANCH   8  34
ENDBRANCH   6   8
ENDBRANCH   5   6
ENDBRANCH   4   5
ENDBRANCH   3   4
ENDBRANCH   2   3
ENDBRANCH   1   2
BRANCH   1  37
ATOM     37  C   UNL A   1      42.305  18.305  26.350  1.00  0.00     0.188 C 
BRANCH  37  38
ATOM     38  O   UNL A   1      43.130  18.445  25.204  1.00  0.00    -0.376 OA
BRANCH  38  39
ATOM     39  C   UNL A   1      44.484  18.822  25.417  1.00  0.00     0.202 C 
BRANCH  39  40
ATOM     40  C   UNL A   1      44.877  20.234  24.975  1.00  0.00     0.261 C 
BRANCH  40  41
ATOM     41  O   UNL A   1      43.753  21.132  24.905  1.00  0.00    -0.460 OA
BRANCH  41  42
ATOM     42  C   UNL A   1      44.025  22.337  24.344  1.00  0.00     0.338 C 
ATOM     43  O   UNL A   1      44.398  22.554  23.205  1.00  0.00    -0.246 OA
BRANCH  42  44
ATOM     44  C   UNL A   1      43.664  23.426  25.271  1.00  0.00     0.060 A 
ATOM     45  C   UNL A   1      43.978  24.740  24.903  1.00  0.00     0.016 A 
ATOM     46  C   UNL A   1      43.168  23.145  26.546  1.00  0.00     0.016 A 
ATOM     47  C   UNL A   1      43.826  25.779  25.822  1.00  0.00     0.010 A 
ATOM     48  C   UNL A   1      43.036  24.187  27.472  1.00  0.00     0.010 A 
ATOM     49  C   UNL A   1      43.395  25.502  27.126  1.00  0.00    -0.014 A 
BRANCH  49  50
ATOM     50  C   UNL A   1      43.511  26.544  28.175  1.00  0.00     0.031 A 
ATOM     51  C   UNL A   1      44.841  26.740  28.851  1.00  0.00     0.074 A 
ATOM     52  C   UNL A   1      42.461  27.309  28.527  1.00  0.00     0.049 A 
ATOM     53  N   UNL A   1      45.156  27.528  29.846  1.00  0.00    -0.248 NA
ATOM     54  C   UNL A   1      45.966  25.946  28.330  1.00  0.00     0.031 C 
ATOM     55  C   UNL A   1      41.134  27.252  27.922  1.00  0.00     0.029 A 
ATOM     56  N   UNL A   1      42.348  28.271  29.501  1.00  0.00    -0.354 N 
ATOM     57  C   UNL A   1      46.505  27.303  30.091  1.00  0.00     0.074 A 
ATOM     58  C   UNL A   1      46.953  26.314  29.133  1.00  0.00     0.031 C 
ATOM     59  C   UNL A   1      40.328  28.121  28.557  1.00  0.00     0.029 A 
ATOM     60  C   UNL A   1      41.074  28.767  29.637  1.00  0.00     0.049 A 
ATOM     61  H   UNL A   1      43.107  28.575  30.049  1.00  0.00     0.167 HD
ATOM     62  C   UNL A   1      47.305  27.870  31.024  1.00  0.00     0.034 A 
ATOM     63  C   UNL A   1      40.561  29.617  30.552  1.00  0.00     0.034 A 
ATOM     64  C   UNL A   1      46.871  28.857  31.973  1.00  0.00     0.049 A 
ATOM     65  C   UNL A   1      41.458  30.189  31.619  1.00  0.00     0.074 A 
ATOM     66  C   UNL A   1      47.613  29.490  32.956  1.00  0.00     0.029 A 
ATOM     67  N   UNL A   1      45.580  29.349  32.067  1.00  0.00    -0.354 N 
ATOM     68  N   UNL A   1      42.748  30.030  31.788  1.00  0.00    -0.248 NA
ATOM     69  C   UNL A   1      40.831  31.074  32.615  1.00  0.00     0.031 C 
ATOM     70  C   UNL A   1      46.765  30.356  33.653  1.00  0.00     0.029 A 
ATOM     71  C   UNL A   1      45.499  30.271  33.096  1.00  0.00     0.049 A 
ATOM     72  H   UNL A   1      44.830  29.082  31.488  1.00  0.00     0.167 HD
ATOM     73  C   UNL A   1      43.091  30.813  32.888  1.00  0.00     0.074 A 
ATOM     74  C   UNL A   1      41.878  31.464  33.332  1.00  0.00     0.031 C 
ATOM     75  C   UNL A   1      44.298  30.962  33.488  1.00  0.00     0.034 A 
BRANCH  62  76
ATOM     76  C   UNL A   1      48.743  27.436  31.056  1.00  0.00     0.023 A 
ATOM     77  C   UNL A   1      49.697  28.145  30.300  1.00  0.00     0.012 A 
ATOM     78  C   UNL A   1      49.154  26.353  31.855  1.00  0.00     0.148 A 
ATOM     79  C   UNL A   1      51.039  27.767  30.322  1.00  0.00     0.002 A 
ATOM     80  C   UNL A   1      50.498  26.003  31.898  1.00  0.00     0.091 A 
ATOM     81  F   UNL A   1      48.223  25.673  32.540  1.00  0.00    -0.205 F 
ATOM     82  C   UNL A   1      51.440  26.703  31.127  1.00  0.00     0.022 A 
BRANCH  80  83
ATOM     83  S   UNL A   1      51.113  24.685  32.951  1.00  0.00     0.127 S 
ATOM     84  O   UNL A   1      50.689  23.496  32.215  1.00  0.00    -0.237 OA
ATOM     85  O   UNL A   1      52.557  24.926  32.942  1.00  0.00    -0.237 OA
ATOM     86  O   UNL A   1      50.477  24.882  34.247  1.00  0.00    -0.744 OA
ENDBRANCH  80  83
ENDBRANCH  62  76
BRANCH  63  87
ATOM     87  C   UNL A   1      39.119  29.992  30.497  1.00  0.00     0.023 A 
ATOM     88  C   UNL A   1      38.142  29.062  30.901  1.00  0.00     0.012 A 
ATOM     89  C   UNL A   1      38.710  31.264  30.049  1.00  0.00     0.148 A 
ATOM     90  C   UNL A   1      36.785  29.382  30.837  1.00  0.00     0.002 A 
ATOM     91  C   UNL A   1      37.361  31.595  30.039  1.00  0.00     0.091 A 
ATOM     92  F   UNL A   1      39.651  32.126  29.637  1.00  0.00    -0.205 F 
ATOM     93  C   UNL A   1      36.394  30.651  30.418  1.00  0.00     0.022 A 
BRANCH  91  94
ATOM     94  S   UNL A   1      36.792  33.251  29.637  1.00  0.00     0.127 S 
ATOM     95  O   UNL A   1      37.922  34.069  30.066  1.00  0.00    -0.237 OA
ATOM     96  O   UNL A   1      36.603  33.169  28.188  1.00  0.00    -0.237 OA
ATOM     97  O   UNL A   1      35.554  33.425  30.386  1.00  0.00    -0.744 OA
ENDBRANCH  91  94
ENDBRANCH  63  87
BRANCH  75  98
ATOM     98  C   UNL A   1      44.386  31.883  34.677  1.00  0.00     0.023 A 
ATOM     99  C   UNL A   1      44.769  33.225  34.489  1.00  0.00     0.012 A 
ATOM    100  C   UNL A   1      43.999  31.448  35.959  1.00  0.00     0.148 A 
ATOM    101  C   UNL A   1      44.784  34.115  35.562  1.00  0.00     0.002 A 
ATOM    102  C   UNL A   1      43.977  32.351  37.017  1.00  0.00     0.091 A 
ATOM    103  F   UNL A   1      43.658  30.161  36.123  1.00  0.00    -0.205 F 
ATOM    104  C   UNL A   1      44.377  33.682  36.822  1.00  0.00     0.022 A 
BRANCH 102 105
ATOM    105  S   UNL A   1      43.378  31.898  38.650  1.00  0.00     0.127 S 
ATOM    106  O   UNL A   1      43.531  33.154  39.382  1.00  0.00    -0.237 OA
ATOM    107  O   UNL A   1      41.992  31.514  38.381  1.00  0.00    -0.237 OA
ATOM    108  O   UNL A   1      44.228  30.803  39.095  1.00  0.00    -0.744 OA
ENDBRANCH 102 105
ENDBRANCH  75  98
ENDBRANCH  49  50
ENDBRANCH  42  44
ENDBRANCH  41  42
ENDBRANCH  40  41
ENDBRANCH  39  40
ENDBRANCH  38  39
ENDBRANCH  37  38
ENDBRANCH   1  37
TORSDOF 29
ENDMDL
MODEL 2
REMARK VINA RESULT:      -9.7      4.454      9.786
REMARK SMILES O=C(N[C@@H](Cc1ccc(O)cc1)C(=O)N[C@@H](CO)C(=O)OCCOCCOCCOC(=O)c1ccc(-c2c3nc(c(-c4cccc(S(=O)(=O)[O-])c4F)c4ccc([nH]4)c(-c4cccc(S(=O)(=O)[O-])c4F)c4nc(c(-c5cccc(S(=O)(=O)[O-])c5F)c5ccc2[nH]5)C=C4)C=C3)cc1)c1ccc(F)cc1
REMARK SMILES IDX 25 1 24 2 23 3 22 4 21 5 19 6 20 7 16 8 15 9 13 10 14 11
REMARK SMILES IDX 4 13 3 14 1 15 2 16 96 18 97 19 102 20 98 21 101 22 99 23
REMARK SMILES IDX 100 24 5 25 6 26 7 27 12 28 8 29 11 30 9 31 10 32 17 34
REMARK SMILES IDX 18 35 26 37 27 38 28 39 29 40 30 41 31 42 32 43 33 44 34 45
REMARK SMILES IDX 95 46 35 47 94 48 36 49 37 50 38 51 88 52 39 53 93 54 87 55
REMARK SMILES IDX 89 56 40 57 92 58 86 59 85 60 41 62 73 63 53 64 72 65 54 66
REMARK SMILES IDX 57 67 71 68 90 69 55 70 56 71 70 73 91 74 58 75 42 76 43 77
REMARK SMILES IDX 51 78 44 79 46 80 52 81 45 82 47 83 48 84 49 85 50 86 74 87
REMARK SMILES IDX 75 88 83 89 76 90 78 91 84 92 77 93 79 94 80 95 81 96 82 97
REMARK SMILES IDX 59 98 60 99 68 100 61 101 63 102 69 103 62 104 64 105 65 106
REMARK SMILES IDX 66 107 67 108
REMARK H PARENT 15 12 3 17 10 33 18 36 89 61 57 72
REMARK Flexibility Score: inf
ROOT
ATOM      1  C   UNL A   1      32.009  29.928  25.190  1.00  0.00     0.188 C 
ENDROOT
BRANCH   1   2
ATOM      2  O   UNL A   1      31.029  28.976  24.795  1.00  0.00    -0.376 OA
BRANCH   2   3
ATOM      3  C   UNL A   1      30.507  29.159  23.481  1.00  0.00     0.202 C 
BRANCH   3   4
ATOM      4  C   UNL A   1      29.893  27.885  22.901  1.00  0.00     0.261 C 
BRANCH   4   5
ATOM      5  O   UNL A   1      29.112  27.165  23.880  1.00  0.00    -0.462 OA
BRANCH   5   6
ATOM      6  C   UNL A   1      29.558  25.938  24.261  1.00  0.00     0.331 C 
ATOM      7  O   UNL A   1      29.620  24.968  23.516  1.00  0.00    -0.250 OA
BRANCH   6   8
ATOM      8  C   UNL A   1      29.990  25.915  25.746  1.00  0.00     0.218 C 
BRANCH   8   9
ATOM      9  N   UNL A   1      29.516  24.775  26.538  1.00  0.00    -0.339 N 
ATOM     10  C   UNL A   1      30.049  23.568  26.850  1.00  0.00     0.243 C 
ATOM     11  O   UNL A   1      29.291  22.806  27.471  1.00  0.00    -0.273 OA
ATOM     12  H   UNL A   1      28.621  24.916  26.925  1.00  0.00     0.164 HD
BRANCH  10  13
ATOM     13  C   UNL A   1      31.462  23.056  26.461  1.00  0.00     0.176 C 
BRANCH  13  14
ATOM     14  N   UNL A   1      32.351  22.850  27.600  1.00  0.00    -0.340 N 
ATOM     15  O   UNL A   1      34.269  22.265  28.625  1.00  0.00    -0.269 OA
ATOM     16  C   UNL A   1      33.704  22.589  27.584  1.00  0.00     0.251 C 
ATOM     17  H   UNL A   1      31.933  22.905  28.488  1.00  0.00     0.164 HD
BRANCH  16  18
ATOM     18  C   UNL A   1      34.496  22.690  26.331  1.00  0.00     0.040 A 
ATOM     19  C   UNL A   1      34.854  21.540  25.611  1.00  0.00     0.017 A 
ATOM     20  C   UNL A   1      34.816  23.958  25.826  1.00  0.00     0.017 A 
ATOM     21  C   UNL A   1      35.568  21.660  24.416  1.00  0.00     0.040 A 
ATOM     22  C   UNL A   1      35.525  24.072  24.625  1.00  0.00     0.040 A 
ATOM     23  C   UNL A   1      35.896  22.923  23.934  1.00  0.00     0.123 A 
ATOM     24  F   UNL A   1      36.565  23.032  22.778  1.00  0.00    -0.207 F 
ENDBRANCH  16  18
ENDBRANCH  13  14
BRANCH  13  25
ATOM     25  C   UNL A   1      31.623  22.043  25.304  1.00  0.00     0.070 C 
BRANCH  25  26
ATOM     26  C   UNL A   1      31.998  22.447  23.901  1.00  0.00    -0.045 A 
ATOM     27  C   UNL A   1      32.059  21.450  22.913  1.00  0.00     0.007 A 
ATOM     28  C   UNL A   1      32.224  23.770  23.508  1.00  0.00     0.007 A 
ATOM     29  C   UNL A   1      32.518  21.729  21.626  1.00  0.00     0.046 A 
ATOM     30  C   UNL A   1      32.728  24.049  22.233  1.00  0.00     0.046 A 
ATOM     31  C   UNL A   1      32.901  23.024  21.314  1.00  0.00     0.115 A 
BRANCH  31  32
ATOM     32  O   UNL A   1      33.454  23.329  20.107  1.00  0.00    -0.508 OA
ATOM     33  H   UNL A   1      33.438  22.700  19.412  1.00  0.00     0.293 HD
ENDBRANCH  31  32
ENDBRANCH  25  26
ENDBRANCH  13  25
ENDBRANCH  10  13
ENDBRANCH   8   9
BRANCH   8  34
ATOM     34  C   UNL A   1      31.514  26.030  25.828  1.00  0.00     0.193 C 
BRANCH  34  35
ATOM     35  O   UNL A   1      32.072  26.471  24.590  1.00  0.00    -0.394 OA
ATOM     36  H   UNL A   1      31.358  26.647  23.958  1.00  0.00     0.210 HD
ENDBRANCH  34  35
ENDBRANCH   8  34
ENDBRANCH   6   8
ENDBRANCH   5   6
ENDBRANCH   4   5
ENDBRANCH   3   4
ENDBRANCH   2   3
ENDBRANCH   1   2
BRANCH   1  37
ATOM     37  C   UNL A   1      32.287  29.988  26.699  1.00  0.00     0.188 C 
BRANCH  37  38
ATOM     38  O   UNL A   1      32.370  31.251  27.340  1.00  0.00    -0.376 OA
BRANCH  38  39
ATOM     39  C   UNL A   1      33.666  31.738  27.658  1.00  0.00     0.202 C 
BRANCH  39  40
ATOM     40  C   UNL A   1      33.851  33.257  27.627  1.00  0.00     0.261 C 
BRANCH  40  41
ATOM     41  O   UNL A   1      32.738  33.969  28.201  1.00  0.00    -0.460 OA
BRANCH  41  42
ATOM     42  C   UNL A   1      33.083  34.997  29.016  1.00  0.00     0.338 C 
ATOM     43  O   UNL A   1      32.530  36.077  29.117  1.00  0.00    -0.246 OA
BRANCH  42  44
ATOM     44  C   UNL A   1      34.177  34.589  29.918  1.00  0.00     0.060 A 
ATOM     45  C   UNL A   1      35.495  34.746  29.472  1.00  0.00     0.016 A 
ATOM     46  C   UNL A   1      33.907  33.922  31.114  1.00  0.00     0.016 A 
ATOM     47  C   UNL A   1      36.551  34.207  30.209  1.00  0.00     0.010 A 
ATOM     48  C   UNL A   1      34.966  33.365  31.839  1.00  0.00     0.010 A 
ATOM     49  C   UNL A   1      36.289  33.476  31.374  1.00  0.00    -0.014 A 
BRANCH  49  50
ATOM     50  C   UNL A   1      37.367  32.665  31.991  1.00  0.00     0.031 A 
ATOM     51  C   UNL A   1      37.871  33.054  33.354  1.00  0.00     0.074 A 
ATOM     52  C   UNL A   1      37.894  31.598  31.362  1.00  0.00     0.049 A 
ATOM     53  N   UNL A   1      38.855  32.547  34.049  1.00  0.00    -0.248 NA
ATOM     54  C   UNL A   1      37.165  34.160  34.024  1.00  0.00     0.031 C 
ATOM     55  C   UNL A   1      37.466  31.088  30.062  1.00  0.00     0.029 A 
ATOM     56  N   UNL A   1      38.923  30.766  31.731  1.00  0.00    -0.354 N 
ATOM     57  C   UNL A   1      38.908  33.289  35.223  1.00  0.00     0.074 A 
ATOM     58  C   UNL A   1      37.850  34.275  35.152  1.00  0.00     0.031 C 
ATOM     59  C   UNL A   1      38.247  30.046  29.726  1.00  0.00     0.029 A 
ATOM     60  C   UNL A   1      39.251  29.840  30.769  1.00  0.00     0.049 A 
ATOM     61  H   UNL A   1      39.381  30.827  32.599  1.00  0.00     0.167 HD
ATOM     62  C   UNL A   1      39.756  33.163  36.270  1.00  0.00     0.034 A 
ATOM     63  C   UNL A   1      40.268  28.954  30.722  1.00  0.00     0.034 A 
ATOM     64  C   UNL A   1      40.803  32.184  36.353  1.00  0.00     0.049 A 
ATOM     65  C   UNL A   1      41.236  28.873  31.875  1.00  0.00     0.074 A 
ATOM     66  C   UNL A   1      41.711  31.979  37.377  1.00  0.00     0.029 A 
ATOM     67  N   UNL A   1      41.092  31.251  35.370  1.00  0.00    -0.354 N 
ATOM     68  N   UNL A   1      41.225  29.525  33.012  1.00  0.00    -0.248 NA
ATOM     69  C   UNL A   1      42.351  27.920  31.745  1.00  0.00     0.031 C 
ATOM     70  C   UNL A   1      42.558  30.930  37.008  1.00  0.00     0.029 A 
ATOM     71  C   UNL A   1      42.169  30.473  35.758  1.00  0.00     0.049 A 
ATOM     72  H   UNL A   1      40.604  31.156  34.521  1.00  0.00     0.167 HD
ATOM     73  C   UNL A   1      42.309  29.043  33.741  1.00  0.00     0.074 A 
ATOM     74  C   UNL A   1      42.942  28.028  32.927  1.00  0.00     0.031 C 
ATOM     75  C   UNL A   1      42.752  29.422  34.966  1.00  0.00     0.034 A 
BRANCH  62  76
ATOM     76  C   UNL A   1      39.575  34.110  37.422  1.00  0.00     0.023 A 
ATOM     77  C   UNL A   1      39.960  35.457  37.279  1.00  0.00     0.012 A 
ATOM     78  C   UNL A   1      38.996  33.677  38.630  1.00  0.00     0.148 A 
ATOM     79  C   UNL A   1      39.792  36.357  38.331  1.00  0.00     0.002 A 
ATOM     80  C   UNL A   1      38.800  34.587  39.662  1.00  0.00     0.091 A 
ATOM     81  F   UNL A   1      38.667  32.383  38.755  1.00  0.00    -0.205 F 
ATOM     82  C   UNL A   1      39.204  35.924  39.518  1.00  0.00     0.022 A 
BRANCH  80  83
ATOM     83  S   UNL A   1      37.998  34.131  41.203  1.00  0.00     0.127 S 
ATOM     84  O   UNL A   1      36.796  33.453  40.722  1.00  0.00    -0.237 OA
ATOM     85  O   UNL A   1      38.990  33.249  41.821  1.00  0.00    -0.237 OA
ATOM     86  O   UNL A   1      37.773  35.380  41.918  1.00  0.00    -0.744 OA
ENDBRANCH  80  83
ENDBRANCH  62  76
BRANCH  63  87
ATOM     87  C   UNL A   1      40.424  28.058  29.541  1.00  0.00     0.023 A 
ATOM     88  C   UNL A   1      39.605  26.919  29.419  1.00  0.00     0.012 A 
ATOM     89  C   UNL A   1      41.378  28.326  28.539  1.00  0.00     0.148 A 
ATOM     90  C   UNL A   1      39.749  26.052  28.335  1.00  0.00     0.002 A 
ATOM     91  C   UNL A   1      41.479  27.489  27.435  1.00  0.00     0.091 A 
ATOM     92  F   UNL A   1      42.171  29.397  28.687  1.00  0.00    -0.205 F 
ATOM     93  C   UNL A   1      40.676  26.342  27.337  1.00  0.00     0.022 A 
BRANCH  91  94
ATOM     94  S   UNL A   1      42.556  27.869  26.049  1.00  0.00     0.127 S 
ATOM     95  O   UNL A   1      42.451  29.323  25.976  1.00  0.00    -0.237 OA
ATOM     96  O   UNL A   1      43.849  27.367  26.517  1.00  0.00    -0.237 OA
ATOM     97  O   UNL A   1      42.007  27.130  24.920  1.00  0.00    -0.744 OA
ENDBRANCH  91  94
ENDBRANCH  63  87
BRANCH  75  98
ATOM     98  C   UNL A   1      43.964  28.725  35.525  1.00  0.00     0.023 A 
ATOM     99  C   UNL A   1      45.251  29.183  35.180  1.00  0.00     0.012 A 
ATOM    100  C   UNL A   1      43.831  27.683  36.464  1.00  0.00     0.148 A 
ATOM    101  C   UNL A   1      46.386  28.602  35.745  1.00  0.00     0.002 A 
ATOM    102  C   UNL A   1      44.965  27.137  37.055  1.00  0.00     0.091 A 
ATOM    103  F   UNL A   1      42.598  27.246  36.765  1.00  0.00    -0.205 F 
ATOM    104  C   UNL A   1      46.243  27.589  36.690  1.00  0.00     0.022 A 
BRANCH 102 105
ATOM    105  S   UNL A   1      44.866  25.893  38.349  1.00  0.00     0.127 S 
ATOM    106  O   UNL A   1      46.278  25.638  38.626  1.00  0.00    -0.237 OA
ATOM    107  O   UNL A   1      44.154  26.603  39.413  1.00  0.00    -0.237 OA
ATOM    108  O   UNL A   1      44.127  24.779  37.773  1.00  0.00    -0.744 OA
ENDBRANCH 102 105
ENDBRANCH  75  98
ENDBRANCH  49  50
ENDBRANCH  42  44
ENDBRANCH  41  42
ENDBRANCH  40  41
ENDBRANCH  39  40
ENDBRANCH  38  39
ENDBRANCH  37  38
ENDBRANCH   1  37
TORSDOF 29
ENDMDL
MODEL 3
REMARK VINA RESULT:      -9.6      4.753      9.995
REMARK SMILES O=C(N[C@@H](Cc1ccc(O)cc1)C(=O)N[C@@H](CO)C(=O)OCCOCCOCCOC(=O)c1ccc(-c2c3nc(c(-c4cccc(S(=O)(=O)[O-])c4F)c4ccc([nH]4)c(-c4cccc(S(=O)(=O)[O-])c4F)c4nc(c(-c5cccc(S(=O)(=O)[O-])c5F)c5ccc2[nH]5)C=C4)C=C3)cc1)c1ccc(F)cc1
REMARK SMILES IDX 25 1 24 2 23 3 22 4 21 5 19 6 20 7 16 8 15 9 13 10 14 11
REMARK SMILES IDX 4 13 3 14 1 15 2 16 96 18 97 19 102 20 98 21 101 22 99 23
REMARK SMILES IDX 100 24 5 25 6 26 7 27 12 28 8 29 11 30 9 31 10 32 17 34
REMARK SMILES IDX 18 35 26 37 27 38 28 39 29 40 30 41 31 42 32 43 33 44 34 45
REMARK SMILES IDX 95 46 35 47 94 48 36 49 37 50 38 51 88 52 39 53 93 54 87 55
REMARK SMILES IDX 89 56 40 57 92 58 86 59 85 60 41 62 73 63 53 64 72 65 54 66
REMARK SMILES IDX 57 67 71 68 90 69 55 70 56 71 70 73 91 74 58 75 42 76 43 77
REMARK SMILES IDX 51 78 44 79 46 80 52 81 45 82 47 83 48 84 49 85 50 86 74 87
REMARK SMILES IDX 75 88 83 89 76 90 78 91 84 92 77 93 79 94 80 95 81 96 82 97
REMARK SMILES IDX 59 98 60 99 68 100 61 101 63 102 69 103 62 104 64 105 65 106
REMARK SMILES IDX 66 107 67 108
REMARK H PARENT 15 12 3 17 10 33 18 36 89 61 57 72
REMARK Flexibility Score: inf
ROOT
ATOM      1  C   UNL A   1      34.918  31.076  27.849  1.00  0.00     0.188 C 
ENDROOT
BRANCH   1   2
ATOM      2  O   UNL A   1      34.278  30.243  26.890  1.00  0.00    -0.376 OA
BRANCH   2   3
ATOM      3  C   UNL A   1      32.856  30.201  26.984  1.00  0.00     0.202 C 
BRANCH   3   4
ATOM      4  C   UNL A   1      32.229  29.159  26.058  1.00  0.00     0.261 C 
BRANCH   4   5
ATOM      5  O   UNL A   1      32.079  29.652  24.709  1.00  0.00    -0.462 OA
BRANCH   5   6
ATOM      6  C   UNL A   1      32.771  29.015  23.727  1.00  0.00     0.331 C 
ATOM      7  O   UNL A   1      33.981  28.830  23.748  1.00  0.00    -0.250 OA
BRANCH   6   8
ATOM      8  C   UNL A   1      31.845  28.541  22.581  1.00  0.00     0.218 C 
BRANCH   8   9
ATOM      9  N   UNL A   1      32.411  27.545  21.665  1.00  0.00    -0.339 N 
ATOM     10  C   UNL A   1      32.839  26.268  21.821  1.00  0.00     0.243 C 
ATOM     11  O   UNL A   1      33.364  25.765  20.816  1.00  0.00    -0.273 OA
ATOM     12  H   UNL A   1      32.500  27.873  20.741  1.00  0.00     0.164 HD
BRANCH  10  13
ATOM     13  C   UNL A   1      32.777  25.429  23.126  1.00  0.00     0.176 C 
BRANCH  13  14
ATOM     14  N   UNL A   1      33.315  26.116  24.297  1.00  0.00    -0.340 N 
ATOM     15  O   UNL A   1      34.340  26.265  26.296  1.00  0.00    -0.269 OA
ATOM     16  C   UNL A   1      34.123  25.600  25.287  1.00  0.00     0.251 C 
ATOM     17  H   UNL A   1      33.071  27.064  24.390  1.00  0.00     0.164 HD
BRANCH  16  18
ATOM     18  C   UNL A   1      34.737  24.253  25.159  1.00  0.00     0.040 A 
ATOM     19  C   UNL A   1      34.634  23.314  26.197  1.00  0.00     0.017 A 
ATOM     20  C   UNL A   1      35.355  23.896  23.953  1.00  0.00     0.017 A 
ATOM     21  C   UNL A   1      35.188  22.041  26.041  1.00  0.00     0.040 A 
ATOM     22  C   UNL A   1      35.902  22.618  23.800  1.00  0.00     0.040 A 
ATOM     23  C   UNL A   1      35.815  21.704  24.846  1.00  0.00     0.123 A 
ATOM     24  F   UNL A   1      36.329  20.475  24.697  1.00  0.00    -0.207 F 
ENDBRANCH  16  18
ENDBRANCH  13  14
BRANCH  13  25
ATOM     25  C   UNL A   1      31.561  24.514  23.397  1.00  0.00     0.070 C 
BRANCH  25  26
ATOM     26  C   UNL A   1      31.692  23.091  23.877  1.00  0.00    -0.045 A 
ATOM     27  C   UNL A   1      31.209  22.771  25.157  1.00  0.00     0.007 A 
ATOM     28  C   UNL A   1      32.207  22.052  23.095  1.00  0.00     0.007 A 
ATOM     29  C   UNL A   1      31.408  21.507  25.714  1.00  0.00     0.046 A 
ATOM     30  C   UNL A   1      32.450  20.797  23.664  1.00  0.00     0.046 A 
ATOM     31  C   UNL A   1      32.078  20.544  24.977  1.00  0.00     0.115 A 
BRANCH  31  32
ATOM     32  O   UNL A   1      32.390  19.332  25.511  1.00  0.00    -0.508 OA
ATOM     33  H   UNL A   1      32.015  18.550  25.152  1.00  0.00     0.293 HD
ENDBRANCH  31  32
ENDBRANCH  25  26
ENDBRANCH  13  25
ENDBRANCH  10  13
ENDBRANCH   8   9
BRANCH   8  34
ATOM     34  C   UNL A   1      30.528  28.038  23.176  1.00  0.00     0.193 C 
BRANCH  34  35
ATOM     35  O   UNL A   1      29.419  28.352  22.333  1.00  0.00    -0.394 OA
ATOM     36  H   UNL A   1      29.415  27.755  21.569  1.00  0.00     0.210 HD
ENDBRANCH  34  35
ENDBRANCH   8  34
ENDBRANCH   6   8
ENDBRANCH   5   6
ENDBRANCH   4   5
ENDBRANCH   3   4
ENDBRANCH   2   3
ENDBRANCH   1   2
BRANCH   1  37
ATOM     37  C   UNL A   1      34.303  32.474  28.011  1.00  0.00     0.188 C 
BRANCH  37  38
ATOM     38  O   UNL A   1      33.721  32.835  29.254  1.00  0.00    -0.376 OA
BRANCH  38  39
ATOM     39  C   UNL A   1      34.358  33.865  29.998  1.00  0.00     0.202 C 
BRANCH  39  40
ATOM     40  C   UNL A   1      35.015  33.448  31.316  1.00  0.00     0.261 C 
BRANCH  40  41
ATOM     41  O   UNL A   1      35.637  32.150  31.246  1.00  0.00    -0.460 OA
BRANCH  41  42
ATOM     42  C   UNL A   1      36.541  31.903  32.227  1.00  0.00     0.338 C 
ATOM     43  O   UNL A   1      36.311  31.616  33.388  1.00  0.00    -0.246 OA
BRANCH  42  44
ATOM     44  C   UNL A   1      37.906  31.878  31.670  1.00  0.00     0.060 A 
ATOM     45  C   UNL A   1      38.053  31.733  30.284  1.00  0.00     0.016 A 
ATOM     46  C   UNL A   1      39.022  31.840  32.508  1.00  0.00     0.016 A 
ATOM     47  C   UNL A   1      39.317  31.520  29.733  1.00  0.00     0.010 A 
ATOM     48  C   UNL A   1      40.285  31.605  31.954  1.00  0.00     0.010 A 
ATOM     49  C   UNL A   1      40.435  31.411  30.569  1.00  0.00    -0.014 A 
BRANCH  49  50
ATOM     50  C   UNL A   1      41.715  30.899  30.022  1.00  0.00     0.031 A 
ATOM     51  C   UNL A   1      42.763  31.891  29.594  1.00  0.00     0.074 A 
ATOM     52  C   UNL A   1      41.954  29.580  29.905  1.00  0.00     0.049 A 
ATOM     53  N   UNL A   1      43.916  31.680  29.016  1.00  0.00    -0.248 NA
ATOM     54  C   UNL A   1      42.472  33.309  29.862  1.00  0.00     0.031 C 
ATOM     55  C   UNL A   1      41.045  28.517  30.323  1.00  0.00     0.029 A 
ATOM     56  N   UNL A   1      43.034  28.915  29.377  1.00  0.00    -0.354 N 
ATOM     57  C   UNL A   1      44.475  32.937  28.821  1.00  0.00     0.074 A 
ATOM     58  C   UNL A   1      43.540  33.906  29.354  1.00  0.00     0.031 C 
ATOM     59  C   UNL A   1      41.592  27.329  30.008  1.00  0.00     0.029 A 
ATOM     60  C   UNL A   1      42.870  27.551  29.334  1.00  0.00     0.049 A 
ATOM     61  H   UNL A   1      43.846  29.371  29.059  1.00  0.00     0.167 HD
ATOM     62  C   UNL A   1      45.661  33.260  28.256  1.00  0.00     0.034 A 
ATOM     63  C   UNL A   1      43.647  26.595  28.782  1.00  0.00     0.034 A 
ATOM     64  C   UNL A   1      46.598  32.306  27.732  1.00  0.00     0.049 A 
ATOM     65  C   UNL A   1      44.936  26.986  28.103  1.00  0.00     0.074 A 
ATOM     66  C   UNL A   1      47.828  32.542  27.142  1.00  0.00     0.029 A 
ATOM     67  N   UNL A   1      46.408  30.934  27.725  1.00  0.00    -0.354 N 
ATOM     68  N   UNL A   1      45.489  28.170  27.999  1.00  0.00    -0.248 NA
ATOM     69  C   UNL A   1      45.717  25.905  27.480  1.00  0.00     0.031 C 
ATOM     70  C   UNL A   1      48.375  31.311  26.766  1.00  0.00     0.029 A 
ATOM     71  C   UNL A   1      47.491  30.309  27.133  1.00  0.00     0.049 A 
ATOM     72  H   UNL A   1      45.618  30.472  28.087  1.00  0.00     0.167 HD
ATOM     73  C   UNL A   1      46.692  27.973  27.325  1.00  0.00     0.074 A 
ATOM     74  C   UNL A   1      46.798  26.553  27.066  1.00  0.00     0.031 C 
ATOM     75  C   UNL A   1      47.615  28.888  26.938  1.00  0.00     0.034 A 
BRANCH  62  76
ATOM     76  C   UNL A   1      46.016  34.719  28.183  1.00  0.00     0.023 A 
ATOM     77  C   UNL A   1      45.844  35.414  26.970  1.00  0.00     0.012 A 
ATOM     78  C   UNL A   1      46.484  35.406  29.319  1.00  0.00     0.148 A 
ATOM     79  C   UNL A   1      46.157  36.770  26.882  1.00  0.00     0.002 A 
ATOM     80  C   UNL A   1      46.761  36.766  29.232  1.00  0.00     0.091 A 
ATOM     81  F   UNL A   1      46.670  34.717  30.453  1.00  0.00    -0.205 F 
ATOM     82  C   UNL A   1      46.606  37.447  28.014  1.00  0.00     0.022 A 
BRANCH  80  83
ATOM     83  S   UNL A   1      47.288  37.729  30.653  1.00  0.00     0.127 S 
ATOM     84  O   UNL A   1      48.386  38.511  30.089  1.00  0.00    -0.237 OA
ATOM     85  O   UNL A   1      46.086  38.504  30.967  1.00  0.00    -0.237 OA
ATOM     86  O   UNL A   1      47.664  36.759  31.673  1.00  0.00    -0.744 OA
ENDBRANCH  80  83
ENDBRANCH  62  76
BRANCH  63  87
ATOM     87  C   UNL A   1      43.236  25.164  28.852  1.00  0.00     0.023 A 
ATOM     88  C   UNL A   1      43.704  24.356  29.906  1.00  0.00     0.012 A 
ATOM     89  C   UNL A   1      42.384  24.599  27.882  1.00  0.00     0.148 A 
ATOM     90  C   UNL A   1      43.352  23.008  29.980  1.00  0.00     0.002 A 
ATOM     91  C   UNL A   1      41.994  23.270  27.991  1.00  0.00     0.091 A 
ATOM     92  F   UNL A   1      41.974  25.373  26.867  1.00  0.00    -0.205 F 
ATOM     93  C   UNL A   1      42.488  22.467  29.030  1.00  0.00     0.022 A 
BRANCH  91  94
ATOM     94  S   UNL A   1      40.782  22.541  26.883  1.00  0.00     0.127 S 
ATOM     95  O   UNL A   1      41.590  22.254  25.701  1.00  0.00    -0.237 OA
ATOM     96  O   UNL A   1      40.347  21.363  27.634  1.00  0.00    -0.237 OA
ATOM     97  O   UNL A   1      39.748  23.556  26.722  1.00  0.00    -0.744 OA
ENDBRANCH  91  94
ENDBRANCH  63  87
BRANCH  75  98
ATOM     98  C   UNL A   1      48.840  28.393  26.214  1.00  0.00     0.023 A 
ATOM     99  C   UNL A   1      49.998  28.071  26.948  1.00  0.00     0.012 A 
ATOM    100  C   UNL A   1      48.813  28.155  24.826  1.00  0.00     0.148 A 
ATOM    101  C   UNL A   1      51.117  27.539  26.309  1.00  0.00     0.002 A 
ATOM    102  C   UNL A   1      49.918  27.587  24.202  1.00  0.00     0.091 A 
ATOM    103  F   UNL A   1      47.709  28.488  24.141  1.00  0.00    -0.205 F 
ATOM    104  C   UNL A   1      51.073  27.286  24.940  1.00  0.00     0.022 A 
BRANCH 102 105
ATOM    105  S   UNL A   1      49.911  27.142  22.460  1.00  0.00     0.127 S 
ATOM    106  O   UNL A   1      48.849  26.140  22.412  1.00  0.00    -0.237 OA
ATOM    107  O   UNL A   1      49.580  28.413  21.813  1.00  0.00    -0.237 OA
ATOM    108  O   UNL A   1      51.252  26.653  22.170  1.00  0.00    -0.744 OA
ENDBRANCH 102 105
ENDBRANCH  75  98
ENDBRANCH  49  50
ENDBRANCH  42  44
ENDBRANCH  41  42
ENDBRANCH  40  41
ENDBRANCH  39  40
ENDBRANCH  38  39
ENDBRANCH  37  38
ENDBRANCH   1  37
TORSDOF 29
ENDMDL
