MODEL 1
REMARK VINA RESULT:     -11.1      0.000      0.000
REMARK SMILES Cc1c(Cl)cc2c(c1C)O[C@@H](C(F)(F)F)C(C(=O)OCCOCCOCCOC(=O)c1ccc(-c3c4nc(c(-c5cccc(S(=O)(=O)[O-])c5F)c5ccc([nH]5)c(-c5cccc(S(=O)(=O)[O-])c5F)c5nc(c(-c6cccc(S(=O)(=O)[O-])c6F)c6ccc3[nH]6)C=C5)C=C4)cc1)=C2
REMARK SMILES IDX 24 1 23 2 22 3 21 4 20 5 19 6 17 7 18 8 16 9 1 10 2 11 3 12
REMARK SMILES IDX 8 13 4 14 5 15 7 16 9 17 6 18 10 19 94 20 11 21 12 22 13 23
REMARK SMILES IDX 14 24 15 25 25 26 26 27 27 28 28 29 29 30 30 31 31 32 32 33
REMARK SMILES IDX 93 34 33 35 92 36 34 37 35 38 36 39 86 40 37 41 91 42 85 43
REMARK SMILES IDX 87 44 38 45 90 46 84 47 83 48 39 50 71 51 51 52 70 53 52 54
REMARK SMILES IDX 55 55 69 56 88 57 53 58 54 59 68 61 89 62 56 63 40 64 41 65
REMARK SMILES IDX 49 66 42 67 44 68 50 69 43 70 45 71 46 72 47 73 48 74 72 75
REMARK SMILES IDX 73 76 81 77 74 78 76 79 82 80 75 81 77 82 78 83 79 84 80 85
REMARK SMILES IDX 57 86 58 87 66 88 59 89 61 90 67 91 60 92 62 93 63 94 64 95
REMARK SMILES IDX 65 96
REMARK H PARENT 87 49 55 60
REMARK Flexibility Score: inf
ROOT
ATOM      1  C   UNL A   1      31.778  30.422  26.013  1.00  0.00     0.188 C 
ENDROOT
BRANCH   1   2
ATOM      2  C   UNL A   1      31.498  29.340  24.953  1.00  0.00     0.188 C 
BRANCH   2   3
ATOM      3  O   UNL A   1      32.393  29.204  23.855  1.00  0.00    -0.376 OA
BRANCH   3   4
ATOM      4  C   UNL A   1      33.665  28.598  24.053  1.00  0.00     0.202 C 
BRANCH   4   5
ATOM      5  C   UNL A   1      33.709  27.146  24.550  1.00  0.00     0.261 C 
BRANCH   5   6
ATOM      6  O   UNL A   1      33.397  26.167  23.538  1.00  0.00    -0.460 OA
BRANCH   6   7
ATOM      7  C   UNL A   1      32.282  25.435  23.756  1.00  0.00     0.338 C 
ATOM      8  O   UNL A   1      31.137  25.765  23.489  1.00  0.00    -0.246 OA
BRANCH   7   9
ATOM      9  C   UNL A   1      32.617  24.096  24.278  1.00  0.00     0.087 C 
ATOM     10  C   UNL A   1      35.486  18.243  24.645  1.00  0.00     0.046 C 
ATOM     11  C   UNL A   1      35.033  19.682  24.705  1.00  0.00    -0.026 A 
ATOM     12  C   UNL A   1      36.003  20.710  24.729  1.00  0.00     0.045 A 
ATOM     13  C   UNL A   1      33.665  20.047  24.619  1.00  0.00    -0.004 A 
ATOM     14  Cl  UNL A   1      37.700  20.367  24.766  1.00  0.00    -0.084 Cl
ATOM     15  C   UNL A   1      35.639  22.058  24.676  1.00  0.00     0.032 A 
ATOM     16  C   UNL A   1      33.318  21.417  24.540  1.00  0.00     0.131 A 
ATOM     17  C   UNL A   1      32.537  19.046  24.615  1.00  0.00     0.049 C 
ATOM     18  C   UNL A   1      34.298  22.414  24.560  1.00  0.00     0.019 A 
ATOM     19  O   UNL A   1      31.990  21.708  24.336  1.00  0.00    -0.475 OA
ATOM     20  C   UNL A   1      33.923  23.799  24.312  1.00  0.00     0.027 C 
ATOM     21  C   UNL A   1      31.542  23.079  24.540  1.00  0.00     0.316 C 
BRANCH  21  22
ATOM     22  C   UNL A   1      30.856  23.162  25.915  1.00  0.00     0.430 C 
ATOM     23  F   UNL A   1      30.022  24.222  26.018  1.00  0.00    -0.167 F 
ATOM     24  F   UNL A   1      30.154  22.045  26.201  1.00  0.00    -0.167 F 
ATOM     25  F   UNL A   1      31.779  23.288  26.906  1.00  0.00    -0.167 F 
ENDBRANCH  21  22
ENDBRANCH   7   9
ENDBRANCH   6   7
ENDBRANCH   5   6
ENDBRANCH   4   5
ENDBRANCH   3   4
ENDBRANCH   2   3
ENDBRANCH   1   2
BRANCH   1  26
ATOM     26  O   UNL A   1      31.101  31.638  25.776  1.00  0.00    -0.376 OA
BRANCH  26  27
ATOM     27  C   UNL A   1      31.308  32.689  26.702  1.00  0.00     0.202 C 
BRANCH  27  28
ATOM     28  C   UNL A   1      32.726  32.915  27.251  1.00  0.00     0.261 C 
BRANCH  28  29
ATOM     29  O   UNL A   1      33.091  34.270  27.555  1.00  0.00    -0.460 OA
BRANCH  29  30
ATOM     30  C   UNL A   1      33.378  34.577  28.842  1.00  0.00     0.338 C 
ATOM     31  O   UNL A   1      32.715  35.269  29.595  1.00  0.00    -0.246 OA
BRANCH  30  32
ATOM     32  C   UNL A   1      34.530  33.735  29.238  1.00  0.00     0.060 A 
ATOM     33  C   UNL A   1      34.313  32.623  30.064  1.00  0.00     0.016 A 
ATOM     34  C   UNL A   1      35.809  34.009  28.746  1.00  0.00     0.016 A 
ATOM     35  C   UNL A   1      35.377  31.783  30.399  1.00  0.00     0.010 A 
ATOM     36  C   UNL A   1      36.878  33.183  29.106  1.00  0.00     0.010 A 
ATOM     37  C   UNL A   1      36.672  32.078  29.950  1.00  0.00    -0.014 A 
BRANCH  37  38
ATOM     38  C   UNL A   1      37.829  31.355  30.533  1.00  0.00     0.031 A 
ATOM     39  C   UNL A   1      38.189  31.636  31.965  1.00  0.00     0.074 A 
ATOM     40  C   UNL A   1      38.536  30.457  29.822  1.00  0.00     0.049 A 
ATOM     41  N   UNL A   1      39.134  31.114  32.700  1.00  0.00    -0.248 NA
ATOM     42  C   UNL A   1      37.371  32.644  32.663  1.00  0.00     0.031 C 
ATOM     43  C   UNL A   1      38.286  30.091  28.431  1.00  0.00     0.029 A 
ATOM     44  N   UNL A   1      39.624  29.695  30.181  1.00  0.00    -0.354 N 
ATOM     45  C   UNL A   1      39.029  31.729  33.941  1.00  0.00     0.074 A 
ATOM     46  C   UNL A   1      37.950  32.687  33.854  1.00  0.00     0.031 C 
ATOM     47  C   UNL A   1      39.203  29.183  28.047  1.00  0.00     0.029 A 
ATOM     48  C   UNL A   1      40.116  28.916  29.159  1.00  0.00     0.049 A 
ATOM     49  H   UNL A   1      40.015  29.708  31.084  1.00  0.00     0.167 HD
ATOM     50  C   UNL A   1      39.747  31.498  35.064  1.00  0.00     0.034 A 
ATOM     51  C   UNL A   1      41.185  28.092  29.126  1.00  0.00     0.034 A 
ATOM     52  C   UNL A   1      40.812  30.541  35.156  1.00  0.00     0.049 A 
ATOM     53  C   UNL A   1      42.013  27.901  30.375  1.00  0.00     0.074 A 
ATOM     54  C   UNL A   1      41.570  30.210  36.264  1.00  0.00     0.029 A 
ATOM     55  N   UNL A   1      41.282  29.774  34.102  1.00  0.00    -0.354 N 
ATOM     56  N   UNL A   1      41.818  28.387  31.578  1.00  0.00    -0.248 NA
ATOM     57  C   UNL A   1      43.196  27.032  30.271  1.00  0.00     0.031 C 
ATOM     58  C   UNL A   1      42.523  29.267  35.872  1.00  0.00     0.029 A 
ATOM     59  C   UNL A   1      42.339  28.989  34.526  1.00  0.00     0.049 A 
ATOM     60  H   UNL A   1      40.917  29.786  33.188  1.00  0.00     0.167 HD
ATOM     61  C   UNL A   1      42.835  27.867  32.375  1.00  0.00     0.074 A 
ATOM     62  C   UNL A   1      43.631  27.006  31.525  1.00  0.00     0.031 C 
ATOM     63  C   UNL A   1      43.097  28.098  33.685  1.00  0.00     0.034 A 
BRANCH  50  64
ATOM     64  C   UNL A   1      39.375  32.268  36.302  1.00  0.00     0.023 A 
ATOM     65  C   UNL A   1      39.934  33.546  36.514  1.00  0.00     0.012 A 
ATOM     66  C   UNL A   1      38.425  31.767  37.212  1.00  0.00     0.148 A 
ATOM     67  C   UNL A   1      39.569  34.303  37.625  1.00  0.00     0.002 A 
ATOM     68  C   UNL A   1      38.032  32.547  38.291  1.00  0.00     0.091 A 
ATOM     69  F   UNL A   1      37.924  30.541  37.002  1.00  0.00    -0.205 F 
ATOM     70  C   UNL A   1      38.611  33.809  38.506  1.00  0.00     0.022 A 
BRANCH  68  71
ATOM     71  S   UNL A   1      36.747  32.042  39.439  1.00  0.00     0.127 S 
ATOM     72  O   UNL A   1      36.778  30.587  39.295  1.00  0.00    -0.237 OA
ATOM     73  O   UNL A   1      37.265  32.538  40.714  1.00  0.00    -0.237 OA
ATOM     74  O   UNL A   1      35.523  32.685  38.984  1.00  0.00    -0.744 OA
ENDBRANCH  68  71
ENDBRANCH  50  64
BRANCH  51  75
ATOM     75  C   UNL A   1      41.511  27.342  27.878  1.00  0.00     0.023 A 
ATOM     76  C   UNL A   1      42.009  28.040  26.760  1.00  0.00     0.012 A 
ATOM     77  C   UNL A   1      41.353  25.943  27.795  1.00  0.00     0.148 A 
ATOM     78  C   UNL A   1      42.324  27.367  25.580  1.00  0.00     0.002 A 
ATOM     79  C   UNL A   1      41.719  25.271  26.633  1.00  0.00     0.091 A 
ATOM     80  F   UNL A   1      40.858  25.297  28.860  1.00  0.00    -0.205 F 
ATOM     81  C   UNL A   1      42.190  25.982  25.519  1.00  0.00     0.022 A 
BRANCH  79  82
ATOM     82  S   UNL A   1      41.696  23.478  26.502  1.00  0.00     0.127 S 
ATOM     83  O   UNL A   1      40.263  23.198  26.482  1.00  0.00    -0.237 OA
ATOM     84  O   UNL A   1      42.383  23.265  25.228  1.00  0.00    -0.237 OA
ATOM     85  O   UNL A   1      42.416  22.986  27.668  1.00  0.00    -0.744 OA
ENDBRANCH  79  82
ENDBRANCH  51  75
BRANCH  63  86
ATOM     86  C   UNL A   1      44.296  27.429  34.312  1.00  0.00     0.023 A 
ATOM     87  C   UNL A   1      45.502  28.147  34.428  1.00  0.00     0.012 A 
ATOM     88  C   UNL A   1      44.182  26.165  34.927  1.00  0.00     0.148 A 
ATOM     89  C   UNL A   1      46.578  27.617  35.139  1.00  0.00     0.002 A 
ATOM     90  C   UNL A   1      45.240  25.665  35.678  1.00  0.00     0.091 A 
ATOM     91  F   UNL A   1      43.027  25.496  34.800  1.00  0.00    -0.205 F 
ATOM     92  C   UNL A   1      46.442  26.387  35.777  1.00  0.00     0.022 A 
BRANCH  90  93
ATOM     93  S   UNL A   1      45.127  24.144  36.629  1.00  0.00     0.127 S 
ATOM     94  O   UNL A   1      46.530  23.736  36.704  1.00  0.00    -0.237 OA
ATOM     95  O   UNL A   1      44.561  24.613  37.894  1.00  0.00    -0.237 OA
ATOM     96  O   UNL A   1      44.265  23.252  35.866  1.00  0.00    -0.744 OA
ENDBRANCH  90  93
ENDBRANCH  63  86
ENDBRANCH  37  38
ENDBRANCH  30  32
ENDBRANCH  29  30
ENDBRANCH  28  29
ENDBRANCH  27  28
ENDBRANCH  26  27
ENDBRANCH   1  26
TORSDOF 21
ENDMDL
MODEL 2
REMARK VINA RESULT:     -11.0      1.884      2.375
REMARK SMILES Cc1c(Cl)cc2c(c1C)O[C@@H](C(F)(F)F)C(C(=O)OCCOCCOCCOC(=O)c1ccc(-c3c4nc(c(-c5cccc(S(=O)(=O)[O-])c5F)c5ccc([nH]5)c(-c5cccc(S(=O)(=O)[O-])c5F)c5nc(c(-c6cccc(S(=O)(=O)[O-])c6F)c6ccc3[nH]6)C=C5)C=C4)cc1)=C2
REMARK SMILES IDX 24 1 23 2 22 3 21 4 20 5 19 6 17 7 18 8 16 9 1 10 2 11 3 12
REMARK SMILES IDX 8 13 4 14 5 15 7 16 9 17 6 18 10 19 94 20 11 21 12 22 13 23
REMARK SMILES IDX 14 24 15 25 25 26 26 27 27 28 28 29 29 30 30 31 31 32 32 33
REMARK SMILES IDX 93 34 33 35 92 36 34 37 35 38 36 39 86 40 37 41 91 42 85 43
REMARK SMILES IDX 87 44 38 45 90 46 84 47 83 48 39 50 71 51 51 52 70 53 52 54
REMARK SMILES IDX 55 55 69 56 88 57 53 58 54 59 68 61 89 62 56 63 40 64 41 65
REMARK SMILES IDX 49 66 42 67 44 68 50 69 43 70 45 71 46 72 47 73 48 74 72 75
REMARK SMILES IDX 73 76 81 77 74 78 76 79 82 80 75 81 77 82 78 83 79 84 80 85
REMARK SMILES IDX 57 86 58 87 66 88 59 89 61 90 67 91 60 92 62 93 63 94 64 95
REMARK SMILES IDX 65 96
REMARK H PARENT 87 49 55 60
REMARK Flexibility Score: inf
ROOT
ATOM      1  C   UNL A   1      31.730  30.476  26.134  1.00  0.00     0.188 C 
ENDROOT
BRANCH   1   2
ATOM      2  C   UNL A   1      31.457  29.367  25.101  1.00  0.00     0.188 C 
BRANCH   2   3
ATOM      3  O   UNL A   1      30.626  29.658  23.983  1.00  0.00    -0.376 OA
BRANCH   3   4
ATOM      4  C   UNL A   1      30.709  28.850  22.814  1.00  0.00     0.202 C 
BRANCH   4   5
ATOM      5  C   UNL A   1      30.036  27.470  22.835  1.00  0.00     0.261 C 
BRANCH   5   6
ATOM      6  O   UNL A   1      30.852  26.426  23.404  1.00  0.00    -0.460 OA
BRANCH   6   7
ATOM      7  C   UNL A   1      31.547  25.677  22.520  1.00  0.00     0.338 C 
ATOM      8  O   UNL A   1      31.712  25.926  21.336  1.00  0.00    -0.246 OA
BRANCH   7   9
ATOM      9  C   UNL A   1      32.200  24.533  23.184  1.00  0.00     0.087 C 
ATOM     10  C   UNL A   1      32.911  18.555  25.711  1.00  0.00     0.046 C 
ATOM     11  C   UNL A   1      32.830  19.824  24.898  1.00  0.00    -0.026 A 
ATOM     12  C   UNL A   1      32.492  19.744  23.528  1.00  0.00     0.045 A 
ATOM     13  C   UNL A   1      32.966  21.108  25.485  1.00  0.00    -0.004 A 
ATOM     14  Cl  UNL A   1      32.238  18.225  22.734  1.00  0.00    -0.084 Cl
ATOM     15  C   UNL A   1      32.298  20.892  22.756  1.00  0.00     0.032 A 
ATOM     16  C   UNL A   1      32.740  22.259  24.692  1.00  0.00     0.131 A 
ATOM     17  C   UNL A   1      33.352  21.326  26.926  1.00  0.00     0.049 C 
ATOM     18  C   UNL A   1      32.401  22.152  23.340  1.00  0.00     0.019 A 
ATOM     19  O   UNL A   1      32.766  23.472  25.341  1.00  0.00    -0.475 OA
ATOM     20  C   UNL A   1      32.015  23.342  22.597  1.00  0.00     0.027 C 
ATOM     21  C   UNL A   1      32.833  24.684  24.538  1.00  0.00     0.316 C 
BRANCH  21  22
ATOM     22  C   UNL A   1      34.287  25.189  24.548  1.00  0.00     0.430 C 
ATOM     23  F   UNL A   1      34.742  25.444  25.795  1.00  0.00    -0.167 F 
ATOM     24  F   UNL A   1      35.133  24.312  23.963  1.00  0.00    -0.167 F 
ATOM     25  F   UNL A   1      34.400  26.346  23.842  1.00  0.00    -0.167 F 
ENDBRANCH  21  22
ENDBRANCH   7   9
ENDBRANCH   6   7
ENDBRANCH   5   6
ENDBRANCH   4   5
ENDBRANCH   3   4
ENDBRANCH   2   3
ENDBRANCH   1   2
BRANCH   1  26
ATOM     26  O   UNL A   1      31.063  31.689  25.856  1.00  0.00    -0.376 OA
BRANCH  26  27
ATOM     27  C   UNL A   1      31.408  32.816  26.641  1.00  0.00     0.202 C 
BRANCH  27  28
ATOM     28  C   UNL A   1      32.735  32.791  27.418  1.00  0.00     0.261 C 
BRANCH  28  29
ATOM     29  O   UNL A   1      33.377  34.056  27.637  1.00  0.00    -0.460 OA
BRANCH  29  30
ATOM     30  C   UNL A   1      33.392  34.552  28.896  1.00  0.00     0.338 C 
ATOM     31  O   UNL A   1      32.529  35.229  29.427  1.00  0.00    -0.246 OA
BRANCH  30  32
ATOM     32  C   UNL A   1      34.546  33.934  29.588  1.00  0.00     0.060 A 
ATOM     33  C   UNL A   1      35.845  34.228  29.148  1.00  0.00     0.016 A 
ATOM     34  C   UNL A   1      34.348  33.117  30.704  1.00  0.00     0.016 A 
ATOM     35  C   UNL A   1      36.948  33.704  29.825  1.00  0.00     0.010 A 
ATOM     36  C   UNL A   1      35.453  32.569  31.363  1.00  0.00     0.010 A 
ATOM     37  C   UNL A   1      36.757  32.844  30.916  1.00  0.00    -0.014 A 
BRANCH  37  38
ATOM     38  C   UNL A   1      37.909  32.073  31.448  1.00  0.00     0.031 A 
ATOM     39  C   UNL A   1      38.468  32.472  32.785  1.00  0.00     0.074 A 
ATOM     40  C   UNL A   1      38.439  31.034  30.777  1.00  0.00     0.049 A 
ATOM     41  N   UNL A   1      39.446  31.938  33.467  1.00  0.00    -0.248 NA
ATOM     42  C   UNL A   1      37.837  33.629  33.443  1.00  0.00     0.031 C 
ATOM     43  C   UNL A   1      37.986  30.545  29.477  1.00  0.00     0.029 A 
ATOM     44  N   UNL A   1      39.490  30.208  31.100  1.00  0.00    -0.354 N 
ATOM     45  C   UNL A   1      39.551  32.694  34.628  1.00  0.00     0.074 A 
ATOM     46  C   UNL A   1      38.560  33.743  34.547  1.00  0.00     0.031 C 
ATOM     47  C   UNL A   1      38.763  29.511  29.106  1.00  0.00     0.029 A 
ATOM     48  C   UNL A   1      39.779  29.274  30.132  1.00  0.00     0.049 A 
ATOM     49  H   UNL A   1      39.989  30.279  31.945  1.00  0.00     0.167 HD
ATOM     50  C   UNL A   1      40.379  32.516  35.682  1.00  0.00     0.034 A 
ATOM     51  C   UNL A   1      40.757  28.346  30.079  1.00  0.00     0.034 A 
ATOM     52  C   UNL A   1      41.358  31.469  35.770  1.00  0.00     0.049 A 
ATOM     53  C   UNL A   1      41.713  28.209  31.241  1.00  0.00     0.074 A 
ATOM     54  C   UNL A   1      42.214  31.185  36.816  1.00  0.00     0.029 A 
ATOM     55  N   UNL A   1      41.622  30.546  34.771  1.00  0.00    -0.354 N 
ATOM     56  N   UNL A   1      41.714  28.842  32.390  1.00  0.00    -0.248 NA
ATOM     57  C   UNL A   1      42.792  27.215  31.110  1.00  0.00     0.031 C 
ATOM     58  C   UNL A   1      43.023  30.111  36.438  1.00  0.00     0.029 A 
ATOM     59  C   UNL A   1      42.649  29.707  35.165  1.00  0.00     0.049 A 
ATOM     60  H   UNL A   1      41.149  30.495  33.909  1.00  0.00     0.167 HD
ATOM     61  C   UNL A   1      42.772  28.310  33.124  1.00  0.00     0.074 A 
ATOM     62  C   UNL A   1      43.375  27.283  32.300  1.00  0.00     0.031 C 
ATOM     63  C   UNL A   1      43.214  28.655  34.358  1.00  0.00     0.034 A 
BRANCH  50  64
ATOM     64  C   UNL A   1      40.235  33.451  36.852  1.00  0.00     0.023 A 
ATOM     65  C   UNL A   1      40.855  34.717  36.803  1.00  0.00     0.012 A 
ATOM     66  C   UNL A   1      39.431  33.114  37.957  1.00  0.00     0.148 A 
ATOM     67  C   UNL A   1      40.697  35.624  37.849  1.00  0.00     0.002 A 
ATOM     68  C   UNL A   1      39.240  34.042  38.973  1.00  0.00     0.091 A 
ATOM     69  F   UNL A   1      38.869  31.898  37.991  1.00  0.00    -0.205 F 
ATOM     70  C   UNL A   1      39.881  35.291  38.927  1.00  0.00     0.022 A 
BRANCH  68  71
ATOM     71  S   UNL A   1      38.145  33.747  40.365  1.00  0.00     0.127 S 
ATOM     72  O   UNL A   1      37.009  33.094  39.714  1.00  0.00    -0.237 OA
ATOM     73  O   UNL A   1      38.954  32.865  41.207  1.00  0.00    -0.237 OA
ATOM     74  O   UNL A   1      37.862  35.054  40.941  1.00  0.00    -0.744 OA
ENDBRANCH  68  71
ENDBRANCH  50  64
BRANCH  51  75
ATOM     75  C   UNL A   1      40.857  27.432  28.903  1.00  0.00     0.023 A 
ATOM     76  C   UNL A   1      39.982  26.332  28.805  1.00  0.00     0.012 A 
ATOM     77  C   UNL A   1      41.793  27.655  27.872  1.00  0.00     0.148 A 
ATOM     78  C   UNL A   1      40.050  25.461  27.717  1.00  0.00     0.002 A 
ATOM     79  C   UNL A   1      41.819  26.814  26.764  1.00  0.00     0.091 A 
ATOM     80  F   UNL A   1      42.631  28.694  27.991  1.00  0.00    -0.205 F 
ATOM     81  C   UNL A   1      40.960  25.707  26.692  1.00  0.00     0.022 A 
BRANCH  79  82
ATOM     82  S   UNL A   1      42.871  27.119  25.339  1.00  0.00     0.127 S 
ATOM     83  O   UNL A   1      44.162  27.381  25.971  1.00  0.00    -0.237 OA
ATOM     84  O   UNL A   1      42.783  25.845  24.626  1.00  0.00    -0.237 OA
ATOM     85  O   UNL A   1      42.274  28.248  24.640  1.00  0.00    -0.744 OA
ENDBRANCH  79  82
ENDBRANCH  51  75
BRANCH  63  86
ATOM     86  C   UNL A   1      44.416  27.939  34.923  1.00  0.00     0.023 A 
ATOM     87  C   UNL A   1      45.678  28.562  34.866  1.00  0.00     0.012 A 
ATOM     88  C   UNL A   1      44.270  26.738  35.648  1.00  0.00     0.148 A 
ATOM     89  C   UNL A   1      46.777  28.000  35.514  1.00  0.00     0.002 A 
ATOM     90  C   UNL A   1      45.358  26.210  36.334  1.00  0.00     0.091 A 
ATOM     91  F   UNL A   1      43.062  26.158  35.684  1.00  0.00    -0.205 F 
ATOM     92  C   UNL A   1      46.614  26.836  36.261  1.00  0.00     0.022 A 
BRANCH  90  93
ATOM     93  S   UNL A   1      45.228  24.779  37.413  1.00  0.00     0.127 S 
ATOM     94  O   UNL A   1      46.627  24.554  37.778  1.00  0.00    -0.237 OA
ATOM     95  O   UNL A   1      44.389  25.286  38.499  1.00  0.00    -0.237 OA
ATOM     96  O   UNL A   1      44.623  23.722  36.614  1.00  0.00    -0.744 OA
ENDBRANCH  90  93
ENDBRANCH  63  86
ENDBRANCH  37  38
ENDBRANCH  30  32
ENDBRANCH  29  30
ENDBRANCH  28  29
ENDBRANCH  27  28
ENDBRANCH  26  27
ENDBRANCH   1  26
TORSDOF 21
ENDMDL
MODEL 3
REMARK VINA RESULT:     -11.0      5.141     10.817
REMARK SMILES Cc1c(Cl)cc2c(c1C)O[C@@H](C(F)(F)F)C(C(=O)OCCOCCOCCOC(=O)c1ccc(-c3c4nc(c(-c5cccc(S(=O)(=O)[O-])c5F)c5ccc([nH]5)c(-c5cccc(S(=O)(=O)[O-])c5F)c5nc(c(-c6cccc(S(=O)(=O)[O-])c6F)c6ccc3[nH]6)C=C5)C=C4)cc1)=C2
REMARK SMILES IDX 24 1 23 2 22 3 21 4 20 5 19 6 17 7 18 8 16 9 1 10 2 11 3 12
REMARK SMILES IDX 8 13 4 14 5 15 7 16 9 17 6 18 10 19 94 20 11 21 12 22 13 23
REMARK SMILES IDX 14 24 15 25 25 26 26 27 27 28 28 29 29 30 30 31 31 32 32 33
REMARK SMILES IDX 93 34 33 35 92 36 34 37 35 38 36 39 86 40 37 41 91 42 85 43
REMARK SMILES IDX 87 44 38 45 90 46 84 47 83 48 39 50 71 51 51 52 70 53 52 54
REMARK SMILES IDX 55 55 69 56 88 57 53 58 54 59 68 61 89 62 56 63 40 64 41 65
REMARK SMILES IDX 49 66 42 67 44 68 50 69 43 70 45 71 46 72 47 73 48 74 72 75
REMARK SMILES IDX 73 76 81 77 74 78 76 79 82 80 75 81 77 82 78 83 79 84 80 85
REMARK SMILES IDX 57 86 58 87 66 88 59 89 61 90 67 91 60 92 62 93 63 94 64 95
REMARK SMILES IDX 65 96
REMARK H PARENT 87 49 55 60
REMARK Flexibility Score: inf
ROOT
ATOM      1  C   UNL A   1      36.256  22.006  25.571  1.00  0.00     0.188 C 
ENDROOT
BRANCH   1   2
ATOM      2  C   UNL A   1      34.818  22.556  25.536  1.00  0.00     0.188 C 
BRANCH   2   3
ATOM      3  O   UNL A   1      33.733  21.640  25.441  1.00  0.00    -0.376 OA
BRANCH   3   4
ATOM      4  C   UNL A   1      32.808  21.754  24.365  1.00  0.00     0.202 C 
BRANCH   4   5
ATOM      5  C   UNL A   1      33.223  22.567  23.131  1.00  0.00     0.261 C 
BRANCH   5   6
ATOM      6  O   UNL A   1      32.380  23.706  22.864  1.00  0.00    -0.460 OA
BRANCH   6   7
ATOM      7  C   UNL A   1      33.020  24.887  22.720  1.00  0.00     0.338 C 
ATOM      8  O   UNL A   1      34.038  25.083  22.075  1.00  0.00    -0.246 OA
BRANCH   7   9
ATOM      9  C   UNL A   1      32.273  25.983  23.368  1.00  0.00     0.087 C 
ATOM     10  C   UNL A   1      29.283  31.747  24.046  1.00  0.00     0.046 C 
ATOM     11  C   UNL A   1      29.733  30.326  23.809  1.00  0.00    -0.026 A 
ATOM     12  C   UNL A   1      29.127  29.572  22.779  1.00  0.00     0.045 A 
ATOM     13  C   UNL A   1      30.827  29.754  24.508  1.00  0.00    -0.004 A 
ATOM     14  Cl  UNL A   1      27.829  30.207  21.823  1.00  0.00    -0.084 Cl
ATOM     15  C   UNL A   1      29.578  28.293  22.448  1.00  0.00     0.032 A 
ATOM     16  C   UNL A   1      31.286  28.466  24.141  1.00  0.00     0.131 A 
ATOM     17  C   UNL A   1      31.538  30.443  25.646  1.00  0.00     0.049 C 
ATOM     18  C   UNL A   1      30.671  27.745  23.113  1.00  0.00     0.019 A 
ATOM     19  O   UNL A   1      32.423  28.012  24.767  1.00  0.00    -0.475 OA
ATOM     20  C   UNL A   1      31.267  26.500  22.649  1.00  0.00     0.027 C 
ATOM     21  C   UNL A   1      32.764  26.601  24.646  1.00  0.00     0.316 C 
BRANCH  21  22
ATOM     22  C   UNL A   1      32.341  25.891  25.944  1.00  0.00     0.430 C 
ATOM     23  F   UNL A   1      31.884  26.749  26.883  1.00  0.00    -0.167 F 
ATOM     24  F   UNL A   1      31.388  24.959  25.725  1.00  0.00    -0.167 F 
ATOM     25  F   UNL A   1      33.394  25.228  26.494  1.00  0.00    -0.167 F 
ENDBRANCH  21  22
ENDBRANCH   7   9
ENDBRANCH   6   7
ENDBRANCH   5   6
ENDBRANCH   4   5
ENDBRANCH   3   4
ENDBRANCH   2   3
ENDBRANCH   1   2
BRANCH   1  26
ATOM     26  O   UNL A   1      36.410  20.777  24.893  1.00  0.00    -0.376 OA
BRANCH  26  27
ATOM     27  C   UNL A   1      37.670  20.137  24.987  1.00  0.00     0.202 C 
BRANCH  27  28
ATOM     28  C   UNL A   1      38.831  20.893  25.653  1.00  0.00     0.261 C 
BRANCH  28  29
ATOM     29  O   UNL A   1      39.683  20.131  26.520  1.00  0.00    -0.460 OA
BRANCH  29  30
ATOM     30  C   UNL A   1      41.014  20.373  26.477  1.00  0.00     0.338 C 
ATOM     31  O   UNL A   1      41.877  19.646  26.015  1.00  0.00    -0.246 OA
BRANCH  30  32
ATOM     32  C   UNL A   1      41.208  21.782  26.890  1.00  0.00     0.060 A 
ATOM     33  C   UNL A   1      40.927  22.807  25.976  1.00  0.00     0.016 A 
ATOM     34  C   UNL A   1      41.608  22.089  28.193  1.00  0.00     0.016 A 
ATOM     35  C   UNL A   1      41.045  24.143  26.366  1.00  0.00     0.010 A 
ATOM     36  C   UNL A   1      41.755  23.427  28.573  1.00  0.00     0.010 A 
ATOM     37  C   UNL A   1      41.493  24.460  27.656  1.00  0.00    -0.014 A 
BRANCH  37  38
ATOM     38  C   UNL A   1      41.885  25.856  27.970  1.00  0.00     0.031 A 
ATOM     39  C   UNL A   1      43.273  26.301  27.601  1.00  0.00     0.074 A 
ATOM     40  C   UNL A   1      41.032  26.719  28.553  1.00  0.00     0.049 A 
ATOM     41  N   UNL A   1      43.834  27.471  27.747  1.00  0.00    -0.248 NA
ATOM     42  C   UNL A   1      44.144  25.288  26.980  1.00  0.00     0.031 C 
ATOM     43  C   UNL A   1      39.661  26.415  28.954  1.00  0.00     0.029 A 
ATOM     44  N   UNL A   1      41.206  28.034  28.918  1.00  0.00    -0.354 N 
ATOM     45  C   UNL A   1      45.122  27.335  27.244  1.00  0.00     0.074 A 
ATOM     46  C   UNL A   1      45.272  25.963  26.816  1.00  0.00     0.031 C 
ATOM     47  C   UNL A   1      39.120  27.508  29.522  1.00  0.00     0.029 A 
ATOM     48  C   UNL A   1      40.110  28.585  29.541  1.00  0.00     0.049 A 
ATOM     49  H   UNL A   1      42.037  28.533  28.748  1.00  0.00     0.167 HD
ATOM     50  C   UNL A   1      46.087  28.275  27.121  1.00  0.00     0.034 A 
ATOM     51  C   UNL A   1      39.935  29.813  30.074  1.00  0.00     0.034 A 
ATOM     52  C   UNL A   1      45.937  29.641  27.535  1.00  0.00     0.049 A 
ATOM     53  C   UNL A   1      41.052  30.827  29.983  1.00  0.00     0.074 A 
ATOM     54  C   UNL A   1      46.846  30.676  27.414  1.00  0.00     0.029 A 
ATOM     55  N   UNL A   1      44.817  30.161  28.163  1.00  0.00    -0.354 N 
ATOM     56  N   UNL A   1      42.214  30.725  29.384  1.00  0.00    -0.248 NA
ATOM     57  C   UNL A   1      40.827  32.133  30.624  1.00  0.00     0.031 C 
ATOM     58  C   UNL A   1      46.289  31.815  28.001  1.00  0.00     0.029 A 
ATOM     59  C   UNL A   1      45.021  31.496  28.462  1.00  0.00     0.049 A 
ATOM     60  H   UNL A   1      43.997  29.655  28.367  1.00  0.00     0.167 HD
ATOM     61  C   UNL A   1      42.846  31.954  29.555  1.00  0.00     0.074 A 
ATOM     62  C   UNL A   1      41.927  32.797  30.291  1.00  0.00     0.031 C 
ATOM     63  C   UNL A   1      44.082  32.342  29.154  1.00  0.00     0.034 A 
BRANCH  50  64
ATOM     64  C   UNL A   1      47.382  27.869  26.472  1.00  0.00     0.023 A 
ATOM     65  C   UNL A   1      48.437  27.394  27.278  1.00  0.00     0.012 A 
ATOM     66  C   UNL A   1      47.529  27.883  25.073  1.00  0.00     0.148 A 
ATOM     67  C   UNL A   1      49.630  26.963  26.701  1.00  0.00     0.002 A 
ATOM     68  C   UNL A   1      48.703  27.406  24.502  1.00  0.00     0.091 A 
ATOM     69  F   UNL A   1      46.521  28.358  24.328  1.00  0.00    -0.205 F 
ATOM     70  C   UNL A   1      49.758  26.958  25.314  1.00  0.00     0.022 A 
BRANCH  68  71
ATOM     71  S   UNL A   1      48.939  27.280  22.727  1.00  0.00     0.127 S 
ATOM     72  O   UNL A   1      48.406  25.947  22.452  1.00  0.00    -0.237 OA
ATOM     73  O   UNL A   1      48.114  28.381  22.230  1.00  0.00    -0.237 OA
ATOM     74  O   UNL A   1      50.369  27.435  22.497  1.00  0.00    -0.744 OA
ENDBRANCH  68  71
ENDBRANCH  50  64
BRANCH  51  75
ATOM     75  C   UNL A   1      38.630  30.176  30.700  1.00  0.00     0.023 A 
ATOM     76  C   UNL A   1      38.362  29.777  32.024  1.00  0.00     0.012 A 
ATOM     77  C   UNL A   1      37.662  30.930  30.005  1.00  0.00     0.148 A 
ATOM     78  C   UNL A   1      37.152  30.102  32.637  1.00  0.00     0.002 A 
ATOM     79  C   UNL A   1      36.480  31.297  30.640  1.00  0.00     0.091 A 
ATOM     80  F   UNL A   1      37.924  31.285  28.739  1.00  0.00    -0.205 F 
ATOM     81  C   UNL A   1      36.216  30.871  31.950  1.00  0.00     0.022 A 
BRANCH  79  82
ATOM     82  S   UNL A   1      35.268  32.385  29.881  1.00  0.00     0.127 S 
ATOM     83  O   UNL A   1      34.761  31.555  28.791  1.00  0.00    -0.237 OA
ATOM     84  O   UNL A   1      34.327  32.597  30.982  1.00  0.00    -0.237 OA
ATOM     85  O   UNL A   1      36.002  33.575  29.474  1.00  0.00    -0.744 OA
ENDBRANCH  79  82
ENDBRANCH  51  75
BRANCH  63  86
ATOM     86  C   UNL A   1      44.550  33.735  29.497  1.00  0.00     0.023 A 
ATOM     87  C   UNL A   1      44.255  34.796  28.619  1.00  0.00     0.012 A 
ATOM     88  C   UNL A   1      45.130  34.017  30.752  1.00  0.00     0.148 A 
ATOM     89  C   UNL A   1      44.534  36.114  28.979  1.00  0.00     0.002 A 
ATOM     90  C   UNL A   1      45.358  35.337  31.125  1.00  0.00     0.091 A 
ATOM     91  F   UNL A   1      45.409  32.992  31.570  1.00  0.00    -0.205 F 
ATOM     92  C   UNL A   1      45.068  36.386  30.236  1.00  0.00     0.022 A 
BRANCH  90  93
ATOM     93  S   UNL A   1      45.939  35.800  32.762  1.00  0.00     0.127 S 
ATOM     94  O   UNL A   1      47.164  35.009  32.877  1.00  0.00    -0.237 OA
ATOM     95  O   UNL A   1      46.155  37.240  32.616  1.00  0.00    -0.237 OA
ATOM     96  O   UNL A   1      44.878  35.431  33.688  1.00  0.00    -0.744 OA
ENDBRANCH  90  93
ENDBRANCH  63  86
ENDBRANCH  37  38
ENDBRANCH  30  32
ENDBRANCH  29  30
ENDBRANCH  28  29
ENDBRANCH  27  28
ENDBRANCH  26  27
ENDBRANCH   1  26
TORSDOF 21
ENDMDL
