MODEL 1
REMARK VINA RESULT:      -8.2      0.000      0.000
REMARK SMILES C[C@H](c1ccccc1)N1C(=O)c2ccc(C(=O)OCCOCCOCCOC(=O)c3ccc(-c4c5nc(c(-c6cccc(S(=O)(=O)[O-])c6F)c6ccc([nH]6)c(-c6cccc(S(=O)(=O)[O-])c6F)c6nc(c(-c7cccc(S(=O)(=O)[O-])c7F)c7ccc4[nH]7)C=C6)C=C5)cc3)cc2C1=O
REMARK SMILES IDX 23 1 22 2 21 3 20 4 19 5 18 6 16 7 17 8 15 9 9 10 10 11
REMARK SMILES IDX 95 12 11 13 12 14 94 15 96 16 13 17 93 18 14 19 2 20 1 21
REMARK SMILES IDX 3 22 4 23 8 24 5 25 7 26 6 27 24 28 25 29 26 30 27 31 28 32
REMARK SMILES IDX 29 33 30 34 31 35 92 36 32 37 91 38 33 39 34 40 35 41 85 42
REMARK SMILES IDX 36 43 90 44 84 45 86 46 37 47 89 48 83 49 82 50 38 52 70 53
REMARK SMILES IDX 50 54 69 55 51 56 54 57 68 58 87 59 52 60 53 61 67 63 88 64
REMARK SMILES IDX 55 65 39 66 40 67 48 68 41 69 43 70 49 71 42 72 44 73 45 74
REMARK SMILES IDX 46 75 47 76 71 77 72 78 80 79 73 80 75 81 81 82 74 83 76 84
REMARK SMILES IDX 77 85 78 86 79 87 56 88 57 89 65 90 58 91 60 92 66 93 59 94
REMARK SMILES IDX 61 95 62 96 63 97 64 98
REMARK H PARENT 86 51 54 62
REMARK Flexibility Score: inf
ROOT
ATOM      1  C   UNL A   1      42.090  19.838  25.803  1.00  0.00     0.188 C 
ENDROOT
BRANCH   1   2
ATOM      2  C   UNL A   1      41.728  19.691  27.295  1.00  0.00     0.188 C 
BRANCH   2   3
ATOM      3  O   UNL A   1      41.033  20.768  27.874  1.00  0.00    -0.376 OA
BRANCH   3   4
ATOM      4  C   UNL A   1      41.602  22.067  27.865  1.00  0.00     0.202 C 
BRANCH   4   5
ATOM      5  C   UNL A   1      40.915  23.358  27.365  1.00  0.00     0.261 C 
BRANCH   5   6
ATOM      6  O   UNL A   1      41.074  24.547  28.147  1.00  0.00    -0.460 OA
BRANCH   6   7
ATOM      7  C   UNL A   1      40.506  25.672  27.648  1.00  0.00     0.338 C 
ATOM      8  O   UNL A   1      40.224  25.918  26.490  1.00  0.00    -0.246 OA
BRANCH   7   9
ATOM      9  C   UNL A   1      40.131  26.551  28.771  1.00  0.00     0.060 A 
ATOM     10  N   UNL A   1      39.800  30.258  31.421  1.00  0.00    -0.267 N 
ATOM     11  C   UNL A   1      39.041  29.186  31.811  1.00  0.00     0.262 C 
ATOM     12  C   UNL A   1      40.685  29.905  30.436  1.00  0.00     0.262 C 
ATOM     13  O   UNL A   1      38.275  29.055  32.741  1.00  0.00    -0.269 OA
ATOM     14  C   UNL A   1      39.307  28.125  30.852  1.00  0.00     0.053 A 
ATOM     15  C   UNL A   1      40.370  28.521  30.060  1.00  0.00     0.054 A 
ATOM     16  O   UNL A   1      41.538  30.580  29.887  1.00  0.00    -0.269 OA
ATOM     17  C   UNL A   1      38.583  26.977  30.611  1.00  0.00     0.015 A 
ATOM     18  C   UNL A   1      40.844  27.731  29.027  1.00  0.00     0.030 A 
ATOM     19  C   UNL A   1      38.984  26.201  29.525  1.00  0.00     0.016 A 
BRANCH  10  20
ATOM     20  C   UNL A   1      39.515  31.639  31.819  1.00  0.00     0.121 C 
ATOM     21  C   UNL A   1      39.016  31.754  33.259  1.00  0.00     0.037 C 
BRANCH  20  22
ATOM     22  C   UNL A   1      38.589  32.255  30.765  1.00  0.00    -0.025 A 
ATOM     23  C   UNL A   1      38.971  33.383  30.019  1.00  0.00     0.006 A 
ATOM     24  C   UNL A   1      37.254  31.825  30.679  1.00  0.00     0.006 A 
ATOM     25  C   UNL A   1      38.031  34.118  29.294  1.00  0.00     0.000 A 
ATOM     26  C   UNL A   1      36.321  32.544  29.928  1.00  0.00     0.000 A 
ATOM     27  C   UNL A   1      36.703  33.706  29.260  1.00  0.00     0.000 A 
ENDBRANCH  20  22
ENDBRANCH  10  20
ENDBRANCH   7   9
ENDBRANCH   6   7
ENDBRANCH   5   6
ENDBRANCH   4   5
ENDBRANCH   3   4
ENDBRANCH   2   3
ENDBRANCH   1   2
BRANCH   1  28
ATOM     28  O   UNL A   1      42.876  20.933  25.377  1.00  0.00    -0.376 OA
BRANCH  28  29
ATOM     29  C   UNL A   1      44.289  20.885  25.492  1.00  0.00     0.202 C 
BRANCH  29  30
ATOM     30  C   UNL A   1      45.241  22.048  25.144  1.00  0.00     0.261 C 
BRANCH  30  31
ATOM     31  O   UNL A   1      44.815  23.375  25.459  1.00  0.00    -0.460 OA
BRANCH  31  32
ATOM     32  C   UNL A   1      45.688  24.355  25.118  1.00  0.00     0.338 C 
ATOM     33  O   UNL A   1      46.531  24.317  24.238  1.00  0.00    -0.246 OA
BRANCH  32  34
ATOM     34  C   UNL A   1      45.351  25.584  25.858  1.00  0.00     0.060 A 
ATOM     35  C   UNL A   1      46.398  26.363  26.368  1.00  0.00     0.016 A 
ATOM     36  C   UNL A   1      44.021  25.920  26.112  1.00  0.00     0.016 A 
ATOM     37  C   UNL A   1      46.118  27.463  27.175  1.00  0.00     0.010 A 
ATOM     38  C   UNL A   1      43.742  27.012  26.938  1.00  0.00     0.010 A 
ATOM     39  C   UNL A   1      44.791  27.758  27.509  1.00  0.00    -0.014 A 
BRANCH  39  40
ATOM     40  C   UNL A   1      44.519  28.697  28.623  1.00  0.00     0.031 A 
ATOM     41  C   UNL A   1      44.295  28.129  29.997  1.00  0.00     0.074 A 
ATOM     42  C   UNL A   1      44.490  30.026  28.425  1.00  0.00     0.049 A 
ATOM     43  N   UNL A   1      44.034  28.748  31.119  1.00  0.00    -0.248 NA
ATOM     44  C   UNL A   1      44.371  26.664  30.123  1.00  0.00     0.031 C 
ATOM     45  C   UNL A   1      44.710  30.696  27.145  1.00  0.00     0.029 A 
ATOM     46  N   UNL A   1      44.242  31.048  29.306  1.00  0.00    -0.354 N 
ATOM     47  C   UNL A   1      43.873  27.749  32.072  1.00  0.00     0.074 A 
ATOM     48  C   UNL A   1      44.055  26.484  31.395  1.00  0.00     0.031 C 
ATOM     49  C   UNL A   1      44.570  32.022  27.321  1.00  0.00     0.029 A 
ATOM     50  C   UNL A   1      44.224  32.289  28.716  1.00  0.00     0.049 A 
ATOM     51  H   UNL A   1      44.092  30.906  30.268  1.00  0.00     0.167 HD
ATOM     52  C   UNL A   1      43.606  27.870  33.394  1.00  0.00     0.034 A 
ATOM     53  C   UNL A   1      43.942  33.497  29.242  1.00  0.00     0.034 A 
ATOM     54  C   UNL A   1      43.437  29.130  34.066  1.00  0.00     0.049 A 
ATOM     55  C   UNL A   1      43.620  33.606  30.710  1.00  0.00     0.074 A 
ATOM     56  C   UNL A   1      43.214  29.365  35.410  1.00  0.00     0.029 A 
ATOM     57  N   UNL A   1      43.448  30.367  33.440  1.00  0.00    -0.354 N 
ATOM     58  N   UNL A   1      43.574  32.664  31.621  1.00  0.00    -0.248 NA
ATOM     59  C   UNL A   1      43.346  34.954  31.230  1.00  0.00     0.031 C 
ATOM     60  C   UNL A   1      43.044  30.742  35.591  1.00  0.00     0.029 A 
ATOM     61  C   UNL A   1      43.220  31.370  34.367  1.00  0.00     0.049 A 
ATOM     62  H   UNL A   1      43.598  30.513  32.478  1.00  0.00     0.167 HD
ATOM     63  C   UNL A   1      43.321  33.309  32.828  1.00  0.00     0.074 A 
ATOM     64  C   UNL A   1      43.228  34.724  32.531  1.00  0.00     0.031 C 
ATOM     65  C   UNL A   1      43.179  32.779  34.068  1.00  0.00     0.034 A 
BRANCH  52  66
ATOM     66  C   UNL A   1      43.469  26.601  34.194  1.00  0.00     0.023 A 
ATOM     67  C   UNL A   1      42.194  26.135  34.576  1.00  0.00     0.012 A 
ATOM     68  C   UNL A   1      44.611  25.857  34.553  1.00  0.00     0.148 A 
ATOM     69  C   UNL A   1      42.061  24.977  35.343  1.00  0.00     0.002 A 
ATOM     70  C   UNL A   1      44.466  24.676  35.270  1.00  0.00     0.091 A 
ATOM     71  F   UNL A   1      45.816  26.327  34.202  1.00  0.00    -0.205 F 
ATOM     72  C   UNL A   1      43.196  24.244  35.681  1.00  0.00     0.022 A 
BRANCH  70  73
ATOM     73  S   UNL A   1      45.859  23.620  35.678  1.00  0.00     0.127 S 
ATOM     74  O   UNL A   1      45.203  22.528  36.395  1.00  0.00    -0.237 OA
ATOM     75  O   UNL A   1      46.370  23.260  34.355  1.00  0.00    -0.237 OA
ATOM     76  O   UNL A   1      46.764  24.436  36.475  1.00  0.00    -0.744 OA
ENDBRANCH  70  73
ENDBRANCH  52  66
BRANCH  53  77
ATOM     77  C   UNL A   1      43.997  34.714  28.383  1.00  0.00     0.023 A 
ATOM     78  C   UNL A   1      42.824  35.169  27.749  1.00  0.00     0.012 A 
ATOM     79  C   UNL A   1      45.198  35.427  28.202  1.00  0.00     0.148 A 
ATOM     80  C   UNL A   1      42.852  36.294  26.924  1.00  0.00     0.002 A 
ATOM     81  C   UNL A   1      45.208  36.577  27.423  1.00  0.00     0.091 A 
ATOM     82  F   UNL A   1      46.303  34.970  28.807  1.00  0.00    -0.205 F 
ATOM     83  C   UNL A   1      44.041  37.003  26.769  1.00  0.00     0.022 A 
BRANCH  81  84
ATOM     84  S   UNL A   1      46.659  37.622  27.258  1.00  0.00     0.127 S 
ATOM     85  O   UNL A   1      47.686  36.651  26.891  1.00  0.00    -0.237 OA
ATOM     86  O   UNL A   1      46.252  38.526  26.181  1.00  0.00    -0.237 OA
ATOM     87  O   UNL A   1      46.835  38.264  28.553  1.00  0.00    -0.744 OA
ENDBRANCH  81  84
ENDBRANCH  53  77
BRANCH  65  88
ATOM     88  C   UNL A   1      42.980  33.731  35.223  1.00  0.00     0.023 A 
ATOM     89  C   UNL A   1      44.080  34.175  35.982  1.00  0.00     0.012 A 
ATOM     90  C   UNL A   1      41.695  34.234  35.512  1.00  0.00     0.148 A 
ATOM     91  C   UNL A   1      43.898  35.071  37.037  1.00  0.00     0.002 A 
ATOM     92  C   UNL A   1      41.529  35.169  36.525  1.00  0.00     0.091 A 
ATOM     93  F   UNL A   1      40.656  33.788  34.789  1.00  0.00    -0.205 F 
ATOM     94  C   UNL A   1      42.626  35.576  37.300  1.00  0.00     0.022 A 
BRANCH  92  95
ATOM     95  S   UNL A   1      39.947  35.950  36.863  1.00  0.00     0.127 S 
ATOM     96  O   UNL A   1      40.287  36.844  37.968  1.00  0.00    -0.237 OA
ATOM     97  O   UNL A   1      39.660  36.627  35.597  1.00  0.00    -0.237 OA
ATOM     98  O   UNL A   1      39.026  34.871  37.191  1.00  0.00    -0.744 OA
ENDBRANCH  92  95
ENDBRANCH  65  88
ENDBRANCH  39  40
ENDBRANCH  32  34
ENDBRANCH  31  32
ENDBRANCH  30  31
ENDBRANCH  29  30
ENDBRANCH  28  29
ENDBRANCH   1  28
TORSDOF 22
ENDMDL
MODEL 2
REMARK VINA RESULT:      -7.9      5.379     11.440
REMARK SMILES C[C@H](c1ccccc1)N1C(=O)c2ccc(C(=O)OCCOCCOCCOC(=O)c3ccc(-c4c5nc(c(-c6cccc(S(=O)(=O)[O-])c6F)c6ccc([nH]6)c(-c6cccc(S(=O)(=O)[O-])c6F)c6nc(c(-c7cccc(S(=O)(=O)[O-])c7F)c7ccc4[nH]7)C=C6)C=C5)cc3)cc2C1=O
REMARK SMILES IDX 23 1 22 2 21 3 20 4 19 5 18 6 16 7 17 8 15 9 9 10 10 11
REMARK SMILES IDX 95 12 11 13 12 14 94 15 96 16 13 17 93 18 14 19 2 20 1 21
REMARK SMILES IDX 3 22 4 23 8 24 5 25 7 26 6 27 24 28 25 29 26 30 27 31 28 32
REMARK SMILES IDX 29 33 30 34 31 35 92 36 32 37 91 38 33 39 34 40 35 41 85 42
REMARK SMILES IDX 36 43 90 44 84 45 86 46 37 47 89 48 83 49 82 50 38 52 70 53
REMARK SMILES IDX 50 54 69 55 51 56 54 57 68 58 87 59 52 60 53 61 67 63 88 64
REMARK SMILES IDX 55 65 39 66 40 67 48 68 41 69 43 70 49 71 42 72 44 73 45 74
REMARK SMILES IDX 46 75 47 76 71 77 72 78 80 79 73 80 75 81 81 82 74 83 76 84
REMARK SMILES IDX 77 85 78 86 79 87 56 88 57 89 65 90 58 91 60 92 66 93 59 94
REMARK SMILES IDX 61 95 62 96 63 97 64 98
REMARK H PARENT 86 51 54 62
REMARK Flexibility Score: inf
ROOT
ATOM      1  C   UNL A   1      34.709  33.588  31.120  1.00  0.00     0.188 C 
ENDROOT
BRANCH   1   2
ATOM      2  C   UNL A   1      34.628  34.202  29.708  1.00  0.00     0.188 C 
BRANCH   2   3
ATOM      3  O   UNL A   1      35.006  33.362  28.643  1.00  0.00    -0.376 OA
BRANCH   3   4
ATOM      4  C   UNL A   1      34.019  32.655  27.912  1.00  0.00     0.202 C 
BRANCH   4   5
ATOM      5  C   UNL A   1      33.858  31.119  27.849  1.00  0.00     0.261 C 
BRANCH   5   6
ATOM      6  O   UNL A   1      33.641  30.520  26.567  1.00  0.00    -0.460 OA
BRANCH   6   7
ATOM      7  C   UNL A   1      32.348  30.297  26.223  1.00  0.00     0.338 C 
ATOM      8  O   UNL A   1      31.445  31.108  26.139  1.00  0.00    -0.246 OA
BRANCH   7   9
ATOM      9  C   UNL A   1      32.205  28.888  25.811  1.00  0.00     0.060 A 
ATOM     10  N   UNL A   1      32.807  24.985  23.515  1.00  0.00    -0.267 N 
ATOM     11  C   UNL A   1      32.002  24.899  24.622  1.00  0.00     0.262 C 
ATOM     12  C   UNL A   1      33.076  26.290  23.200  1.00  0.00     0.262 C 
ATOM     13  O   UNL A   1      31.428  23.951  25.111  1.00  0.00    -0.269 OA
ATOM     14  C   UNL A   1      31.934  26.239  25.183  1.00  0.00     0.053 A 
ATOM     15  C   UNL A   1      32.514  27.111  24.279  1.00  0.00     0.054 A 
ATOM     16  O   UNL A   1      33.712  26.743  22.264  1.00  0.00    -0.269 OA
ATOM     17  C   UNL A   1      31.525  26.629  26.440  1.00  0.00     0.015 A 
ATOM     18  C   UNL A   1      32.627  28.466  24.542  1.00  0.00     0.030 A 
ATOM     19  C   UNL A   1      31.703  27.971  26.767  1.00  0.00     0.016 A 
BRANCH  10  20
ATOM     20  C   UNL A   1      33.492  23.833  22.922  1.00  0.00     0.121 C 
ATOM     21  C   UNL A   1      32.620  22.579  22.876  1.00  0.00     0.037 C 
BRANCH  20  22
ATOM     22  C   UNL A   1      34.834  23.658  23.640  1.00  0.00    -0.025 A 
ATOM     23  C   UNL A   1      35.873  22.894  23.081  1.00  0.00     0.006 A 
ATOM     24  C   UNL A   1      34.970  24.088  24.971  1.00  0.00     0.006 A 
ATOM     25  C   UNL A   1      36.962  22.485  23.855  1.00  0.00     0.000 A 
ATOM     26  C   UNL A   1      36.075  23.704  25.735  1.00  0.00     0.000 A 
ATOM     27  C   UNL A   1      37.055  22.879  25.186  1.00  0.00     0.000 A 
ENDBRANCH  20  22
ENDBRANCH  10  20
ENDBRANCH   7   9
ENDBRANCH   6   7
ENDBRANCH   5   6
ENDBRANCH   4   5
ENDBRANCH   3   4
ENDBRANCH   2   3
ENDBRANCH   1   2
BRANCH   1  28
ATOM     28  O   UNL A   1      35.189  32.269  31.285  1.00  0.00    -0.376 OA
BRANCH  28  29
ATOM     29  C   UNL A   1      35.855  31.895  32.480  1.00  0.00     0.202 C 
BRANCH  29  30
ATOM     30  C   UNL A   1      36.592  30.558  32.697  1.00  0.00     0.261 C 
BRANCH  30  31
ATOM     31  O   UNL A   1      36.349  29.504  31.764  1.00  0.00    -0.460 OA
BRANCH  31  32
ATOM     32  C   UNL A   1      37.223  29.439  30.729  1.00  0.00     0.338 C 
ATOM     33  O   UNL A   1      36.993  29.672  29.555  1.00  0.00    -0.246 OA
BRANCH  32  34
ATOM     34  C   UNL A   1      38.581  29.216  31.256  1.00  0.00     0.060 A 
ATOM     35  C   UNL A   1      39.588  30.127  30.909  1.00  0.00     0.016 A 
ATOM     36  C   UNL A   1      38.873  28.084  32.017  1.00  0.00     0.016 A 
ATOM     37  C   UNL A   1      40.907  29.884  31.286  1.00  0.00     0.010 A 
ATOM     38  C   UNL A   1      40.199  27.832  32.377  1.00  0.00     0.010 A 
ATOM     39  C   UNL A   1      41.225  28.707  31.973  1.00  0.00    -0.014 A 
BRANCH  39  40
ATOM     40  C   UNL A   1      42.644  28.290  32.069  1.00  0.00     0.031 A 
ATOM     41  C   UNL A   1      43.281  27.643  30.869  1.00  0.00     0.074 A 
ATOM     42  C   UNL A   1      43.359  28.496  33.187  1.00  0.00     0.049 A 
ATOM     43  N   UNL A   1      44.497  27.189  30.719  1.00  0.00    -0.248 NA
ATOM     44  C   UNL A   1      42.427  27.481  29.680  1.00  0.00     0.031 C 
ATOM     45  C   UNL A   1      42.861  29.128  34.406  1.00  0.00     0.029 A 
ATOM     46  N   UNL A   1      44.660  28.173  33.480  1.00  0.00    -0.354 N 
ATOM     47  C   UNL A   1      44.544  26.652  29.437  1.00  0.00     0.074 A 
ATOM     48  C   UNL A   1      43.230  26.826  28.857  1.00  0.00     0.031 C 
ATOM     49  C   UNL A   1      43.842  29.133  35.325  1.00  0.00     0.029 A 
ATOM     50  C   UNL A   1      45.025  28.479  34.769  1.00  0.00     0.049 A 
ATOM     51  H   UNL A   1      45.273  27.762  32.829  1.00  0.00     0.167 HD
ATOM     52  C   UNL A   1      45.585  26.072  28.795  1.00  0.00     0.034 A 
ATOM     53  C   UNL A   1      46.177  28.240  35.426  1.00  0.00     0.034 A 
ATOM     54  C   UNL A   1      46.893  25.911  29.371  1.00  0.00     0.049 A 
ATOM     55  C   UNL A   1      47.315  27.569  34.701  1.00  0.00     0.074 A 
ATOM     56  C   UNL A   1      48.031  25.385  28.788  1.00  0.00     0.029 A 
ATOM     57  N   UNL A   1      47.232  26.254  30.671  1.00  0.00    -0.354 N 
ATOM     58  N   UNL A   1      47.379  27.161  33.456  1.00  0.00    -0.248 NA
ATOM     59  C   UNL A   1      48.555  27.359  35.463  1.00  0.00     0.031 C 
ATOM     60  C   UNL A   1      49.046  25.365  29.750  1.00  0.00     0.029 A 
ATOM     61  C   UNL A   1      48.557  25.935  30.915  1.00  0.00     0.049 A 
ATOM     62  H   UNL A   1      46.621  26.666  31.325  1.00  0.00     0.167 HD
ATOM     63  C   UNL A   1      48.678  26.696  33.270  1.00  0.00     0.074 A 
ATOM     64  C   UNL A   1      49.368  26.879  34.531  1.00  0.00     0.031 C 
ATOM     65  C   UNL A   1      49.247  26.168  32.159  1.00  0.00     0.034 A 
BRANCH  52  66
ATOM     66  C   UNL A   1      45.343  25.560  27.399  1.00  0.00     0.023 A 
ATOM     67  C   UNL A   1      45.416  26.437  26.297  1.00  0.00     0.012 A 
ATOM     68  C   UNL A   1      45.060  24.198  27.178  1.00  0.00     0.148 A 
ATOM     69  C   UNL A   1      45.163  25.978  25.005  1.00  0.00     0.002 A 
ATOM     70  C   UNL A   1      44.863  23.737  25.882  1.00  0.00     0.091 A 
ATOM     71  F   UNL A   1      44.970  23.383  28.238  1.00  0.00    -0.205 F 
ATOM     72  C   UNL A   1      44.897  24.627  24.797  1.00  0.00     0.022 A 
BRANCH  70  73
ATOM     73  S   UNL A   1      44.598  22.002  25.506  1.00  0.00     0.127 S 
ATOM     74  O   UNL A   1      45.874  21.414  25.909  1.00  0.00    -0.237 OA
ATOM     75  O   UNL A   1      43.471  21.667  26.377  1.00  0.00    -0.237 OA
ATOM     76  O   UNL A   1      44.302  21.938  24.082  1.00  0.00    -0.744 OA
ENDBRANCH  70  73
ENDBRANCH  52  66
BRANCH  53  77
ATOM     77  C   UNL A   1      46.333  28.683  36.840  1.00  0.00     0.023 A 
ATOM     78  C   UNL A   1      46.745  30.002  37.112  1.00  0.00     0.012 A 
ATOM     79  C   UNL A   1      46.064  27.811  37.913  1.00  0.00     0.148 A 
ATOM     80  C   UNL A   1      46.917  30.437  38.426  1.00  0.00     0.002 A 
ATOM     81  C   UNL A   1      46.185  28.267  39.220  1.00  0.00     0.091 A 
ATOM     82  F   UNL A   1      45.683  26.558  37.630  1.00  0.00    -0.205 F 
ATOM     83  C   UNL A   1      46.629  29.573  39.480  1.00  0.00     0.022 A 
BRANCH  81  84
ATOM     84  S   UNL A   1      45.725  27.267  40.640  1.00  0.00     0.127 S 
ATOM     85  O   UNL A   1      44.314  27.000  40.373  1.00  0.00    -0.237 OA
ATOM     86  O   UNL A   1      46.610  26.112  40.488  1.00  0.00    -0.237 OA
ATOM     87  O   UNL A   1      45.998  28.090  41.809  1.00  0.00    -0.744 OA
ENDBRANCH  81  84
ENDBRANCH  53  77
BRANCH  65  88
ATOM     88  C   UNL A   1      50.712  25.811  32.219  1.00  0.00     0.023 A 
ATOM     89  C   UNL A   1      51.698  26.811  32.109  1.00  0.00     0.012 A 
ATOM     90  C   UNL A   1      51.107  24.477  32.450  1.00  0.00     0.148 A 
ATOM     91  C   UNL A   1      53.053  26.484  32.185  1.00  0.00     0.002 A 
ATOM     92  C   UNL A   1      52.455  24.167  32.582  1.00  0.00     0.091 A 
ATOM     93  F   UNL A   1      50.157  23.535  32.535  1.00  0.00    -0.205 F 
ATOM     94  C   UNL A   1      53.430  25.166  32.433  1.00  0.00     0.022 A 
BRANCH  92  95
ATOM     95  S   UNL A   1      53.024  22.517  33.006  1.00  0.00     0.127 S 
ATOM     96  O   UNL A   1      54.381  22.521  32.462  1.00  0.00    -0.237 OA
ATOM     97  O   UNL A   1      52.953  22.531  34.468  1.00  0.00    -0.237 OA
ATOM     98  O   UNL A   1      52.096  21.594  32.367  1.00  0.00    -0.744 OA
ENDBRANCH  92  95
ENDBRANCH  65  88
ENDBRANCH  39  40
ENDBRANCH  32  34
ENDBRANCH  31  32
ENDBRANCH  30  31
ENDBRANCH  29  30
ENDBRANCH  28  29
ENDBRANCH   1  28
TORSDOF 22
ENDMDL
MODEL 3
REMARK VINA RESULT:      -7.7      4.192      8.148
REMARK SMILES C[C@H](c1ccccc1)N1C(=O)c2ccc(C(=O)OCCOCCOCCOC(=O)c3ccc(-c4c5nc(c(-c6cccc(S(=O)(=O)[O-])c6F)c6ccc([nH]6)c(-c6cccc(S(=O)(=O)[O-])c6F)c6nc(c(-c7cccc(S(=O)(=O)[O-])c7F)c7ccc4[nH]7)C=C6)C=C5)cc3)cc2C1=O
REMARK SMILES IDX 23 1 22 2 21 3 20 4 19 5 18 6 16 7 17 8 15 9 9 10 10 11
REMARK SMILES IDX 95 12 11 13 12 14 94 15 96 16 13 17 93 18 14 19 2 20 1 21
REMARK SMILES IDX 3 22 4 23 8 24 5 25 7 26 6 27 24 28 25 29 26 30 27 31 28 32
REMARK SMILES IDX 29 33 30 34 31 35 92 36 32 37 91 38 33 39 34 40 35 41 85 42
REMARK SMILES IDX 36 43 90 44 84 45 86 46 37 47 89 48 83 49 82 50 38 52 70 53
REMARK SMILES IDX 50 54 69 55 51 56 54 57 68 58 87 59 52 60 53 61 67 63 88 64
REMARK SMILES IDX 55 65 39 66 40 67 48 68 41 69 43 70 49 71 42 72 44 73 45 74
REMARK SMILES IDX 46 75 47 76 71 77 72 78 80 79 73 80 75 81 81 82 74 83 76 84
REMARK SMILES IDX 77 85 78 86 79 87 56 88 57 89 65 90 58 91 60 92 66 93 59 94
REMARK SMILES IDX 61 95 62 96 63 97 64 98
REMARK H PARENT 86 51 54 62
REMARK Flexibility Score: inf
ROOT
ATOM      1  C   UNL A   1      37.356  20.383  25.159  1.00  0.00     0.188 C 
ENDROOT
BRANCH   1   2
ATOM      2  C   UNL A   1      38.544  19.557  24.627  1.00  0.00     0.188 C 
BRANCH   2   3
ATOM      3  O   UNL A   1      39.412  19.021  25.597  1.00  0.00    -0.376 OA
BRANCH   3   4
ATOM      4  C   UNL A   1      40.457  19.817  26.131  1.00  0.00     0.202 C 
BRANCH   4   5
ATOM      5  C   UNL A   1      41.970  19.509  26.045  1.00  0.00     0.261 C 
BRANCH   5   6
ATOM      6  O   UNL A   1      42.743  20.220  25.072  1.00  0.00    -0.460 OA
BRANCH   6   7
ATOM      7  C   UNL A   1      44.054  20.403  25.368  1.00  0.00     0.338 C 
ATOM      8  O   UNL A   1      44.937  19.567  25.405  1.00  0.00    -0.246 OA
BRANCH   7   9
ATOM      9  C   UNL A   1      44.308  21.849  25.514  1.00  0.00     0.060 A 
ATOM     10  N   UNL A   1      46.500  25.788  26.253  1.00  0.00    -0.267 N 
ATOM     11  C   UNL A   1      45.202  25.908  25.829  1.00  0.00     0.262 C 
ATOM     12  C   UNL A   1      46.793  24.493  26.590  1.00  0.00     0.262 C 
ATOM     13  O   UNL A   1      44.531  26.890  25.598  1.00  0.00    -0.269 OA
ATOM     14  C   UNL A   1      44.696  24.552  25.675  1.00  0.00     0.053 A 
ATOM     15  C   UNL A   1      45.627  23.684  26.216  1.00  0.00     0.054 A 
ATOM     16  O   UNL A   1      47.824  24.029  27.045  1.00  0.00    -0.269 OA
ATOM     17  C   UNL A   1      43.580  24.120  24.990  1.00  0.00     0.015 A 
ATOM     18  C   UNL A   1      45.443  22.312  26.195  1.00  0.00     0.030 A 
ATOM     19  C   UNL A   1      43.410  22.742  24.878  1.00  0.00     0.016 A 
BRANCH  10  20
ATOM     20  C   UNL A   1      47.499  26.851  26.109  1.00  0.00     0.121 C 
ATOM     21  C   UNL A   1      48.266  26.773  24.789  1.00  0.00     0.037 C 
BRANCH  20  22
ATOM     22  C   UNL A   1      48.377  26.851  27.364  1.00  0.00    -0.025 A 
ATOM     23  C   UNL A   1      49.773  26.706  27.286  1.00  0.00     0.006 A 
ATOM     24  C   UNL A   1      47.774  26.785  28.632  1.00  0.00     0.006 A 
ATOM     25  C   UNL A   1      50.529  26.403  28.420  1.00  0.00     0.000 A 
ATOM     26  C   UNL A   1      48.537  26.512  29.770  1.00  0.00     0.000 A 
ATOM     27  C   UNL A   1      49.908  26.292  29.660  1.00  0.00     0.000 A 
ENDBRANCH  20  22
ENDBRANCH  10  20
ENDBRANCH   7   9
ENDBRANCH   6   7
ENDBRANCH   5   6
ENDBRANCH   4   5
ENDBRANCH   3   4
ENDBRANCH   2   3
ENDBRANCH   1   2
BRANCH   1  28
ATOM     28  O   UNL A   1      37.142  21.694  24.678  1.00  0.00    -0.376 OA
BRANCH  28  29
ATOM     29  C   UNL A   1      36.412  22.630  25.454  1.00  0.00     0.202 C 
BRANCH  29  30
ATOM     30  C   UNL A   1      37.031  23.832  26.197  1.00  0.00     0.261 C 
BRANCH  30  31
ATOM     31  O   UNL A   1      38.288  24.327  25.733  1.00  0.00    -0.460 OA
BRANCH  31  32
ATOM     32  C   UNL A   1      39.375  23.816  26.363  1.00  0.00     0.338 C 
ATOM     33  O   UNL A   1      39.748  22.656  26.363  1.00  0.00    -0.246 OA
BRANCH  32  34
ATOM     34  C   UNL A   1      40.176  24.921  26.920  1.00  0.00     0.060 A 
ATOM     35  C   UNL A   1      40.487  24.895  28.286  1.00  0.00     0.016 A 
ATOM     36  C   UNL A   1      40.547  26.004  26.123  1.00  0.00     0.016 A 
ATOM     37  C   UNL A   1      41.136  25.979  28.873  1.00  0.00     0.010 A 
ATOM     38  C   UNL A   1      41.180  27.098  26.717  1.00  0.00     0.010 A 
ATOM     39  C   UNL A   1      41.434  27.108  28.102  1.00  0.00    -0.014 A 
BRANCH  39  40
ATOM     40  C   UNL A   1      41.803  28.371  28.784  1.00  0.00     0.031 A 
ATOM     41  C   UNL A   1      40.699  29.265  29.277  1.00  0.00     0.074 A 
ATOM     42  C   UNL A   1      43.089  28.709  28.981  1.00  0.00     0.049 A 
ATOM     43  N   UNL A   1      40.775  30.417  29.891  1.00  0.00    -0.248 NA
ATOM     44  C   UNL A   1      39.322  28.800  29.039  1.00  0.00     0.031 C 
ATOM     45  C   UNL A   1      44.245  27.918  28.568  1.00  0.00     0.029 A 
ATOM     46  N   UNL A   1      43.632  29.824  29.567  1.00  0.00    -0.354 N 
ATOM     47  C   UNL A   1      39.461  30.833  30.076  1.00  0.00     0.074 A 
ATOM     48  C   UNL A   1      38.609  29.817  29.498  1.00  0.00     0.031 C 
ATOM     49  C   UNL A   1      45.366  28.582  28.899  1.00  0.00     0.029 A 
ATOM     50  C   UNL A   1      45.005  29.856  29.520  1.00  0.00     0.049 A 
ATOM     51  H   UNL A   1      43.090  30.534  29.981  1.00  0.00     0.167 HD
ATOM     52  C   UNL A   1      39.002  31.955  30.678  1.00  0.00     0.034 A 
ATOM     53  C   UNL A   1      45.867  30.813  29.917  1.00  0.00     0.034 A 
ATOM     54  C   UNL A   1      39.851  32.958  31.261  1.00  0.00     0.049 A 
ATOM     55  C   UNL A   1      45.333  32.067  30.560  1.00  0.00     0.074 A 
ATOM     56  C   UNL A   1      39.486  34.106  31.940  1.00  0.00     0.029 A 
ATOM     57  N   UNL A   1      41.237  32.944  31.215  1.00  0.00    -0.354 N 
ATOM     58  N   UNL A   1      44.091  32.399  30.823  1.00  0.00    -0.248 NA
ATOM     59  C   UNL A   1      46.323  33.062  30.996  1.00  0.00     0.031 C 
ATOM     60  C   UNL A   1      40.650  34.811  32.263  1.00  0.00     0.029 A 
ATOM     61  C   UNL A   1      41.743  34.072  31.837  1.00  0.00     0.049 A 
ATOM     62  H   UNL A   1      41.782  32.236  30.801  1.00  0.00     0.167 HD
ATOM     63  C   UNL A   1      44.154  33.613  31.500  1.00  0.00     0.074 A 
ATOM     64  C   UNL A   1      45.559  33.954  31.612  1.00  0.00     0.031 C 
ATOM     65  C   UNL A   1      43.144  34.376  31.986  1.00  0.00     0.034 A 
BRANCH  52  66
ATOM     66  C   UNL A   1      37.509  32.158  30.722  1.00  0.00     0.023 A 
ATOM     67  C   UNL A   1      36.765  31.717  31.836  1.00  0.00     0.012 A 
ATOM     68  C   UNL A   1      36.845  32.807  29.663  1.00  0.00     0.148 A 
ATOM     69  C   UNL A   1      35.380  31.873  31.872  1.00  0.00     0.002 A 
ATOM     70  C   UNL A   1      35.472  33.007  29.731  1.00  0.00     0.091 A 
ATOM     71  F   UNL A   1      37.564  33.198  28.602  1.00  0.00    -0.205 F 
ATOM     72  C   UNL A   1      34.736  32.527  30.824  1.00  0.00     0.022 A 
BRANCH  70  73
ATOM     73  S   UNL A   1      34.567  33.913  28.472  1.00  0.00     0.127 S 
ATOM     74  O   UNL A   1      34.667  35.285  28.965  1.00  0.00    -0.237 OA
ATOM     75  O   UNL A   1      35.355  33.638  27.270  1.00  0.00    -0.237 OA
ATOM     76  O   UNL A   1      33.225  33.350  28.457  1.00  0.00    -0.744 OA
ENDBRANCH  70  73
ENDBRANCH  52  66
BRANCH  53  77
ATOM     77  C   UNL A   1      47.334  30.603  29.763  1.00  0.00     0.023 A 
ATOM     78  C   UNL A   1      48.075  30.073  30.837  1.00  0.00     0.012 A 
ATOM     79  C   UNL A   1      47.995  30.913  28.558  1.00  0.00     0.148 A 
ATOM     80  C   UNL A   1      49.453  29.885  30.727  1.00  0.00     0.002 A 
ATOM     81  C   UNL A   1      49.357  30.673  28.436  1.00  0.00     0.091 A 
ATOM     82  F   UNL A   1      47.271  31.425  27.553  1.00  0.00    -0.205 F 
ATOM     83  C   UNL A   1      50.092  30.176  29.524  1.00  0.00     0.022 A 
BRANCH  81  84
ATOM     84  S   UNL A   1      50.246  30.904  26.892  1.00  0.00     0.127 S 
ATOM     85  O   UNL A   1      51.636  30.855  27.338  1.00  0.00    -0.237 OA
ATOM     86  O   UNL A   1      49.805  29.742  26.120  1.00  0.00    -0.237 OA
ATOM     87  O   UNL A   1      49.800  32.186  26.366  1.00  0.00    -0.744 OA
ENDBRANCH  81  84
ENDBRANCH  53  77
BRANCH  65  88
ATOM     88  C   UNL A   1      43.509  35.624  32.752  1.00  0.00     0.023 A 
ATOM     89  C   UNL A   1      43.689  35.581  34.149  1.00  0.00     0.012 A 
ATOM     90  C   UNL A   1      43.735  36.835  32.066  1.00  0.00     0.148 A 
ATOM     91  C   UNL A   1      44.045  36.731  34.854  1.00  0.00     0.002 A 
ATOM     92  C   UNL A   1      44.146  37.962  32.766  1.00  0.00     0.091 A 
ATOM     93  F   UNL A   1      43.543  36.863  30.739  1.00  0.00    -0.205 F 
ATOM     94  C   UNL A   1      44.285  37.916  34.162  1.00  0.00     0.022 A 
BRANCH  92  95
ATOM     95  S   UNL A   1      44.579  39.499  31.945  1.00  0.00     0.127 S 
ATOM     96  O   UNL A   1      44.859  40.375  33.081  1.00  0.00    -0.237 OA
ATOM     97  O   UNL A   1      45.757  39.114  31.167  1.00  0.00    -0.237 OA
ATOM     98  O   UNL A   1      43.421  39.867  31.142  1.00  0.00    -0.744 OA
ENDBRANCH  92  95
ENDBRANCH  65  88
ENDBRANCH  39  40
ENDBRANCH  32  34
ENDBRANCH  31  32
ENDBRANCH  30  31
ENDBRANCH  29  30
ENDBRANCH  28  29
ENDBRANCH   1  28
TORSDOF 22
ENDMDL
