MODEL 1
REMARK VINA RESULT:      -6.9      0.000      0.000
REMARK SMILES CCCCCCNC(=O)Oc1cccc(-c2ccc([C@H](C)C(=O)OCCOCCOCCOC(=O)c3ccc(-c4c5nc(c(-c6cccc(S(=O)(=O)[O-])c6F)c6ccc([nH]6)c(-c6cccc(S(=O)(=O)[O-])c6F)c6nc(c(-c7cccc(S(=O)(=O)[O-])c7F)c7ccc4[nH]7)C=C6)C=C5)cc3)cc2F)c1
REMARK SMILES IDX 25 1 24 2 22 3 23 4 20 5 21 6 19 7 16 8 17 9 100 10 18 11
REMARK SMILES IDX 99 12 101 13 15 14 11 15 12 16 102 17 13 18 14 19 10 20 8 21
REMARK SMILES IDX 7 22 9 24 6 25 5 26 4 27 3 28 2 29 1 30 26 31 27 32 28 33
REMARK SMILES IDX 29 34 30 35 31 36 32 37 33 38 34 39 35 40 36 41 37 42 98 43
REMARK SMILES IDX 38 44 97 45 39 46 40 47 41 48 91 49 42 50 96 51 90 52 92 53
REMARK SMILES IDX 43 54 95 55 89 56 88 57 44 59 76 60 56 61 75 62 57 63 60 64
REMARK SMILES IDX 74 65 93 66 58 67 59 68 73 70 94 71 61 72 45 73 46 74 54 75
REMARK SMILES IDX 47 76 49 77 55 78 48 79 50 80 51 81 52 82 53 83 77 84 78 85
REMARK SMILES IDX 86 86 79 87 81 88 87 89 80 90 82 91 83 92 84 93 85 94 62 95
REMARK SMILES IDX 63 96 71 97 64 98 66 99 72 100 65 101 67 102 68 103 69 104
REMARK SMILES IDX 70 105
REMARK H PARENT 7 23 92 58 60 69
REMARK Flexibility Score: inf
ROOT
ATOM      1  C   UNL A   1      38.474  30.843  35.792  1.00  0.00     0.261 C 
ENDROOT
BRANCH   1   2
ATOM      2  O   UNL A   1      39.410  31.697  36.485  1.00  0.00    -0.463 OA
BRANCH   2   3
ATOM      3  C   UNL A   1      39.641  32.895  35.887  1.00  0.00     0.313 C 
ATOM      4  O   UNL A   1      40.615  33.094  35.165  1.00  0.00    -0.252 OA
BRANCH   3   5
ATOM      5  C   UNL A   1      38.540  33.953  36.098  1.00  0.00     0.126 C 
ATOM      6  C   UNL A   1      39.070  35.351  36.469  1.00  0.00     0.025 C 
BRANCH   5   7
ATOM      7  C   UNL A   1      37.563  34.014  34.921  1.00  0.00    -0.031 A 
ATOM      8  C   UNL A   1      35.736  34.465  32.814  1.00  0.00     0.018 A 
ATOM      9  C   UNL A   1      35.285  34.017  34.059  1.00  0.00     0.012 A 
ATOM     10  C   UNL A   1      37.109  34.568  32.605  1.00  0.00     0.131 A 
ATOM     11  C   UNL A   1      36.189  33.780  35.094  1.00  0.00     0.005 A 
ATOM     12  C   UNL A   1      38.008  34.318  33.626  1.00  0.00     0.044 A 
ATOM     13  F   UNL A   1      37.594  34.939  31.409  1.00  0.00    -0.206 F 
BRANCH   8  14
ATOM     14  C   UNL A   1      34.799  34.754  31.742  1.00  0.00    -0.012 A 
ATOM     15  C   UNL A   1      33.931  34.215  29.559  1.00  0.00     0.133 A 
ATOM     16  C   UNL A   1      32.988  35.234  29.659  1.00  0.00     0.047 A 
ATOM     17  C   UNL A   1      34.855  33.999  30.572  1.00  0.00     0.056 A 
ATOM     18  C   UNL A   1      32.943  36.016  30.811  1.00  0.00     0.004 A 
ATOM     19  C   UNL A   1      33.839  35.771  31.854  1.00  0.00     0.009 A 
BRANCH  15  20
ATOM     20  O   UNL A   1      33.992  33.486  28.368  1.00  0.00    -0.410 OA
BRANCH  20  21
ATOM     21  C   UNL A   1      35.217  32.938  28.019  1.00  0.00     0.412 C 
ATOM     22  N   UNL A   1      35.167  31.589  27.843  1.00  0.00    -0.321 N 
ATOM     23  H   UNL A   1      36.008  31.136  27.605  1.00  0.00     0.167 HD
ATOM     24  O   UNL A   1      36.275  33.553  27.870  1.00  0.00    -0.224 OA
BRANCH  22  25
ATOM     25  C   UNL A   1      33.989  30.761  27.976  1.00  0.00     0.119 C 
BRANCH  25  26
ATOM     26  C   UNL A   1      34.210  29.358  27.419  1.00  0.00     0.021 C 
BRANCH  26  27
ATOM     27  C   UNL A   1      33.973  29.227  25.912  1.00  0.00     0.002 C 
BRANCH  27  28
ATOM     28  C   UNL A   1      32.504  29.122  25.488  1.00  0.00    -0.000 C 
BRANCH  28  29
ATOM     29  C   UNL A   1      32.252  28.315  24.212  1.00  0.00    -0.003 C 
ATOM     30  C   UNL A   1      31.158  28.908  23.337  1.00  0.00     0.004 C 
ENDBRANCH  28  29
ENDBRANCH  27  28
ENDBRANCH  26  27
ENDBRANCH  25  26
ENDBRANCH  22  25
ENDBRANCH  20  21
ENDBRANCH  15  20
ENDBRANCH   8  14
ENDBRANCH   5   7
ENDBRANCH   3   5
ENDBRANCH   2   3
ENDBRANCH   1   2
BRANCH   1  31
ATOM     31  C   UNL A   1      38.897  30.395  34.383  1.00  0.00     0.202 C 
BRANCH  31  32
ATOM     32  O   UNL A   1      37.902  29.917  33.483  1.00  0.00    -0.376 OA
BRANCH  32  33
ATOM     33  C   UNL A   1      37.022  30.851  32.876  1.00  0.00     0.188 C 
BRANCH  33  34
ATOM     34  C   UNL A   1      37.250  31.176  31.398  1.00  0.00     0.188 C 
BRANCH  34  35
ATOM     35  O   UNL A   1      36.542  30.351  30.493  1.00  0.00    -0.376 OA
BRANCH  35  36
ATOM     36  C   UNL A   1      37.196  29.214  29.940  1.00  0.00     0.202 C 
BRANCH  36  37
ATOM     37  C   UNL A   1      38.729  29.275  29.759  1.00  0.00     0.261 C 
BRANCH  37  38
ATOM     38  O   UNL A   1      39.496  28.137  30.210  1.00  0.00    -0.460 OA
BRANCH  38  39
ATOM     39  C   UNL A   1      40.842  28.167  30.047  1.00  0.00     0.338 C 
ATOM     40  O   UNL A   1      41.433  28.401  29.007  1.00  0.00    -0.246 OA
BRANCH  39  41
ATOM     41  C   UNL A   1      41.477  28.176  31.399  1.00  0.00     0.060 A 
ATOM     42  C   UNL A   1      42.811  28.608  31.501  1.00  0.00     0.016 A 
ATOM     43  C   UNL A   1      40.762  27.882  32.563  1.00  0.00     0.016 A 
ATOM     44  C   UNL A   1      43.436  28.712  32.751  1.00  0.00     0.010 A 
ATOM     45  C   UNL A   1      41.395  27.968  33.812  1.00  0.00     0.010 A 
ATOM     46  C   UNL A   1      42.745  28.354  33.915  1.00  0.00    -0.014 A 
BRANCH  46  47
ATOM     47  C   UNL A   1      43.464  28.191  35.208  1.00  0.00     0.031 A 
ATOM     48  C   UNL A   1      43.474  29.355  36.165  1.00  0.00     0.074 A 
ATOM     49  C   UNL A   1      44.124  27.063  35.532  1.00  0.00     0.049 A 
ATOM     50  N   UNL A   1      44.102  29.494  37.304  1.00  0.00    -0.248 NA
ATOM     51  C   UNL A   1      42.667  30.524  35.778  1.00  0.00     0.031 C 
ATOM     52  C   UNL A   1      44.178  25.847  34.726  1.00  0.00     0.029 A 
ATOM     53  N   UNL A   1      44.908  26.774  36.628  1.00  0.00    -0.354 N 
ATOM     54  C   UNL A   1      43.809  30.779  37.744  1.00  0.00     0.074 A 
ATOM     55  C   UNL A   1      42.941  31.377  36.752  1.00  0.00     0.031 C 
ATOM     56  C   UNL A   1      44.974  24.951  35.339  1.00  0.00     0.029 A 
ATOM     57  C   UNL A   1      45.519  25.543  36.561  1.00  0.00     0.049 A 
ATOM     58  H   UNL A   1      45.019  27.391  37.387  1.00  0.00     0.167 HD
ATOM     59  C   UNL A   1      44.220  31.409  38.869  1.00  0.00     0.034 A 
ATOM     60  C   UNL A   1      46.437  24.974  37.372  1.00  0.00     0.034 A 
ATOM     61  C   UNL A   1      45.068  30.817  39.866  1.00  0.00     0.049 A 
ATOM     62  C   UNL A   1      46.926  25.721  38.591  1.00  0.00     0.074 A 
ATOM     63  C   UNL A   1      45.480  31.357  41.073  1.00  0.00     0.029 A 
ATOM     64  N   UNL A   1      45.660  29.568  39.766  1.00  0.00    -0.354 N 
ATOM     65  N   UNL A   1      46.546  26.886  39.057  1.00  0.00    -0.248 NA
ATOM     66  C   UNL A   1      47.961  25.063  39.407  1.00  0.00     0.031 C 
ATOM     67  C   UNL A   1      46.366  30.458  41.674  1.00  0.00     0.029 A 
ATOM     68  C   UNL A   1      46.465  29.336  40.868  1.00  0.00     0.049 A 
ATOM     69  H   UNL A   1      45.528  28.939  39.020  1.00  0.00     0.167 HD
ATOM     70  C   UNL A   1      47.267  27.084  40.232  1.00  0.00     0.074 A 
ATOM     71  C   UNL A   1      48.094  25.911  40.418  1.00  0.00     0.031 C 
ATOM     72  C   UNL A   1      47.255  28.148  41.074  1.00  0.00     0.034 A 
BRANCH  59  73
ATOM     73  C   UNL A   1      43.769  32.831  39.077  1.00  0.00     0.023 A 
ATOM     74  C   UNL A   1      42.596  33.102  39.812  1.00  0.00     0.012 A 
ATOM     75  C   UNL A   1      44.535  33.903  38.578  1.00  0.00     0.148 A 
ATOM     76  C   UNL A   1      42.174  34.417  40.012  1.00  0.00     0.002 A 
ATOM     77  C   UNL A   1      44.135  35.209  38.823  1.00  0.00     0.091 A 
ATOM     78  F   UNL A   1      45.634  33.623  37.862  1.00  0.00    -0.205 F 
ATOM     79  C   UNL A   1      42.947  35.468  39.527  1.00  0.00     0.022 A 
BRANCH  77  80
ATOM     80  S   UNL A   1      45.105  36.631  38.311  1.00  0.00     0.127 S 
ATOM     81  O   UNL A   1      45.046  36.519  36.856  1.00  0.00    -0.237 OA
ATOM     82  O   UNL A   1      44.335  37.743  38.869  1.00  0.00    -0.237 OA
ATOM     83  O   UNL A   1      46.425  36.450  38.899  1.00  0.00    -0.744 OA
ENDBRANCH  77  80
ENDBRANCH  59  73
BRANCH  60  84
ATOM     84  C   UNL A   1      46.957  23.606  37.077  1.00  0.00     0.023 A 
ATOM     85  C   UNL A   1      47.983  23.447  36.124  1.00  0.00     0.012 A 
ATOM     86  C   UNL A   1      46.439  22.465  37.722  1.00  0.00     0.148 A 
ATOM     87  C   UNL A   1      48.464  22.177  35.799  1.00  0.00     0.002 A 
ATOM     88  C   UNL A   1      46.959  21.209  37.432  1.00  0.00     0.091 A 
ATOM     89  F   UNL A   1      45.449  22.634  38.608  1.00  0.00    -0.205 F 
ATOM     90  C   UNL A   1      47.960  21.060  36.460  1.00  0.00     0.022 A 
BRANCH  88  91
ATOM     91  S   UNL A   1      46.451  19.723  38.305  1.00  0.00     0.127 S 
ATOM     92  O   UNL A   1      45.467  19.157  37.384  1.00  0.00    -0.237 OA
ATOM     93  O   UNL A   1      47.709  18.983  38.391  1.00  0.00    -0.237 OA
ATOM     94  O   UNL A   1      45.924  20.176  39.584  1.00  0.00    -0.744 OA
ENDBRANCH  88  91
ENDBRANCH  60  84
BRANCH  72  95
ATOM     95  C   UNL A   1      48.136  28.099  42.299  1.00  0.00     0.023 A 
ATOM     96  C   UNL A   1      47.632  27.582  43.508  1.00  0.00     0.012 A 
ATOM     97  C   UNL A   1      49.492  28.479  42.224  1.00  0.00     0.148 A 
ATOM     98  C   UNL A   1      48.454  27.470  44.631  1.00  0.00     0.002 A 
ATOM     99  C   UNL A   1      50.318  28.317  43.332  1.00  0.00     0.091 A 
ATOM    100  F   UNL A   1      49.952  28.979  41.068  1.00  0.00    -0.205 F 
ATOM    101  C   UNL A   1      49.797  27.825  44.539  1.00  0.00     0.022 A 
BRANCH  99 102
ATOM    102  S   UNL A   1      52.082  28.653  43.283  1.00  0.00     0.127 S 
ATOM    103  O   UNL A   1      52.485  28.333  44.652  1.00  0.00    -0.237 OA
ATOM    104  O   UNL A   1      52.550  27.705  42.272  1.00  0.00    -0.237 OA
ATOM    105  O   UNL A   1      52.218  30.055  42.910  1.00  0.00    -0.744 OA
ENDBRANCH  99 102
ENDBRANCH  72  95
ENDBRANCH  46  47
ENDBRANCH  39  41
ENDBRANCH  38  39
ENDBRANCH  37  38
ENDBRANCH  36  37
ENDBRANCH  35  36
ENDBRANCH  34  35
ENDBRANCH  33  34
ENDBRANCH  32  33
ENDBRANCH  31  32
ENDBRANCH   1  31
TORSDOF 29
ENDMDL
MODEL 2
REMARK VINA RESULT:      -6.8      7.837     11.264
REMARK SMILES CCCCCCNC(=O)Oc1cccc(-c2ccc([C@H](C)C(=O)OCCOCCOCCOC(=O)c3ccc(-c4c5nc(c(-c6cccc(S(=O)(=O)[O-])c6F)c6ccc([nH]6)c(-c6cccc(S(=O)(=O)[O-])c6F)c6nc(c(-c7cccc(S(=O)(=O)[O-])c7F)c7ccc4[nH]7)C=C6)C=C5)cc3)cc2F)c1
REMARK SMILES IDX 25 1 24 2 22 3 23 4 20 5 21 6 19 7 16 8 17 9 100 10 18 11
REMARK SMILES IDX 99 12 101 13 15 14 11 15 12 16 102 17 13 18 14 19 10 20 8 21
REMARK SMILES IDX 7 22 9 24 6 25 5 26 4 27 3 28 2 29 1 30 26 31 27 32 28 33
REMARK SMILES IDX 29 34 30 35 31 36 32 37 33 38 34 39 35 40 36 41 37 42 98 43
REMARK SMILES IDX 38 44 97 45 39 46 40 47 41 48 91 49 42 50 96 51 90 52 92 53
REMARK SMILES IDX 43 54 95 55 89 56 88 57 44 59 76 60 56 61 75 62 57 63 60 64
REMARK SMILES IDX 74 65 93 66 58 67 59 68 73 70 94 71 61 72 45 73 46 74 54 75
REMARK SMILES IDX 47 76 49 77 55 78 48 79 50 80 51 81 52 82 53 83 77 84 78 85
REMARK SMILES IDX 86 86 79 87 81 88 87 89 80 90 82 91 83 92 84 93 85 94 62 95
REMARK SMILES IDX 63 96 71 97 64 98 66 99 72 100 65 101 67 102 68 103 69 104
REMARK SMILES IDX 70 105
REMARK H PARENT 7 23 92 58 60 69
REMARK Flexibility Score: inf
ROOT
ATOM      1  C   UNL A   1      36.159  21.053  25.286  1.00  0.00     0.261 C 
ENDROOT
BRANCH   1   2
ATOM      2  O   UNL A   1      35.055  21.005  24.355  1.00  0.00    -0.463 OA
BRANCH   2   3
ATOM      3  C   UNL A   1      33.934  20.402  24.830  1.00  0.00     0.313 C 
ATOM      4  O   UNL A   1      33.644  19.240  24.556  1.00  0.00    -0.252 OA
BRANCH   3   5
ATOM      5  C   UNL A   1      33.105  21.249  25.817  1.00  0.00     0.126 C 
ATOM      6  C   UNL A   1      33.687  21.308  27.242  1.00  0.00     0.025 C 
BRANCH   5   7
ATOM      7  C   UNL A   1      32.806  22.647  25.271  1.00  0.00    -0.031 A 
ATOM      8  C   UNL A   1      32.106  25.292  24.569  1.00  0.00     0.018 A 
ATOM      9  C   UNL A   1      31.287  24.221  24.200  1.00  0.00     0.012 A 
ATOM     10  C   UNL A   1      33.324  25.014  25.183  1.00  0.00     0.131 A 
ATOM     11  C   UNL A   1      31.641  22.914  24.533  1.00  0.00     0.005 A 
ATOM     12  C   UNL A   1      33.684  23.716  25.500  1.00  0.00     0.044 A 
ATOM     13  F   UNL A   1      34.172  26.004  25.506  1.00  0.00    -0.206 F 
BRANCH   8  14
ATOM     14  C   UNL A   1      31.725  26.661  24.263  1.00  0.00    -0.012 A 
ATOM     15  C   UNL A   1      31.547  28.959  24.966  1.00  0.00     0.133 A 
ATOM     16  C   UNL A   1      31.052  29.326  23.718  1.00  0.00     0.047 A 
ATOM     17  C   UNL A   1      31.845  27.634  25.253  1.00  0.00     0.056 A 
ATOM     18  C   UNL A   1      30.898  28.354  22.730  1.00  0.00     0.004 A 
ATOM     19  C   UNL A   1      31.243  27.028  22.998  1.00  0.00     0.009 A 
BRANCH  15  20
ATOM     20  O   UNL A   1      31.634  29.942  25.956  1.00  0.00    -0.410 OA
BRANCH  20  21
ATOM     21  C   UNL A   1      31.844  29.517  27.259  1.00  0.00     0.412 C 
ATOM     22  N   UNL A   1      33.059  29.884  27.750  1.00  0.00    -0.321 N 
ATOM     23  H   UNL A   1      33.276  29.602  28.668  1.00  0.00     0.167 HD
ATOM     24  O   UNL A   1      31.055  28.872  27.951  1.00  0.00    -0.224 OA
BRANCH  22  25
ATOM     25  C   UNL A   1      34.062  30.650  27.044  1.00  0.00     0.119 C 
BRANCH  25  26
ATOM     26  C   UNL A   1      34.992  31.394  27.998  1.00  0.00     0.021 C 
BRANCH  26  27
ATOM     27  C   UNL A   1      34.930  32.920  27.886  1.00  0.00     0.002 C 
BRANCH  27  28
ATOM     28  C   UNL A   1      33.649  33.563  28.427  1.00  0.00    -0.000 C 
BRANCH  28  29
ATOM     29  C   UNL A   1      33.673  35.091  28.511  1.00  0.00    -0.003 C 
ATOM     30  C   UNL A   1      33.222  35.623  29.862  1.00  0.00     0.004 C 
ENDBRANCH  28  29
ENDBRANCH  27  28
ENDBRANCH  26  27
ENDBRANCH  25  26
ENDBRANCH  22  25
ENDBRANCH  20  21
ENDBRANCH  15  20
ENDBRANCH   8  14
ENDBRANCH   5   7
ENDBRANCH   3   5
ENDBRANCH   2   3
ENDBRANCH   1   2
BRANCH   1  31
ATOM     31  C   UNL A   1      37.338  20.117  24.970  1.00  0.00     0.202 C 
BRANCH  31  32
ATOM     32  O   UNL A   1      38.666  20.584  25.185  1.00  0.00    -0.376 OA
BRANCH  32  33
ATOM     33  C   UNL A   1      39.456  19.964  26.188  1.00  0.00     0.188 C 
BRANCH  33  34
ATOM     34  C   UNL A   1      40.642  19.116  25.727  1.00  0.00     0.188 C 
BRANCH  34  35
ATOM     35  O   UNL A   1      41.901  19.540  26.214  1.00  0.00    -0.376 OA
BRANCH  35  36
ATOM     36  C   UNL A   1      41.959  20.661  27.090  1.00  0.00     0.202 C 
BRANCH  36  37
ATOM     37  C   UNL A   1      42.667  21.939  26.587  1.00  0.00     0.261 C 
BRANCH  37  38
ATOM     38  O   UNL A   1      41.875  22.883  25.834  1.00  0.00    -0.460 OA
BRANCH  38  39
ATOM     39  C   UNL A   1      40.852  23.510  26.468  1.00  0.00     0.338 C 
ATOM     40  O   UNL A   1      39.761  23.028  26.719  1.00  0.00    -0.246 OA
BRANCH  39  41
ATOM     41  C   UNL A   1      41.381  24.767  27.078  1.00  0.00     0.060 A 
ATOM     42  C   UNL A   1      41.262  25.959  26.344  1.00  0.00     0.016 A 
ATOM     43  C   UNL A   1      41.877  24.813  28.384  1.00  0.00     0.016 A 
ATOM     44  C   UNL A   1      41.668  27.182  26.895  1.00  0.00     0.010 A 
ATOM     45  C   UNL A   1      42.302  26.035  28.927  1.00  0.00     0.010 A 
ATOM     46  C   UNL A   1      42.228  27.224  28.177  1.00  0.00    -0.014 A 
BRANCH  46  47
ATOM     47  C   UNL A   1      42.915  28.451  28.668  1.00  0.00     0.031 A 
ATOM     48  C   UNL A   1      42.062  29.584  29.179  1.00  0.00     0.074 A 
ATOM     49  C   UNL A   1      44.254  28.592  28.641  1.00  0.00     0.049 A 
ATOM     50  N   UNL A   1      42.412  30.782  29.570  1.00  0.00    -0.248 NA
ATOM     51  C   UNL A   1      40.614  29.328  29.251  1.00  0.00     0.031 C 
ATOM     52  C   UNL A   1      45.207  27.576  28.206  1.00  0.00     0.029 A 
ATOM     53  N   UNL A   1      45.041  29.675  28.964  1.00  0.00    -0.354 N 
ATOM     54  C   UNL A   1      41.229  31.438  29.887  1.00  0.00     0.074 A 
ATOM     55  C   UNL A   1      40.151  30.503  29.647  1.00  0.00     0.031 C 
ATOM     56  C   UNL A   1      46.450  28.090  28.263  1.00  0.00     0.029 A 
ATOM     57  C   UNL A   1      46.378  29.484  28.700  1.00  0.00     0.049 A 
ATOM     58  H   UNL A   1      44.681  30.506  29.349  1.00  0.00     0.167 HD
ATOM     59  C   UNL A   1      41.050  32.702  30.337  1.00  0.00     0.034 A 
ATOM     60  C   UNL A   1      47.418  30.344  28.771  1.00  0.00     0.034 A 
ATOM     61  C   UNL A   1      42.116  33.630  30.593  1.00  0.00     0.049 A 
ATOM     62  C   UNL A   1      47.184  31.767  29.219  1.00  0.00     0.074 A 
ATOM     63  C   UNL A   1      42.032  34.910  31.115  1.00  0.00     0.029 A 
ATOM     64  N   UNL A   1      43.454  33.399  30.320  1.00  0.00    -0.354 N 
ATOM     65  N   UNL A   1      46.077  32.336  29.630  1.00  0.00    -0.248 NA
ATOM     66  C   UNL A   1      48.352  32.665  29.228  1.00  0.00     0.031 C 
ATOM     67  C   UNL A   1      43.313  35.470  31.105  1.00  0.00     0.029 A 
ATOM     68  C   UNL A   1      44.202  34.523  30.625  1.00  0.00     0.049 A 
ATOM     69  H   UNL A   1      43.820  32.557  29.962  1.00  0.00     0.167 HD
ATOM     70  C   UNL A   1      46.420  33.641  29.978  1.00  0.00     0.074 A 
ATOM     71  C   UNL A   1      47.842  33.775  29.746  1.00  0.00     0.031 C 
ATOM     72  C   UNL A   1      45.625  34.641  30.435  1.00  0.00     0.034 A 
BRANCH  59  73
ATOM     73  C   UNL A   1      39.635  33.166  30.568  1.00  0.00     0.023 A 
ATOM     74  C   UNL A   1      38.964  33.913  29.578  1.00  0.00     0.012 A 
ATOM     75  C   UNL A   1      38.957  32.824  31.754  1.00  0.00     0.148 A 
ATOM     76  C   UNL A   1      37.653  34.344  29.783  1.00  0.00     0.002 A 
ATOM     77  C   UNL A   1      37.637  33.214  31.930  1.00  0.00     0.091 A 
ATOM     78  F   UNL A   1      39.621  32.133  32.693  1.00  0.00    -0.205 F 
ATOM     79  C   UNL A   1      36.987  33.986  30.952  1.00  0.00     0.022 A 
BRANCH  77  80
ATOM     80  S   UNL A   1      36.669  32.733  33.364  1.00  0.00     0.127 S 
ATOM     81  O   UNL A   1      35.784  33.885  33.521  1.00  0.00    -0.237 OA
ATOM     82  O   UNL A   1      36.007  31.516  32.892  1.00  0.00    -0.237 OA
ATOM     83  O   UNL A   1      37.623  32.527  34.444  1.00  0.00    -0.744 OA
ENDBRANCH  77  80
ENDBRANCH  59  73
BRANCH  60  84
ATOM     84  C   UNL A   1      48.796  29.888  28.422  1.00  0.00     0.023 A 
ATOM     85  C   UNL A   1      49.271  30.065  27.108  1.00  0.00     0.012 A 
ATOM     86  C   UNL A   1      49.633  29.274  29.375  1.00  0.00     0.148 A 
ATOM     87  C   UNL A   1      50.541  29.616  26.740  1.00  0.00     0.002 A 
ATOM     88  C   UNL A   1      50.916  28.877  29.017  1.00  0.00     0.091 A 
ATOM     89  F   UNL A   1      49.156  29.094  30.614  1.00  0.00    -0.205 F 
ATOM     90  C   UNL A   1      51.367  29.032  27.697  1.00  0.00     0.022 A 
BRANCH  88  91
ATOM     91  S   UNL A   1      52.092  28.211  30.202  1.00  0.00     0.127 S 
ATOM     92  O   UNL A   1      52.165  29.288  31.187  1.00  0.00    -0.237 OA
ATOM     93  O   UNL A   1      51.404  27.004  30.658  1.00  0.00    -0.237 OA
ATOM     94  O   UNL A   1      53.315  27.966  29.451  1.00  0.00    -0.744 OA
ENDBRANCH  88  91
ENDBRANCH  60  84
BRANCH  72  95
ATOM     95  C   UNL A   1      46.263  35.972  30.751  1.00  0.00     0.023 A 
ATOM     96  C   UNL A   1      46.331  36.973  29.762  1.00  0.00     0.012 A 
ATOM     97  C   UNL A   1      46.710  36.263  32.057  1.00  0.00     0.148 A 
ATOM     98  C   UNL A   1      46.858  38.230  30.058  1.00  0.00     0.002 A 
ATOM     99  C   UNL A   1      47.186  37.534  32.358  1.00  0.00     0.091 A 
ATOM    100  F   UNL A   1      46.647  35.296  32.983  1.00  0.00    -0.205 F 
ATOM    101  C   UNL A   1      47.274  38.515  31.357  1.00  0.00     0.022 A 
BRANCH  99 102
ATOM    102  S   UNL A   1      47.653  38.027  34.022  1.00  0.00     0.127 S 
ATOM    103  O   UNL A   1      46.376  37.942  34.727  1.00  0.00    -0.237 OA
ATOM    104  O   UNL A   1      48.622  36.995  34.388  1.00  0.00    -0.237 OA
ATOM    105  O   UNL A   1      48.209  39.369  33.906  1.00  0.00    -0.744 OA
ENDBRANCH  99 102
ENDBRANCH  72  95
ENDBRANCH  46  47
ENDBRANCH  39  41
ENDBRANCH  38  39
ENDBRANCH  37  38
ENDBRANCH  36  37
ENDBRANCH  35  36
ENDBRANCH  34  35
ENDBRANCH  33  34
ENDBRANCH  32  33
ENDBRANCH  31  32
ENDBRANCH   1  31
TORSDOF 29
ENDMDL
MODEL 3
REMARK VINA RESULT:      -6.7      7.594     12.484
REMARK SMILES CCCCCCNC(=O)Oc1cccc(-c2ccc([C@H](C)C(=O)OCCOCCOCCOC(=O)c3ccc(-c4c5nc(c(-c6cccc(S(=O)(=O)[O-])c6F)c6ccc([nH]6)c(-c6cccc(S(=O)(=O)[O-])c6F)c6nc(c(-c7cccc(S(=O)(=O)[O-])c7F)c7ccc4[nH]7)C=C6)C=C5)cc3)cc2F)c1
REMARK SMILES IDX 25 1 24 2 22 3 23 4 20 5 21 6 19 7 16 8 17 9 100 10 18 11
REMARK SMILES IDX 99 12 101 13 15 14 11 15 12 16 102 17 13 18 14 19 10 20 8 21
REMARK SMILES IDX 7 22 9 24 6 25 5 26 4 27 3 28 2 29 1 30 26 31 27 32 28 33
REMARK SMILES IDX 29 34 30 35 31 36 32 37 33 38 34 39 35 40 36 41 37 42 98 43
REMARK SMILES IDX 38 44 97 45 39 46 40 47 41 48 91 49 42 50 96 51 90 52 92 53
REMARK SMILES IDX 43 54 95 55 89 56 88 57 44 59 76 60 56 61 75 62 57 63 60 64
REMARK SMILES IDX 74 65 93 66 58 67 59 68 73 70 94 71 61 72 45 73 46 74 54 75
REMARK SMILES IDX 47 76 49 77 55 78 48 79 50 80 51 81 52 82 53 83 77 84 78 85
REMARK SMILES IDX 86 86 79 87 81 88 87 89 80 90 82 91 83 92 84 93 85 94 62 95
REMARK SMILES IDX 63 96 71 97 64 98 66 99 72 100 65 101 67 102 68 103 69 104
REMARK SMILES IDX 70 105
REMARK H PARENT 7 23 92 58 60 69
REMARK Flexibility Score: inf
ROOT
ATOM      1  C   UNL A   1      41.762  26.990  27.338  1.00  0.00     0.261 C 
ENDROOT
BRANCH   1   2
ATOM      2  O   UNL A   1      42.098  25.712  26.754  1.00  0.00    -0.463 OA
BRANCH   2   3
ATOM      3  C   UNL A   1      41.835  24.637  27.542  1.00  0.00     0.313 C 
ATOM      4  O   UNL A   1      41.684  24.732  28.757  1.00  0.00    -0.252 OA
BRANCH   3   5
ATOM      5  C   UNL A   1      41.641  23.306  26.787  1.00  0.00     0.126 C 
ATOM      6  C   UNL A   1      42.365  22.107  27.425  1.00  0.00     0.025 C 
BRANCH   5   7
ATOM      7  C   UNL A   1      40.164  23.000  26.525  1.00  0.00    -0.031 A 
ATOM      8  C   UNL A   1      37.502  22.524  25.711  1.00  0.00     0.018 A 
ATOM      9  C   UNL A   1      37.857  23.744  26.292  1.00  0.00     0.012 A 
ATOM     10  C   UNL A   1      38.458  21.514  25.652  1.00  0.00     0.131 A 
ATOM     11  C   UNL A   1      39.168  23.974  26.708  1.00  0.00     0.005 A 
ATOM     12  C   UNL A   1      39.756  21.734  26.079  1.00  0.00     0.044 A 
ATOM     13  F   UNL A   1      38.151  20.306  25.154  1.00  0.00    -0.206 F 
BRANCH   8  14
ATOM     14  C   UNL A   1      36.147  22.291  25.237  1.00  0.00    -0.012 A 
ATOM     15  C   UNL A   1      34.153  23.146  24.190  1.00  0.00     0.133 A 
ATOM     16  C   UNL A   1      33.550  21.894  24.265  1.00  0.00     0.047 A 
ATOM     17  C   UNL A   1      35.424  23.357  24.705  1.00  0.00     0.056 A 
ATOM     18  C   UNL A   1      34.253  20.828  24.824  1.00  0.00     0.004 A 
ATOM     19  C   UNL A   1      35.551  21.023  25.300  1.00  0.00     0.009 A 
BRANCH  15  20
ATOM     20  O   UNL A   1      33.403  24.210  23.679  1.00  0.00    -0.410 OA
BRANCH  20  21
ATOM     21  C   UNL A   1      33.001  24.128  22.355  1.00  0.00     0.412 C 
ATOM     22  N   UNL A   1      31.723  24.552  22.158  1.00  0.00    -0.321 N 
ATOM     23  H   UNL A   1      31.372  24.509  21.239  1.00  0.00     0.167 HD
ATOM     24  O   UNL A   1      33.682  23.723  21.411  1.00  0.00    -0.224 OA
BRANCH  22  25
ATOM     25  C   UNL A   1      30.833  25.060  23.179  1.00  0.00     0.119 C 
BRANCH  25  26
ATOM     26  C   UNL A   1      30.583  26.558  23.026  1.00  0.00     0.021 C 
BRANCH  26  27
ATOM     27  C   UNL A   1      30.387  27.308  24.347  1.00  0.00     0.002 C 
BRANCH  27  28
ATOM     28  C   UNL A   1      31.633  27.405  25.234  1.00  0.00    -0.000 C 
BRANCH  28  29
ATOM     29  C   UNL A   1      31.695  28.642  26.134  1.00  0.00    -0.003 C 
ATOM     30  C   UNL A   1      32.375  28.377  27.468  1.00  0.00     0.004 C 
ENDBRANCH  28  29
ENDBRANCH  27  28
ENDBRANCH  26  27
ENDBRANCH  25  26
ENDBRANCH  22  25
ENDBRANCH  20  21
ENDBRANCH  15  20
ENDBRANCH   8  14
ENDBRANCH   5   7
ENDBRANCH   3   5
ENDBRANCH   2   3
ENDBRANCH   1   2
BRANCH   1  31
ATOM     31  C   UNL A   1      40.323  27.476  27.095  1.00  0.00     0.202 C 
BRANCH  31  32
ATOM     32  O   UNL A   1      40.038  28.868  27.196  1.00  0.00    -0.376 OA
BRANCH  32  33
ATOM     33  C   UNL A   1      39.220  29.324  28.262  1.00  0.00     0.188 C 
BRANCH  33  34
ATOM     34  C   UNL A   1      38.518  28.265  29.114  1.00  0.00     0.188 C 
BRANCH  34  35
ATOM     35  O   UNL A   1      37.743  28.778  30.181  1.00  0.00    -0.376 OA
BRANCH  35  36
ATOM     36  C   UNL A   1      38.327  28.866  31.476  1.00  0.00     0.202 C 
BRANCH  36  37
ATOM     37  C   UNL A   1      37.477  29.471  32.616  1.00  0.00     0.261 C 
BRANCH  37  38
ATOM     38  O   UNL A   1      38.040  30.581  33.346  1.00  0.00    -0.460 OA
BRANCH  38  39
ATOM     39  C   UNL A   1      39.181  30.372  34.050  1.00  0.00     0.338 C 
ATOM     40  O   UNL A   1      39.580  29.297  34.465  1.00  0.00    -0.246 OA
BRANCH  39  41
ATOM     41  C   UNL A   1      40.015  31.609  33.968  1.00  0.00     0.060 A 
ATOM     42  C   UNL A   1      41.408  31.476  34.097  1.00  0.00     0.016 A 
ATOM     43  C   UNL A   1      39.472  32.858  33.657  1.00  0.00     0.016 A 
ATOM     44  C   UNL A   1      42.249  32.587  33.951  1.00  0.00     0.010 A 
ATOM     45  C   UNL A   1      40.313  33.973  33.531  1.00  0.00     0.010 A 
ATOM     46  C   UNL A   1      41.705  33.854  33.706  1.00  0.00    -0.014 A 
BRANCH  46  47
ATOM     47  C   UNL A   1      42.543  35.079  33.824  1.00  0.00     0.031 A 
ATOM     48  C   UNL A   1      42.789  35.638  35.202  1.00  0.00     0.074 A 
ATOM     49  C   UNL A   1      43.056  35.712  32.753  1.00  0.00     0.049 A 
ATOM     50  N   UNL A   1      43.402  36.736  35.560  1.00  0.00    -0.248 NA
ATOM     51  C   UNL A   1      42.264  34.849  36.329  1.00  0.00     0.031 C 
ATOM     52  C   UNL A   1      42.930  35.275  31.366  1.00  0.00     0.029 A 
ATOM     53  N   UNL A   1      43.766  36.889  32.670  1.00  0.00    -0.354 N 
ATOM     54  C   UNL A   1      43.295  36.797  36.944  1.00  0.00     0.074 A 
ATOM     55  C   UNL A   1      42.562  35.622  37.362  1.00  0.00     0.031 C 
ATOM     56  C   UNL A   1      43.518  36.184  30.566  1.00  0.00     0.029 A 
ATOM     57  C   UNL A   1      44.028  37.288  31.380  1.00  0.00     0.049 A 
ATOM     58  H   UNL A   1      44.059  37.397  33.461  1.00  0.00     0.167 HD
ATOM     59  C   UNL A   1      43.761  37.742  37.794  1.00  0.00     0.034 A 
ATOM     60  C   UNL A   1      44.583  38.425  30.908  1.00  0.00     0.034 A 
ATOM     61  C   UNL A   1      44.503  38.903  37.388  1.00  0.00     0.049 A 
ATOM     62  C   UNL A   1      45.042  39.492  31.874  1.00  0.00     0.074 A 
ATOM     63  C   UNL A   1      45.075  39.878  38.188  1.00  0.00     0.029 A 
ATOM     64  N   UNL A   1      44.753  39.267  36.075  1.00  0.00    -0.354 N 
ATOM     65  N   UNL A   1      45.043  39.479  33.185  1.00  0.00    -0.248 NA
ATOM     66  C   UNL A   1      45.595  40.727  31.292  1.00  0.00     0.031 C 
ATOM     67  C   UNL A   1      45.621  40.860  37.356  1.00  0.00     0.029 A 
ATOM     68  C   UNL A   1      45.436  40.471  36.039  1.00  0.00     0.049 A 
ATOM     69  H   UNL A   1      44.486  38.746  35.284  1.00  0.00     0.167 HD
ATOM     70  C   UNL A   1      45.623  40.681  33.582  1.00  0.00     0.074 A 
ATOM     71  C   UNL A   1      45.980  41.392  32.373  1.00  0.00     0.031 C 
ATOM     72  C   UNL A   1      45.830  41.158  34.835  1.00  0.00     0.034 A 
BRANCH  59  73
ATOM     73  C   UNL A   1      43.466  37.567  39.261  1.00  0.00     0.023 A 
ATOM     74  C   UNL A   1      44.390  36.906  40.096  1.00  0.00     0.012 A 
ATOM     75  C   UNL A   1      42.286  38.097  39.819  1.00  0.00     0.148 A 
ATOM     76  C   UNL A   1      44.125  36.744  41.456  1.00  0.00     0.002 A 
ATOM     77  C   UNL A   1      42.052  37.975  41.181  1.00  0.00     0.091 A 
ATOM     78  F   UNL A   1      41.409  38.701  39.003  1.00  0.00    -0.205 F 
ATOM     79  C   UNL A   1      42.963  37.286  42.000  1.00  0.00     0.022 A 
BRANCH  77  80
ATOM     80  S   UNL A   1      40.626  38.709  41.989  1.00  0.00     0.127 S 
ATOM     81  O   UNL A   1      40.789  40.120  41.647  1.00  0.00    -0.237 OA
ATOM     82  O   UNL A   1      39.514  38.042  41.311  1.00  0.00    -0.237 OA
ATOM     83  O   UNL A   1      40.755  38.389  43.404  1.00  0.00    -0.744 OA
ENDBRANCH  77  80
ENDBRANCH  59  73
BRANCH  60  84
ATOM     84  C   UNL A   1      44.758  38.625  29.438  1.00  0.00     0.023 A 
ATOM     85  C   UNL A   1      43.686  39.132  28.678  1.00  0.00     0.012 A 
ATOM     86  C   UNL A   1      45.967  38.306  28.790  1.00  0.00     0.148 A 
ATOM     87  C   UNL A   1      43.805  39.294  27.295  1.00  0.00     0.002 A 
ATOM     88  C   UNL A   1      46.097  38.520  27.422  1.00  0.00     0.091 A 
ATOM     89  F   UNL A   1      46.968  37.804  29.526  1.00  0.00    -0.205 F 
ATOM     90  C   UNL A   1      45.014  38.999  26.670  1.00  0.00     0.022 A 
BRANCH  88  91
ATOM     91  S   UNL A   1      47.645  38.270  26.544  1.00  0.00     0.127 S 
ATOM     92  O   UNL A   1      48.468  39.355  27.073  1.00  0.00    -0.237 OA
ATOM     93  O   UNL A   1      48.028  36.932  26.991  1.00  0.00    -0.237 OA
ATOM     94  O   UNL A   1      47.317  38.366  25.128  1.00  0.00    -0.744 OA
ENDBRANCH  88  91
ENDBRANCH  60  84
BRANCH  72  95
ATOM     95  C   UNL A   1      46.499  42.502  34.986  1.00  0.00     0.023 A 
ATOM     96  C   UNL A   1      45.722  43.677  35.012  1.00  0.00     0.012 A 
ATOM     97  C   UNL A   1      47.891  42.593  35.199  1.00  0.00     0.148 A 
ATOM     98  C   UNL A   1      46.321  44.921  35.216  1.00  0.00     0.002 A 
ATOM     99  C   UNL A   1      48.473  43.829  35.454  1.00  0.00     0.091 A 
ATOM    100  F   UNL A   1      48.616  41.465  35.162  1.00  0.00    -0.205 F 
ATOM    101  C   UNL A   1      47.692  44.996  35.449  1.00  0.00     0.022 A 
BRANCH  99 102
ATOM    102  S   UNL A   1      50.213  44.017  35.862  1.00  0.00     0.127 S 
ATOM    103  O   UNL A   1      50.336  43.163  37.042  1.00  0.00    -0.237 OA
ATOM    104  O   UNL A   1      50.869  43.498  34.662  1.00  0.00    -0.237 OA
ATOM    105  O   UNL A   1      50.422  45.439  36.102  1.00  0.00    -0.744 OA
ENDBRANCH  99 102
ENDBRANCH  72  95
ENDBRANCH  46  47
ENDBRANCH  39  41
ENDBRANCH  38  39
ENDBRANCH  37  38
ENDBRANCH  36  37
ENDBRANCH  35  36
ENDBRANCH  34  35
ENDBRANCH  33  34
ENDBRANCH  32  33
ENDBRANCH  31  32
ENDBRANCH   1  31
TORSDOF 29
ENDMDL
