MODEL 1
REMARK VINA RESULT:      -9.4      0.000      0.000
REMARK SMILES O=C(OCCOCCOCCOC(=O)[C@H]1CC[C@@H](C(F)F)[NH2+]1)c1ccc(-c2c3nc(c(-c4cccc(S(=O)(=O)[O-])c4F)c4ccc([nH]4)c(-c4cccc(S(=O)(=O)[O-])c4F)c4nc(c(-c5cccc(S(=O)(=O)[O-])c5F)c5ccc2[nH]5)C=C4)C=C3)cc1
REMARK SMILES IDX 7 1 6 2 5 3 4 4 3 5 2 6 1 7 23 8 24 9 85 10 25 11 84 12
REMARK SMILES IDX 26 13 27 14 28 15 78 16 29 17 83 18 77 19 79 20 30 21 82 22
REMARK SMILES IDX 76 23 75 24 31 26 63 27 43 28 62 29 44 30 47 31 61 32 80 33
REMARK SMILES IDX 45 34 46 35 60 37 81 38 48 39 32 40 33 41 41 42 34 43 36 44
REMARK SMILES IDX 42 45 35 46 37 47 38 48 39 49 40 50 64 51 65 52 73 53 66 54
REMARK SMILES IDX 68 55 74 56 67 57 69 58 70 59 71 60 72 61 49 62 50 63 58 64
REMARK SMILES IDX 51 65 53 66 59 67 52 68 54 69 55 70 56 71 57 72 8 73 9 74
REMARK SMILES IDX 10 75 11 76 12 77 13 78 14 79 15 80 16 81 22 82 17 83 18 84
REMARK SMILES IDX 19 87 20 88 21 89
REMARK H PARENT 79 25 47 36 22 85 22 86
REMARK Flexibility Score: inf
ROOT
ATOM      1  C   UNL A   1      33.364  36.004  29.202  1.00  0.00     0.188 C 
ENDROOT
BRANCH   1   2
ATOM      2  O   UNL A   1      32.567  35.237  28.292  1.00  0.00    -0.376 OA
BRANCH   2   3
ATOM      3  C   UNL A   1      32.915  33.848  28.247  1.00  0.00     0.202 C 
BRANCH   3   4
ATOM      4  C   UNL A   1      34.418  33.512  28.204  1.00  0.00     0.261 C 
BRANCH   4   5
ATOM      5  O   UNL A   1      34.737  32.359  27.411  1.00  0.00    -0.460 OA
BRANCH   5   6
ATOM      6  C   UNL A   1      34.805  31.058  27.791  1.00  0.00     0.338 C 
ATOM      7  O   UNL A   1      33.770  30.394  27.749  1.00  0.00    -0.246 OA
BRANCH   6   8
ATOM      8  C   UNL A   1      36.050  30.388  28.289  1.00  0.00     0.060 A 
ATOM      9  C   UNL A   1      36.159  29.658  29.473  1.00  0.00     0.016 A 
ATOM     10  C   UNL A   1      37.183  30.450  27.454  1.00  0.00     0.016 A 
ATOM     11  C   UNL A   1      37.355  29.064  29.856  1.00  0.00     0.010 A 
ATOM     12  C   UNL A   1      38.387  29.839  27.819  1.00  0.00     0.010 A 
ATOM     13  C   UNL A   1      38.476  29.166  29.037  1.00  0.00    -0.014 A 
BRANCH  13  14
ATOM     14  C   UNL A   1      39.746  28.634  29.558  1.00  0.00     0.031 A 
ATOM     15  C   UNL A   1      40.235  29.143  30.868  1.00  0.00     0.074 A 
ATOM     16  C   UNL A   1      40.364  27.635  28.906  1.00  0.00     0.049 A 
ATOM     17  N   UNL A   1      41.290  28.781  31.538  1.00  0.00    -0.248 NA
ATOM     18  C   UNL A   1      39.439  30.207  31.504  1.00  0.00     0.031 C 
ATOM     19  C   UNL A   1      39.912  27.103  27.630  1.00  0.00     0.029 A 
ATOM     20  N   UNL A   1      41.460  26.878  29.212  1.00  0.00    -0.354 N 
ATOM     21  C   UNL A   1      41.343  29.638  32.625  1.00  0.00     0.074 A 
ATOM     22  C   UNL A   1      40.175  30.488  32.569  1.00  0.00     0.031 C 
ATOM     23  C   UNL A   1      40.677  26.055  27.287  1.00  0.00     0.029 A 
ATOM     24  C   UNL A   1      41.725  25.894  28.284  1.00  0.00     0.049 A 
ATOM     25  H   UNL A   1      42.008  27.021  30.018  1.00  0.00     0.167 HD
ATOM     26  C   UNL A   1      42.324  29.733  33.548  1.00  0.00     0.034 A 
ATOM     27  C   UNL A   1      42.726  24.991  28.238  1.00  0.00     0.034 A 
ATOM     28  C   UNL A   1      43.480  28.882  33.550  1.00  0.00     0.049 A 
ATOM     29  C   UNL A   1      43.768  25.084  29.320  1.00  0.00     0.074 A 
ATOM     30  C   UNL A   1      44.556  28.896  34.415  1.00  0.00     0.029 A 
ATOM     31  N   UNL A   1      43.720  27.880  32.618  1.00  0.00    -0.354 N 
ATOM     32  N   UNL A   1      43.788  25.869  30.372  1.00  0.00    -0.248 NA
ATOM     33  C   UNL A   1      44.936  24.204  29.200  1.00  0.00     0.031 C 
ATOM     34  C   UNL A   1      45.469  27.933  33.976  1.00  0.00     0.029 A 
ATOM     35  C   UNL A   1      44.939  27.283  32.870  1.00  0.00     0.049 A 
ATOM     36  H   UNL A   1      43.111  27.633  31.885  1.00  0.00     0.167 HD
ATOM     37  C   UNL A   1      44.979  25.597  31.027  1.00  0.00     0.074 A 
ATOM     38  C   UNL A   1      45.622  24.526  30.288  1.00  0.00     0.031 C 
ATOM     39  C   UNL A   1      45.519  26.201  32.114  1.00  0.00     0.034 A 
BRANCH  26  40
ATOM     40  C   UNL A   1      42.226  30.858  34.535  1.00  0.00     0.023 A 
ATOM     41  C   UNL A   1      41.608  30.671  35.786  1.00  0.00     0.012 A 
ATOM     42  C   UNL A   1      42.735  32.126  34.194  1.00  0.00     0.148 A 
ATOM     43  C   UNL A   1      41.470  31.740  36.671  1.00  0.00     0.002 A 
ATOM     44  C   UNL A   1      42.636  33.174  35.098  1.00  0.00     0.091 A 
ATOM     45  F   UNL A   1      43.284  32.288  32.982  1.00  0.00    -0.205 F 
ATOM     46  C   UNL A   1      41.991  32.987  36.331  1.00  0.00     0.022 A 
BRANCH  44  47
ATOM     47  S   UNL A   1      43.328  34.798  34.778  1.00  0.00     0.127 S 
ATOM     48  O   UNL A   1      44.692  34.464  34.371  1.00  0.00    -0.237 OA
ATOM     49  O   UNL A   1      42.470  35.284  33.700  1.00  0.00    -0.237 OA
ATOM     50  O   UNL A   1      43.221  35.539  36.029  1.00  0.00    -0.744 OA
ENDBRANCH  44  47
ENDBRANCH  26  40
BRANCH  27  51
ATOM     51  C   UNL A   1      42.811  23.975  27.146  1.00  0.00     0.023 A 
ATOM     52  C   UNL A   1      43.618  24.218  26.016  1.00  0.00     0.012 A 
ATOM     53  C   UNL A   1      42.114  22.753  27.222  1.00  0.00     0.148 A 
ATOM     54  C   UNL A   1      43.707  23.280  24.982  1.00  0.00     0.002 A 
ATOM     55  C   UNL A   1      42.277  21.789  26.233  1.00  0.00     0.091 A 
ATOM     56  F   UNL A   1      41.307  22.540  28.271  1.00  0.00    -0.205 F 
ATOM     57  C   UNL A   1      43.051  22.058  25.098  1.00  0.00     0.022 A 
BRANCH  55  58
ATOM     58  S   UNL A   1      41.631  20.125  26.437  1.00  0.00     0.127 S 
ATOM     59  O   UNL A   1      42.183  19.742  27.732  1.00  0.00    -0.237 OA
ATOM     60  O   UNL A   1      40.185  20.352  26.420  1.00  0.00    -0.237 OA
ATOM     61  O   UNL A   1      42.123  19.388  25.278  1.00  0.00    -0.744 OA
ENDBRANCH  55  58
ENDBRANCH  27  51
BRANCH  39  62
ATOM     62  C   UNL A   1      46.867  25.712  32.560  1.00  0.00     0.023 A 
ATOM     63  C   UNL A   1      48.033  26.308  32.043  1.00  0.00     0.012 A 
ATOM     64  C   UNL A   1      46.964  24.735  33.565  1.00  0.00     0.148 A 
ATOM     65  C   UNL A   1      49.285  25.918  32.509  1.00  0.00     0.002 A 
ATOM     66  C   UNL A   1      48.212  24.392  34.064  1.00  0.00     0.091 A 
ATOM     67  F   UNL A   1      45.836  24.175  34.024  1.00  0.00    -0.205 F 
ATOM     68  C   UNL A   1      49.374  24.973  33.529  1.00  0.00     0.022 A 
BRANCH  66  69
ATOM     69  S   UNL A   1      48.415  23.269  35.447  1.00  0.00     0.127 S 
ATOM     70  O   UNL A   1      47.684  22.091  34.984  1.00  0.00    -0.237 OA
ATOM     71  O   UNL A   1      49.869  23.108  35.500  1.00  0.00    -0.237 OA
ATOM     72  O   UNL A   1      47.837  23.942  36.604  1.00  0.00    -0.744 OA
ENDBRANCH  66  69
ENDBRANCH  39  62
ENDBRANCH  13  14
ENDBRANCH   6   8
ENDBRANCH   5   6
ENDBRANCH   4   5
ENDBRANCH   3   4
ENDBRANCH   2   3
ENDBRANCH   1   2
BRANCH   1  73
ATOM     73  C   UNL A   1      32.857  35.982  30.644  1.00  0.00     0.188 C 
BRANCH  73  74
ATOM     74  O   UNL A   1      32.693  37.239  31.297  1.00  0.00    -0.376 OA
BRANCH  74  75
ATOM     75  C   UNL A   1      33.636  37.594  32.302  1.00  0.00     0.202 C 
BRANCH  75  76
ATOM     76  C   UNL A   1      33.901  36.605  33.443  1.00  0.00     0.261 C 
BRANCH  76  77
ATOM     77  O   UNL A   1      35.174  35.964  33.385  1.00  0.00    -0.459 OA
BRANCH  77  78
ATOM     78  C   UNL A   1      35.201  34.671  33.825  1.00  0.00     0.364 C 
ATOM     79  O   UNL A   1      34.244  33.905  33.789  1.00  0.00    -0.245 OA
BRANCH  78  80
ATOM     80  C   UNL A   1      36.608  34.274  34.315  1.00  0.00     0.294 C 
ATOM     81  C   UNL A   1      36.830  32.794  34.558  1.00  0.00     0.084 C 
ATOM     82  N   UNL A   1      37.617  34.572  33.270  1.00  0.00    -0.327 N 
ATOM     83  C   UNL A   1      36.990  32.240  33.153  1.00  0.00     0.078 C 
ATOM     84  C   UNL A   1      37.656  33.380  32.375  1.00  0.00     0.251 C 
ATOM     85  H   UNL A   1      38.531  34.724  33.695  1.00  0.00     0.347 HD
ATOM     86  H   UNL A   1      37.377  35.417  32.752  1.00  0.00     0.347 HD
BRANCH  84  87
ATOM     87  C   UNL A   1      36.993  33.604  31.006  1.00  0.00     0.399 C 
ATOM     88  F   UNL A   1      37.481  32.711  30.105  1.00  0.00    -0.204 F 
ATOM     89  F   UNL A   1      35.653  33.373  31.072  1.00  0.00    -0.204 F 
ENDBRANCH  84  87
ENDBRANCH  78  80
ENDBRANCH  77  78
ENDBRANCH  76  77
ENDBRANCH  75  76
ENDBRANCH  74  75
ENDBRANCH  73  74
ENDBRANCH   1  73
TORSDOF 21
ENDMDL
MODEL 2
REMARK VINA RESULT:      -9.2      1.967      2.299
REMARK SMILES O=C(OCCOCCOCCOC(=O)[C@H]1CC[C@@H](C(F)F)[NH2+]1)c1ccc(-c2c3nc(c(-c4cccc(S(=O)(=O)[O-])c4F)c4ccc([nH]4)c(-c4cccc(S(=O)(=O)[O-])c4F)c4nc(c(-c5cccc(S(=O)(=O)[O-])c5F)c5ccc2[nH]5)C=C4)C=C3)cc1
REMARK SMILES IDX 7 1 6 2 5 3 4 4 3 5 2 6 1 7 23 8 24 9 85 10 25 11 84 12
REMARK SMILES IDX 26 13 27 14 28 15 78 16 29 17 83 18 77 19 79 20 30 21 82 22
REMARK SMILES IDX 76 23 75 24 31 26 63 27 43 28 62 29 44 30 47 31 61 32 80 33
REMARK SMILES IDX 45 34 46 35 60 37 81 38 48 39 32 40 33 41 41 42 34 43 36 44
REMARK SMILES IDX 42 45 35 46 37 47 38 48 39 49 40 50 64 51 65 52 73 53 66 54
REMARK SMILES IDX 68 55 74 56 67 57 69 58 70 59 71 60 72 61 49 62 50 63 58 64
REMARK SMILES IDX 51 65 53 66 59 67 52 68 54 69 55 70 56 71 57 72 8 73 9 74
REMARK SMILES IDX 10 75 11 76 12 77 13 78 14 79 15 80 16 81 22 82 17 83 18 84
REMARK SMILES IDX 19 87 20 88 21 89
REMARK H PARENT 79 25 47 36 22 85 22 86
REMARK Flexibility Score: inf
ROOT
ATOM      1  C   UNL A   1      33.422  35.914  29.155  1.00  0.00     0.188 C 
ENDROOT
BRANCH   1   2
ATOM      2  O   UNL A   1      32.667  35.154  28.203  1.00  0.00    -0.376 OA
BRANCH   2   3
ATOM      3  C   UNL A   1      32.893  33.741  28.283  1.00  0.00     0.202 C 
BRANCH   3   4
ATOM      4  C   UNL A   1      34.352  33.264  28.155  1.00  0.00     0.261 C 
BRANCH   4   5
ATOM      5  O   UNL A   1      34.512  32.085  27.353  1.00  0.00    -0.460 OA
BRANCH   5   6
ATOM      6  C   UNL A   1      34.688  30.801  27.755  1.00  0.00     0.338 C 
ATOM      7  O   UNL A   1      33.698  30.070  27.786  1.00  0.00    -0.246 OA
BRANCH   6   8
ATOM      8  C   UNL A   1      36.000  30.225  28.194  1.00  0.00     0.060 A 
ATOM      9  C   UNL A   1      36.216  29.503  29.368  1.00  0.00     0.016 A 
ATOM     10  C   UNL A   1      37.086  30.372  27.310  1.00  0.00     0.016 A 
ATOM     11  C   UNL A   1      37.468  28.999  29.696  1.00  0.00     0.010 A 
ATOM     12  C   UNL A   1      38.348  29.852  27.618  1.00  0.00     0.010 A 
ATOM     13  C   UNL A   1      38.541  29.186  28.829  1.00  0.00    -0.014 A 
BRANCH  13  14
ATOM     14  C   UNL A   1      39.869  28.750  29.290  1.00  0.00     0.031 A 
ATOM     15  C   UNL A   1      40.435  29.392  30.507  1.00  0.00     0.074 A 
ATOM     16  C   UNL A   1      40.478  27.719  28.680  1.00  0.00     0.049 A 
ATOM     17  N   UNL A   1      41.552  29.131  31.119  1.00  0.00    -0.248 NA
ATOM     18  C   UNL A   1      39.644  30.480  31.110  1.00  0.00     0.031 C 
ATOM     19  C   UNL A   1      39.953  27.058  27.495  1.00  0.00     0.029 A 
ATOM     20  N   UNL A   1      41.626  27.033  28.962  1.00  0.00    -0.354 N 
ATOM     21  C   UNL A   1      41.652  30.084  32.120  1.00  0.00     0.074 A 
ATOM     22  C   UNL A   1      40.447  30.882  32.084  1.00  0.00     0.031 C 
ATOM     23  C   UNL A   1      40.734  26.012  27.185  1.00  0.00     0.029 A 
ATOM     24  C   UNL A   1      41.861  25.979  28.104  1.00  0.00     0.049 A 
ATOM     25  H   UNL A   1      42.227  27.268  29.705  1.00  0.00     0.167 HD
ATOM     26  C   UNL A   1      42.696  30.297  32.949  1.00  0.00     0.034 A 
ATOM     27  C   UNL A   1      42.894  25.113  28.057  1.00  0.00     0.034 A 
ATOM     28  C   UNL A   1      43.884  29.492  32.933  1.00  0.00     0.049 A 
ATOM     29  C   UNL A   1      44.010  25.341  29.039  1.00  0.00     0.074 A 
ATOM     30  C   UNL A   1      45.021  29.623  33.704  1.00  0.00     0.029 A 
ATOM     31  N   UNL A   1      44.095  28.420  32.075  1.00  0.00    -0.354 N 
ATOM     32  N   UNL A   1      44.078  26.218  30.014  1.00  0.00    -0.248 NA
ATOM     33  C   UNL A   1      45.203  24.497  28.903  1.00  0.00     0.031 C 
ATOM     34  C   UNL A   1      45.939  28.657  33.279  1.00  0.00     0.029 A 
ATOM     35  C   UNL A   1      45.354  27.892  32.280  1.00  0.00     0.049 A 
ATOM     36  H   UNL A   1      43.443  28.085  31.418  1.00  0.00     0.167 HD
ATOM     37  C   UNL A   1      45.325  26.050  30.593  1.00  0.00     0.074 A 
ATOM     38  C   UNL A   1      45.956  24.941  29.901  1.00  0.00     0.031 C 
ATOM     39  C   UNL A   1      45.921  26.768  31.576  1.00  0.00     0.034 A 
BRANCH  26  40
ATOM     40  C   UNL A   1      42.624  31.502  33.840  1.00  0.00     0.023 A 
ATOM     41  C   UNL A   1      43.105  32.752  33.406  1.00  0.00     0.012 A 
ATOM     42  C   UNL A   1      42.093  31.374  35.138  1.00  0.00     0.148 A 
ATOM     43  C   UNL A   1      43.087  33.851  34.264  1.00  0.00     0.002 A 
ATOM     44  C   UNL A   1      42.035  32.482  35.970  1.00  0.00     0.091 A 
ATOM     45  F   UNL A   1      41.677  30.165  35.540  1.00  0.00    -0.205 F 
ATOM     46  C   UNL A   1      42.545  33.718  35.541  1.00  0.00     0.022 A 
BRANCH  44  47
ATOM     47  S   UNL A   1      41.302  32.427  37.607  1.00  0.00     0.127 S 
ATOM     48  O   UNL A   1      42.200  31.507  38.302  1.00  0.00    -0.237 OA
ATOM     49  O   UNL A   1      41.405  33.821  38.030  1.00  0.00    -0.237 OA
ATOM     50  O   UNL A   1      39.939  31.941  37.425  1.00  0.00    -0.744 OA
ENDBRANCH  44  47
ENDBRANCH  26  40
BRANCH  27  51
ATOM     51  C   UNL A   1      42.939  24.007  27.054  1.00  0.00     0.023 A 
ATOM     52  C   UNL A   1      43.766  24.115  25.918  1.00  0.00     0.012 A 
ATOM     53  C   UNL A   1      42.183  22.830  27.222  1.00  0.00     0.148 A 
ATOM     54  C   UNL A   1      43.819  23.092  24.967  1.00  0.00     0.002 A 
ATOM     55  C   UNL A   1      42.307  21.780  26.319  1.00  0.00     0.091 A 
ATOM     56  F   UNL A   1      41.357  22.744  28.276  1.00  0.00    -0.205 F 
ATOM     57  C   UNL A   1      43.103  21.916  25.176  1.00  0.00     0.022 A 
BRANCH  55  58
ATOM     58  S   UNL A   1      41.580  20.171  26.652  1.00  0.00     0.127 S 
ATOM     59  O   UNL A   1      41.917  19.430  25.441  1.00  0.00    -0.237 OA
ATOM     60  O   UNL A   1      42.299  19.752  27.857  1.00  0.00    -0.237 OA
ATOM     61  O   UNL A   1      40.165  20.439  26.877  1.00  0.00    -0.744 OA
ENDBRANCH  55  58
ENDBRANCH  27  51
BRANCH  39  62
ATOM     62  C   UNL A   1      47.319  26.371  31.954  1.00  0.00     0.023 A 
ATOM     63  C   UNL A   1      47.524  25.421  32.974  1.00  0.00     0.012 A 
ATOM     64  C   UNL A   1      48.414  26.867  31.227  1.00  0.00     0.148 A 
ATOM     65  C   UNL A   1      48.811  24.986  33.278  1.00  0.00     0.002 A 
ATOM     66  C   UNL A   1      49.686  26.388  31.498  1.00  0.00     0.091 A 
ATOM     67  F   UNL A   1      48.186  27.784  30.275  1.00  0.00    -0.205 F 
ATOM     68  C   UNL A   1      49.889  25.457  32.531  1.00  0.00     0.022 A 
BRANCH  66  69
ATOM     69  S   UNL A   1      51.115  26.854  30.519  1.00  0.00     0.127 S 
ATOM     70  O   UNL A   1      50.659  26.547  29.164  1.00  0.00    -0.237 OA
ATOM     71  O   UNL A   1      51.238  28.281  30.816  1.00  0.00    -0.237 OA
ATOM     72  O   UNL A   1      52.220  26.036  31.001  1.00  0.00    -0.744 OA
ENDBRANCH  66  69
ENDBRANCH  39  62
ENDBRANCH  13  14
ENDBRANCH   6   8
ENDBRANCH   5   6
ENDBRANCH   4   5
ENDBRANCH   3   4
ENDBRANCH   2   3
ENDBRANCH   1   2
BRANCH   1  73
ATOM     73  C   UNL A   1      32.786  35.983  30.543  1.00  0.00     0.188 C 
BRANCH  73  74
ATOM     74  O   UNL A   1      32.711  37.265  31.164  1.00  0.00    -0.376 OA
BRANCH  74  75
ATOM     75  C   UNL A   1      33.695  37.589  32.139  1.00  0.00     0.202 C 
BRANCH  75  76
ATOM     76  C   UNL A   1      33.889  36.642  33.328  1.00  0.00     0.261 C 
BRANCH  76  77
ATOM     77  O   UNL A   1      35.169  36.015  33.380  1.00  0.00    -0.459 OA
BRANCH  77  78
ATOM     78  C   UNL A   1      35.160  34.688  33.706  1.00  0.00     0.364 C 
ATOM     79  O   UNL A   1      34.190  33.948  33.576  1.00  0.00    -0.245 OA
BRANCH  78  80
ATOM     80  C   UNL A   1      36.544  34.221  34.198  1.00  0.00     0.294 C 
ATOM     81  C   UNL A   1      36.733  32.722  34.318  1.00  0.00     0.084 C 
ATOM     82  N   UNL A   1      37.589  34.587  33.211  1.00  0.00    -0.327 N 
ATOM     83  C   UNL A   1      36.924  32.288  32.875  1.00  0.00     0.078 C 
ATOM     84  C   UNL A   1      37.633  33.477  32.218  1.00  0.00     0.251 C 
ATOM     85  H   UNL A   1      38.493  34.684  33.674  1.00  0.00     0.347 HD
ATOM     86  H   UNL A   1      37.379  35.479  32.763  1.00  0.00     0.347 HD
BRANCH  84  87
ATOM     87  C   UNL A   1      37.015  33.833  30.856  1.00  0.00     0.399 C 
ATOM     88  F   UNL A   1      37.116  32.773  30.011  1.00  0.00    -0.204 F 
ATOM     89  F   UNL A   1      35.683  34.087  30.979  1.00  0.00    -0.204 F 
ENDBRANCH  84  87
ENDBRANCH  78  80
ENDBRANCH  77  78
ENDBRANCH  76  77
ENDBRANCH  75  76
ENDBRANCH  74  75
ENDBRANCH  73  74
ENDBRANCH   1  73
TORSDOF 21
ENDMDL
MODEL 3
REMARK VINA RESULT:      -9.0      3.631      5.893
REMARK SMILES O=C(OCCOCCOCCOC(=O)[C@H]1CC[C@@H](C(F)F)[NH2+]1)c1ccc(-c2c3nc(c(-c4cccc(S(=O)(=O)[O-])c4F)c4ccc([nH]4)c(-c4cccc(S(=O)(=O)[O-])c4F)c4nc(c(-c5cccc(S(=O)(=O)[O-])c5F)c5ccc2[nH]5)C=C4)C=C3)cc1
REMARK SMILES IDX 7 1 6 2 5 3 4 4 3 5 2 6 1 7 23 8 24 9 85 10 25 11 84 12
REMARK SMILES IDX 26 13 27 14 28 15 78 16 29 17 83 18 77 19 79 20 30 21 82 22
REMARK SMILES IDX 76 23 75 24 31 26 63 27 43 28 62 29 44 30 47 31 61 32 80 33
REMARK SMILES IDX 45 34 46 35 60 37 81 38 48 39 32 40 33 41 41 42 34 43 36 44
REMARK SMILES IDX 42 45 35 46 37 47 38 48 39 49 40 50 64 51 65 52 73 53 66 54
REMARK SMILES IDX 68 55 74 56 67 57 69 58 70 59 71 60 72 61 49 62 50 63 58 64
REMARK SMILES IDX 51 65 53 66 59 67 52 68 54 69 55 70 56 71 57 72 8 73 9 74
REMARK SMILES IDX 10 75 11 76 12 77 13 78 14 79 15 80 16 81 22 82 17 83 18 84
REMARK SMILES IDX 19 87 20 88 21 89
REMARK H PARENT 79 25 47 36 22 85 22 86
REMARK Flexibility Score: inf
ROOT
ATOM      1  C   UNL A   1      33.616  27.740  24.900  1.00  0.00     0.188 C 
ENDROOT
BRANCH   1   2
ATOM      2  O   UNL A   1      34.057  27.836  26.260  1.00  0.00    -0.376 OA
BRANCH   2   3
ATOM      3  C   UNL A   1      33.044  28.292  27.165  1.00  0.00     0.202 C 
BRANCH   3   4
ATOM      4  C   UNL A   1      32.650  29.779  27.071  1.00  0.00     0.261 C 
BRANCH   4   5
ATOM      5  O   UNL A   1      33.768  30.676  27.009  1.00  0.00    -0.460 OA
BRANCH   5   6
ATOM      6  C   UNL A   1      34.545  31.139  28.021  1.00  0.00     0.338 C 
ATOM      7  O   UNL A   1      34.191  32.173  28.587  1.00  0.00    -0.246 OA
BRANCH   6   8
ATOM      8  C   UNL A   1      35.819  30.492  28.472  1.00  0.00     0.060 A 
ATOM      9  C   UNL A   1      35.939  29.583  29.524  1.00  0.00     0.016 A 
ATOM     10  C   UNL A   1      36.978  30.780  27.724  1.00  0.00     0.016 A 
ATOM     11  C   UNL A   1      37.162  29.026  29.872  1.00  0.00     0.010 A 
ATOM     12  C   UNL A   1      38.212  30.210  28.052  1.00  0.00     0.010 A 
ATOM     13  C   UNL A   1      38.306  29.350  29.146  1.00  0.00    -0.014 A 
BRANCH  13  14
ATOM     14  C   UNL A   1      39.592  28.838  29.644  1.00  0.00     0.031 A 
ATOM     15  C   UNL A   1      40.091  29.345  30.951  1.00  0.00     0.074 A 
ATOM     16  C   UNL A   1      40.218  27.855  28.975  1.00  0.00     0.049 A 
ATOM     17  N   UNL A   1      41.162  28.997  31.603  1.00  0.00    -0.248 NA
ATOM     18  C   UNL A   1      39.286  30.389  31.607  1.00  0.00     0.031 C 
ATOM     19  C   UNL A   1      39.757  27.325  27.701  1.00  0.00     0.029 A 
ATOM     20  N   UNL A   1      41.332  27.115  29.259  1.00  0.00    -0.354 N 
ATOM     21  C   UNL A   1      41.216  29.846  32.696  1.00  0.00     0.074 A 
ATOM     22  C   UNL A   1      40.032  30.675  32.663  1.00  0.00     0.031 C 
ATOM     23  C   UNL A   1      40.536  26.294  27.339  1.00  0.00     0.029 A 
ATOM     24  C   UNL A   1      41.601  26.144  28.319  1.00  0.00     0.049 A 
ATOM     25  H   UNL A   1      41.889  27.262  30.057  1.00  0.00     0.167 HD
ATOM     26  C   UNL A   1      42.209  29.951  33.605  1.00  0.00     0.034 A 
ATOM     27  C   UNL A   1      42.617  25.260  28.251  1.00  0.00     0.034 A 
ATOM     28  C   UNL A   1      43.379  29.121  33.583  1.00  0.00     0.049 A 
ATOM     29  C   UNL A   1      43.673  25.363  29.318  1.00  0.00     0.074 A 
ATOM     30  C   UNL A   1      44.467  29.147  34.433  1.00  0.00     0.029 A 
ATOM     31  N   UNL A   1      43.624  28.131  32.639  1.00  0.00    -0.354 N 
ATOM     32  N   UNL A   1      43.695  26.140  30.376  1.00  0.00    -0.248 NA
ATOM     33  C   UNL A   1      44.854  24.504  29.174  1.00  0.00     0.031 C 
ATOM     34  C   UNL A   1      45.391  28.204  33.972  1.00  0.00     0.029 A 
ATOM     35  C   UNL A   1      44.857  27.554  32.869  1.00  0.00     0.049 A 
ATOM     36  H   UNL A   1      43.009  27.878  31.913  1.00  0.00     0.167 HD
ATOM     37  C   UNL A   1      44.899  25.884  31.011  1.00  0.00     0.074 A 
ATOM     38  C   UNL A   1      45.551  24.830  30.255  1.00  0.00     0.031 C 
ATOM     39  C   UNL A   1      45.445  26.488  32.095  1.00  0.00     0.034 A 
BRANCH  26  40
ATOM     40  C   UNL A   1      42.104  31.066  34.603  1.00  0.00     0.023 A 
ATOM     41  C   UNL A   1      41.492  30.862  35.854  1.00  0.00     0.012 A 
ATOM     42  C   UNL A   1      42.603  32.341  34.271  1.00  0.00     0.148 A 
ATOM     43  C   UNL A   1      41.349  31.922  36.749  1.00  0.00     0.002 A 
ATOM     44  C   UNL A   1      42.499  33.379  35.186  1.00  0.00     0.091 A 
ATOM     45  F   UNL A   1      43.147  32.518  33.059  1.00  0.00    -0.205 F 
ATOM     46  C   UNL A   1      41.859  33.176  36.419  1.00  0.00     0.022 A 
BRANCH  44  47
ATOM     47  S   UNL A   1      43.177  35.012  34.878  1.00  0.00     0.127 S 
ATOM     48  O   UNL A   1      42.614  35.780  35.987  1.00  0.00    -0.237 OA
ATOM     49  O   UNL A   1      44.614  34.764  34.972  1.00  0.00    -0.237 OA
ATOM     50  O   UNL A   1      42.707  35.403  33.555  1.00  0.00    -0.744 OA
ENDBRANCH  44  47
ENDBRANCH  26  40
BRANCH  27  51
ATOM     51  C   UNL A   1      42.704  24.254  27.149  1.00  0.00     0.023 A 
ATOM     52  C   UNL A   1      43.504  24.512  26.018  1.00  0.00     0.012 A 
ATOM     53  C   UNL A   1      42.017  23.026  27.217  1.00  0.00     0.148 A 
ATOM     54  C   UNL A   1      43.595  23.585  24.975  1.00  0.00     0.002 A 
ATOM     55  C   UNL A   1      42.182  22.072  26.219  1.00  0.00     0.091 A 
ATOM     56  F   UNL A   1      41.215  22.798  28.268  1.00  0.00    -0.205 F 
ATOM     57  C   UNL A   1      42.948  22.357  25.083  1.00  0.00     0.022 A 
BRANCH  55  58
ATOM     58  S   UNL A   1      41.549  20.402  26.411  1.00  0.00     0.127 S 
ATOM     59  O   UNL A   1      40.117  20.594  26.204  1.00  0.00    -0.237 OA
ATOM     60  O   UNL A   1      42.241  19.686  25.338  1.00  0.00    -0.237 OA
ATOM     61  O   UNL A   1      41.963  19.995  27.748  1.00  0.00    -0.744 OA
ENDBRANCH  55  58
ENDBRANCH  27  51
BRANCH  39  62
ATOM     62  C   UNL A   1      46.807  26.020  32.518  1.00  0.00     0.023 A 
ATOM     63  C   UNL A   1      47.953  26.698  32.059  1.00  0.00     0.012 A 
ATOM     64  C   UNL A   1      46.936  24.975  33.449  1.00  0.00     0.148 A 
ATOM     65  C   UNL A   1      49.216  26.323  32.508  1.00  0.00     0.002 A 
ATOM     66  C   UNL A   1      48.192  24.645  33.934  1.00  0.00     0.091 A 
ATOM     67  F   UNL A   1      45.827  24.339  33.853  1.00  0.00    -0.205 F 
ATOM     68  C   UNL A   1      49.335  25.309  33.455  1.00  0.00     0.022 A 
BRANCH  66  69
ATOM     69  S   UNL A   1      48.430  23.430  35.232  1.00  0.00     0.127 S 
ATOM     70  O   UNL A   1      49.883  23.437  35.383  1.00  0.00    -0.237 OA
ATOM     71  O   UNL A   1      47.693  24.025  36.347  1.00  0.00    -0.237 OA
ATOM     72  O   UNL A   1      47.866  22.184  34.727  1.00  0.00    -0.744 OA
ENDBRANCH  66  69
ENDBRANCH  39  62
ENDBRANCH  13  14
ENDBRANCH   6   8
ENDBRANCH   5   6
ENDBRANCH   4   5
ENDBRANCH   3   4
ENDBRANCH   2   3
ENDBRANCH   1   2
BRANCH   1  73
ATOM     73  C   UNL A   1      33.509  26.307  24.379  1.00  0.00     0.188 C 
BRANCH  73  74
ATOM     74  O   UNL A   1      32.235  25.879  23.903  1.00  0.00    -0.376 OA
BRANCH  74  75
ATOM     75  C   UNL A   1      31.093  26.633  24.293  1.00  0.00     0.202 C 
BRANCH  75  76
ATOM     76  C   UNL A   1      30.219  27.260  23.200  1.00  0.00     0.261 C 
BRANCH  76  77
ATOM     77  O   UNL A   1      29.766  28.579  23.492  1.00  0.00    -0.459 OA
BRANCH  77  78
ATOM     78  C   UNL A   1      29.763  29.447  22.436  1.00  0.00     0.364 C 
ATOM     79  O   UNL A   1      30.773  29.907  21.914  1.00  0.00    -0.245 OA
BRANCH  78  80
ATOM     80  C   UNL A   1      28.330  29.725  21.941  1.00  0.00     0.294 C 
ATOM     81  C   UNL A   1      27.248  29.712  23.003  1.00  0.00     0.084 C 
ATOM     82  N   UNL A   1      28.230  31.107  21.413  1.00  0.00    -0.327 N 
ATOM     83  C   UNL A   1      27.438  31.050  23.696  1.00  0.00     0.078 C 
ATOM     84  C   UNL A   1      27.932  31.981  22.583  1.00  0.00     0.251 C 
ATOM     85  H   UNL A   1      27.479  31.169  20.725  1.00  0.00     0.347 HD
ATOM     86  H   UNL A   1      29.093  31.390  20.948  1.00  0.00     0.347 HD
BRANCH  84  87
ATOM     87  C   UNL A   1      29.121  32.841  23.040  1.00  0.00     0.399 C 
ATOM     88  F   UNL A   1      28.722  34.129  23.208  1.00  0.00    -0.204 F 
ATOM     89  F   UNL A   1      29.578  32.430  24.255  1.00  0.00    -0.204 F 
ENDBRANCH  84  87
ENDBRANCH  78  80
ENDBRANCH  77  78
ENDBRANCH  76  77
ENDBRANCH  75  76
ENDBRANCH  74  75
ENDBRANCH  73  74
ENDBRANCH   1  73
TORSDOF 21
ENDMDL
